data_PCOD9069268
_publ_section_title
;
Structure prediction by ZEFSAII (Michael W. Deem and Ramdas Pophale) SiO2 
 PCOD9069268
Probable space group: P -1
;
_chemical_formula_sum "Si O2"
_cell_formula_units_Z 14
_cell_length_a 13.626433
_cell_length_b 11.362347
_cell_length_c 12.457403
_cell_angle_alpha 113.064008
_cell_angle_beta 114.724925
_cell_angle_gamma 22.117562
_cell_volume 659.568924
_symmetry_space_group_name_H-M "P -1"
_symmetry_group_IT_number 2
_symmetry_cell_setting 'triclinic'
loop_
_space_group_symop_operation_xyz
x,y,z
-x,-y,-z
loop_
_atom_site_type_symbol
_atom_site_label
_atom_site_fract_x
_atom_site_fract_y
_atom_site_fract_z
Si Si1 0.856605 0.939880 0.122455
Si Si2 0.142423 0.119403 0.127125
Si Si3 0.935621 0.088463 0.374746
Si Si4 0.571185 0.792537 0.893800
Si Si5 0.652145 0.165753 0.637209
Si Si6 0.703914 0.836623 0.453734
Si Si7 0.406924 0.168236 0.810539
O O1 0.120536 0.566930 0.107805
O O2 0.912498 0.986332 0.253823
O O3 0.597168 0.141724 0.112427
O O4 0.827154 0.010383 0.007356
O O5 0.835932 0.494676 0.125504
O O6 0.243044 0.973216 0.240884
O O7 0.322787 0.044095 0.143416
O O8 0.650296 0.462643 0.364837
O O9 0.000000 0.000000 0.500000
O O10 0.161819 0.929017 0.365620
O O11 0.451699 0.971376 0.792058
O O12 0.500000 0.000000 0.000000
O O13 0.659181 0.036699 0.513837
O O14 0.681368 0.757719 0.322183
O O15 0.000000 0.500000 0.500000
O O16 0.500000 0.000000 0.500000
#
# Coordination Sequence:
#
# PCOD9069268 Si02
#       7
#     2   2   2   2   2   2   2
#     4  12  26  45  67  99 136 181 227 275 327 395
#     4  12  23  43  69 101 137 169 224 276 330 407
#     4  12  30  50  68  95 133 180 234 276 322 400
#     4  12  23  41  68 102 137 174 216 269 348 393
#     4  12  26  47  71  98 133 179 224 276 336 389
#     4  12  23  41  68 105 137 172 215 270 346 398
#     4  12  23  38  65 106 141 171 210 276 337 408
#
# _framework density 21.225985000000001
#
# number of rings (size 3 to 8) (size 9 to 14) (size 15 to 20)
#    0.000    0.000    5.714    4.286    4.000    1.143 
#    0.000    0.000    0.000    0.000    0.000    0.000 
#    0.000    0.000    0.000    0.000    0.000    0.000 
#
# Total GULP energy -78019.133001 kJ/mol
# GULP energy per Si atom -5572.795214 kJ/mol
# Density = 2.117767 g / cm^3
# Si number density = 21.225985 Si / 1000 Ang^3
#
#
#
# Elastic Constant Matrix: (Units=GPa)
#
#
# Indices 1 2 3 4 5 6 
#
# 1 64.4381 -22.7509 20.3733 -9.4401 -0.9724 -17.3473
# 2 -22.7509 94.1478 -2.7004 -2.4864 -2.5880 -10.9519
# 3 20.3733 -2.7004 109.6519 15.7847 12.7321 -0.5237
# 4 -9.4401 -2.4864 15.7847 26.4318 5.2055 5.0093
# 5 -0.9724 -2.5880 12.7321 5.2055 43.4089 -0.7143
# 6 -17.3473 -10.9519 -0.5237 5.0093 -0.7143 35.6883
#
#
#
# Elastic Compliance Matrix: (Units=1/GPa)
#
#
# Indices 1 2 3 4 5 6 
#
# 1 0.025376 0.007819 -0.006201 0.010650 0.001793 0.013184
# 2 0.007819 0.013451 -0.001719 0.003439 0.001191 0.007444
# 3 -0.006201 -0.001719 0.011748 -0.008433 -0.002713 -0.002240
# 4 0.010650 0.003439 -0.008433 0.047671 -0.002810 -0.000639
# 5 0.001793 0.001191 -0.002713 -0.002810 0.024315 0.002079
# 6 0.013184 0.007444 -0.002240 -0.000639 0.002079 0.036812
#
#
# Mechanical properties :
#
#
# Convention : Reuss Voigt Hill
#
# Bulk Modulus (GPa) = 19.85209 28.67574 24.26392
# Shear Modulus (GPa) = 28.35008 39.32685 33.83846
#
# Velocity S-wave (km/s) = 3.65859 4.30905 3.99707
# Velocity P-wave (km/s) = 5.21729 6.18840 5.72348
#
# Compressibility (1/GPa) = 0.05037252
#
# Stress axis : x y z
#
# Youngs Moduli (GPa) = 39.40693 74.34290 85.12260
#
# Poissons Ratio (x) = -0.58126 0.52781
# Poissons Ratio (y) = -0.30811 0.14635
# Poissons Ratio (z) = 0.24435 0.12782
#
# Static dielectric constant tensor:
#      x y z
#    x 2.257960 0.228490 -0.178750 
#    y 0.228490 1.812050 -0.025890 
#    z -0.178750 -0.025890 1.517090 
# 
# From -- ./inp_files/434397.got.cif
#   From: 2010.05.17/outbox.cif.g08.bks.cpg/sg2_218_cif.got.tgz:434397.got - 2010.06.03 11:33:40.
