data_PCOD9069527
_publ_section_title
;
Structure prediction by ZEFSAII (Michael W. Deem and Ramdas Pophale) SiO2 
 PCOD9069527
Probable space group: P -1
;
_chemical_formula_sum "Si O2"
_cell_formula_units_Z 12
_cell_length_a 17.865552
_cell_length_b 5.404063
_cell_length_c 7.885684
_cell_angle_alpha 119.069044
_cell_angle_beta 136.511108
_cell_angle_gamma 57.119915
_cell_volume 434.417543
_symmetry_space_group_name_H-M "P -1"
_symmetry_group_IT_number 2
_symmetry_cell_setting 'triclinic'
loop_
_space_group_symop_operation_xyz
x,y,z
-x,-y,-z
loop_
_atom_site_type_symbol
_atom_site_label
_atom_site_fract_x
_atom_site_fract_y
_atom_site_fract_z
Si Si1 0.103615 0.706131 0.099420
Si Si2 0.308944 0.034998 0.105590
Si Si3 0.654496 0.440915 0.753608
Si Si4 0.605771 0.114492 0.250734
Si Si5 0.056628 0.254715 0.656748
Si Si6 0.281743 0.434842 0.544128
O O1 0.052438 0.444651 0.883309
O O2 0.209565 0.679081 0.128971
O O3 0.160508 0.665386 0.363825
O O4 0.000000 0.000000 0.000000
O O5 0.382235 0.203236 0.183738
O O6 0.299426 0.215417 0.331988
O O7 0.351595 0.701079 0.124109
O O8 0.193813 0.098315 0.829358
O O9 0.591244 0.313097 0.464640
O O10 0.637015 0.351972 0.255546
O O11 0.704966 0.799335 0.359820
O O12 0.500000 0.000000 0.000000
O O13 0.000000 0.500000 0.500000
O O14 0.000000 0.000000 0.500000
#
# Coordination Sequence:
#
# PCOD9069527 Si02
#       6
#     2   2   2   2   2   2
#     4   9  18  32  47  63  89 128 155 173 213 271
#     4   8  14  26  38  51  78 108 130 167 211 246
#     4   8  15  26  38  58  80 108 142 173 204 255
#     4   9  14  23  38  56  81 111 136 171 221 262
#     4  10  18  29  43  62  84 112 150 191 218 241
#     4   8  16  26  37  58  81 109 143 175 207 259
#
# _framework density 27.623194000000002
#
# number of rings (size 3 to 8) (size 9 to 14) (size 15 to 20)
#    0.000    4.000    0.000    2.500    0.000    2.667 
#    0.000   30.000    0.000    0.000    0.000    0.000 
#    0.000    0.000    0.000  849.000    0.000    0.000 
#
# Total GULP energy -67029.341117 kJ/mol
# GULP energy per Si atom -5585.778426 kJ/mol
# Density = 2.756032 g / cm^3
# Si number density = 27.623194 Si / 1000 Ang^3
#
#
#
# Elastic Constant Matrix: (Units=GPa)
#
#
# Indices 1 2 3 4 5 6 
#
# 1 112.1609 44.2577 52.3043 9.6198 2.2254 23.0327
# 2 44.2577 156.7808 54.1082 6.5016 4.5537 60.1248
# 3 52.3043 54.1082 166.1543 32.1614 30.5385 25.7814
# 4 9.6198 6.5016 32.1614 70.2466 12.1044 5.6103
# 5 2.2254 4.5537 30.5385 12.1044 46.3547 7.9725
# 6 23.0327 60.1248 25.7814 5.6103 7.9725 59.3901
#
#
#
# Elastic Compliance Matrix: (Units=1/GPa)
#
#
# Indices 1 2 3 4 5 6 
#
# 1 0.011303 -0.001476 -0.003138 -0.000181 0.002023 -0.001782
# 2 -0.001476 0.011437 -0.002127 0.000607 0.001979 -0.010406
# 3 -0.003138 -0.002127 0.009082 -0.002702 -0.004979 0.000351
# 4 -0.000181 0.000607 -0.002702 0.015886 -0.002323 -0.000560
# 5 0.002023 0.001979 -0.004979 -0.002323 0.025834 -0.003876
# 6 -0.001782 -0.010406 0.000351 -0.000560 -0.003876 0.028485
#
#
# Mechanical properties :
#
#
# Convention : Reuss Voigt Hill
#
# Bulk Modulus (GPa) = 54.52030 81.82626 68.17328
# Shear Modulus (GPa) = 41.11143 54.16001 47.63572
#
# Velocity S-wave (km/s) = 3.86203 4.43275 4.15719
# Velocity P-wave (km/s) = 6.29817 7.47567 6.91204
#
# Compressibility (1/GPa) = 0.01834179
#
# Stress axis : x y z
#
# Youngs Moduli (GPa) = 88.47542 87.43745 110.10281
#
# Poissons Ratio (x) = 0.12902 0.34548
# Poissons Ratio (y) = 0.13055 0.23414
# Poissons Ratio (z) = 0.27762 0.18594
#
# Static dielectric constant tensor:
#      x y z
#    x -2.255470 1.017430 -2.802430 
#    y 1.017430 1.996320 0.661160 
#    z -2.802430 0.661160 0.452130 
# 
# From -- ./inp_files/340723.got.cif
#   From: 2010.05.17/outbox.cif.g08.bks.cpg/sg2_171_cif.got.tgz:340723.got - 2010.06.03 11:33:40.
