data_PCOD9069930
_publ_section_title
;
Structure prediction by ZEFSAII (Michael W. Deem and Ramdas Pophale) SiO2 
 PCOD9069930
Probable space group: P -1
;
_chemical_formula_sum "Si O2"
_cell_formula_units_Z 16
_cell_length_a 12.872288
_cell_length_b 8.601631
_cell_length_c 8.974278
_cell_angle_alpha 133.082336
_cell_angle_beta 76.135825
_cell_angle_gamma 105.471584
_cell_volume 697.110478
_symmetry_space_group_name_H-M "P -1"
_symmetry_group_IT_number 2
_symmetry_cell_setting 'triclinic'
loop_
_space_group_symop_operation_xyz
x,y,z
-x,-y,-z
loop_
_atom_site_type_symbol
_atom_site_label
_atom_site_fract_x
_atom_site_fract_y
_atom_site_fract_z
Si Si1 0.605838 0.383384 0.398735
Si Si2 0.210773 0.616162 0.429213
Si Si3 0.708861 0.124034 0.705319
Si Si4 0.280589 0.250848 0.985751
Si Si5 0.884688 0.405818 0.040160
Si Si6 0.516846 0.912558 0.102026
Si Si7 0.289654 0.340528 0.698423
Si Si8 0.096204 0.859150 0.841852
O O1 0.500000 0.500000 0.500000
O O2 0.708900 0.449698 0.513448
O O3 0.568072 0.140007 0.305186
O O4 0.651489 0.441540 0.255459
O O5 0.267097 0.805387 0.426520
O O6 0.105426 0.694082 0.591825
O O7 0.205678 0.416947 0.186209
O O8 0.593050 0.174828 0.833405
O O9 0.698396 0.865279 0.540708
O O10 0.805514 0.250162 0.854367
O O11 0.315177 0.303296 0.837665
O O12 0.393090 0.244269 0.029055
O O13 0.205850 0.024048 0.884310
O O14 0.832828 0.619684 0.230681
O O15 0.894080 0.274701 0.100663
O O16 0.000000 0.500000 0.000000
O O17 0.500000 0.000000 0.000000
O O18 0.000000 0.000000 0.000000
#
# Coordination Sequence:
#
# PCOD9069930 Si02
#       8
#     2   2   2   2   2   2   2   2
#     4  12  24  43  72 110 155 197 248 298 367 440
#     4  12  27  47  72 111 150 195 252 304 370 443
#     4  12  27  47  76 108 149 198 251 300 377 446
#     4  12  26  47  75 108 155 195 247 303 370 445
#     4  12  28  51  75 108 143 186 250 315 377 445
#     4  12  25  44  73 110 154 202 245 300 371 446
#     4  12  24  47  73 108 151 193 245 307 364 443
#     4  12  27  51  77 106 146 195 250 312 373 444
#
# _framework density 22.951885000000001
#
# number of rings (size 3 to 8) (size 9 to 14) (size 15 to 20)
#    0.000    0.000    6.250    3.000    3.500    2.500 
#    0.000    0.000    0.000    0.000    0.000    0.000 
#    0.000    0.000    0.000    0.000    0.000    0.000 
#
# Total GULP energy -89339.887486 kJ/mol
# GULP energy per Si atom -5583.742968 kJ/mol
# Density = 2.289965 g / cm^3
# Si number density = 22.951885 Si / 1000 Ang^3
#
#
#
# Elastic Constant Matrix: (Units=GPa)
#
#
# Indices 1 2 3 4 5 6 
#
# 1 105.7676 27.2964 32.6117 -12.6051 -34.9688 9.8224
# 2 27.2964 116.4335 18.5737 -28.0967 5.5325 6.5592
# 3 32.6117 18.5737 100.8108 -2.0518 -22.9148 11.3681
# 4 -12.6051 -28.0967 -2.0518 49.5326 -0.8584 -4.1805
# 5 -34.9688 5.5325 -22.9148 -0.8584 41.9372 2.9406
# 6 9.8224 6.5592 11.3681 -4.1805 2.9406 45.4099
#
#
#
# Elastic Compliance Matrix: (Units=1/GPa)
#
#
# Indices 1 2 3 4 5 6 
#
# 1 0.015527 -0.003463 -0.000991 0.001896 0.013131 -0.003286
# 2 -0.003463 0.011271 -0.002149 0.005371 -0.005474 0.000508
# 3 -0.000991 -0.002149 0.012428 -0.001106 0.006443 -0.003106
# 4 0.001896 0.005371 -0.001106 0.023788 0.000668 0.001238
# 5 0.013131 -0.005474 0.006443 0.000668 0.039483 -0.006158
# 6 -0.003286 0.000508 -0.003106 0.001238 -0.006158 0.023949
#
#
# Mechanical properties :
#
#
# Convention : Reuss Voigt Hill
#
# Bulk Modulus (GPa) = 38.43119 53.33062 45.88090
# Shear Modulus (GPa) = 33.70988 43.67794 38.69391
#
# Velocity S-wave (km/s) = 3.83654 4.36710 4.11039
# Velocity P-wave (km/s) = 6.03374 6.97961 6.52384
#
# Compressibility (1/GPa) = 0.02602053
#
# Stress axis : x y z
#
# Youngs Moduli (GPa) = 64.40570 88.72464 80.46202
#
# Poissons Ratio (x) = 0.30728 0.07971
# Poissons Ratio (y) = 0.22306 0.17287
# Poissons Ratio (z) = 0.06381 0.19063
#
# Static dielectric constant tensor:
#      x y z
#    x 1.876840 -0.062980 0.101810 
#    y -0.062980 1.688620 0.229130 
#    z 0.101810 0.229130 1.812440 
# 
# From -- ./inp_files/245876.got.cif
#   From: 2010.05.17/outbox.cif.g08.bks.cpg/sg2_123_cif.got.tgz:245876.got - 2010.06.03 11:33:40.
