data_PCOD9069036
_publ_section_title
;
Structure prediction by ZEFSAII (Michael W. Deem and Ramdas Pophale) SiO2 
 PCOD9069036
Probable space group: P -1
;
_chemical_formula_sum "Si O2"
_cell_formula_units_Z 14
_cell_length_a 11.411942
_cell_length_b 10.875650
_cell_length_c 8.953762
_cell_angle_alpha 136.455112
_cell_angle_beta 116.209653
_cell_angle_gamma 90.146765
_cell_volume 585.827825
_symmetry_space_group_name_H-M "P -1"
_symmetry_group_IT_number 2
_symmetry_cell_setting 'triclinic'
loop_
_space_group_symop_operation_xyz
x,y,z
-x,-y,-z
loop_
_atom_site_type_symbol
_atom_site_label
_atom_site_fract_x
_atom_site_fract_y
_atom_site_fract_z
Si Si1 0.516345 0.810086 0.941959
Si Si2 0.101695 0.219584 0.502526
Si Si3 0.394853 0.863921 0.457216
Si Si4 0.396673 0.465917 0.061324
Si Si5 0.198756 0.417944 0.413563
Si Si6 0.869595 0.177514 0.914197
Si Si7 0.230253 0.020474 0.997884
O O1 0.567225 0.657725 0.907967
O O2 0.564914 0.984394 0.248601
O O3 0.618052 0.917146 0.949602
O O4 0.338449 0.648885 0.667153
O O5 0.217443 0.338771 0.806009
O O6 0.165640 0.377047 0.535893
O O7 0.920166 0.121351 0.314423
O O8 0.122048 0.023378 0.307966
O O9 0.225695 0.779963 0.221921
O O10 0.500000 0.000000 0.500000
O O11 0.430926 0.682916 0.338145
O O12 0.500000 0.500000 0.000000
O O13 0.042326 0.366074 0.201303
O O14 0.229703 0.233381 0.221105
O O15 0.793331 0.105769 0.972900
#
# Coordination Sequence:
#
# PCOD9069036 Si02
#       7
#     2   2   2   2   2   2   2
#     4  12  23  41  70 102 131 168 215 275 327 374
#     4   9  16  38  65  95 124 177 219 259 311 391
#     4  12  24  41  70  98 127 173 222 268 315 388
#     4  12  22  40  70  95 127 169 225 263 319 390
#     4   9  18  37  68  96 127 176 218 256 319 390
#     4   9  19  41  70  96 128 170 225 260 314 394
#     4   9  21  37  69  98 135 172 212 268 334 376
#
# _framework density 23.897807
#
# number of rings (size 3 to 8) (size 9 to 14) (size 15 to 20)
#    0.000    1.714    4.286    2.143    2.000    0.571 
#    0.000    7.857    6.286    0.000    0.000    0.000 
#    0.000    0.000    0.000    0.000    0.000    0.000 
#
# Total GULP energy -78462.439195 kJ/mol
# GULP energy per Si atom -5604.459943 kJ/mol
# Density = 2.384341 g / cm^3
# Si number density = 23.897807 Si / 1000 Ang^3
#
#
#
# Elastic Constant Matrix: (Units=GPa)
#
#
# Indices 1 2 3 4 5 6 
#
# 1 114.2846 51.9937 82.8457 0.3446 23.8714 3.7448
# 2 51.9937 85.5265 58.8343 13.2109 5.6263 -16.4928
# 3 82.8457 58.8343 160.3294 11.5489 20.6953 0.5359
# 4 0.3446 13.2109 11.5489 30.0809 -8.5835 -0.4865
# 5 23.8714 5.6263 20.6953 -8.5835 45.7919 4.0490
# 6 3.7448 -16.4928 0.5359 -0.4865 4.0490 37.5045
#
#
#
# Elastic Compliance Matrix: (Units=1/GPa)
#
#
# Indices 1 2 3 4 5 6 
#
# 1 0.017756 -0.007944 -0.005988 0.004264 -0.004363 -0.004655
# 2 -0.007944 0.022177 -0.003577 -0.007928 0.000625 0.010426
# 3 -0.005988 -0.003577 0.011136 -0.003219 -0.001990 -0.000961
# 4 0.004264 -0.007928 -0.003219 0.040158 0.008106 -0.004220
# 5 -0.004363 0.000625 -0.001990 0.008106 0.026634 -0.002031
# 6 -0.004655 0.010426 -0.000961 -0.004220 -0.002031 0.031892
#
#
# Mechanical properties :
#
#
# Convention : Reuss Voigt Hill
#
# Bulk Modulus (GPa) = 62.30851 83.05419 72.68135
# Shear Modulus (GPa) = 26.29883 33.77326 30.03604
#
# Velocity S-wave (km/s) = 3.32093 3.76338 3.54906
# Velocity P-wave (km/s) = 6.39017 7.32894 6.87560
#
# Compressibility (1/GPa) = 0.01604917
#
# Stress axis : x y z
#
# Youngs Moduli (GPa) = 56.31811 45.09183 89.79757
#
# Poissons Ratio (x) = 0.35823 0.53773
# Poissons Ratio (y) = 0.44742 0.32125
# Poissons Ratio (z) = 0.33724 0.16132
#
# Static dielectric constant tensor:
#      x y z
#    x 1.940890 -0.023430 0.006970 
#    y -0.023430 1.898340 0.006060 
#    z 0.006970 0.006060 1.917340 
# 
# From -- ./inp_files/261107.got.cif
#   From: 2010.05.17/outbox.cif.g08.bks.cpg/sg2_131_cif.got.tgz:261107.got - 2010.06.03 11:33:40.
