data_PCOD9069246
_publ_section_title
;
Structure prediction by ZEFSAII (Michael W. Deem and Ramdas Pophale) SiO2 
 PCOD9069246
Probable space group: P -1
;
_chemical_formula_sum "Si O2"
_cell_formula_units_Z 16
_cell_length_a 15.373593
_cell_length_b 9.371206
_cell_length_c 9.095962
_cell_angle_alpha 78.075121
_cell_angle_beta 37.486926
_cell_angle_gamma 72.137177
_cell_volume 757.536641
_symmetry_space_group_name_H-M "P -1"
_symmetry_group_IT_number 2
_symmetry_cell_setting 'triclinic'
loop_
_space_group_symop_operation_xyz
x,y,z
-x,-y,-z
loop_
_atom_site_type_symbol
_atom_site_label
_atom_site_fract_x
_atom_site_fract_y
_atom_site_fract_z
Si Si1 0.326235 0.772211 0.929045
Si Si2 0.503985 0.925125 0.848439
Si Si3 0.886695 0.140604 0.195426
Si Si4 0.952295 0.442129 0.923543
Si Si5 0.803388 0.728299 0.574534
Si Si6 0.306814 0.434722 0.969108
Si Si7 0.551851 0.189143 0.552705
Si Si8 0.001013 0.037458 0.659575
O O1 0.388485 0.826730 0.984249
O O2 0.314662 0.599990 0.977985
O O3 0.431393 0.792105 0.647675
O O4 0.165123 0.878374 0.092616
O O5 0.665424 0.815205 0.644896
O O6 0.477699 0.058501 0.735930
O O7 0.500000 0.000000 0.000000
O O8 0.717157 0.141189 0.404434
O O9 0.935974 0.115579 0.303086
O O10 0.907928 0.289295 0.059302
O O11 0.000000 0.000000 0.000000
O O12 0.087563 0.398970 0.638330
O O13 0.814893 0.545554 0.000843
O O14 0.000000 0.500000 0.000000
O O15 0.894390 0.849534 0.473751
O O16 0.742025 0.657136 0.812432
O O17 0.460756 0.342264 0.715774
O O18 0.000000 0.000000 0.500000
#
# Coordination Sequence:
#
# PCOD9069246 Si02
#       8
#     2   2   2   2   2   2   2   2
#     4  12  27  46  73 105 143 186 235 296 354 422
#     4  12  26  48  70 108 140 183 239 292 357 416
#     4  12  22  48  74 101 141 184 240 297 339 416
#     4  12  28  45  72 106 142 187 240 288 355 421
#     4  12  25  49  71 101 150 184 235 299 347 424
#     4  12  27  47  71 104 147 189 232 287 366 429
#     4  12  24  46  75 102 144 183 236 295 354 422
#     4  12  26  44  78 106 139 187 243 292 356 415
#
# _framework density 21.121089999999999
#
# number of rings (size 3 to 8) (size 9 to 14) (size 15 to 20)
#    0.000    0.000    7.500    1.875    3.500    0.500 
#    0.000    0.000    0.000    0.000    0.000    0.000 
#    0.000    0.000    0.000    0.000    0.000    0.000 
#
# Total GULP energy -89529.847311 kJ/mol
# GULP energy per Si atom -5595.615457 kJ/mol
# Density = 2.107302 g / cm^3
# Si number density = 21.121090 Si / 1000 Ang^3
#
#
#
# Elastic Constant Matrix: (Units=GPa)
#
#
# Indices 1 2 3 4 5 6 
#
# 1 106.4780 15.8400 16.5925 11.1282 -4.5213 4.9555
# 2 15.8400 57.7176 18.3273 2.8439 -3.7689 -10.7292
# 3 16.5925 18.3273 86.5222 10.1372 5.8140 -3.0449
# 4 11.1282 2.8439 10.1372 38.6692 -14.2659 -1.8953
# 5 -4.5213 -3.7689 5.8140 -14.2659 41.4638 -4.0256
# 6 4.9555 -10.7292 -3.0449 -1.8953 -4.0256 34.3465
#
#
#
# Elastic Compliance Matrix: (Units=1/GPa)
#
#
# Indices 1 2 3 4 5 6 
#
# 1 0.010393 -0.002855 -0.001161 -0.002657 -0.000135 -0.002657
# 2 -0.002855 0.020860 -0.004095 0.002015 0.003541 0.007091
# 3 -0.001161 -0.004095 0.013402 -0.004362 -0.003940 -0.000626
# 4 -0.002657 0.002015 -0.004362 0.032219 0.011960 0.003806
# 5 -0.000135 0.003541 -0.003940 0.011960 0.029568 0.004902
# 6 -0.002657 0.007091 -0.000626 0.003806 0.004902 0.032443
#
#
# Mechanical properties :
#
#
# Convention : Reuss Voigt Hill
#
# Bulk Modulus (GPa) = 35.17383 39.13749 37.15566
# Shear Modulus (GPa) = 30.37950 36.22645 33.30297
#
# Velocity S-wave (km/s) = 3.79667 4.14597 3.97516
# Velocity P-wave (km/s) = 5.99243 6.44119 6.22086
#
# Compressibility (1/GPa) = 0.02843023
#
# Stress axis : x y z
#
# Youngs Moduli (GPa) = 96.21957 47.93883 74.61731
#
# Poissons Ratio (x) = 0.13688 0.08666
# Poissons Ratio (y) = 0.27473 0.30559
# Poissons Ratio (z) = 0.11175 0.19633
#
# Static dielectric constant tensor:
#      x y z
#    x 1.800910 0.015480 -0.017270 
#    y 0.015480 1.764040 -0.023030 
#    z -0.017270 -0.023030 1.831670 
# 
# From -- ./inp_files/208963.got.cif
#   From: 2010.05.17/outbox.cif.g08.bks.cpg/sg2_105_cif.got.tgz:208963.got - 2010.06.03 11:33:40.
