data_PCOD9069479
_publ_section_title
;
Structure prediction by ZEFSAII (Michael W. Deem and Ramdas Pophale) SiO2 
 PCOD9069479
Probable space group: P -1
;
_chemical_formula_sum "Si O2"
_cell_formula_units_Z 16
_cell_length_a 9.265369
_cell_length_b 15.064332
_cell_length_c 5.580936
_cell_angle_alpha 101.387794
_cell_angle_beta 59.578836
_cell_angle_gamma 110.408406
_cell_volume 629.351214
_symmetry_space_group_name_H-M "P -1"
_symmetry_group_IT_number 2
_symmetry_cell_setting 'triclinic'
loop_
_space_group_symop_operation_xyz
x,y,z
-x,-y,-z
loop_
_atom_site_type_symbol
_atom_site_label
_atom_site_fract_x
_atom_site_fract_y
_atom_site_fract_z
Si Si1 0.197103 0.720481 0.256526
Si Si2 0.121523 0.938480 0.767680
Si Si3 0.621429 0.095953 0.069452
Si Si4 0.550084 0.742354 0.189110
Si Si5 0.894761 0.487976 0.837394
Si Si6 0.278904 0.118594 0.519745
Si Si7 0.127978 0.235846 0.371527
Si Si8 0.423951 0.447990 0.784694
O O1 0.354650 0.749776 0.332159
O O2 0.226193 0.621391 0.101668
O O3 0.986825 0.693301 0.451912
O O4 0.233905 0.818417 0.133038
O O5 0.278792 0.932681 0.804529
O O6 0.999811 0.835933 0.746521
O O7 0.204302 0.005473 0.509275
O O8 0.000000 0.000000 0.000000
O O9 0.471035 0.147988 0.261666
O O10 0.500000 0.000000 0.000000
O O11 0.670693 0.843377 0.235343
O O12 0.543422 0.653987 0.316063
O O13 0.672958 0.722276 0.862294
O O14 0.000000 0.500000 0.500000
O O15 0.778715 0.559042 0.008929
O O16 0.000000 0.500000 0.000000
O O17 0.151186 0.170605 0.538580
O O18 0.500000 0.500000 0.500000
O O19 0.500000 0.500000 0.000000
#
# Coordination Sequence:
#
# PCOD9069479 Si02
#       8
#     2   2   2   2   2   2   2   2
#     4  12  27  49  79 111 155 205 252 327 396 468
#     4  12  23  44  68 105 154 199 251 317 381 454
#     4  12  25  45  75 111 153 201 259 313 389 474
#     4  12  27  49  77 112 150 196 260 320 391 476
#     4  12  29  53  82 120 161 208 273 334 406 486
#     4  12  25  44  74 105 152 200 254 314 380 467
#     4  12  26  47  73 111 152 199 261 312 388 465
#     4  12  28  51  82 115 158 207 258 330 408 479
#
# _framework density 25.423006000000001
#
# number of rings (size 3 to 8) (size 9 to 14) (size 15 to 20)
#    0.000    0.000    3.750    6.000    5.250    1.000 
#    0.000    0.000    0.000    0.000    0.000    0.000 
#    0.000    0.000    0.000    0.000    0.000    0.000 
#
# Total GULP energy -89267.757387 kJ/mol
# GULP energy per Si atom -5579.234837 kJ/mol
# Density = 2.536514 g / cm^3
# Si number density = 25.423006 Si / 1000 Ang^3
#
#
#
# Elastic Constant Matrix: (Units=GPa)
#
#
# Indices 1 2 3 4 5 6 
#
# 1 179.5649 5.4567 25.5854 2.0820 -1.3146 -32.4703
# 2 5.4567 103.1420 -0.7532 -17.7309 10.5544 -12.4003
# 3 25.5854 -0.7532 93.9499 -14.7432 -19.5560 -9.6572
# 4 2.0820 -17.7309 -14.7432 36.3964 -2.6542 3.8649
# 5 -1.3146 10.5544 -19.5560 -2.6542 46.6613 13.7807
# 6 -32.4703 -12.4003 -9.6572 3.8649 13.7807 55.5418
#
#
#
# Elastic Compliance Matrix: (Units=1/GPa)
#
#
# Indices 1 2 3 4 5 6 
#
# 1 0.006619 0.000031 -0.002077 -0.001792 -0.002016 0.004140
# 2 0.000031 0.011244 0.000605 0.005195 -0.002875 0.002985
# 3 -0.002077 0.000605 0.013384 0.006343 0.005974 -0.000676
# 4 -0.001792 0.005195 0.006343 0.033184 0.003932 -0.002070
# 5 -0.002016 -0.002875 0.005974 0.003932 0.027045 -0.007765
# 6 0.004140 0.002985 -0.000676 -0.002070 -0.007765 0.023044
#
#
# Mechanical properties :
#
#
# Convention : Reuss Voigt Hill
#
# Bulk Modulus (GPa) = 35.25580 48.58162 41.91871
# Shear Modulus (GPa) = 39.41402 50.81109 45.11256
#
# Velocity S-wave (km/s) = 3.94169 4.47545 4.21702
# Velocity P-wave (km/s) = 5.88334 6.77178 6.34313
#
# Compressibility (1/GPa) = 0.02836413
#
# Stress axis : x y z
#
# Youngs Moduli (GPa) = 151.08720 88.93411 74.71611
#
# Poissons Ratio (x) = -0.00272 0.15522
# Poissons Ratio (y) = -0.00463 -0.04523
# Poissons Ratio (z) = 0.31387 -0.05384
#
# Static dielectric constant tensor:
#      x y z
#    x -0.531070 0.236390 -1.193390 
#    y 0.236390 1.952940 0.062170 
#    z -1.193390 0.062170 1.915360 
# 
# From -- ./inp_files/38522.got.cif
#   From: 2010.05.17/outbox.cif.g08.bks.cpg/sg2_20_cif.got.tgz:38522.got - 2010.06.03 11:33:40.
