data_PCOD9069831
_publ_section_title
;
Structure prediction by ZEFSAII (Michael W. Deem and Ramdas Pophale) SiO2 
 PCOD9069831
Probable space group: P -1
;
_chemical_formula_sum "Si O2"
_cell_formula_units_Z 16
_cell_length_a 8.117473
_cell_length_b 20.089454
_cell_length_c 7.972889
_cell_angle_alpha 141.847423
_cell_angle_beta 118.870669
_cell_angle_gamma 53.280119
_cell_volume 643.607899
_symmetry_space_group_name_H-M "P -1"
_symmetry_group_IT_number 2
_symmetry_cell_setting 'triclinic'
loop_
_space_group_symop_operation_xyz
x,y,z
-x,-y,-z
loop_
_atom_site_type_symbol
_atom_site_label
_atom_site_fract_x
_atom_site_fract_y
_atom_site_fract_z
Si Si1 0.353508 0.628713 0.626338
Si Si2 0.967604 0.302576 0.968633
Si Si3 0.220034 0.961128 0.117349
Si Si4 0.982949 0.632831 0.252993
Si Si5 0.243913 0.840715 0.235498
Si Si6 0.377571 0.453741 0.718561
Si Si7 0.378579 0.141593 0.400959
Si Si8 0.626990 0.776012 0.781100
O O1 0.500000 0.500000 0.500000
O O2 0.122312 0.648600 0.502920
O O3 0.463618 0.623127 0.494282
O O4 0.358524 0.721536 0.947122
O O5 0.811982 0.431818 0.218028
O O6 0.199546 0.263352 0.068283
O O7 0.944532 0.332194 0.818831
O O8 0.899461 0.200928 0.800419
O O9 0.180359 0.933919 0.235850
O O10 0.303965 0.061356 0.321577
O O11 0.402977 0.850636 0.898992
O O12 0.000000 0.000000 0.000000
O O13 0.754079 0.727779 0.340208
O O14 0.000000 0.500000 0.000000
O O15 0.387211 0.879534 0.499470
O O16 0.322478 0.346933 0.539794
O O17 0.500000 0.500000 0.000000
O O18 0.338634 0.140454 0.179969
#
# Coordination Sequence:
#
# PCOD9069831 Si02
#       8
#     2   2   2   2   2   2   2   2
#     4  12  24  41  71 104 153 194 245 299 377 439
#     4  12  26  46  76 110 154 199 246 305 382 445
#     4  12  27  52  80 105 146 198 254 315 375 440
#     4  12  27  46  72 113 152 197 250 310 372 450
#     4  12  26  48  72 109 148 198 245 312 370 444
#     4  12  24  43  72 111 152 199 244 301 373 447
#     4  12  28  48  76 111 149 197 256 304 374 448
#     4  12  27  48  76 110 150 196 252 311 373 446
#
# _framework density 24.859856000000001
#
# number of rings (size 3 to 8) (size 9 to 14) (size 15 to 20)
#    0.000    0.000    3.750    6.375    1.750    0.000 
#    0.000    1.875    0.000    0.000    0.000    0.000 
#    0.000    0.000    0.000    0.000    0.000    0.000 
#
# Total GULP energy -89434.191583 kJ/mol
# GULP energy per Si atom -5589.636974 kJ/mol
# Density = 2.480327 g / cm^3
# Si number density = 24.859856 Si / 1000 Ang^3
#
#
#
# Elastic Constant Matrix: (Units=GPa)
#
#
# Indices 1 2 3 4 5 6 
#
# 1 111.7778 58.1563 24.4581 7.3516 14.2794 9.9131
# 2 58.1563 170.4221 52.9144 5.8790 17.6339 4.4025
# 3 24.4581 52.9144 93.7591 10.2105 17.7764 -0.7685
# 4 7.3516 5.8790 10.2105 36.8617 6.1306 5.8040
# 5 14.2794 17.6339 17.7764 6.1306 33.1853 1.7529
# 6 9.9131 4.4025 -0.7685 5.8040 1.7529 63.8483
#
#
#
# Elastic Compliance Matrix: (Units=1/GPa)
#
#
# Indices 1 2 3 4 5 6 
#
# 1 0.011322 -0.003385 -0.000463 -0.000945 -0.002578 -0.001373
# 2 -0.003385 0.008244 -0.003627 0.000561 -0.001079 -0.000108
# 3 -0.000463 -0.003627 0.014061 -0.002530 -0.004983 0.000858
# 4 -0.000945 0.000561 -0.002530 0.028938 -0.003753 -0.002450
# 5 -0.002578 -0.001079 -0.004983 -0.003753 0.035190 -0.000210
# 6 -0.001373 -0.000108 0.000858 -0.002450 -0.000210 0.016122
#
#
# Mechanical properties :
#
#
# Convention : Reuss Voigt Hill
#
# Bulk Modulus (GPa) = 53.54075 71.89075 62.71575
# Shear Modulus (GPa) = 37.02254 42.80774 39.91514
#
# Velocity S-wave (km/s) = 3.86327 4.15416 4.01135
# Velocity P-wave (km/s) = 6.44077 7.21045 6.83645
#
# Compressibility (1/GPa) = 0.01867736
#
# Stress axis : x y z
#
# Youngs Moduli (GPa) = 88.32294 121.29667 71.12008
#
# Poissons Ratio (x) = 0.41061 0.03290
# Poissons Ratio (y) = 0.29899 0.25796
# Poissons Ratio (z) = 0.04085 0.43996
#
# Static dielectric constant tensor:
#      x y z
#    x 2.209500 0.149200 -0.077540 
#    y 0.149200 1.985300 0.013500 
#    z -0.077540 0.013500 1.917620 
# 
# From -- ./inp_files/224270.got.cif
#   From: 2010.05.17/outbox.cif.g08.bks.cpg/sg2_113_cif.got.tgz:224270.got - 2010.06.03 11:33:40.
