data_PCOD9069746
_publ_section_title
;
Structure prediction by ZEFSAII (Michael W. Deem and Ramdas Pophale) SiO2 
 PCOD9069746
Probable space group: P -1
;
_chemical_formula_sum "Si O2"
_cell_formula_units_Z 14
_cell_length_a 15.339979
_cell_length_b 6.452794
_cell_length_c 7.806587
_cell_angle_alpha 85.138895
_cell_angle_beta 55.171604
_cell_angle_gamma 68.054048
_cell_volume 579.885131
_symmetry_space_group_name_H-M "P -1"
_symmetry_group_IT_number 2
_symmetry_cell_setting 'triclinic'
loop_
_space_group_symop_operation_xyz
x,y,z
-x,-y,-z
loop_
_atom_site_type_symbol
_atom_site_label
_atom_site_fract_x
_atom_site_fract_y
_atom_site_fract_z
Si Si1 0.590242 0.765738 0.344604
Si Si2 0.421708 0.945713 0.228155
Si Si3 0.226231 0.029132 0.880175
Si Si4 0.969470 0.692497 0.165011
Si Si5 0.680732 0.335638 0.472581
Si Si6 0.107945 0.833651 0.272967
Si Si7 0.792272 0.559899 0.548847
O O1 0.526957 0.768866 0.239411
O O2 0.593761 0.579354 0.489168
O O3 0.500000 0.000000 0.500000
O O4 0.711592 0.795234 0.185252
O O5 0.346340 0.793094 0.327575
O O6 0.321348 0.201758 0.355604
O O7 0.500000 0.000000 0.000000
O O8 0.310351 0.810881 0.696988
O O9 0.122676 0.106630 0.854003
O O10 0.183576 0.969449 0.111006
O O11 0.901102 0.623325 0.395040
O O12 0.061585 0.758920 0.156605
O O13 0.000000 0.500000 0.000000
O O14 0.787044 0.395916 0.411149
O O15 0.184698 0.600919 0.300825
O O16 0.000000 0.000000 0.500000
#
# Coordination Sequence:
#
# PCOD9069746 Si02
#       7
#     2   2   2   2   2   2   2
#     4  12  24  47  73 108 142 196 253 301 369 456
#     4  12  29  44  73 109 151 196 245 311 383 446
#     4  12  26  46  76 108 143 198 256 305 373 462
#     4  12  24  50  78 106 147 198 256 313 377 453
#     4  12  23  48  74  99 153 192 252 299 373 447
#     4  12  29  47  77 112 153 199 251 319 396 439
#     4  12  26  48  70 111 153 188 246 321 372 452
#
# _framework density 24.142710000000001
#
# number of rings (size 3 to 8) (size 9 to 14) (size 15 to 20)
#    0.000    0.000    5.714    3.857    4.000    0.571 
#    0.000    0.000    0.000    0.000    0.000    0.000 
#    0.000    0.000    0.000    0.000    0.000    0.000 
#
# Total GULP energy -78027.350921 kJ/mol
# GULP energy per Si atom -5573.382209 kJ/mol
# Density = 2.408776 g / cm^3
# Si number density = 24.142710 Si / 1000 Ang^3
#
#
#
# Elastic Constant Matrix: (Units=GPa)
#
#
# Indices 1 2 3 4 5 6 
#
# 1 91.1187 30.7674 -1.3499 -6.8392 -3.0130 -4.5340
# 2 30.7674 147.1295 45.1260 -24.5137 -3.9239 -10.6439
# 3 -1.3499 45.1260 108.9298 -31.4194 -20.1578 5.2980
# 4 -6.8392 -24.5137 -31.4194 52.8724 5.5159 6.1295
# 5 -3.0130 -3.9239 -20.1578 5.5159 22.1586 -15.2152
# 6 -4.5340 -10.6439 5.2980 6.1295 -15.2152 35.9683
#
#
#
# Elastic Compliance Matrix: (Units=1/GPa)
#
#
# Indices 1 2 3 4 5 6 
#
# 1 0.012300 -0.002861 0.002341 0.000941 0.004506 0.002105
# 2 -0.002861 0.008862 -0.003564 0.001476 -0.000970 0.002125
# 3 0.002341 -0.003564 0.014621 0.005883 0.012451 0.001351
# 4 0.000941 0.001476 0.005883 0.024476 -0.004833 -0.006527
# 5 0.004506 -0.000970 0.012451 -0.004833 0.081179 0.033611
# 6 0.002105 0.002125 0.001351 -0.006527 0.033611 0.043827
#
#
# Mechanical properties :
#
#
# Convention : Reuss Voigt Hill
#
# Bulk Modulus (GPa) = 36.21272 55.14057 45.67665
# Shear Modulus (GPa) = 24.67455 40.37551 32.52503
#
# Velocity S-wave (km/s) = 3.20039 4.09390 3.67440
# Velocity P-wave (km/s) = 5.35618 6.72575 6.07965
#
# Compressibility (1/GPa) = 0.02761460
#
# Stress axis : x y z
#
# Youngs Moduli (GPa) = 81.30278 112.84501 68.39485
#
# Poissons Ratio (x) = 0.32281 -0.16008
# Poissons Ratio (y) = 0.23258 0.24374
# Poissons Ratio (z) = -0.19029 0.40215
#
# Static dielectric constant tensor:
#      x y z
#    x 1.908020 0.004600 -0.001450 
#    y 0.004600 1.848790 -0.023770 
#    z -0.001450 -0.023770 2.043200 
# 
# From -- ./inp_files/46786.got.cif
#   From: 2010.05.17/outbox.cif.g08.bks.cpg/sg2_24_cif.got.tgz:46786.got - 2010.06.03 11:33:40.
