data_PCOD9069828
_publ_section_title
;
Structure prediction by ZEFSAII (Michael W. Deem and Ramdas Pophale) SiO2 
 PCOD9069828
Probable space group: P -1
;
_chemical_formula_sum "Si O2"
_cell_formula_units_Z 16
_cell_length_a 8.563535
_cell_length_b 15.725182
_cell_length_c 9.478530
_cell_angle_alpha 143.994079
_cell_angle_beta 97.329391
_cell_angle_gamma 74.264453
_cell_volume 712.668867
_symmetry_space_group_name_H-M "P -1"
_symmetry_group_IT_number 2
_symmetry_cell_setting 'triclinic'
loop_
_space_group_symop_operation_xyz
x,y,z
-x,-y,-z
loop_
_atom_site_type_symbol
_atom_site_label
_atom_site_fract_x
_atom_site_fract_y
_atom_site_fract_z
Si Si1 0.617169 0.337274 0.751543
Si Si2 0.308041 0.562299 0.600516
Si Si3 0.139926 0.597970 0.928817
Si Si4 0.141025 0.262536 0.524454
Si Si5 0.202180 0.788859 0.662512
Si Si6 0.405411 0.160674 0.640644
Si Si7 0.313891 0.080430 0.042446
Si Si8 0.226162 0.299801 0.072686
O O1 0.657347 0.315076 0.562186
O O2 0.527608 0.217034 0.630981
O O3 0.500000 0.500000 0.000000
O O4 0.784068 0.318889 0.832920
O O5 0.500000 0.500000 0.500000
O O6 0.260116 0.568428 0.766945
O O7 0.237456 0.726100 0.740329
O O8 0.223124 0.450627 0.359801
O O9 0.127913 0.438780 0.776829
O O10 0.958534 0.687990 0.978395
O O11 0.246531 0.167784 0.536681
O O12 0.967431 0.232537 0.440602
O O13 0.239920 0.209935 0.321186
O O14 0.213802 0.957458 0.875213
O O15 0.500000 0.000000 0.500000
O O16 0.340620 0.276852 0.917620
O O17 0.298145 0.158545 0.994116
O O18 0.500000 0.000000 0.000000
#
# Coordination Sequence:
#
# PCOD9069828 Si02
#       8
#     2   2   2   2   2   2   2   2
#     4  12  25  44  70 101 138 181 231 279 341 405
#     4  12  24  41  69 104 135 175 234 276 337 406
#     4  12  25  44  72 105 137 178 229 290 339 400
#     4  12  25  46  71 101 140 180 228 283 347 404
#     4  12  26  44  69 103 137 182 227 282 344 409
#     4  12  27  46  70 102 139 184 229 279 342 414
#     4  12  26  46  71 100 142 183 224 281 349 407
#     4  12  24  45  70 100 138 180 227 281 340 405
#
# _framework density 22.450821000000001
#
# number of rings (size 3 to 8) (size 9 to 14) (size 15 to 20)
#    0.000    0.000    3.750    7.500    0.000    3.000 
#    0.000    2.500    0.000    0.000    0.000    0.000 
#    0.000    0.000    0.000    0.000    0.000    0.000 
#
# Total GULP energy -89688.957025 kJ/mol
# GULP energy per Si atom -5605.559814 kJ/mol
# Density = 2.239972 g / cm^3
# Si number density = 22.450821 Si / 1000 Ang^3
#
#
#
# Elastic Constant Matrix: (Units=GPa)
#
#
# Indices 1 2 3 4 5 6 
#
# 1 96.2330 36.2616 -11.6416 9.1714 4.0965 -8.4300
# 2 36.2616 111.6811 -8.1792 1.3436 4.5581 -11.2448
# 3 -11.6416 -8.1792 34.8470 -8.5811 -8.1207 7.2076
# 4 9.1714 1.3436 -8.5811 30.4480 6.0576 -1.5252
# 5 4.0965 4.5581 -8.1207 6.0576 35.5019 -1.0073
# 6 -8.4300 -11.2448 7.2076 -1.5252 -1.0073 37.3321
#
#
#
# Elastic Compliance Matrix: (Units=1/GPa)
#
#
# Indices 1 2 3 4 5 6 
#
# 1 0.012450 -0.003726 0.002369 -0.002884 0.000107 0.001117
# 2 -0.003726 0.010466 0.000853 0.001181 -0.000858 0.002171
# 3 0.002369 0.000853 0.033997 0.007373 0.005985 -0.005309
# 4 -0.002884 0.001181 0.007373 0.036593 -0.004386 -0.000342
# 5 0.000107 -0.000858 0.005985 -0.004386 0.030361 -0.000750
# 6 0.001117 0.002171 -0.005309 -0.000342 -0.000750 0.028684
#
#
# Mechanical properties :
#
#
# Convention : Reuss Voigt Hill
#
# Bulk Modulus (GPa) = 17.88771 30.62697 24.25734
# Shear Modulus (GPa) = 29.03700 35.74442 32.39071
#
# Velocity S-wave (km/s) = 3.60023 3.99447 3.80246
# Velocity P-wave (km/s) = 5.02663 5.91150 5.48693
#
# Compressibility (1/GPa) = 0.05590430
#
# Stress axis : x y z
#
# Youngs Moduli (GPa) = 80.32038 95.54866 29.41442
#
# Poissons Ratio (x) = 0.35603 -0.06967
# Poissons Ratio (y) = 0.29929 -0.02510
# Poissons Ratio (z) = -0.19025 -0.08153
#
# Static dielectric constant tensor:
#      x y z
#    x 1.826270 -0.012530 -0.016930 
#    y -0.012530 1.795610 -0.000910 
#    z -0.016930 -0.000910 1.815400 
# 
# From -- ./inp_files/190680.got.cif
#   From: 2010.05.17/outbox.cif.g08.bks.cpg/sg2_96_cif.got.tgz:190680.got - 2010.06.03 11:33:40.
