data_PCOD9069617
_publ_section_title
;
Structure prediction by ZEFSAII (Michael W. Deem and Ramdas Pophale) SiO2 
 PCOD9069617
Probable space group: P -1
;
_chemical_formula_sum "Si O2"
_cell_formula_units_Z 14
_cell_length_a 8.900712
_cell_length_b 8.532009
_cell_length_c 9.430255
_cell_angle_alpha 126.453754
_cell_angle_beta 98.474829
_cell_angle_gamma 76.552755
_cell_volume 560.189118
_symmetry_space_group_name_H-M "P -1"
_symmetry_group_IT_number 2
_symmetry_cell_setting 'triclinic'
loop_
_space_group_symop_operation_xyz
x,y,z
-x,-y,-z
loop_
_atom_site_type_symbol
_atom_site_label
_atom_site_fract_x
_atom_site_fract_y
_atom_site_fract_z
Si Si1 0.640268 0.783683 0.271815
Si Si2 0.866460 0.092445 0.424331
Si Si3 0.423516 0.853568 0.009275
Si Si4 0.101029 0.979739 0.141895
Si Si5 0.926843 0.437072 0.095598
Si Si6 0.862045 0.526956 0.606539
Si Si7 0.415717 0.451296 0.607891
O O1 0.791661 0.611806 0.216625
O O2 0.542151 0.727000 0.364633
O O3 0.724158 0.975583 0.360977
O O4 0.538616 0.772941 0.111163
O O5 0.816449 0.327506 0.557827
O O6 0.000000 0.000000 0.500000
O O7 0.971729 0.075226 0.287357
O O8 0.391502 0.662631 0.807615
O O9 0.273302 0.999749 0.132271
O O10 0.500000 0.000000 0.000000
O O11 0.142709 0.749132 0.061826
O O12 0.000000 0.000000 0.000000
O O13 0.062227 0.381795 0.200656
O O14 0.000000 0.500000 0.000000
O O15 0.728110 0.614715 0.527973
O O16 0.000000 0.500000 0.500000
O O17 0.500000 0.500000 0.500000
#
# Coordination Sequence:
#
# PCOD9069617 Si02
#       7
#     2   2   2   2   2   2   2
#     4  12  25  48  73 104 148 189 246 297 368 431
#     4  12  24  44  71 105 139 183 242 301 355 424
#     4  12  28  49  71 105 150 193 242 300 363 442
#     4  12  25  44  72 103 138 188 240 291 359 429
#     4  12  24  42  75 107 136 187 242 297 358 432
#     4  12  23  46  70 103 147 183 242 302 359 421
#     4  12  28  46  71 104 144 193 239 300 368 432
#
# _framework density 24.991561999999998
#
# number of rings (size 3 to 8) (size 9 to 14) (size 15 to 20)
#    0.000    0.000    5.714    3.857    2.000    3.429 
#    0.000    2.143    0.000    0.000    0.000    0.000 
#    0.000    0.000    0.000    0.000    0.000    0.000 
#
# Total GULP energy -77995.791921 kJ/mol
# GULP energy per Si atom -5571.127994 kJ/mol
# Density = 2.493468 g / cm^3
# Si number density = 24.991562 Si / 1000 Ang^3
#
#
#
# Elastic Constant Matrix: (Units=GPa)
#
#
# Indices 1 2 3 4 5 6 
#
# 1 128.4451 32.4739 54.0751 -7.2783 -3.2777 27.9649
# 2 32.4739 129.6426 47.8535 -7.3244 9.5491 28.3843
# 3 54.0751 47.8535 119.9744 -26.6988 13.1824 2.8181
# 4 -7.2783 -7.3244 -26.6988 71.6708 6.5102 8.0399
# 5 -3.2777 9.5491 13.1824 6.5102 35.5396 -16.5896
# 6 27.9649 28.3843 2.8181 8.0399 -16.5896 54.1996
#
#
#
# Elastic Compliance Matrix: (Units=1/GPa)
#
#
# Indices 1 2 3 4 5 6 
#
# 1 0.011011 0.000250 -0.004995 -0.000132 0.000283 -0.005446
# 2 0.000250 0.011063 -0.003486 0.001199 -0.005412 -0.007575
# 3 -0.004995 -0.003486 0.013400 0.004349 -0.004506 0.001681
# 4 -0.000132 0.001199 0.004349 0.017019 -0.007712 -0.005671
# 5 0.000283 -0.005412 -0.004506 -0.007712 0.040368 0.016423
# 6 -0.005446 -0.007575 0.001681 -0.005671 0.016423 0.031008
#
#
# Mechanical properties :
#
#
# Convention : Reuss Voigt Hill
#
# Bulk Modulus (GPa) = 52.59882 71.87413 62.23648
# Shear Modulus (GPa) = 34.09093 48.52597 41.30845
#
# Velocity S-wave (km/s) = 3.69738 4.41125 4.06999
# Velocity P-wave (km/s) = 6.27055 7.40049 6.85883
#
# Compressibility (1/GPa) = 0.01901183
#
# Stress axis : x y z
#
# Youngs Moduli (GPa) = 90.82227 90.39516 74.62607
#
# Poissons Ratio (x) = -0.02257 0.37274
# Poissons Ratio (y) = -0.02268 0.26011
# Poissons Ratio (z) = 0.45364 0.31508
#
# Static dielectric constant tensor:
#      x y z
#    x 1.963020 -0.103530 -0.111250 
#    y -0.103530 1.824490 0.075010 
#    z -0.111250 0.075010 1.977050 
# 
# From -- ./inp_files/156873.got.cif
#   From: 2010.05.17/outbox.cif.g08.bks.cpg/sg2_79_cif.got.tgz:156873.got - 2010.06.03 11:33:40.
