data_PCOD9069027
_publ_section_title
;
Structure prediction by ZEFSAII (Michael W. Deem and Ramdas Pophale) SiO2 
 PCOD9069027
Probable space group: P -1
;
_chemical_formula_sum "Si O2"
_cell_formula_units_Z 12
_cell_length_a 14.010732
_cell_length_b 21.070751
_cell_length_c 13.732204
_cell_angle_alpha 24.248097
_cell_angle_beta 150.799550
_cell_angle_gamma 159.802666
_cell_volume 570.572559
_symmetry_space_group_name_H-M "P -1"
_symmetry_group_IT_number 2
_symmetry_cell_setting 'triclinic'
loop_
_space_group_symop_operation_xyz
x,y,z
-x,-y,-z
loop_
_atom_site_type_symbol
_atom_site_label
_atom_site_fract_x
_atom_site_fract_y
_atom_site_fract_z
Si Si1 0.163583 0.499368 0.065046
Si Si2 0.274124 0.744518 0.626171
Si Si3 0.325794 0.229436 0.185187
Si Si4 0.005246 0.943348 0.474895
Si Si5 0.725886 0.881181 0.129733
Si Si6 0.995510 0.668409 0.303125
O O1 0.023267 0.255503 0.269641
O O2 0.477120 0.664104 0.155426
O O3 0.171738 0.597809 0.834689
O O4 0.000000 0.500000 0.000000
O O5 0.429376 0.710302 0.740352
O O6 0.027012 0.676179 0.436279
O O7 0.500000 0.000000 0.500000
O O8 0.272755 0.150054 0.360967
O O9 0.030385 0.995885 0.203404
O O10 0.263942 0.376489 0.905027
O O11 0.750723 0.862826 0.292725
O O12 0.000000 0.000000 0.500000
O O13 0.743626 0.076255 0.855032
O O14 0.000000 0.500000 0.500000
#
# Coordination Sequence:
#
# PCOD9069027 Si02
#       6
#     2   2   2   2   2   2
#     4  12  24  40  62  92 129 169 212 258 318 383
#     4  12  22  40  67  91 122 169 216 259 316 377
#     4   8  22  41  66  88 129 159 214 265 309 368
#     4   9  21  42  62  88 123 164 211 252 318 377
#     4   8  21  41  62  88 131 160 212 258 317 370
#     4   9  21  40  61  96 128 158 208 264 319 370
#
# _framework density 21.031504999999999
#
# number of rings (size 3 to 8) (size 9 to 14) (size 15 to 20)
#    2.000    0.000    1.667    1.500    4.667    3.333 
#    3.000    0.833    0.000    0.000    0.000    0.000 
#    0.000    0.000    0.000    0.000    0.000    0.000 
#
# Total GULP energy -66856.606046 kJ/mol
# GULP energy per Si atom -5571.383837 kJ/mol
# Density = 2.098364 g / cm^3
# Si number density = 21.031505 Si / 1000 Ang^3
#
#
#
# Elastic Constant Matrix: (Units=GPa)
#
#
# Indices 1 2 3 4 5 6 
#
# 1 138.4309 26.3160 90.8303 -8.1030 -21.1719 -18.0773
# 2 26.3160 51.3064 45.0320 -3.0803 -11.9399 -12.8824
# 3 90.8303 45.0320 172.2929 -16.0122 -31.6674 -24.9498
# 4 -8.1030 -3.0803 -16.0122 44.3261 -9.5623 -1.3807
# 5 -21.1719 -11.9399 -31.6674 -9.5623 44.5123 2.2283
# 6 -18.0773 -12.8824 -24.9498 -1.3807 2.2283 34.9708
#
#
#
# Elastic Compliance Matrix: (Units=1/GPa)
#
#
# Indices 1 2 3 4 5 6 
#
# 1 0.011230 -0.000299 -0.005233 0.000537 0.001559 0.001883
# 2 -0.000299 0.026482 -0.005324 0.000694 0.003040 0.005636
# 3 -0.005233 -0.005324 0.011822 0.004180 0.005211 0.003601
# 4 0.000537 0.000694 0.004180 0.026251 0.008855 0.003988
# 5 0.001559 0.003040 0.005211 0.008855 0.029426 0.004119
# 6 0.001883 0.005636 0.003601 0.003988 0.004119 0.034109
#
#
# Mechanical properties :
#
#
# Convention : Reuss Voigt Hill
#
# Bulk Modulus (GPa) = 35.94415 76.26519 56.10467
# Shear Modulus (GPa) = 29.35870 38.08528 33.72199
#
# Velocity S-wave (km/s) = 3.74028 4.26005 4.00860
# Velocity P-wave (km/s) = 5.98169 7.78064 6.93971
#
# Compressibility (1/GPa) = 0.02782094
#
# Stress axis : x y z
#
# Youngs Moduli (GPa) = 89.04649 37.76205 84.58630
#
# Poissons Ratio (x) = 0.01130 0.44263
# Poissons Ratio (y) = 0.02664 0.45038
# Poissons Ratio (z) = 0.46597 0.20106
#
# Static dielectric constant tensor:
#      x y z
#    x 1.669170 -0.023650 -0.006520 
#    y -0.023650 1.826850 -0.009620 
#    z -0.006520 -0.009620 1.792930 
# 
# From -- ./inp_files/400312.got.cif
#   From: 2010.05.17/outbox.cif.g08.bks.cpg/sg2_201_cif.got.tgz:400312.got - 2010.06.03 11:33:40.
