data_PCOD9069918
_publ_section_title
;
Structure prediction by ZEFSAII (Michael W. Deem and Ramdas Pophale) SiO2 
 PCOD9069918
Probable space group: P -1
;
_chemical_formula_sum "Si O2"
_cell_formula_units_Z 16
_cell_length_a 8.505801
_cell_length_b 9.160438
_cell_length_c 23.215516
_cell_angle_alpha 149.671508
_cell_angle_beta 125.711544
_cell_angle_gamma 49.544623
_cell_volume 693.703882
_symmetry_space_group_name_H-M "P -1"
_symmetry_group_IT_number 2
_symmetry_cell_setting 'triclinic'
loop_
_space_group_symop_operation_xyz
x,y,z
-x,-y,-z
loop_
_atom_site_type_symbol
_atom_site_label
_atom_site_fract_x
_atom_site_fract_y
_atom_site_fract_z
Si Si1 0.511220 0.225815 0.257857
Si Si2 0.237352 0.874203 0.287001
Si Si3 0.585036 0.275495 0.111266
Si Si4 0.481310 0.299611 0.482984
Si Si5 0.647369 0.553387 0.099105
Si Si6 0.927473 0.491377 0.789529
Si Si7 0.106630 0.242940 0.619528
Si Si8 0.112008 0.823341 0.763767
O O1 0.478739 0.523884 0.392458
O O2 0.300947 0.262680 0.190193
O O3 0.701769 0.191280 0.244306
O O4 0.577247 0.926238 0.210966
O O5 0.434129 0.563337 0.213673
O O6 0.115554 0.794755 0.286942
O O7 0.285823 0.189063 0.411592
O O8 0.094025 0.921071 0.215972
O O9 0.597280 0.406796 0.096072
O O10 0.807140 0.140642 0.143604
O O11 0.500000 0.000000 0.000000
O O12 0.500000 0.500000 0.500000
O O13 0.656499 0.968090 0.399066
O O14 0.900557 0.430901 0.108795
O O15 0.500000 0.500000 0.000000
O O16 0.029666 0.392655 0.715574
O O17 0.073398 0.501274 0.651917
O O18 0.000000 0.000000 0.500000
#
# Coordination Sequence:
#
# PCOD9069918 Si02
#       8
#     2   2   2   2   2   2   2   2
#     4  12  26  47  75 108 150 191 249 302 364 446
#     4  12  27  47  76 108 150 197 241 300 372 437
#     4  12  27  51  76 105 145 188 248 306 367 440
#     4  12  25  44  74 110 151 197 245 298 370 441
#     4  12  28  51  76 108 146 189 248 309 370 441
#     4  12  25  47  75 108 147 192 246 300 372 434
#     4  12  24  43  71 107 149 193 241 297 365 438
#     4  12  26  47  70 107 149 192 244 302 367 437
#
# _framework density 23.064596000000002
#
# number of rings (size 3 to 8) (size 9 to 14) (size 15 to 20)
#    0.000    0.000    6.250    3.000    3.500    2.500 
#    0.000    0.000    0.000    0.000    0.000    0.000 
#    0.000    0.000    0.000    0.000    0.000    0.000 
#
# Total GULP energy -89466.161092 kJ/mol
# GULP energy per Si atom -5591.635068 kJ/mol
# Density = 2.301210 g / cm^3
# Si number density = 23.064596 Si / 1000 Ang^3
#
#
#
# Elastic Constant Matrix: (Units=GPa)
#
#
# Indices 1 2 3 4 5 6 
#
# 1 82.6205 25.0753 42.7383 0.6653 33.7573 25.3735
# 2 25.0753 136.3522 19.7971 0.2043 25.7120 10.7754
# 3 42.7383 19.7971 92.7684 1.2517 34.1662 3.4745
# 4 0.6653 0.2043 1.2517 42.5726 2.6865 12.2660
# 5 33.7573 25.7120 34.1662 2.6865 40.3287 2.5124
# 6 25.3735 10.7754 3.4745 12.2660 2.5124 46.1866
#
#
#
# Elastic Compliance Matrix: (Units=1/GPa)
#
#
# Indices 1 2 3 4 5 6 
#
# 1 0.026080 0.000301 -0.005385 0.004962 -0.016894 -0.014392
# 2 0.000301 0.008503 0.000257 0.000918 -0.005822 -0.002096
# 3 -0.005385 0.000257 0.016814 -0.000441 -0.010014 0.002296
# 4 0.004962 0.000918 -0.000441 0.026552 -0.005532 -0.009658
# 5 -0.016894 -0.005822 -0.010014 -0.005532 0.050873 0.010095
# 6 -0.014392 -0.002096 0.002296 -0.009658 0.010095 0.031890
#
#
# Mechanical properties :
#
#
# Convention : Reuss Voigt Hill
#
# Bulk Modulus (GPa) = 23.95595 54.10694 39.03144
# Shear Modulus (GPa) = 27.13246 40.75962 33.94604
#
# Velocity S-wave (km/s) = 3.43354 4.20836 3.84054
# Velocity P-wave (km/s) = 5.11155 6.86466 6.05192
#
# Compressibility (1/GPa) = 0.04174329
#
# Stress axis : x y z
#
# Youngs Moduli (GPa) = 38.34287 117.60123 59.47469
#
# Poissons Ratio (x) = -0.03544 0.32029
# Poissons Ratio (y) = -0.01155 -0.01527
# Poissons Ratio (z) = 0.20649 -0.03020
#
# Static dielectric constant tensor:
#      x y z
#    x -31.060460 15.194760 -11.861450 
#    y 15.194760 -5.142890 5.464250 
#    z -11.861450 5.464250 -2.423580 
# 
# From -- ./inp_files/245877.got.cif
#   From: 2010.05.17/outbox.cif.g08.bks.cpg/sg2_123_cif.got.tgz:245877.got - 2010.06.03 11:33:40.
