data_PCOD9069944
_publ_section_title
;
Structure prediction by ZEFSAII (Michael W. Deem and Ramdas Pophale) SiO2 
 PCOD9069944
Probable space group: P -1
;
_chemical_formula_sum "Si O2"
_cell_formula_units_Z 16
_cell_length_a 23.752173
_cell_length_b 9.009496
_cell_length_c 15.330082
_cell_angle_alpha 30.778626
_cell_angle_beta 153.072411
_cell_angle_gamma 131.497124
_cell_volume 680.337416
_symmetry_space_group_name_H-M "P -1"
_symmetry_group_IT_number 2
_symmetry_cell_setting 'triclinic'
loop_
_space_group_symop_operation_xyz
x,y,z
-x,-y,-z
loop_
_atom_site_type_symbol
_atom_site_label
_atom_site_fract_x
_atom_site_fract_y
_atom_site_fract_z
Si Si1 0.386740 0.693693 0.817634
Si Si2 0.936363 0.832527 0.063304
Si Si3 0.497286 0.644597 0.668310
Si Si4 0.782033 0.677339 0.265768
Si Si5 0.806812 0.069601 0.948158
Si Si6 0.226235 0.322154 0.199220
Si Si7 0.994195 0.696727 0.805959
Si Si8 0.280538 0.848882 0.908751
O O1 0.258807 0.613522 0.658341
O O2 0.338424 0.074521 0.544650
O O3 0.500000 0.500000 0.000000
O O4 0.441855 0.551286 0.059843
O O5 0.054966 0.465008 0.417976
O O6 0.787430 0.868705 0.807452
O O7 0.907258 0.944301 0.066758
O O8 0.000000 0.000000 0.000000
O O9 0.342429 0.681085 0.420448
O O10 0.500000 0.000000 0.500000
O O11 0.592100 0.414329 0.837760
O O12 0.702366 0.901189 0.125529
O O13 0.761737 0.844496 0.059282
O O14 0.896845 0.163947 0.091673
O O15 0.076286 0.436813 0.977275
O O16 0.242975 0.625594 0.034699
O O17 0.845494 0.947038 0.436062
O O18 0.000000 0.500000 0.000000
#
# Coordination Sequence:
#
# PCOD9069944 Si02
#       8
#     2   2   2   2   2   2   2   2
#     4  12  27  47  74 110 151 201 252 307 376 451
#     4  12  24  43  74 110 147 189 251 314 373 445
#     4  12  27  50  74 111 150 201 252 309 374 458
#     4  12  26  47  76 111 146 200 253 309 378 447
#     4  12  27  46  75 108 150 197 253 305 381 443
#     4  12  24  46  73 109 150 195 245 312 376 443
#     4  12  26  47  76 113 150 194 253 314 379 445
#     4  12  27  49  79 112 154 193 251 314 381 452
#
# _framework density 23.517742999999999
#
# number of rings (size 3 to 8) (size 9 to 14) (size 15 to 20)
#    0.000    0.000    5.000    5.250    1.750    1.500 
#    0.000    1.875    0.000    0.000    0.000    0.000 
#    0.000    0.000    0.000    0.000    0.000    0.000 
#
# Total GULP energy -89367.638208 kJ/mol
# GULP energy per Si atom -5585.477388 kJ/mol
# Density = 2.346422 g / cm^3
# Si number density = 23.517743 Si / 1000 Ang^3
#
#
#
# Elastic Constant Matrix: (Units=GPa)
#
#
# Indices 1 2 3 4 5 6 
#
# 1 136.3414 4.7132 34.2923 -6.6302 2.1103 -24.7665
# 2 4.7132 45.3856 4.8997 1.6205 -10.0240 -8.3818
# 3 34.2923 4.8997 122.6196 -4.4790 -14.0065 -8.8061
# 4 -6.6302 1.6205 -4.4790 27.4530 -2.5995 -1.1129
# 5 2.1103 -10.0240 -14.0065 -2.5995 54.6319 -1.7016
# 6 -24.7665 -8.3818 -8.8061 -1.1129 -1.7016 28.0593
#
#
#
# Elastic Compliance Matrix: (Units=1/GPa)
#
#
# Indices 1 2 3 4 5 6 
#
# 1 0.009369 0.000521 -0.002049 0.002173 -0.000444 0.007841
# 2 0.000521 0.024524 -0.000032 -0.000557 0.004695 0.008038
# 3 -0.002049 -0.000032 0.009155 0.001290 0.002521 0.001259
# 4 0.002173 -0.000557 0.001290 0.037541 0.002048 0.003770
# 5 -0.000444 0.004695 0.002521 0.002048 0.020023 0.003097
# 6 0.007841 0.008038 0.001259 0.003770 0.003097 0.045693
#
#
# Mechanical properties :
#
#
# Convention : Reuss Voigt Hill
#
# Bulk Modulus (GPa) = 25.04598 43.57303 34.30950
# Shear Modulus (GPa) = 30.72459 39.39160 35.05809
#
# Velocity S-wave (km/s) = 3.61840 4.09708 3.86516
# Velocity P-wave (km/s) = 5.30377 6.39917 5.87705
#
# Compressibility (1/GPa) = 0.03992657
#
# Stress axis : x y z
#
# Youngs Moduli (GPa) = 106.73699 40.77614 109.22767
#
# Poissons Ratio (x) = -0.02123 0.22382
# Poissons Ratio (y) = -0.05558 0.00353
# Poissons Ratio (z) = 0.21872 0.00132
#
# Static dielectric constant tensor:
#      x y z
#    x 1.993780 -0.087690 -0.018880 
#    y -0.087690 2.091290 -0.028670 
#    z -0.018880 -0.028670 1.975220 
# 
# From -- ./inp_files/207704.got.cif
#   From: 2010.05.17/outbox.cif.g08.bks.cpg/sg2_104_cif.got.tgz:207704.got - 2010.06.03 11:33:40.
