data_PCOD9069405
_publ_section_title
;
Structure prediction by ZEFSAII (Michael W. Deem and Ramdas Pophale) SiO2 
 PCOD9069405
Probable space group: P -1
;
_chemical_formula_sum "Si O2"
_cell_formula_units_Z 16
_cell_length_a 26.724555
_cell_length_b 27.230637
_cell_length_c 8.417044
_cell_angle_alpha 45.165759
_cell_angle_beta 135.923335
_cell_angle_gamma 168.936511
_cell_volume 817.649946
_symmetry_space_group_name_H-M "P -1"
_symmetry_group_IT_number 2
_symmetry_cell_setting 'triclinic'
loop_
_space_group_symop_operation_xyz
x,y,z
-x,-y,-z
loop_
_atom_site_type_symbol
_atom_site_label
_atom_site_fract_x
_atom_site_fract_y
_atom_site_fract_z
Si Si1 0.350560 0.999989 0.817669
Si Si2 0.063577 0.000000 0.012144
Si Si3 0.088155 0.500010 0.208548
Si Si4 0.563507 0.500001 0.777830
Si Si5 0.813217 0.999998 0.438601
Si Si6 0.415670 0.999990 0.307547
Si Si7 0.313377 0.499999 0.209891
Si Si8 0.152482 0.500009 0.702949
O O1 0.265975 0.000001 0.663531
O O2 0.130539 0.750562 0.799558
O O3 0.629391 0.249408 0.799567
O O4 0.389258 0.999985 0.071370
O O5 0.132703 0.000000 0.287488
O O6 0.811000 0.750013 0.889135
O O7 0.310975 0.249988 0.889136
O O8 0.000000 0.000000 0.000000
O O9 0.128441 0.500012 0.467698
O O10 0.000000 0.500000 0.000000
O O11 0.500000 0.500000 0.500000
O O12 0.632524 0.500001 0.817316
O O13 0.072184 0.249978 0.344480
O O14 0.572222 0.750016 0.344483
O O15 0.135133 0.751127 0.313731
O O16 0.500000 0.000000 0.500000
O O17 0.632853 0.248850 0.313719
O O18 0.234611 0.500001 0.949435
#
# Coordination Sequence:
#
# PCOD9069405 Si02
#       8
#     2   2   2   2   2   2   2   2
#     4  12  24  42  66  94 131 175 224 276 341 394
#     4  12  26  46  74 107 140 181 222 270 326 393
#     4  12  26  43  64  94 133 174 223 286 343 403
#     4  12  26  46  75 107 141 181 220 270 328 393
#     4  12  25  45  69  99 138 178 224 278 329 397
#     4  12  23  43  67  94 126 174 230 277 333 402
#     4  12  24  45  67  99 138 178 223 278 331 397
#     4  12  24  42  64  96 131 175 222 279 341 393
#
# _framework density 19.568276999999998
#
# number of rings (size 3 to 8) (size 9 to 14) (size 15 to 20)
#    0.000    0.000    2.500    8.250    3.500    0.000 
#    0.000    0.000    0.000    0.000    0.000    0.000 
#    0.000    0.000    0.000    0.000    0.000    0.000 
#
# Total GULP energy -89363.000900 kJ/mol
# GULP energy per Si atom -5585.187556 kJ/mol
# Density = 1.952374 g / cm^3
# Si number density = 19.568277 Si / 1000 Ang^3
#
#
#
# Elastic Constant Matrix: (Units=GPa)
#
#
# Indices 1 2 3 4 5 6 
#
# 1 189.9648 125.0279 108.1715 -2.4842 -3.8235 1.6867
# 2 125.0279 244.3327 91.0752 -1.4128 -24.2649 -2.9960
# 3 108.1715 91.0752 242.4419 4.7553 -15.0728 0.6094
# 4 -2.4842 -1.4128 4.7553 37.5047 0.5837 -20.0948
# 5 -3.8235 -24.2649 -15.0728 0.5837 60.2932 -1.4349
# 6 1.6867 -2.9960 0.6094 -20.0948 -1.4349 54.1193
#
#
#
# Elastic Compliance Matrix: (Units=1/GPa)
#
#
# Indices 1 2 3 4 5 6 
#
# 1 0.009470 -0.003948 -0.002863 0.000731 -0.001717 -0.000255
# 2 -0.003948 0.006562 -0.000572 0.000398 0.002260 0.000701
# 3 -0.002863 -0.000572 0.005704 -0.001173 0.001016 -0.000415
# 4 0.000731 0.000398 -0.001173 0.033559 -0.000115 0.012470
# 5 -0.001717 0.002260 0.001016 -0.000115 0.017655 0.000593
# 6 -0.000255 0.000701 -0.000415 0.012470 0.000593 0.023175
#
#
# Mechanical properties :
#
#
# Convention : Reuss Voigt Hill
#
# Bulk Modulus (GPa) = 143.48377 147.25428 145.36903
# Shear Modulus (GPa) = 44.16375 53.88109 49.02242
#
# Velocity S-wave (km/s) = 4.75584 5.25307 5.01063
# Velocity P-wave (km/s) = 10.18044 10.59282 10.38867
#
# Compressibility (1/GPa) = 0.00696943
#
# Stress axis : x y z
#
# Youngs Moduli (GPa) = 105.59547 152.39371 175.31202
#
# Poissons Ratio (x) = 0.60171 0.50184
# Poissons Ratio (y) = 0.41693 0.10036
# Poissons Ratio (z) = 0.30227 0.08724
#
# Static dielectric constant tensor:
#      x y z
#    x 1.681840 0.012500 0.227870 
#    y 0.012500 1.691690 0.026520 
#    z 0.227870 0.026520 2.374170 
# 
# From -- ./inp_files/357988.got.cif
#   From: 2010.05.17/outbox.cif.g08.bks.cpg/sg2_179_cif.got.tgz:357988.got - 2010.06.03 11:33:40.
