data_PCOD9069951
_publ_section_title
;
Structure prediction by ZEFSAII (Michael W. Deem and Ramdas Pophale) SiO2 
 PCOD9069951
Probable space group: P -1
;
_chemical_formula_sum "Si O2"
_cell_formula_units_Z 13
_cell_length_a 7.659525
_cell_length_b 8.618121
_cell_length_c 11.260761
_cell_angle_alpha 65.863558
_cell_angle_beta 94.759037
_cell_angle_gamma 50.274929
_cell_volume 454.642862
_symmetry_space_group_name_H-M "P -1"
_symmetry_group_IT_number 2
_symmetry_cell_setting 'triclinic'
loop_
_space_group_symop_operation_xyz
x,y,z
-x,-y,-z
loop_
_atom_site_type_symbol
_atom_site_label
_atom_site_fract_x
_atom_site_fract_y
_atom_site_fract_z
Si Si1 0.820399 0.325277 0.327441
Si Si2 0.845507 0.927738 0.780127
Si Si3 0.572945 0.630046 0.571383
Si Si4 0.928410 0.750616 0.412982
Si Si5 0.500000 0.500000 0.000000
Si Si6 0.356719 0.277481 0.209036
Si Si7 0.440796 0.847445 0.073672
O O1 0.601371 0.375666 0.363550
O O2 0.052338 0.170086 0.482566
O O3 0.710195 0.591745 0.228335
O O4 0.889662 0.210254 0.233940
O O5 0.607713 0.162734 0.607826
O O6 0.780664 0.017582 0.882076
O O7 0.843172 0.724822 0.837523
O O8 0.830811 0.355891 0.618970
O O9 0.660440 0.697745 0.656520
O O10 0.000000 0.500000 0.500000
O O11 0.639101 0.994919 0.280121
O O12 0.654568 0.529876 0.910369
O O13 0.592096 0.268976 0.993576
O O14 0.500000 0.000000 0.000000
#
# Coordination Sequence:
#
# PCOD9069951 Si02
#       7
#     2   2   2   2   1   2   2
#     4  12  26  44  75 118 152 198 266 318 391 467
#     4  12  25  46  81 111 157 209 248 329 399 455
#     4  12  24  43  75 119 153 195 259 328 388 459
#     4  12  24  43  75 113 151 201 254 321 394 450
#     4  12  28  54  74 116 158 208 270 318 378 494
#     4  12  25  49  74 114 162 196 264 318 388 470
#     4  12  27  53  79 107 160 210 267 320 391 472
#
# _framework density 28.593876000000002
#
# number of rings (size 3 to 8) (size 9 to 14) (size 15 to 20)
#    0.000    0.000    7.692    2.308    0.000    0.615 
#    0.000    1.538    0.000    0.000    0.000    0.000 
#    0.000    0.000    0.000    0.000    0.000    0.000 
#
# Total GULP energy -72763.559546 kJ/mol
# GULP energy per Si atom -5597.196888 kJ/mol
# Density = 2.852880 g / cm^3
# Si number density = 28.593876 Si / 1000 Ang^3
#
#
#
# Elastic Constant Matrix: (Units=GPa)
#
#
# Indices 1 2 3 4 5 6 
#
# 1 146.3291 65.8246 44.1102 9.9133 -37.2580 0.3441
# 2 65.8246 224.2212 68.7935 39.3315 -22.4705 -2.7724
# 3 44.1102 68.7935 115.8970 11.7751 -40.3781 2.7991
# 4 9.9133 39.3315 11.7751 73.4284 3.9898 4.2368
# 5 -37.2580 -22.4705 -40.3781 3.9898 39.3169 6.1918
# 6 0.3441 -2.7724 2.7991 4.2368 6.1918 70.6613
#
#
#
# Elastic Compliance Matrix: (Units=1/GPa)
#
#
# Indices 1 2 3 4 5 6 
#
# 1 0.009962 -0.002112 0.000798 -0.000792 0.009279 -0.000929
# 2 -0.002112 0.006391 -0.003297 -0.002563 -0.001583 0.000684
# 3 0.000798 -0.003297 0.016002 -0.001648 0.015796 -0.002052
# 4 -0.000792 -0.002563 -0.001648 0.015686 -0.005421 -0.000497
# 5 0.009279 -0.001583 0.015796 -0.005421 0.050862 -0.004865
# 6 -0.000929 0.000684 -0.002052 -0.000497 -0.004865 0.014721
#
#
# Mechanical properties :
#
#
# Convention : Reuss Voigt Hill
#
# Bulk Modulus (GPa) = 43.22927 93.76711 68.49819
# Shear Modulus (GPa) = 38.29755 57.19594 47.74675
#
# Velocity S-wave (km/s) = 3.66370 4.47731 4.09078
# Velocity P-wave (km/s) = 5.74875 7.71960 6.80590
#
# Compressibility (1/GPa) = 0.02313247
#
# Stress axis : x y z
#
# Youngs Moduli (GPa) = 100.38191 156.47242 62.49197
#
# Poissons Ratio (x) = 0.33045 -0.04986
# Poissons Ratio (y) = 0.21200 0.20605
# Poissons Ratio (z) = -0.08009 0.51592
#
# Static dielectric constant tensor:
#      x y z
#    x 2.166320 0.020230 -0.035610 
#    y 0.020230 2.140950 0.040860 
#    z -0.035610 0.040860 2.284600 
# 
# From -- ./inp_files/381337.got.cif
#   From: 2010.05.17/outbox.cif.g08.bks.cpg/sg2_191_cif.got.tgz:381337.got - 2010.06.03 11:33:40.
