data_PCOD9069659
_publ_section_title
;
Structure prediction by ZEFSAII (Michael W. Deem and Ramdas Pophale) SiO2 
 PCOD9069659
Probable space group: P -1
;
_chemical_formula_sum "Si O2"
_cell_formula_units_Z 12
_cell_length_a 10.772509
_cell_length_b 11.413591
_cell_length_c 8.244997
_cell_angle_alpha 116.627966
_cell_angle_beta 45.960611
_cell_angle_gamma 139.916467
_cell_volume 461.511470
_symmetry_space_group_name_H-M "P -1"
_symmetry_group_IT_number 2
_symmetry_cell_setting 'triclinic'
loop_
_space_group_symop_operation_xyz
x,y,z
-x,-y,-z
loop_
_atom_site_type_symbol
_atom_site_label
_atom_site_fract_x
_atom_site_fract_y
_atom_site_fract_z
Si Si1 0.132194 0.756308 0.747212
Si Si2 0.250863 0.813561 0.038059
Si Si3 0.645006 0.385597 0.659133
Si Si4 0.367015 0.605148 0.954440
Si Si5 0.134866 0.236153 0.441779
Si Si6 0.826276 0.956816 0.275342
O O1 0.177295 0.640104 0.553955
O O2 0.226903 0.921203 0.649641
O O3 0.262826 0.829053 0.845430
O O4 0.845722 0.614789 0.963351
O O5 0.028287 0.781181 0.286018
O O6 0.239494 0.658160 0.013625
O O7 0.500000 0.000000 0.000000
O O8 0.777885 0.595353 0.646930
O O9 0.425154 0.255093 0.649166
O O10 0.552456 0.319930 0.887012
O O11 0.609468 0.691349 0.695778
O O12 0.971163 0.047198 0.368492
O O13 0.000000 0.000000 0.000000
#
# Coordination Sequence:
#
# PCOD9069659 Si02
#       6
#     2   2   2   2   2   2
#     4  12  25  46  72 104 145 193 234 289 361 421
#     4  12  28  49  68 102 150 191 237 289 355 432
#     4  12  23  46  76 105 144 184 237 301 350 415
#     4  12  24  46  73 104 143 186 238 292 354 419
#     4  12  26  48  75 107 142 189 237 296 356 417
#     4  12  24  44  73 108 139 181 243 294 348 418
#
# _framework density 26.001519999999999
#
# number of rings (size 3 to 8) (size 9 to 14) (size 15 to 20)
#    0.000    0.000    5.000    6.000    0.000    1.333 
#    3.000    0.000    0.000    0.000    0.000    0.000 
#    0.000    0.000    0.000    0.000    0.000    0.000 
#
# Total GULP energy -67358.064872 kJ/mol
# GULP energy per Si atom -5613.172073 kJ/mol
# Density = 2.594234 g / cm^3
# Si number density = 26.001520 Si / 1000 Ang^3
#
#
#
# Elastic Constant Matrix: (Units=GPa)
#
#
# Indices 1 2 3 4 5 6 
#
# 1 73.8134 30.5131 35.7436 9.0484 -5.4531 16.1558
# 2 30.5131 96.9010 12.9580 -9.6826 -6.2293 15.0002
# 3 35.7436 12.9580 151.0318 -3.0134 -34.3120 5.7700
# 4 9.0484 -9.6826 -3.0134 34.7630 -3.6652 -0.5315
# 5 -5.4531 -6.2293 -34.3120 -3.6652 37.6196 6.9196
# 6 16.1558 15.0002 5.7700 -0.5315 6.9196 46.9648
#
#
#
# Elastic Compliance Matrix: (Units=1/GPa)
#
#
# Indices 1 2 3 4 5 6 
#
# 1 0.019948 -0.005919 -0.004753 -0.007569 -0.002403 -0.004119
# 2 -0.005919 0.013244 0.001302 0.005678 0.003595 -0.002819
# 3 -0.004753 0.001302 0.009802 0.003382 0.009032 -0.001278
# 4 -0.007569 0.005678 0.003382 0.033262 0.006198 -0.000162
# 5 -0.002403 0.003595 0.009032 0.006198 0.036921 -0.006801
# 6 -0.004119 -0.002819 -0.001278 -0.000162 -0.006801 0.024767
#
#
# Mechanical properties :
#
#
# Convention : Reuss Voigt Hill
#
# Bulk Modulus (GPa) = 41.22782 53.35283 47.29032
# Shear Modulus (GPa) = 30.34543 40.03824 35.19184
#
# Velocity S-wave (km/s) = 3.41994 3.92834 3.68292
# Velocity P-wave (km/s) = 5.61115 6.41401 6.02596
#
# Compressibility (1/GPa) = 0.02425547
#
# Stress axis : x y z
#
# Youngs Moduli (GPa) = 50.13069 75.50345 102.01649
#
# Poissons Ratio (x) = 0.44690 0.48485
# Poissons Ratio (y) = 0.29672 -0.13284
# Poissons Ratio (z) = 0.23826 -0.09831
#
# Static dielectric constant tensor:
#      x y z
#    x 2.064060 -0.045810 -0.023090 
#    y -0.045810 2.063560 -0.024810 
#    z -0.023090 -0.024810 1.997540 
# 
# From -- ./inp_files/174381.got.cif
#   From: 2010.05.17/outbox.cif.g08.bks.cpg/sg2_88_cif.got.tgz:174381.got - 2010.06.03 11:33:40.
