data_PCOD9069450
_publ_section_title
;
Structure prediction by ZEFSAII (Michael W. Deem and Ramdas Pophale) SiO2 
 PCOD9069450
Probable space group: P -1
;
_chemical_formula_sum "Si O2"
_cell_formula_units_Z 13
_cell_length_a 8.768664
_cell_length_b 12.103731
_cell_length_c 9.583350
_cell_angle_alpha 49.703251
_cell_angle_beta 134.076488
_cell_angle_gamma 135.204175
_cell_volume 490.722583
_symmetry_space_group_name_H-M "P -1"
_symmetry_group_IT_number 2
_symmetry_cell_setting 'triclinic'
loop_
_space_group_symop_operation_xyz
x,y,z
-x,-y,-z
loop_
_atom_site_type_symbol
_atom_site_label
_atom_site_fract_x
_atom_site_fract_y
_atom_site_fract_z
Si Si1 0.321385 0.438314 0.804860
Si Si2 0.027055 0.835245 0.778708
Si Si3 0.042747 0.588784 0.186373
Si Si4 0.505949 0.756759 0.468215
Si Si5 0.071825 0.092233 0.822532
Si Si6 0.774084 0.202925 0.334797
Si Si7 0.500000 0.000000 0.500000
O O1 0.403233 0.588927 0.629408
O O2 0.281351 0.276993 0.826753
O O3 0.061985 0.385111 0.755417
O O4 0.500000 0.500000 0.000000
O O5 0.785829 0.819494 0.566266
O O6 0.214661 0.862412 0.755329
O O7 0.112254 0.975210 0.835797
O O8 0.947308 0.660866 0.945263
O O9 0.329023 0.699586 0.271396
O O10 0.949942 0.395433 0.280510
O O11 0.473200 0.889679 0.428910
O O12 0.851336 0.115655 0.586003
O O13 0.000000 0.000000 0.000000
O O14 0.522831 0.156821 0.283238
#
# Coordination Sequence:
#
# PCOD9069450 Si02
#       7
#     2   2   2   2   2   2   1
#     4  12  23  43  74 113 149 198 263 310 374 457
#     4  12  28  50  78 114 158 203 252 323 386 453
#     4  12  25  47  77 111 155 204 257 313 380 463
#     4  12  25  45  75 112 150 206 257 314 381 451
#     4  12  24  45  76 109 150 204 258 308 381 459
#     4  12  27  50  74 112 163 196 256 324 383 454
#     4  12  26  42  78 108 146 208 250 312 386 450
#
# _framework density 26.491548000000002
#
# number of rings (size 3 to 8) (size 9 to 14) (size 15 to 20)
#    0.000    0.000    7.692    2.308    0.000    0.615 
#    0.000    2.308    0.000    0.000    0.000    0.000 
#    0.000    0.000    0.000    0.000    0.000    0.000 
#
# Total GULP energy -72703.227489 kJ/mol
# GULP energy per Si atom -5592.555961 kJ/mol
# Density = 2.643125 g / cm^3
# Si number density = 26.491548 Si / 1000 Ang^3
#
#
#
# Elastic Constant Matrix: (Units=GPa)
#
#
# Indices 1 2 3 4 5 6 
#
# 1 110.7888 31.9740 12.0440 0.6448 -39.0207 -11.0160
# 2 31.9740 178.2374 37.4552 -3.0451 -6.7692 -12.9297
# 3 12.0440 37.4552 97.5258 -8.4286 0.8398 -6.0530
# 4 0.6448 -3.0451 -8.4286 47.6739 14.2224 3.7828
# 5 -39.0207 -6.7692 0.8398 14.2224 36.5289 4.4799
# 6 -11.0160 -12.9297 -6.0530 3.7828 4.4799 35.3873
#
#
#
# Elastic Compliance Matrix: (Units=1/GPa)
#
#
# Indices 1 2 3 4 5 6 
#
# 1 0.017369 -0.001831 -0.002077 -0.007100 0.020718 0.002519
# 2 -0.001831 0.006464 -0.002133 0.000234 -0.000987 0.001527
# 3 -0.002077 -0.002133 0.011686 0.003151 -0.004204 0.000768
# 4 -0.007100 0.000234 0.003151 0.027165 -0.017918 -0.002221
# 5 0.020718 -0.000987 -0.004204 -0.017918 0.056378 0.000148
# 6 0.002519 0.001527 0.000768 -0.002221 0.000148 0.029951
#
#
# Mechanical properties :
#
#
# Convention : Reuss Voigt Hill
#
# Bulk Modulus (GPa) = 42.66900 61.05537 51.86219
# Shear Modulus (GPa) = 29.60164 44.25660 36.92912
#
# Velocity S-wave (km/s) = 3.34638 4.09172 3.73768
# Velocity P-wave (km/s) = 5.57428 6.73944 6.18436
#
# Compressibility (1/GPa) = 0.02343622
#
# Stress axis : x y z
#
# Youngs Moduli (GPa) = 57.57303 154.69105 85.57478
#
# Poissons Ratio (x) = 0.28325 0.17778
# Poissons Ratio (y) = 0.10542 0.18254
# Poissons Ratio (z) = 0.11961 0.32997
#
# Static dielectric constant tensor:
#      x y z
#    x 2.700760 0.438200 0.345520 
#    y 0.438200 2.348780 0.160790 
#    z 0.345520 0.160790 2.204220 
# 
# From -- ./inp_files/184586.got.cif
#   From: 2010.05.17/outbox.cif.g08.bks.cpg/sg2_93_cif.got.tgz:184586.got - 2010.06.03 11:33:40.
