data_PCOD9069169
_publ_section_title
;
Structure prediction by ZEFSAII (Michael W. Deem and Ramdas Pophale) SiO2 
 PCOD9069169
Probable space group: P -1
;
_chemical_formula_sum "Si O2"
_cell_formula_units_Z 16
_cell_length_a 9.279462
_cell_length_b 9.357482
_cell_length_c 25.633207
_cell_angle_alpha 150.915635
_cell_angle_beta 136.121151
_cell_angle_gamma 48.399892
_cell_volume 746.108474
_symmetry_space_group_name_H-M "P -1"
_symmetry_group_IT_number 2
_symmetry_cell_setting 'triclinic'
loop_
_space_group_symop_operation_xyz
x,y,z
-x,-y,-z
loop_
_atom_site_type_symbol
_atom_site_label
_atom_site_fract_x
_atom_site_fract_y
_atom_site_fract_z
Si Si1 0.552639 0.663970 0.618806
Si Si2 0.503882 0.845668 0.896148
Si Si3 0.791573 0.322334 0.378359
Si Si4 0.336039 0.139244 0.543966
Si Si5 0.935371 0.684333 0.897797
Si Si6 0.380970 0.218704 0.698077
Si Si7 0.682386 0.721042 0.103664
Si Si8 0.060700 0.654824 0.319289
O O1 0.500000 0.500000 0.500000
O O2 0.367037 0.617448 0.595850
O O3 0.771180 0.533355 0.659545
O O4 0.534507 0.012073 0.709637
O O5 0.721855 0.742621 0.891732
O O6 0.423296 0.540666 0.794713
O O7 0.388796 0.086106 0.903593
O O8 0.500000 0.000000 0.000000
O O9 0.696369 0.514559 0.365501
O O10 0.000000 0.500000 0.500000
O O11 0.760077 0.978518 0.245443
O O12 0.385394 0.065368 0.593288
O O13 0.500000 0.000000 0.500000
O O14 0.131306 0.976670 0.428649
O O15 0.928279 0.514437 0.786685
O O16 0.111312 0.502953 0.920369
O O17 0.000000 0.000000 0.000000
O O18 0.158725 0.273537 0.686426
O O19 0.500000 0.500000 0.000000
#
# Coordination Sequence:
#
# PCOD9069169 Si02
#       8
#     2   2   2   2   2   2   2   2
#     4  12  26  43  71 108 148 198 249 303 377 454
#     4  12  28  49  75 111 151 192 255 320 379 449
#     4  12  26  46  75 110 150 198 252 312 379 449
#     4  12  22  44  69 102 149 194 245 310 368 443
#     4  12  26  48  78 108 143 199 255 313 378 453
#     4  12  26  45  69 105 152 193 246 313 375 446
#     4  12  27  50  82 110 149 202 260 310 379 460
#     4  12  26  45  74 108 152 198 250 313 382 445
#
# _framework density 21.444604000000002
#
# number of rings (size 3 to 8) (size 9 to 14) (size 15 to 20)
#    0.000    0.000    5.000    4.875    3.500    2.500 
#    0.000    0.000    0.000    0.000    0.000    0.000 
#    0.000    0.000    0.000    0.000    0.000    0.000 
#
# Total GULP energy -89235.035179 kJ/mol
# GULP energy per Si atom -5577.189699 kJ/mol
# Density = 2.139580 g / cm^3
# Si number density = 21.444604 Si / 1000 Ang^3
#
#
#
# Elastic Constant Matrix: (Units=GPa)
#
#
# Indices 1 2 3 4 5 6 
#
# 1 146.4351 57.8670 34.3638 9.8967 -2.2203 10.6660
# 2 57.8670 194.3501 43.3967 21.6804 -0.8060 6.1926
# 3 34.3638 43.3967 108.0299 19.5458 4.1143 17.8529
# 4 9.8967 21.6804 19.5458 39.2992 14.5952 3.5521
# 5 -2.2203 -0.8060 4.1143 14.5952 44.1868 8.0297
# 6 10.6660 6.1926 17.8529 3.5521 8.0297 36.0257
#
#
#
# Elastic Compliance Matrix: (Units=1/GPa)
#
#
# Indices 1 2 3 4 5 6 
#
# 1 0.008115 -0.001985 -0.001500 -0.000409 0.000915 -0.001482
# 2 -0.001985 0.006368 -0.001536 -0.002639 0.000977 0.000296
# 3 -0.001500 -0.001536 0.011998 -0.004757 0.001269 -0.005051
# 4 -0.000409 -0.002639 -0.004757 0.033264 -0.010995 0.002103
# 5 0.000915 0.000977 0.001269 -0.010995 0.027312 -0.006071
# 6 -0.001482 0.000296 -0.005051 0.002103 -0.006071 0.031795
#
#
# Mechanical properties :
#
#
# Convention : Reuss Voigt Hill
#
# Bulk Modulus (GPa) = 60.82586 80.00779 70.41683
# Shear Modulus (GPa) = 37.21013 44.78151 40.99582
#
# Velocity S-wave (km/s) = 4.17006 4.57469 4.37705
# Velocity P-wave (km/s) = 7.18412 8.08045 7.64544
#
# Compressibility (1/GPa) = 0.01644037
#
# Stress axis : x y z
#
# Youngs Moduli (GPa) = 123.23391 157.03109 83.34848
#
# Poissons Ratio (x) = 0.31164 0.12503
# Poissons Ratio (y) = 0.24456 0.12798
# Poissons Ratio (z) = 0.18486 0.24112
#
# Static dielectric constant tensor:
#      x y z
#    x 1.676640 -0.025290 0.045030 
#    y -0.025290 1.817970 -0.017110 
#    z 0.045030 -0.017110 1.747570 
# 
# From -- ./inp_files/606946.got.cif
#   From: 2010.05.17/outbox.cif.g08.bks.cpg/sg2_304_cif.got.tgz:606946.got - 2010.06.03 11:33:40.
