data_PCOD9069975
_publ_section_title
;
Structure prediction by ZEFSAII (Michael W. Deem and Ramdas Pophale) SiO2 
 PCOD9069975
Probable space group: P -1
;
_chemical_formula_sum "Si O2"
_cell_formula_units_Z 14
_cell_length_a 11.617547
_cell_length_b 11.922539
_cell_length_c 12.046488
_cell_angle_alpha 119.003551
_cell_angle_beta 156.315619
_cell_angle_gamma 63.764944
_cell_volume 586.193479
_symmetry_space_group_name_H-M "P -1"
_symmetry_group_IT_number 2
_symmetry_cell_setting 'triclinic'
loop_
_space_group_symop_operation_xyz
x,y,z
-x,-y,-z
loop_
_atom_site_type_symbol
_atom_site_label
_atom_site_fract_x
_atom_site_fract_y
_atom_site_fract_z
Si Si1 0.264561 0.593880 0.786529
Si Si2 0.068436 0.819023 0.884638
Si Si3 0.198565 0.488467 0.062615
Si Si4 0.745825 0.343047 0.448793
Si Si5 0.550317 0.068649 0.193400
Si Si6 0.554265 0.229209 0.612474
Si Si7 0.086324 0.952187 0.304081
O O1 0.312985 0.641938 0.727007
O O2 0.000000 0.500000 0.500000
O O3 0.183440 0.711385 0.850692
O O4 0.500000 0.500000 0.000000
O O5 0.788462 0.772805 0.684448
O O6 0.975537 0.942209 0.792757
O O7 0.323343 0.844991 0.207841
O O8 0.020335 0.419819 0.773666
O O9 0.470719 0.403920 0.293767
O O10 0.324399 0.626448 0.204710
O O11 0.000000 0.500000 0.000000
O O12 0.743506 0.194455 0.405222
O O13 0.736099 0.988043 0.407190
O O14 0.229749 0.098166 0.967307
O O15 0.500000 0.000000 0.000000
O O16 0.702719 0.158136 0.606986
#
# Coordination Sequence:
#
# PCOD9069975 Si02
#       7
#     2   2   2   2   2   2   2
#     4  12  25  43  67  98 134 175 224 278 337 402
#     4  12  25  44  70 101 137 182 227 282 343 406
#     4  12  25  43  68  99 135 178 224 278 338 403
#     4  12  25  44  68  99 135 177 226 279 338 403
#     4  12  26  46  70 100 136 182 232 285 339 403
#     4  12  24  44  70 103 140 180 227 281 341 409
#     4  12  26  46  70 102 139 182 230 283 340 406
#
# _framework density 23.882898999999998
#
# number of rings (size 3 to 8) (size 9 to 14) (size 15 to 20)
#    0.000    0.000    0.000   12.000    0.000    2.286 
#    0.000    0.000    0.000    0.000    0.000    0.000 
#    0.000    0.000    0.000    0.000    0.000    0.000 
#
# Total GULP energy -78510.591952 kJ/mol
# GULP energy per Si atom -5607.899425 kJ/mol
# Density = 2.382854 g / cm^3
# Si number density = 23.882899 Si / 1000 Ang^3
#
#
#
# Elastic Constant Matrix: (Units=GPa)
#
#
# Indices 1 2 3 4 5 6 
#
# 1 72.7144 1.6829 -11.5405 13.5414 9.2049 -4.4940
# 2 1.6829 78.8438 -4.4860 7.1633 6.1778 -6.8594
# 3 -11.5405 -4.4860 99.4918 -2.8763 5.6121 -5.0124
# 4 13.5414 7.1633 -2.8763 29.3083 -0.5381 -4.4908
# 5 9.2049 6.1778 5.6121 -0.5381 49.1261 -4.0262
# 6 -4.4940 -6.8594 -5.0124 -4.4908 -4.0262 38.4265
#
#
#
# Elastic Compliance Matrix: (Units=1/GPa)
#
#
# Indices 1 2 3 4 5 6 
#
# 1 0.015864 0.000775 0.001904 -0.007231 -0.003280 0.001053
# 2 0.000775 0.013323 0.000798 -0.003262 -0.001783 0.002005
# 3 0.001904 0.000798 0.010479 0.000170 -0.001522 0.001592
# 4 -0.007231 -0.003262 0.000170 0.038839 0.002449 0.003390
# 5 -0.003280 -0.001783 -0.001522 0.002449 0.021530 0.001642
# 6 0.001053 0.002005 0.001592 0.003390 0.001642 0.027281
#
#
# Mechanical properties :
#
#
# Convention : Reuss Voigt Hill
#
# Bulk Modulus (GPa) = 21.45002 24.70699 23.07851
# Shear Modulus (GPa) = 36.79172 41.06508 38.92840
#
# Velocity S-wave (km/s) = 3.92918 4.15110 4.04167
# Velocity P-wave (km/s) = 5.43925 5.77435 5.60930
#
# Compressibility (1/GPa) = 0.04662000
#
# Stress axis : x y z
#
# Youngs Moduli (GPa) = 63.03720 75.06019 95.42988
#
# Poissons Ratio (x) = -0.05820 -0.18171
# Poissons Ratio (y) = -0.04888 -0.07615
# Poissons Ratio (z) = -0.12003 -0.05989
#
# Static dielectric constant tensor:
#      x y z
#    x 1.952040 -0.016010 -0.037980 
#    y -0.016010 1.916450 0.004380 
#    z -0.037980 0.004380 1.852630 
# 
# From -- ./inp_files/427867.got.cif
#   From: 2010.05.17/outbox.cif.g08.bks.cpg/sg2_214_cif.got.tgz:427867.got - 2010.06.03 11:33:40.
