data_PCOD9069294
_publ_section_title
;
Structure prediction by ZEFSAII (Michael W. Deem and Ramdas Pophale) SiO2 
 PCOD9069294
Probable space group: P -1
;
_chemical_formula_sum "Si O2"
_cell_formula_units_Z 16
_cell_length_a 9.266572
_cell_length_b 14.516374
_cell_length_c 5.400898
_cell_angle_alpha 77.311625
_cell_angle_beta 96.458211
_cell_angle_gamma 113.927811
_cell_volume 647.633971
_symmetry_space_group_name_H-M "P -1"
_symmetry_group_IT_number 2
_symmetry_cell_setting 'triclinic'
loop_
_space_group_symop_operation_xyz
x,y,z
-x,-y,-z
loop_
_atom_site_type_symbol
_atom_site_label
_atom_site_fract_x
_atom_site_fract_y
_atom_site_fract_z
Si Si1 0.396952 0.988286 0.737981
Si Si2 0.209681 0.784304 0.052316
Si Si3 0.956750 0.397022 0.190440
Si Si4 0.552798 0.619280 0.837649
Si Si5 0.104396 0.053649 0.733973
Si Si6 0.741669 0.561398 0.562451
Si Si7 0.301297 0.655315 0.469841
Si Si8 0.148966 0.263138 0.855336
O O1 0.500000 0.000000 0.500000
O O2 0.272655 0.042735 0.726477
O O3 0.282475 0.870124 0.812316
O O4 0.500000 0.000000 0.000000
O O5 0.321646 0.766179 0.296815
O O6 0.038916 0.783378 0.091770
O O7 0.168977 0.681998 0.956832
O O8 0.878753 0.389732 0.444013
O O9 0.116862 0.380822 0.255590
O O10 0.000000 0.500000 0.000000
O O11 0.610091 0.600924 0.588968
O O12 0.413352 0.655650 0.721800
O O13 0.500000 0.500000 0.000000
O O14 0.696845 0.708820 0.952956
O O15 0.148774 0.175639 0.711237
O O16 0.000000 0.000000 0.500000
O O17 0.000000 0.000000 0.000000
O O18 0.695574 0.440654 0.634148
O O19 0.813246 0.619352 0.291042
#
# Coordination Sequence:
#
# PCOD9069294 Si02
#       8
#     2   2   2   2   2   2   2   2
#     4  12  31  59  87 126 171 213 283 377 444 508
#     4  12  27  49  81 114 156 223 278 350 432 515
#     4  12  23  40  72 110 156 208 273 329 407 506
#     4  12  27  46  69 114 171 216 271 342 415 503
#     4  12  29  56  91 124 164 220 294 358 431 521
#     4  12  24  43  69 108 159 216 270 330 405 513
#     4  12  26  42  72 113 165 213 277 336 418 504
#     4  12  27  49  83 113 157 227 276 341 426 512
#
# _framework density 24.705313
#
# number of rings (size 3 to 8) (size 9 to 14) (size 15 to 20)
#    0.000    0.000    6.250    3.000    5.250    2.000 
#    0.000    0.000    0.000    0.000    0.000    0.000 
#    0.000    0.000    0.000    0.000    0.000    0.000 
#
# Total GULP energy -89095.795438 kJ/mol
# GULP energy per Si atom -5568.487215 kJ/mol
# Density = 2.464908 g / cm^3
# Si number density = 24.705313 Si / 1000 Ang^3
#
#
#
# Elastic Constant Matrix: (Units=GPa)
#
#
# Indices 1 2 3 4 5 6 
#
# 1 188.6615 44.2355 72.7111 4.1700 3.7277 -18.2799
# 2 44.2355 99.5149 28.9632 2.7594 -2.0814 -15.1953
# 3 72.7111 28.9632 108.0188 3.7865 -4.4719 -1.9823
# 4 4.1700 2.7594 3.7865 50.0502 9.5632 1.9077
# 5 3.7277 -2.0814 -4.4719 9.5632 49.6171 6.1615
# 6 -18.2799 -15.1953 -1.9823 1.9077 6.1615 30.9307
#
#
#
# Elastic Compliance Matrix: (Units=1/GPa)
#
#
# Indices 1 2 3 4 5 6 
#
# 1 0.007988 -0.001534 -0.004957 -0.000053 -0.001594 0.003970
# 2 -0.001534 0.012115 -0.002109 -0.000555 -0.000075 0.004960
# 3 -0.004957 -0.002109 0.013206 -0.000728 0.002047 -0.003482
# 4 -0.000053 -0.000555 -0.000728 0.020867 -0.004003 -0.000840
# 5 -0.001594 -0.000075 0.002047 -0.004003 0.021842 -0.004952
# 6 0.003970 0.004960 -0.003482 -0.000840 -0.004952 0.037929
#
#
# Mechanical properties :
#
#
# Convention : Reuss Voigt Hill
#
# Bulk Modulus (GPa) = 62.07106 76.44608 69.25857
# Shear Modulus (GPa) = 36.62582 42.80531 39.71557
#
# Velocity S-wave (km/s) = 3.85451 4.16701 4.01380
# Velocity P-wave (km/s) = 6.70737 7.35950 7.04099
#
# Compressibility (1/GPa) = 0.01611057
#
# Stress axis : x y z
#
# Youngs Moduli (GPa) = 125.18914 82.53998 75.72217
#
# Poissons Ratio (x) = 0.12658 0.37536
# Poissons Ratio (y) = 0.19199 0.15968
# Poissons Ratio (z) = 0.62056 0.17406
#
# Static dielectric constant tensor:
#      x y z
#    x 2.206870 0.276920 0.061650 
#    y 0.276920 2.295830 -0.007380 
#    z 0.061650 -0.007380 2.124130 
# 
# From -- ./inp_files/38038.got.cif
#   From: 2010.05.17/outbox.cif.g08.bks.cpg/sg2_20_cif.got.tgz:38038.got - 2010.06.03 11:33:40.
