data_PCOD9069329
_publ_section_title
;
Structure prediction by ZEFSAII (Michael W. Deem and Ramdas Pophale) SiO2 
 PCOD9069329
Probable space group: P -1
;
_chemical_formula_sum "Si O2"
_cell_formula_units_Z 16
_cell_length_a 11.701764
_cell_length_b 23.250598
_cell_length_c 5.713218
_cell_angle_alpha 68.533581
_cell_angle_beta 102.550024
_cell_angle_gamma 154.146686
_cell_volume 606.295156
_symmetry_space_group_name_H-M "P -1"
_symmetry_group_IT_number 2
_symmetry_cell_setting 'triclinic'
loop_
_space_group_symop_operation_xyz
x,y,z
-x,-y,-z
loop_
_atom_site_type_symbol
_atom_site_label
_atom_site_fract_x
_atom_site_fract_y
_atom_site_fract_z
Si Si1 0.225805 0.394929 0.921856
Si Si2 0.569344 0.739183 0.598849
Si Si3 0.009861 0.647142 0.476879
Si Si4 0.024940 0.428044 0.981833
Si Si5 0.018227 0.170584 0.296467
Si Si6 0.580216 0.808580 0.994391
Si Si7 0.585575 0.917078 0.144639
Si Si8 0.277614 0.904188 0.345538
O O1 0.060777 0.371526 0.015943
O O2 0.252592 0.445875 0.619574
O O3 0.500000 0.500000 0.000000
O O4 0.053129 0.249636 0.039122
O O5 0.248217 0.572849 0.728607
O O6 0.716323 0.744277 0.702310
O O7 0.617517 0.785072 0.284316
O O8 0.661794 0.822715 0.750038
O O9 0.280246 0.747658 0.320053
O O10 0.162458 0.782111 0.425740
O O11 0.906226 0.545450 0.753793
O O12 0.731014 0.318008 0.999810
O O13 0.958605 0.168960 0.527138
O O14 0.775776 0.013940 0.312001
O O15 0.711082 0.933980 0.971242
O O16 0.579344 0.982842 0.943160
O O17 0.500000 0.000000 0.500000
#
# Coordination Sequence:
#
# PCOD9069329 Si02
#       8
#     2   2   2   2   2   2   2   2
#     4  12  25  46  73 115 156 194 249 319 411 472
#     4  12  31  52  78 112 158 207 268 323 381 453
#     4  12  24  43  78 116 154 198 251 323 398 476
#     4  12  26  49  81 110 151 200 259 327 387 465
#     4  12  27  47  75 117 156 201 248 323 404 472
#     4  12  29  52  79 111 149 216 273 318 374 453
#     4  12  26  45  76 107 153 199 265 317 382 458
#     4  12  23  41  74 112 155 197 247 315 396 480
#
# _framework density 26.389786999999998
#
# number of rings (size 3 to 8) (size 9 to 14) (size 15 to 20)
#    0.000    0.000    6.250    3.375    5.250    1.500 
#    0.000    0.000    0.000    0.000    0.000    0.000 
#    0.000    0.000    0.000    0.000    0.000    0.000 
#
# Total GULP energy -89342.426968 kJ/mol
# GULP energy per Si atom -5583.901685 kJ/mol
# Density = 2.632972 g / cm^3
# Si number density = 26.389787 Si / 1000 Ang^3
#
#
#
# Elastic Constant Matrix: (Units=GPa)
#
#
# Indices 1 2 3 4 5 6 
#
# 1 133.0169 17.3158 0.4392 8.1571 -1.8529 -21.5586
# 2 17.3158 52.8228 -3.3899 19.5930 5.6937 7.4745
# 3 0.4392 -3.3899 106.2189 10.0557 29.7226 -3.3681
# 4 8.1571 19.5930 10.0557 31.8796 -1.2634 1.0180
# 5 -1.8529 5.6937 29.7226 -1.2634 37.0376 -0.2782
# 6 -21.5586 7.4745 -3.3681 1.0180 -0.2782 38.8595
#
#
#
# Elastic Compliance Matrix: (Units=1/GPa)
#
#
# Indices 1 2 3 4 5 6 
#
# 1 0.008976 -0.003988 -0.000398 0.000154 0.001429 0.005718
# 2 -0.003988 0.029673 0.005250 -0.019031 -0.009676 -0.007036
# 3 -0.000398 0.005250 0.013727 -0.007937 -0.012113 0.000081
# 4 0.000154 -0.019031 -0.007937 0.045898 0.010883 0.001934
# 5 0.001429 -0.009676 -0.012113 0.010883 0.038663 0.001596
# 6 0.005718 -0.007036 0.000081 0.001934 0.001596 0.030227
#
#
# Mechanical properties :
#
#
# Convention : Reuss Voigt Hill
#
# Bulk Modulus (GPa) = 18.48311 35.64319 27.06315
# Shear Modulus (GPa) = 27.25235 40.06825 33.66030
#
# Velocity S-wave (km/s) = 3.21703 3.90080 3.57530
# Velocity P-wave (km/s) = 4.56269 5.81584 5.22696
#
# Compressibility (1/GPa) = 0.05410345
#
# Stress axis : x y z
#
# Youngs Moduli (GPa) = 111.41333 33.70071 72.84797
#
# Poissons Ratio (x) = 0.13440 0.02897
# Poissons Ratio (y) = 0.44433 -0.38242
# Poissons Ratio (z) = 0.04430 -0.17692
#
# Static dielectric constant tensor:
#      x y z
#    x 2.133510 -0.090350 -0.178760 
#    y -0.090350 2.185830 0.116930 
#    z -0.178760 0.116930 2.459140 
# 
# From -- ./inp_files/84226.got.cif
#   From: 2010.05.17/outbox.cif.g08.bks.cpg/sg2_43_cif.got.tgz:84226.got - 2010.06.03 11:33:40.
