data_PCOD9069680
_publ_section_title
;
Structure prediction by ZEFSAII (Michael W. Deem and Ramdas Pophale) SiO2 
 PCOD9069680
Probable space group: P -1
;
_chemical_formula_sum "Si O2"
_cell_formula_units_Z 14
_cell_length_a 8.604288
_cell_length_b 12.102548
_cell_length_c 18.273092
_cell_angle_alpha 38.513661
_cell_angle_beta 129.387792
_cell_angle_gamma 148.451285
_cell_volume 616.926615
_symmetry_space_group_name_H-M "P -1"
_symmetry_group_IT_number 2
_symmetry_cell_setting 'triclinic'
loop_
_space_group_symop_operation_xyz
x,y,z
-x,-y,-z
loop_
_atom_site_type_symbol
_atom_site_label
_atom_site_fract_x
_atom_site_fract_y
_atom_site_fract_z
Si Si1 0.612221 0.090895 0.708597
Si Si2 0.298729 0.950239 0.401644
Si Si3 0.086727 0.315299 0.300903
Si Si4 0.194631 0.401524 0.450928
Si Si5 0.221663 0.290712 0.190672
Si Si6 0.541241 0.937371 0.123238
Si Si7 0.675216 0.863308 0.955695
O O1 0.760616 0.356434 0.655944
O O2 0.693642 0.160217 0.611588
O O3 0.698945 0.950628 0.834647
O O4 0.255119 0.865973 0.726106
O O5 0.374267 0.199494 0.272139
O O6 0.500000 0.000000 0.500000
O O7 0.985412 0.763555 0.444813
O O8 0.064988 0.242675 0.417778
O O9 0.207448 0.301025 0.270170
O O10 0.317606 0.627026 0.217646
O O11 0.500000 0.500000 0.500000
O O12 0.880311 0.097930 0.159982
O O13 0.426661 0.564969 0.065783
O O14 0.424165 0.016564 0.099489
O O15 0.500000 0.000000 0.000000
O O16 0.000000 0.000000 0.000000
#
# Coordination Sequence:
#
# PCOD9069680 Si02
#       7
#     2   2   2   2   2   2   2
#     4  12  27  49  75 110 152 192 247 309 376 440
#     4  12  29  49  73 107 153 197 244 310 368 438
#     4  12  23  46  80 104 148 191 251 302 364 440
#     4  12  27  48  77 108 143 200 253 300 368 441
#     4  12  28  50  75 113 148 199 252 300 379 447
#     4  12  24  47  75 111 149 193 246 304 369 448
#     4  12  28  46  77 111 151 191 242 312 376 441
#
# _framework density 22.693138999999999
#
# number of rings (size 3 to 8) (size 9 to 14) (size 15 to 20)
#    0.000    0.000    5.714    3.429    8.000    2.857 
#    0.000    0.000    0.000    0.000    0.000    0.000 
#    0.000    0.000    0.000    0.000    0.000    0.000 
#
# Total GULP energy -78160.397970 kJ/mol
# GULP energy per Si atom -5582.885569 kJ/mol
# Density = 2.264149 g / cm^3
# Si number density = 22.693139 Si / 1000 Ang^3
#
#
#
# Elastic Constant Matrix: (Units=GPa)
#
#
# Indices 1 2 3 4 5 6 
#
# 1 73.6239 25.7208 23.6419 11.6785 -7.4204 -13.1557
# 2 25.7208 74.7691 9.6038 6.3888 1.5652 -10.4723
# 3 23.6419 9.6038 87.7059 4.5188 -6.8855 -21.5015
# 4 11.6785 6.3888 4.5188 54.5108 -3.1760 -6.5659
# 5 -7.4204 1.5652 -6.8855 -3.1760 47.3018 4.5415
# 6 -13.1557 -10.4723 -21.5015 -6.5659 4.5415 46.1435
#
#
#
# Elastic Compliance Matrix: (Units=1/GPa)
#
#
# Indices 1 2 3 4 5 6 
#
# 1 0.017378 -0.005138 -0.003430 -0.002520 0.002071 0.001628
# 2 -0.005138 0.015512 0.000130 -0.000555 -0.001548 0.002190
# 3 -0.003430 0.000130 0.013691 0.000288 0.000953 0.005378
# 4 -0.002520 -0.000555 0.000288 0.019205 0.000768 0.001947
# 5 0.002071 -0.001548 0.000953 0.000768 0.021838 -0.001356
# 6 0.001628 0.002190 0.005378 0.001947 -0.001356 0.025549
#
#
# Mechanical properties :
#
#
# Convention : Reuss Voigt Hill
#
# Bulk Modulus (GPa) = 33.66437 39.33691 36.50064
# Shear Modulus (GPa) = 35.72708 41.40004 38.56356
#
# Velocity S-wave (km/s) = 3.97212 4.27587 4.12679
# Velocity P-wave (km/s) = 5.99198 6.46137 6.23109
#
# Compressibility (1/GPa) = 0.02970500
#
# Stress axis : x y z
#
# Youngs Moduli (GPa) = 57.54296 64.46773 73.04253
#
# Poissons Ratio (x) = 0.33121 0.25057
# Poissons Ratio (y) = 0.29564 -0.00951
# Poissons Ratio (z) = 0.19740 -0.00840
#
# Static dielectric constant tensor:
#      x y z
#    x 1.945100 -0.111690 -0.131310 
#    y -0.111690 1.885750 0.083770 
#    z -0.131310 0.083770 2.026080 
# 
# From -- ./inp_files/28477.got.cif
#   From: 2010.05.17/outbox.cif.g08.bks.cpg/sg2_15_cif.got.tgz:28477.got - 2010.06.03 11:33:40.
