data_PCOD9069414
_publ_section_title
;
Structure prediction by ZEFSAII (Michael W. Deem and Ramdas Pophale) SiO2 
 PCOD9069414
Probable space group: P -1
;
_chemical_formula_sum "Si O2"
_cell_formula_units_Z 12
_cell_length_a 9.402775
_cell_length_b 23.700449
_cell_length_c 10.289659
_cell_angle_alpha 34.355361
_cell_angle_beta 150.955202
_cell_angle_gamma 146.015642
_cell_volume 577.900334
_symmetry_space_group_name_H-M "P -1"
_symmetry_group_IT_number 2
_symmetry_cell_setting 'triclinic'
loop_
_space_group_symop_operation_xyz
x,y,z
-x,-y,-z
loop_
_atom_site_type_symbol
_atom_site_label
_atom_site_fract_x
_atom_site_fract_y
_atom_site_fract_z
Si Si1 0.046274 0.073453 0.768867
Si Si2 0.884172 0.048037 0.197081
Si Si3 0.255743 0.775151 0.885786
Si Si4 0.831419 0.420694 0.396064
Si Si5 0.887740 0.716226 0.972876
Si Si6 0.214157 0.539109 0.222555
O O1 0.833575 0.144539 0.435025
O O2 0.023712 0.995549 0.778087
O O3 0.405817 0.159685 0.902742
O O4 0.000000 0.000000 0.000000
O O5 0.085068 0.175726 0.136418
O O6 0.000000 0.000000 0.500000
O O7 0.500000 0.000000 0.000000
O O8 0.009110 0.742343 0.871792
O O9 0.275718 0.666381 0.048139
O O10 0.461285 0.380121 0.137539
O O11 0.000000 0.500000 0.500000
O O12 0.033091 0.477248 0.324023
O O13 0.876667 0.316353 0.686717
O O14 0.500000 0.500000 0.500000
O O15 0.000000 0.500000 0.000000
#
# Coordination Sequence:
#
# PCOD9069414 Si02
#       6
#     2   2   2   2   2   2
#     4  12  26  45  72 107 145 185 237 294 354 432
#     4  12  23  43  69 103 136 181 237 286 343 416
#     4  12  25  46  75 100 143 195 231 290 372 414
#     4  12  26  44  73 105 137 184 243 290 341 424
#     4  12  24  42  76 106 138 185 242 289 349 419
#     4  12  28  47  71 104 147 185 234 297 359 425
#
# _framework density 20.764827
#
# number of rings (size 3 to 8) (size 9 to 14) (size 15 to 20)
#    0.000    0.000    5.000    5.000    2.333    4.000 
#    0.000    0.000    0.000    0.000    0.000    0.000 
#    0.000    0.000    0.000    0.000    0.000    0.000 
#
# Total GULP energy -66990.769135 kJ/mol
# GULP energy per Si atom -5582.564095 kJ/mol
# Density = 2.071757 g / cm^3
# Si number density = 20.764827 Si / 1000 Ang^3
#
#
#
# Elastic Constant Matrix: (Units=GPa)
#
#
# Indices 1 2 3 4 5 6 
#
# 1 115.5868 53.0904 33.7160 6.0628 -19.6687 -27.4747
# 2 53.0904 131.9673 19.3998 2.3737 9.9273 -37.6942
# 3 33.7160 19.3998 139.8241 3.5128 -4.9698 -20.5666
# 4 6.0628 2.3737 3.5128 50.8948 5.3234 7.4064
# 5 -19.6687 9.9273 -4.9698 5.3234 42.8010 4.6870
# 6 -27.4747 -37.6942 -20.5666 7.4064 4.6870 37.5903
#
#
#
# Elastic Compliance Matrix: (Units=1/GPa)
#
#
# Indices 1 2 3 4 5 6 
#
# 1 0.013496 -0.004487 -0.001722 -0.002596 0.006920 0.004071
# 2 -0.004487 0.012897 0.000726 -0.001089 -0.006040 0.011018
# 3 -0.001722 0.000726 0.008084 -0.000950 -0.000354 0.004124
# 4 -0.002596 -0.001089 -0.000950 0.021451 -0.002911 -0.007372
# 5 0.006920 -0.006040 -0.000354 -0.002911 0.028726 -0.004201
# 6 0.004071 0.011018 0.004124 -0.007372 -0.004201 0.044859
#
#
# Mechanical properties :
#
#
# Convention : Reuss Voigt Hill
#
# Bulk Modulus (GPa) = 42.53315 66.64339 54.58827
# Shear Modulus (GPa) = 33.71143 45.00202 39.35672
#
# Velocity S-wave (km/s) = 4.03362 4.66040 4.35829
# Velocity P-wave (km/s) = 6.49779 7.81813 7.18833
#
# Compressibility (1/GPa) = 0.02351107
#
# Stress axis : x y z
#
# Youngs Moduli (GPa) = 74.09456 77.53598 123.69904
#
# Poissons Ratio (x) = 0.34794 0.21298
# Poissons Ratio (y) = 0.33249 -0.08979
# Poissons Ratio (z) = 0.12757 -0.05628
#
# Static dielectric constant tensor:
#      x y z
#    x 1.716050 0.006140 0.029630 
#    y 0.006140 1.739330 -0.040900 
#    z 0.029630 -0.040900 1.683710 
# 
# From -- ./inp_files/197721.got.cif
#   From: 2010.05.17/outbox.cif.g08.bks.cpg/sg2_99_cif.got.tgz:197721.got - 2010.06.03 11:33:40.
