data_PCOD9069197
_publ_section_title
;
Structure prediction by ZEFSAII (Michael W. Deem and Ramdas Pophale) SiO2 
 PCOD9069197
Probable space group: P -1
;
_chemical_formula_sum "Si O2"
_cell_formula_units_Z 16
_cell_length_a 8.937287
_cell_length_b 13.941076
_cell_length_c 11.621483
_cell_angle_alpha 147.506786
_cell_angle_beta 70.264983
_cell_angle_gamma 101.323332
_cell_volume 720.875915
_symmetry_space_group_name_H-M "P -1"
_symmetry_group_IT_number 2
_symmetry_cell_setting 'triclinic'
loop_
_space_group_symop_operation_xyz
x,y,z
-x,-y,-z
loop_
_atom_site_type_symbol
_atom_site_label
_atom_site_fract_x
_atom_site_fract_y
_atom_site_fract_z
Si Si1 0.858243 0.298165 0.176471
Si Si2 0.692715 0.968256 0.899968
Si Si3 0.843844 0.638005 0.133952
Si Si4 0.289177 0.388534 0.613666
Si Si5 0.228120 0.165380 0.008655
Si Si6 0.332808 0.600972 0.201554
Si Si7 0.310417 0.002119 0.576635
Si Si8 0.362413 0.526860 0.380789
O O1 0.841123 0.444312 0.227356
O O2 0.762466 0.388978 0.404626
O O3 0.042852 0.242944 0.107579
O O4 0.769335 0.132769 0.995373
O O5 0.733102 0.789429 0.630853
O O6 0.765072 0.941671 0.982217
O O7 0.500000 0.000000 0.000000
O O8 0.724071 0.643671 0.280274
O O9 0.813837 0.846945 0.309187
O O10 0.787867 0.532230 0.933679
O O11 0.000000 0.500000 0.000000
O O12 0.460645 0.446009 0.598810
O O13 0.335343 0.321534 0.160366
O O14 0.291701 0.049347 0.764050
O O15 0.338289 0.618700 0.354920
O O16 0.282059 0.798066 0.358348
O O17 0.500000 0.500000 0.000000
O O18 0.500000 0.000000 0.500000
#
# Coordination Sequence:
#
# PCOD9069197 Si02
#       8
#     2   2   2   2   2   2   2   2
#     4  12  26  46  70 107 142 186 232 294 364 415
#     4  12  26  44  70 105 141 183 234 288 353 428
#     4  12  28  47  71 108 148 183 239 307 361 414
#     4  12  26  45  71 101 142 190 236 287 357 428
#     4  12  26  45  74 105 144 182 236 301 355 423
#     4  12  24  47  75 105 137 192 244 297 352 427
#     4  12  25  46  77 106 136 193 247 286 354 432
#     4  12  22  45  74 100 143 190 236 290 354 434
#
# _framework density 22.195222999999999
#
# number of rings (size 3 to 8) (size 9 to 14) (size 15 to 20)
#    0.000    0.000    6.250    3.375    1.750    2.500 
#    0.000    0.000    0.000    0.000    0.000    0.000 
#    0.000    0.000    0.000    0.000    0.000    0.000 
#
# Total GULP energy -89520.001443 kJ/mol
# GULP energy per Si atom -5595.000090 kJ/mol
# Density = 2.214471 g / cm^3
# Si number density = 22.195223 Si / 1000 Ang^3
#
#
#
# Elastic Constant Matrix: (Units=GPa)
#
#
# Indices 1 2 3 4 5 6 
#
# 1 47.0934 1.6939 26.9319 -5.8523 0.3250 -19.3804
# 2 1.6939 91.8630 45.2824 14.9548 5.4796 -10.2848
# 3 26.9319 45.2824 107.9006 20.6134 5.8614 1.6812
# 4 -5.8523 14.9548 20.6134 53.5740 0.1020 -3.9871
# 5 0.3250 5.4796 5.8614 0.1020 24.9091 3.3474
# 6 -19.3804 -10.2848 1.6812 -3.9871 3.3474 32.0964
#
#
#
# Elastic Compliance Matrix: (Units=1/GPa)
#
#
# Indices 1 2 3 4 5 6 
#
# 1 0.047772 0.010676 -0.019108 0.012210 -0.003246 0.035123
# 2 0.010676 0.017115 -0.010110 0.001249 -0.003272 0.012957
# 3 -0.019108 -0.010110 0.020119 -0.008261 0.000039 -0.016861
# 4 0.012210 0.001249 -0.008261 0.023660 -0.000086 0.011154
# 5 -0.003246 -0.003272 0.000039 -0.000086 0.041892 -0.007390
# 6 0.035123 0.012957 -0.016861 0.011154 -0.007390 0.059555
#
#
# Mechanical properties :
#
#
# Convention : Reuss Voigt Hill
#
# Bulk Modulus (GPa) = 20.86741 43.85258 32.35999
# Shear Modulus (GPa) = 18.99914 33.64582 26.32248
#
# Velocity S-wave (km/s) = 2.92892 3.89768 3.44750
# Velocity P-wave (km/s) = 4.56731 6.32902 5.51891
#
# Compressibility (1/GPa) = 0.04792161
#
# Stress axis : x y z
#
# Youngs Moduli (GPa) = 20.93293 58.42862 49.70485
#
# Poissons Ratio (x) = -0.62379 0.94975
# Poissons Ratio (y) = -0.22348 0.50252
# Poissons Ratio (z) = 0.39998 0.59072
#
# Static dielectric constant tensor:
#      x y z
#    x 1.867310 -0.070820 -0.098630 
#    y -0.070820 1.948550 0.135500 
#    z -0.098630 0.135500 1.890630 
# 
# From -- ./inp_files/273942.got.cif
#   From: 2010.05.17/outbox.cif.g08.bks.cpg/sg2_137_cif.got.tgz:273942.got - 2010.06.03 11:33:40.
