data_PCOD9069790
_publ_section_title
;
Structure prediction by ZEFSAII (Michael W. Deem and Ramdas Pophale) SiO2 
 PCOD9069790
Probable space group: P -1
;
_chemical_formula_sum "Si O2"
_cell_formula_units_Z 15
_cell_length_a 7.705581
_cell_length_b 9.650194
_cell_length_c 9.596611
_cell_angle_alpha 119.336652
_cell_angle_beta 97.419431
_cell_angle_gamma 86.312429
_cell_volume 616.882569
_symmetry_space_group_name_H-M "P -1"
_symmetry_group_IT_number 2
_symmetry_cell_setting 'triclinic'
loop_
_space_group_symop_operation_xyz
x,y,z
-x,-y,-z
loop_
_atom_site_type_symbol
_atom_site_label
_atom_site_fract_x
_atom_site_fract_y
_atom_site_fract_z
Si Si1 0.061494 0.590796 0.912339
Si Si2 0.449971 0.705369 0.681435
Si Si3 0.945167 0.861756 0.524987
Si Si4 0.500000 0.000000 0.000000
Si Si5 0.859085 0.041262 0.889191
Si Si6 0.439908 0.178609 0.545565
Si Si7 0.450317 0.490758 0.829868
Si Si8 0.861127 0.452966 0.578911
O O1 0.240002 0.520739 0.827919
O O2 0.907637 0.567772 0.769415
O O3 0.109212 0.771920 0.044146
O O4 0.000000 0.500000 0.000000
O O5 0.388446 0.872749 0.824532
O O6 0.551383 0.765199 0.585254
O O7 0.520485 0.620217 0.788579
O O8 0.319017 0.573992 0.536075
O O9 0.759779 0.804075 0.421878
O O10 0.088128 0.725713 0.462444
O O11 0.907600 0.933195 0.708326
O O12 0.000000 0.000000 0.500000
O O13 0.663268 0.006959 0.907214
O O14 0.000000 0.000000 0.000000
O O15 0.529826 0.321269 0.708051
O O16 0.500000 0.000000 0.500000
O O17 0.500000 0.500000 0.000000
O O18 0.000000 0.500000 0.500000
#
# Coordination Sequence:
#
# PCOD9069790 Si02
#       8
#     2   2   2   1   2   2   2   2
#     4  12  27  50  74 114 158 203 265 330 406 490
#     4  12  26  50  79 111 159 204 270 333 407 490
#     4  12  25  47  71 108 151 196 257 318 402 476
#     4  12  24  48  80 118 158 202 280 336 404 490
#     4  12  27  48  81 115 154 209 262 336 408 478
#     4  12  28  49  76 114 153 205 260 333 408 485
#     4  12  29  50  76 110 156 209 267 331 412 486
#     4  12  23  49  80 104 147 204 264 320 395 483
#
# _framework density 24.315812000000001
#
# number of rings (size 3 to 8) (size 9 to 14) (size 15 to 20)
#    0.000    0.000    5.333    3.600    5.600    1.067 
#    0.000    0.000    0.000    0.000    0.000    0.000 
#    0.000    0.000    0.000    0.000    0.000    0.000 
#
# Total GULP energy -83569.319157 kJ/mol
# GULP energy per Si atom -5571.287944 kJ/mol
# Density = 2.426047 g / cm^3
# Si number density = 24.315812 Si / 1000 Ang^3
#
#
#
# Elastic Constant Matrix: (Units=GPa)
#
#
# Indices 1 2 3 4 5 6 
#
# 1 95.3649 18.1641 -0.8944 -10.8150 5.2357 12.2574
# 2 18.1641 129.2257 -1.8095 -13.9456 -4.1029 7.5122
# 3 -0.8944 -1.8095 97.7606 -0.8564 8.1254 7.4601
# 4 -10.8150 -13.9456 -0.8564 50.3740 -0.5296 -13.8480
# 5 5.2357 -4.1029 8.1254 -0.5296 34.1471 -1.6166
# 6 12.2574 7.5122 7.4601 -13.8480 -1.6166 40.5954
#
#
#
# Elastic Compliance Matrix: (Units=1/GPa)
#
#
# Indices 1 2 3 4 5 6 
#
# 1 0.011386 -0.001356 0.000492 0.001247 -0.002146 -0.002937
# 2 -0.001356 0.008195 0.000091 0.001871 0.001179 -0.000439
# 3 0.000492 0.000091 0.010637 -0.000363 -0.002713 -0.002352
# 4 0.001247 0.001871 -0.000363 0.022586 0.000806 0.007081
# 5 -0.002146 0.001179 -0.002713 0.000806 0.030528 0.002419
# 6 -0.002937 -0.000439 -0.002352 0.007081 0.002419 0.028545
#
#
# Mechanical properties :
#
#
# Convention : Reuss Voigt Hill
#
# Bulk Modulus (GPa) = 34.87644 39.25239 37.06441
# Shear Modulus (GPa) = 40.65686 45.48270 43.06978
#
# Velocity S-wave (km/s) = 4.09349 4.32962 4.21321
# Velocity P-wave (km/s) = 6.05941 6.41653 6.24053
#
# Compressibility (1/GPa) = 0.02867265
#
# Stress axis : x y z
#
# Youngs Moduli (GPa) = 87.82887 122.02330 94.01109
#
# Poissons Ratio (x) = 0.16550 -0.04630
# Poissons Ratio (y) = 0.11912 -0.00857
# Poissons Ratio (z) = -0.04325 -0.01112
#
# Static dielectric constant tensor:
#      x y z
#    x 2.020950 -0.022170 0.024370 
#    y -0.022170 2.018070 0.069980 
#    z 0.024370 0.069980 1.984420 
# 
# From -- ./inp_files/160257.got.cif
#   From: 2010.05.17/outbox.cif.g08.bks.cpg/sg2_81_cif.got.tgz:160257.got - 2010.06.03 11:33:40.
