data_PCOD9069300
_publ_section_title
;
Structure prediction by ZEFSAII (Michael W. Deem and Ramdas Pophale) SiO2 
 PCOD9069300
Probable space group: P -1
;
_chemical_formula_sum "Si O2"
_cell_formula_units_Z 14
_cell_length_a 14.505187
_cell_length_b 25.125286
_cell_length_c 25.064053
_cell_angle_alpha 168.326553
_cell_angle_beta 20.972035
_cell_angle_gamma 159.476959
_cell_volume 629.975829
_symmetry_space_group_name_H-M "P -1"
_symmetry_group_IT_number 2
_symmetry_cell_setting 'triclinic'
loop_
_space_group_symop_operation_xyz
x,y,z
-x,-y,-z
loop_
_atom_site_type_symbol
_atom_site_label
_atom_site_fract_x
_atom_site_fract_y
_atom_site_fract_z
Si Si1 0.560025 0.788733 0.717618
Si Si2 0.139779 0.728346 0.791806
Si Si3 0.884338 0.747922 0.739070
Si Si4 0.698992 0.431752 0.066784
Si Si5 0.805059 0.554571 0.898286
Si Si6 0.852449 0.033108 0.421071
Si Si7 0.510646 0.912270 0.587586
O O1 0.500000 0.500000 0.500000
O O2 0.383332 0.775418 0.747576
O O3 0.859618 0.895723 0.636750
O O4 0.500000 0.000000 0.000000
O O5 0.156683 0.553215 0.559097
O O6 0.913357 0.537584 0.764560
O O7 0.077883 0.007700 0.084353
O O8 0.585068 0.722330 0.899543
O O9 0.179871 0.830187 0.690226
O O10 0.637336 0.707443 0.350461
O O11 0.000000 0.500000 0.000000
O O12 0.664714 0.219626 0.827567
O O13 0.845012 0.322712 0.687045
O O14 0.500000 0.500000 0.000000
O O15 0.893518 0.847241 0.167135
O O16 0.602649 0.900788 0.465058
#
# Coordination Sequence:
#
# PCOD9069300 Si02
#       7
#     2   2   2   2   2   2   2
#     4  12  23  42  62  95 137 185 220 270 332 386
#     4  12  24  41  69 100 135 176 228 270 329 401
#     4  12  26  46  73 100 132 180 224 280 341 397
#     4  12  28  48  73 103 133 171 224 285 341 403
#     4  12  23  41  62  97 137 174 220 271 317 396
#     4  12  24  41  67  96 133 179 220 269 334 391
#     4  12  26  49  72 100 136 176 224 279 341 402
#
# _framework density 22.223074
#
# number of rings (size 3 to 8) (size 9 to 14) (size 15 to 20)
#    0.000    0.000    2.857    7.714    4.000    0.000 
#    0.000    0.000    0.000    0.000    0.000    0.000 
#    0.000    0.000    0.000    0.000    0.000    0.000 
#
# Total GULP energy -78078.264349 kJ/mol
# GULP energy per Si atom -5577.018882 kJ/mol
# Density = 2.217249 g / cm^3
# Si number density = 22.223074 Si / 1000 Ang^3
#
#
#
# Elastic Constant Matrix: (Units=GPa)
#
#
# Indices 1 2 3 4 5 6 
#
# 1 195.1900 27.2852 -36.2031 -34.9807 -20.6022 156.3611
# 2 27.2852 117.7344 16.1051 -29.2591 -7.5736 15.1572
# 3 -36.2031 16.1051 149.5197 25.9812 -12.1184 -54.8689
# 4 -34.9807 -29.2591 25.9812 45.6726 -0.7910 -39.4955
# 5 -20.6022 -7.5736 -12.1184 -0.7910 49.2041 -6.6441
# 6 156.3611 15.1572 -54.8689 -39.4955 -6.6441 206.0770
#
#
#
# Elastic Compliance Matrix: (Units=1/GPa)
#
#
# Indices 1 2 3 4 5 6 
#
# 1 0.014323 -0.001398 -0.000051 0.001176 0.004382 -0.010412
# 2 -0.001398 0.011200 -0.002520 0.008630 0.000825 0.001246
# 3 -0.000051 -0.002520 0.008567 -0.005128 0.001832 0.001582
# 4 0.001176 0.008630 -0.005128 0.034537 0.001623 0.003779
# 5 0.004382 0.000825 0.001832 0.001623 0.022511 -0.001861
# 6 -0.010412 0.001246 0.001582 0.003779 -0.001861 0.013746
#
#
# Mechanical properties :
#
#
# Convention : Reuss Voigt Hill
#
# Bulk Modulus (GPa) = 38.23939 52.97984 45.60961
# Shear Modulus (GPa) = 41.13870 90.54119 65.83995
#
# Velocity S-wave (km/s) = 4.30719 6.38987 5.44896
# Velocity P-wave (km/s) = 6.47922 8.85056 7.75605
#
# Compressibility (1/GPa) = 0.02615104
#
# Stress axis : x y z
#
# Youngs Moduli (GPa) = 69.81823 89.28838 116.72739
#
# Poissons Ratio (x) = 0.12480 0.00600
# Poissons Ratio (y) = 0.09759 0.29417
# Poissons Ratio (z) = 0.00359 0.22502
#
# Static dielectric constant tensor:
#      x y z
#    x 1.825790 0.058320 0.001600 
#    y 0.058320 1.919800 0.006240 
#    z 0.001600 0.006240 1.726920 
# 
# From -- ./inp_files/619993.got.cif
#   From: 2010.05.17/outbox.cif.g08.bks.cpg/sg2_310_cif.got.tgz:619993.got - 2010.06.03 11:33:40.
