data_PCOD9069223
_publ_section_title
;
Structure prediction by ZEFSAII (Michael W. Deem and Ramdas Pophale) SiO2 
 PCOD9069223
Probable space group: P -1
;
_chemical_formula_sum "Si O2"
_cell_formula_units_Z 13
_cell_length_a 9.107095
_cell_length_b 9.632790
_cell_length_c 12.342177
_cell_angle_alpha 111.242643
_cell_angle_beta 143.343935
_cell_angle_gamma 78.258675
_cell_volume 595.046926
_symmetry_space_group_name_H-M "P -1"
_symmetry_group_IT_number 2
_symmetry_cell_setting 'triclinic'
loop_
_space_group_symop_operation_xyz
x,y,z
-x,-y,-z
loop_
_atom_site_type_symbol
_atom_site_label
_atom_site_fract_x
_atom_site_fract_y
_atom_site_fract_z
Si Si1 0.734148 0.987327 0.781919
Si Si2 0.550824 0.740370 0.245308
Si Si3 0.500000 0.000000 0.000000
Si Si4 0.060115 0.079484 0.341003
Si Si5 0.439029 0.758440 0.696079
Si Si6 0.221548 0.444504 0.048639
Si Si7 0.060475 0.226211 0.695421
O O1 0.786707 0.974376 0.682678
O O2 0.563154 0.839669 0.685200
O O3 0.607615 0.129843 0.780284
O O4 0.000000 0.000000 0.000000
O O5 0.785284 0.770546 0.475079
O O6 0.380048 0.581715 0.116014
O O7 0.677101 0.763153 0.208429
O O8 0.472905 0.880930 0.847192
O O9 0.223302 0.918480 0.858088
O O10 0.029918 0.948570 0.378012
O O11 0.588461 0.626622 0.782130
O O12 0.148403 0.714663 0.483554
O O13 0.105597 0.316905 0.858991
O O14 0.000000 0.500000 0.000000
#
# Coordination Sequence:
#
# PCOD9069223 Si02
#       7
#     2   2   1   2   2   2   2
#     4  12  24  41  71 107 141 192 246 297 358 431
#     4  12  26  46  72 106 143 194 244 300 372 427
#     4  12  22  46  74 110 142 184 240 308 352 428
#     4  12  24  43  75 108 146 185 247 307 355 436
#     4  12  26  46  75 106 144 193 245 295 370 434
#     4  12  29  51  68 107 155 191 239 311 365 437
#     4  12  25  48  75 102 144 196 244 304 365 433
#
# _framework density 21.847016
#
# number of rings (size 3 to 8) (size 9 to 14) (size 15 to 20)
#    0.000    0.000    6.154    4.154    2.154    1.231 
#    2.769    0.000    0.000    0.000    0.000    0.000 
#    0.000    0.000    0.000    0.000    0.000    0.000 
#
# Total GULP energy -72537.168879 kJ/mol
# GULP energy per Si atom -5579.782221 kJ/mol
# Density = 2.179729 g / cm^3
# Si number density = 21.847016 Si / 1000 Ang^3
#
#
#
# Elastic Constant Matrix: (Units=GPa)
#
#
# Indices 1 2 3 4 5 6 
#
# 1 164.6893 25.0690 3.5426 -7.9493 6.5688 -6.4515
# 2 25.0690 49.8268 -0.4646 -15.7421 1.0610 -0.8015
# 3 3.5426 -0.4646 77.1575 -5.6548 12.8517 -13.3599
# 4 -7.9493 -15.7421 -5.6548 30.9178 -2.9376 4.8903
# 5 6.5688 1.0610 12.8517 -2.9376 36.0214 -1.7143
# 6 -6.4515 -0.8015 -13.3599 4.8903 -1.7143 22.0360
#
#
#
# Elastic Compliance Matrix: (Units=1/GPa)
#
#
# Indices 1 2 3 4 5 6 
#
# 1 0.006693 -0.003442 0.000164 -0.000415 -0.001119 0.001938
# 2 -0.003442 0.025810 0.000745 0.012827 0.000532 -0.002422
# 3 0.000164 0.000745 0.015404 0.001383 -0.005020 0.008717
# 4 -0.000415 0.012827 0.001383 0.040430 0.002139 -0.007622
# 5 -0.001119 0.000532 -0.005020 0.002139 0.029844 -0.001505
# 6 0.001938 -0.002422 0.008717 -0.007622 -0.001505 0.052719
#
#
# Mechanical properties :
#
#
# Convention : Reuss Voigt Hill
#
# Bulk Modulus (GPa) = 23.34152 38.66305 31.00229
# Shear Modulus (GPa) = 26.28174 35.36347 30.82261
#
# Velocity S-wave (km/s) = 3.47218 4.02766 3.76019
# Velocity P-wave (km/s) = 5.17513 6.27415 5.75095
#
# Compressibility (1/GPa) = 0.04284212
#
# Stress axis : x y z
#
# Youngs Moduli (GPa) = 149.40988 38.74428 64.91678
#
# Poissons Ratio (x) = 0.13335 -0.01062
# Poissons Ratio (y) = 0.51425 -0.04839
# Poissons Ratio (z) = -0.02445 -0.02888
#
# Static dielectric constant tensor:
#      x y z
#    x 1.800050 -0.003800 0.011800 
#    y -0.003800 1.806200 -0.078880 
#    z 0.011800 -0.078880 1.837500 
# 
# From -- ./inp_files/147423.got.cif
#   From: 2010.05.17/outbox.cif.g08.bks.cpg/sg2_74_cif.got.tgz:147423.got - 2010.06.03 11:33:40.
