data_PCOD9069047
_publ_section_title
;
Structure prediction by ZEFSAII (Michael W. Deem and Ramdas Pophale) SiO2 
 PCOD9069047
Probable space group: P -1
;
_chemical_formula_sum "Si O2"
_cell_formula_units_Z 12
_cell_length_a 18.330491
_cell_length_b 9.824251
_cell_length_c 17.861471
_cell_angle_alpha 139.831413
_cell_angle_beta 163.893543
_cell_angle_gamma 39.853061
_cell_volume 565.400061
_symmetry_space_group_name_H-M "P -1"
_symmetry_group_IT_number 2
_symmetry_cell_setting 'triclinic'
loop_
_space_group_symop_operation_xyz
x,y,z
-x,-y,-z
loop_
_atom_site_type_symbol
_atom_site_label
_atom_site_fract_x
_atom_site_fract_y
_atom_site_fract_z
Si Si1 0.840993 0.745433 0.440128
Si Si2 0.242867 0.064748 0.223679
Si Si3 0.270756 0.557124 0.440507
Si Si4 0.301641 0.914482 0.051863
Si Si5 0.780954 0.628868 0.894996
Si Si6 0.265893 0.970295 0.699858
O O1 0.000000 0.500000 0.500000
O O2 0.030220 0.874913 0.728929
O O3 0.780098 0.864017 0.348074
O O4 0.557227 0.753391 0.204927
O O5 0.208238 0.321284 0.291304
O O6 0.500000 0.000000 0.500000
O O7 0.273237 0.936595 0.121829
O O8 0.000000 0.000000 0.000000
O O9 0.336532 0.723399 0.636755
O O10 0.981780 0.679693 0.178125
O O11 0.538052 0.519333 0.636200
O O12 0.357000 0.146847 0.180677
O O13 0.000000 0.500000 0.000000
O O14 0.000000 0.000000 0.500000
O O15 0.500000 0.000000 0.000000
#
# Coordination Sequence:
#
# PCOD9069047 Si02
#       6
#     2   2   2   2   2   2
#     4  12  27  48  74 106 143 197 251 302 363 433
#     4  12  28  45  68 108 151 188 232 295 375 444
#     4  12  25  44  71 103 141 187 237 293 358 438
#     4  12  24  46  75 102 142 185 244 298 353 443
#     4  12  22  40  76 109 131 175 241 290 357 420
#     4  12  26  46  72 106 147 191 248 307 364 431
#
# _framework density 21.223911000000001
#
# number of rings (size 3 to 8) (size 9 to 14) (size 15 to 20)
#    0.000    0.000    5.000    5.000    2.333    4.000 
#    0.000    0.000    0.000    0.000    0.000    0.000 
#    0.000    0.000    0.000    0.000    0.000    0.000 
#
# Total GULP energy -67000.997362 kJ/mol
# GULP energy per Si atom -5583.416447 kJ/mol
# Density = 2.117560 g / cm^3
# Si number density = 21.223911 Si / 1000 Ang^3
#
#
#
# Elastic Constant Matrix: (Units=GPa)
#
#
# Indices 1 2 3 4 5 6 
#
# 1 156.6250 50.2376 85.1064 -2.8084 0.0863 2.1498
# 2 50.2376 77.0448 13.3432 -2.3018 7.4267 -5.8213
# 3 85.1064 13.3432 174.3243 -4.1123 5.2465 12.7039
# 4 -2.8084 -2.3018 -4.1123 42.3470 -1.3897 4.5699
# 5 0.0863 7.4267 5.2465 -1.3897 55.6036 -2.8075
# 6 2.1498 -5.8213 12.7039 4.5699 -2.8075 25.0059
#
#
#
# Elastic Compliance Matrix: (Units=1/GPa)
#
#
# Indices 1 2 3 4 5 6 
#
# 1 0.011218 -0.006557 -0.005034 -0.000082 0.001343 0.000232
# 2 -0.006557 0.017454 0.001687 0.000228 -0.002299 0.003470
# 3 -0.005034 0.001687 0.008395 0.000938 -0.001175 -0.003743
# 4 -0.000082 0.000228 0.000938 0.024241 0.000244 -0.004819
# 5 0.001343 -0.002299 -0.001175 0.000244 0.018506 0.001980
# 6 0.000232 0.003470 -0.003743 -0.004819 0.001980 0.043783
#
#
# Mechanical properties :
#
#
# Convention : Reuss Voigt Hill
#
# Bulk Modulus (GPa) = 57.94327 78.37429 68.15878
# Shear Modulus (GPa) = 33.52151 41.87841 37.69996
#
# Velocity S-wave (km/s) = 3.97851 4.44686 4.21919
# Velocity P-wave (km/s) = 6.96167 7.96075 7.47792
#
# Compressibility (1/GPa) = 0.01725826
#
# Stress axis : x y z
#
# Youngs Moduli (GPa) = 89.14317 57.29469 119.11495
#
# Poissons Ratio (x) = 0.37570 0.59963
# Poissons Ratio (y) = 0.58453 -0.20095
# Poissons Ratio (z) = 0.44875 -0.09666
#
# Static dielectric constant tensor:
#      x y z
#    x 1.865340 -0.024370 -0.017810 
#    y -0.024370 1.946930 -0.047630 
#    z -0.017810 -0.047630 1.784570 
# 
# From -- ./inp_files/23105.got.cif
#   From: 2010.05.17/outbox.cif.g08.bks.cpg/sg2_12_cif.got.tgz:23105.got - 2010.06.03 11:33:40.
