data_PCOD9069379
_publ_section_title
;
Structure prediction by ZEFSAII (Michael W. Deem and Ramdas Pophale) SiO2 
 PCOD9069379
Probable space group: P -1
;
_chemical_formula_sum "Si O2"
_cell_formula_units_Z 14
_cell_length_a 12.147172
_cell_length_b 18.600078
_cell_length_c 9.647242
_cell_angle_alpha 72.406206
_cell_angle_beta 130.261366
_cell_angle_gamma 148.769950
_cell_volume 667.780840
_symmetry_space_group_name_H-M "P -1"
_symmetry_group_IT_number 2
_symmetry_cell_setting 'triclinic'
loop_
_space_group_symop_operation_xyz
x,y,z
-x,-y,-z
loop_
_atom_site_type_symbol
_atom_site_label
_atom_site_fract_x
_atom_site_fract_y
_atom_site_fract_z
Si Si1 0.781424 0.676915 0.530198
Si Si2 0.606285 0.624476 0.097898
Si Si3 0.176648 0.505032 0.619164
Si Si4 0.679644 0.007964 0.686828
Si Si5 0.288656 0.139499 0.269474
Si Si6 0.070740 0.973333 0.691719
Si Si7 0.350961 0.834433 0.803467
O O1 0.500000 0.500000 0.500000
O O2 0.645080 0.627321 0.290677
O O3 0.879627 0.804228 0.600467
O O4 0.137276 0.798090 0.729580
O O5 0.958770 0.817927 0.200074
O O6 0.500000 0.500000 0.000000
O O7 0.313163 0.542183 0.856756
O O8 0.496529 0.682948 0.683096
O O9 0.000000 0.500000 0.500000
O O10 0.939578 0.338490 0.433051
O O11 0.500000 0.000000 0.500000
O O12 0.527699 0.855061 0.600375
O O13 0.645833 0.994307 0.835345
O O14 0.090896 0.058183 0.295255
O O15 0.000000 0.000000 0.000000
O O16 0.000000 0.000000 0.500000
O O17 0.458821 0.132547 0.956327
#
# Coordination Sequence:
#
# PCOD9069379 Si02
#       7
#     2   2   2   2   2   2   2
#     4  12  28  50  73 106 157 196 235 300 374 446
#     4  12  25  45  76 108 140 187 249 300 358 431
#     4  12  23  42  72 112 140 177 246 306 356 416
#     4  12  23  42  76 109 139 182 250 302 355 421
#     4  12  23  45  75 102 145 188 238 306 358 423
#     4  12  28  49  72 105 150 194 245 296 369 445
#     4  12  25  48  73 109 146 196 240 304 367 436
#
# _framework density 20.964962
#
# number of rings (size 3 to 8) (size 9 to 14) (size 15 to 20)
#    0.000    0.000    7.143    2.143    4.000    0.000 
#    2.571    1.429    0.000    0.000    0.000    0.000 
#    0.000    0.000    0.000    0.000    0.000    0.000 
#
# Total GULP energy -78098.747909 kJ/mol
# GULP energy per Si atom -5578.481993 kJ/mol
# Density = 2.091724 g / cm^3
# Si number density = 20.964962 Si / 1000 Ang^3
#
#
#
# Elastic Constant Matrix: (Units=GPa)
#
#
# Indices 1 2 3 4 5 6 
#
# 1 145.7955 40.6689 48.0244 -23.0367 1.6514 0.1612
# 2 40.6689 114.0365 51.4071 -10.3522 -8.3325 12.2810
# 3 48.0244 51.4071 150.0310 -33.5038 9.0910 10.6411
# 4 -23.0367 -10.3522 -33.5038 41.4762 -11.4704 -2.5057
# 5 1.6514 -8.3325 9.0910 -11.4704 38.9854 -7.5191
# 6 0.1612 12.2810 10.6411 -2.5057 -7.5191 39.4868
#
#
#
# Elastic Compliance Matrix: (Units=1/GPa)
#
#
# Indices 1 2 3 4 5 6 
#
# 1 0.008430 -0.002191 -0.001344 0.003334 0.000731 0.001360
# 2 -0.002191 0.011449 -0.003329 -0.000409 0.002781 -0.002151
# 3 -0.001344 -0.003329 0.009722 0.005766 -0.001515 -0.001502
# 4 0.003334 -0.000409 0.005766 0.033031 0.008587 0.002291
# 5 0.000731 0.002781 -0.001515 0.008587 0.030220 0.005840
# 6 0.001360 -0.002151 -0.001502 0.002291 0.005840 0.027650
#
#
# Mechanical properties :
#
#
# Convention : Reuss Voigt Hill
#
# Bulk Modulus (GPa) = 62.99843 76.67373 69.83608
# Shear Modulus (GPa) = 35.83704 41.97386 38.90545
#
# Velocity S-wave (km/s) = 4.13895 4.47933 4.31250
# Velocity P-wave (km/s) = 7.27707 7.96268 7.62758
#
# Compressibility (1/GPa) = 0.01587341
#
# Stress axis : x y z
#
# Youngs Moduli (GPa) = 118.62768 87.34548 102.85866
#
# Poissons Ratio (x) = 0.19136 0.13823
# Poissons Ratio (y) = 0.25989 0.34240
# Poissons Ratio (z) = 0.15942 0.29076
#
# Static dielectric constant tensor:
#      x y z
#    x 1.797430 0.064590 0.012560 
#    y 0.064590 2.000550 -0.001760 
#    z 0.012560 -0.001760 1.785520 
# 
# From -- ./inp_files/176775.got.cif
#   From: 2010.05.17/outbox.cif.g08.bks.cpg/sg2_89_cif.got.tgz:176775.got - 2010.06.03 11:33:40.
