data_PCOD9069997
_publ_section_title
;
Structure prediction by ZEFSAII (Michael W. Deem and Ramdas Pophale) SiO2 
 PCOD9069997
Probable space group: P -1
;
_chemical_formula_sum "Si O2"
_cell_formula_units_Z 15
_cell_length_a 8.547522
_cell_length_b 8.193157
_cell_length_c 21.619918
_cell_angle_alpha 37.071574
_cell_angle_beta 45.365094
_cell_angle_gamma 53.696163
_cell_volume 647.723093
_symmetry_space_group_name_H-M "P -1"
_symmetry_group_IT_number 2
_symmetry_cell_setting 'triclinic'
loop_
_space_group_symop_operation_xyz
x,y,z
-x,-y,-z
loop_
_atom_site_type_symbol
_atom_site_label
_atom_site_fract_x
_atom_site_fract_y
_atom_site_fract_z
Si Si1 0.668767 0.739301 0.037694
Si Si2 0.407285 0.325155 0.663391
Si Si3 0.500000 0.500000 0.000000
Si Si4 0.913631 0.803690 0.827128
Si Si5 0.327134 0.953222 0.506362
Si Si6 0.896306 0.216824 0.605060
Si Si7 0.614754 0.180073 0.262051
Si Si8 0.754455 0.915877 0.094096
O O1 0.586226 0.435609 0.144896
O O2 0.735235 0.754003 0.085283
O O3 0.853115 0.780836 0.923304
O O4 0.500000 0.000000 0.000000
O O5 0.358215 0.642926 0.568134
O O6 0.668891 0.262403 0.618173
O O7 0.296363 0.259360 0.779257
O O8 0.333586 0.102831 0.702786
O O9 0.763287 0.585550 0.903923
O O10 0.414964 0.817165 0.939812
O O11 0.178340 0.786271 0.760462
O O12 0.851024 0.083934 0.724154
O O13 0.500000 0.000000 0.500000
O O14 0.399006 0.149728 0.372249
O O15 0.080277 0.024199 0.576913
O O16 0.000000 0.500000 0.500000
O O17 0.000000 0.000000 0.000000
#
# Coordination Sequence:
#
# PCOD9069997 Si02
#       8
#     2   2   1   2   2   2   2   2
#     4  12  25  44  70 105 145 191 242 302 370 441
#     4  12  26  49  74 112 151 195 250 314 367 448
#     4  12  24  44  72 106 146 188 244 302 366 440
#     4  12  25  48  75 104 149 196 244 306 373 443
#     4  12  25  47  79 108 147 200 252 302 374 446
#     4  12  26  47  79 107 147 199 247 306 372 436
#     4  12  27  49  73 109 152 191 250 312 376 441
#     4  12  26  44  73 106 148 192 246 299 378 440
#
# _framework density 23.158042999999999
#
# number of rings (size 3 to 8) (size 9 to 14) (size 15 to 20)
#    0.000    0.000    5.333    4.000    3.733    0.533 
#    2.400    0.000    0.000    0.000    0.000    0.000 
#    0.000    0.000    0.000    0.000    0.000    0.000 
#
# Total GULP energy -83695.564630 kJ/mol
# GULP energy per Si atom -5579.704309 kJ/mol
# Density = 2.310533 g / cm^3
# Si number density = 23.158043 Si / 1000 Ang^3
#
#
#
# Elastic Constant Matrix: (Units=GPa)
#
#
# Indices 1 2 3 4 5 6 
#
# 1 64.4492 23.9022 31.1897 -7.1257 -24.7035 -3.9270
# 2 23.9022 101.8271 47.0955 -15.1575 -3.3898 -13.7143
# 3 31.1897 47.0955 162.4307 -1.7651 -1.4515 2.5986
# 4 -7.1257 -15.1575 -1.7651 57.1251 4.0220 -2.3270
# 5 -24.7035 -3.3898 -1.4515 4.0220 40.1818 5.6046
# 6 -3.9270 -13.7143 2.5986 -2.3270 5.6046 40.6509
#
#
#
# Elastic Compliance Matrix: (Units=1/GPa)
#
#
# Indices 1 2 3 4 5 6 
#
# 1 0.024062 -0.003510 -0.003455 0.000929 0.014358 -0.000565
# 2 -0.003510 0.013199 -0.003213 0.003313 -0.002163 0.004807
# 3 -0.003455 -0.003213 0.007753 -0.000989 -0.001776 -0.001725
# 4 0.000929 0.003313 -0.000989 0.018672 -0.001407 0.002534
# 5 0.014358 -0.002163 -0.001776 -0.001407 0.034169 -0.004021
# 6 -0.000565 0.004807 -0.001725 0.002534 -0.004021 0.026977
#
#
# Mechanical properties :
#
#
# Convention : Reuss Voigt Hill
#
# Bulk Modulus (GPa) = 40.55675 59.23133 49.89404
# Shear Modulus (GPa) = 32.59312 42.69288 37.64300
#
# Velocity S-wave (km/s) = 3.75563 4.29831 4.03610
# Velocity P-wave (km/s) = 6.02971 7.08989 6.58118
#
# Compressibility (1/GPa) = 0.02465681
#
# Stress axis : x y z
#
# Youngs Moduli (GPa) = 41.56009 75.76192 128.98931
#
# Poissons Ratio (x) = 0.26591 0.44568
# Poissons Ratio (y) = 0.14587 0.41448
# Poissons Ratio (z) = 0.14360 0.24345
#
# Static dielectric constant tensor:
#      x y z
#    x 1.869930 0.001430 0.025780 
#    y 0.001430 1.912890 -0.019520 
#    z 0.025780 -0.019520 1.894260 
# 
# From -- ./inp_files/606539.got.cif
#   From: 2010.05.17/outbox.cif.g08.bks.cpg/sg2_304_cif.got.tgz:606539.got - 2010.06.03 11:33:40.
