data_PCOD9069000
_publ_section_title
;
Structure prediction by ZEFSAII (Michael W. Deem and Ramdas Pophale) SiO2 
 PCOD9069000
Probable space group: P -1
;
_chemical_formula_sum "Si O2"
_cell_formula_units_Z 14
_cell_length_a 16.642716
_cell_length_b 8.405860
_cell_length_c 6.322401
_cell_angle_alpha 78.344620
_cell_angle_beta 60.655761
_cell_angle_gamma 45.501076
_cell_volume 535.500712
_symmetry_space_group_name_H-M "P -1"
_symmetry_group_IT_number 2
_symmetry_cell_setting 'triclinic'
loop_
_space_group_symop_operation_xyz
x,y,z
-x,-y,-z
loop_
_atom_site_type_symbol
_atom_site_label
_atom_site_fract_x
_atom_site_fract_y
_atom_site_fract_z
Si Si1 0.294735 0.462036 0.436565
Si Si2 0.547282 0.414214 0.711169
Si Si3 0.075178 0.616591 0.988482
Si Si4 0.193596 0.045087 0.966355
Si Si5 0.110859 0.811316 0.238866
Si Si6 0.850849 0.711730 0.685091
Si Si7 0.637293 0.970738 0.552725
O O1 0.348763 0.566620 0.418932
O O2 0.169287 0.574668 0.707618
O O3 0.229794 0.570418 0.262129
O O4 0.394106 0.182256 0.400620
O O5 0.500000 0.500000 0.500000
O O6 0.561815 0.197457 0.732212
O O7 0.500000 0.500000 0.000000
O O8 0.038621 0.789845 0.168945
O O9 0.165760 0.379311 0.063800
O O10 0.941733 0.726383 0.024079
O O11 0.315824 0.982671 0.723068
O O12 0.186016 0.072020 0.222576
O O13 0.180662 0.869317 0.006158
O O14 0.000000 0.000000 0.500000
O O15 0.768710 0.783073 0.568893
O O16 0.000000 0.500000 0.500000
#
# Coordination Sequence:
#
# PCOD9069000 Si02
#       7
#     2   2   2   2   2   2   2
#     4  12  27  50  80 115 155 211 268 334 411 486
#     4  12  34  60  88 117 154 208 287 365 425 472
#     4  12  23  39  66 110 163 209 258 305 384 499
#     4  12  24  38  66 109 164 212 251 302 387 483
#     4  12  25  39  65 110 165 212 257 308 383 491
#     4  12  22  38  66 110 163 206 252 299 381 487
#     4  12  27  49  82 115 157 213 260 335 411 488
#
# _framework density 26.143756
#
# number of rings (size 3 to 8) (size 9 to 14) (size 15 to 20)
#    0.000    0.000    5.714    4.286    8.000    1.143 
#    0.000    0.000    0.000    0.000    0.000    0.000 
#    0.000    0.000    0.000    0.000    0.000    0.000 
#
# Total GULP energy -78037.247809 kJ/mol
# GULP energy per Si atom -5574.089129 kJ/mol
# Density = 2.608425 g / cm^3
# Si number density = 26.143756 Si / 1000 Ang^3
#
#
#
# Elastic Constant Matrix: (Units=GPa)
#
#
# Indices 1 2 3 4 5 6 
#
# 1 72.1268 1.4910 20.1969 -0.6596 19.9080 7.8317
# 2 1.4910 122.2154 31.7405 -4.2413 -0.2220 24.0051
# 3 20.1969 31.7405 115.0285 2.0190 14.3397 7.6200
# 4 -0.6596 -4.2413 2.0190 50.2848 15.1922 14.6346
# 5 19.9080 -0.2220 14.3397 15.1922 38.7607 -2.3123
# 6 7.8317 24.0051 7.6200 14.6346 -2.3123 38.2078
#
#
#
# Elastic Compliance Matrix: (Units=1/GPa)
#
#
# Indices 1 2 3 4 5 6 
#
# 1 0.018498 0.002003 -0.001937 0.006289 -0.011702 -0.007781
# 2 0.002003 0.010567 -0.002531 0.004050 -0.002110 -0.008224
# 3 -0.001937 -0.002531 0.010111 0.000331 -0.002910 -0.000332
# 4 0.006289 0.004050 0.000331 0.029885 -0.016016 -0.016315
# 5 -0.011702 -0.002110 -0.002910 -0.016016 0.039918 0.012855
# 6 -0.007781 -0.008224 -0.000332 -0.016315 0.012855 0.040028
#
#
# Mechanical properties :
#
#
# Convention : Reuss Voigt Hill
#
# Bulk Modulus (GPa) = 29.20066 46.24749 37.72407
# Shear Modulus (GPa) = 30.23867 42.51348 36.37608
#
# Velocity S-wave (km/s) = 3.40462 4.03692 3.73418
# Velocity P-wave (km/s) = 5.16224 6.28149 5.74917
#
# Compressibility (1/GPa) = 0.03424581
#
# Stress axis : x y z
#
# Youngs Moduli (GPa) = 54.06120 94.63348 98.90384
#
# Poissons Ratio (x) = -0.18950 0.19154
# Poissons Ratio (y) = -0.10826 0.25030
# Poissons Ratio (z) = 0.10469 0.23949
#
# Static dielectric constant tensor:
#      x y z
#    x 2.048500 0.079310 -0.002720 
#    y 0.079310 2.294030 0.019300 
#    z -0.002720 0.019300 2.062820 
# 
# From -- ./inp_files/106647.got.cif
#   From: 2010.05.17/outbox.cif.g08.bks.cpg/sg2_54_cif.got.tgz:106647.got - 2010.06.03 11:33:40.
