data_PCOD9069144
_publ_section_title
;
Structure prediction by ZEFSAII (Michael W. Deem and Ramdas Pophale) SiO2 
 PCOD9069144
Probable space group: P -1
;
_chemical_formula_sum "Si O2"
_cell_formula_units_Z 16
_cell_length_a 13.203180
_cell_length_b 8.235123
_cell_length_c 19.946994
_cell_angle_alpha 118.011383
_cell_angle_beta 152.918435
_cell_angle_gamma 51.159315
_cell_volume 744.586527
_symmetry_space_group_name_H-M "P -1"
_symmetry_group_IT_number 2
_symmetry_cell_setting 'triclinic'
loop_
_space_group_symop_operation_xyz
x,y,z
-x,-y,-z
loop_
_atom_site_type_symbol
_atom_site_label
_atom_site_fract_x
_atom_site_fract_y
_atom_site_fract_z
Si Si1 0.960940 0.355344 0.112370
Si Si2 0.282448 0.179295 0.722328
Si Si3 0.416112 0.452342 0.755310
Si Si4 0.204267 0.193633 0.364166
Si Si5 0.019039 0.079777 0.365667
Si Si6 0.476173 0.190542 0.300380
Si Si7 0.705512 0.461927 0.448669
Si Si8 0.244336 0.191617 0.853302
O O1 0.871450 0.596394 0.129534
O O2 0.063422 0.221508 0.215978
O O3 0.202271 0.261004 0.185626
O O4 0.709344 0.368770 0.934479
O O5 0.313137 0.332995 0.718393
O O6 0.323746 0.222512 0.831418
O O7 0.982114 0.245067 0.554929
O O8 0.473676 0.935728 0.764466
O O9 0.397736 0.414403 0.658522
O O10 0.224302 0.708220 0.703959
O O11 0.059335 0.152869 0.330998
O O12 0.226251 0.400901 0.434919
O O13 0.500000 0.000000 0.500000
O O14 0.286937 0.980827 0.545831
O O15 0.954035 0.892772 0.286448
O O16 0.512832 0.392360 0.350536
O O17 0.500000 0.000000 0.000000
#
# Coordination Sequence:
#
# PCOD9069144 Si02
#       8
#     2   2   2   2   2   2   2   2
#     4  12  28  47  67 110 146 182 232 296 356 411
#     4  12  24  46  72 101 136 190 241 284 343 427
#     4  12  26  44  73 102 143 181 239 292 347 416
#     4  12  26  44  71 105 142 183 234 292 355 412
#     4  12  22  43  73 100 134 188 238 286 346 419
#     4  12  26  44  73 102 143 181 239 292 347 416
#     4  12  24  46  72 101 136 190 241 284 343 427
#     4  12  26  44  71 105 142 183 234 292 355 412
#
# _framework density 21.488437000000001
#
# number of rings (size 3 to 8) (size 9 to 14) (size 15 to 20)
#    0.000    0.000    7.500    2.250    3.500    3.000 
#    0.000    0.000    0.000    0.000    0.000    0.000 
#    0.000    0.000    0.000    0.000    0.000    0.000 
#
# Total GULP energy -89584.155554 kJ/mol
# GULP energy per Si atom -5599.009722 kJ/mol
# Density = 2.143953 g / cm^3
# Si number density = 21.488437 Si / 1000 Ang^3
#
#
#
# Elastic Constant Matrix: (Units=GPa)
#
#
# Indices 1 2 3 4 5 6 
#
# 1 80.8651 7.2326 21.6340 -5.5352 4.7858 -3.8653
# 2 7.2326 45.8901 0.6468 -7.3856 0.3030 -6.2774
# 3 21.6340 0.6468 99.2069 -23.0928 -3.4018 -16.1903
# 4 -5.5352 -7.3856 -23.0928 35.5427 1.7875 4.7913
# 5 4.7858 0.3030 -3.4018 1.7875 32.4651 -2.4076
# 6 -3.8653 -6.2774 -16.1903 4.7913 -2.4076 38.0294
#
#
#
# Elastic Compliance Matrix: (Units=1/GPa)
#
#
# Indices 1 2 3 4 5 6 
#
# 1 0.013499 -0.002161 -0.003128 -0.000203 -0.002319 -0.000437
# 2 -0.002161 0.023517 0.002245 0.005460 0.000327 0.003951
# 3 -0.003128 0.002245 0.013464 0.007978 0.001774 0.004892
# 4 -0.000203 0.005460 0.007978 0.034495 -0.001095 -0.000138
# 5 -0.002319 0.000327 0.001774 -0.001095 0.031588 0.002711
# 6 -0.000437 0.003951 0.004892 -0.000138 0.002711 0.029175
#
#
# Mechanical properties :
#
#
# Convention : Reuss Voigt Hill
#
# Bulk Modulus (GPa) = 22.52667 31.66542 27.09604
# Shear Modulus (GPa) = 30.00791 34.30402 32.15597
#
# Velocity S-wave (km/s) = 3.74099 3.99982 3.87257
# Velocity P-wave (km/s) = 5.40055 6.00828 5.71250
#
# Compressibility (1/GPa) = 0.04439183
#
# Stress axis : x y z
#
# Youngs Moduli (GPa) = 74.08121 42.52240 74.27384
#
# Poissons Ratio (x) = 0.09188 0.23231
# Poissons Ratio (y) = 0.16006 -0.16672
# Poissons Ratio (z) = 0.23171 -0.09545
#
# Static dielectric constant tensor:
#      x y z
#    x 1.767960 0.004420 -0.031870 
#    y 0.004420 1.805730 -0.001480 
#    z -0.031870 -0.001480 1.765570 
# 
# From -- ./inp_files/216350.got.cif
#   From: 2010.05.17/outbox.cif.g08.bks.cpg/sg2_109_cif.got.tgz:216350.got - 2010.06.03 11:33:40.
