data_PCOD9069628
_publ_section_title
;
Structure prediction by ZEFSAII (Michael W. Deem and Ramdas Pophale) SiO2 
 PCOD9069628
Probable space group: P -1
;
_chemical_formula_sum "Si O2"
_cell_formula_units_Z 16
_cell_length_a 9.110421
_cell_length_b 27.774210
_cell_length_c 27.770460
_cell_angle_alpha 169.673490
_cell_angle_beta 38.956435
_cell_angle_gamma 142.884857
_cell_volume 758.539104
_symmetry_space_group_name_H-M "P -1"
_symmetry_group_IT_number 2
_symmetry_cell_setting 'triclinic'
loop_
_space_group_symop_operation_xyz
x,y,z
-x,-y,-z
loop_
_atom_site_type_symbol
_atom_site_label
_atom_site_fract_x
_atom_site_fract_y
_atom_site_fract_z
Si Si1 0.459800 0.128911 0.586435
Si Si2 0.932865 0.100871 0.667690
Si Si3 0.021137 0.277987 0.237322
Si Si4 0.328352 0.276065 0.928530
Si Si5 0.538746 0.243806 0.268486
Si Si6 0.568565 0.376266 0.167694
Si Si7 0.234228 0.088017 0.290686
Si Si8 0.359365 0.504855 0.843906
O O1 0.182756 0.140807 0.671414
O O2 0.500000 0.000000 0.500000
O O3 0.513730 0.919069 0.325684
O O4 0.621870 0.442746 0.840125
O O5 0.716050 0.830448 0.472951
O O6 0.852006 0.380603 0.966183
O O7 0.000000 0.000000 0.500000
O O8 0.287845 0.367456 0.234808
O O9 0.000000 0.500000 0.500000
O O10 0.806447 0.270692 0.247782
O O11 0.000000 0.000000 0.000000
O O12 0.421236 0.383523 0.064311
O O13 0.047952 0.091219 0.817762
O O14 0.500000 0.500000 0.500000
O O15 0.354969 0.183292 0.301502
O O16 0.500000 0.000000 0.000000
O O17 0.728741 0.646430 0.422070
O O18 0.618118 0.376696 0.098960
O O19 0.618518 0.109492 0.917679
#
# Coordination Sequence:
#
# PCOD9069628 Si02
#       8
#     2   2   2   2   2   2   2   2
#     4  12  27  44  71 101 134 183 233 285 353 411
#     4  12  23  46  71  95 137 179 236 293 339 410
#     4  12  23  48  75 102 143 185 243 294 343 419
#     4  12  26  48  66 103 143 179 227 292 350 420
#     4  12  26  46  74 108 141 189 234 288 355 419
#     4  12  26  47  72 104 139 189 235 288 352 418
#     4  12  27  48  70 102 150 183 229 293 354 420
#     4  12  26  44  71 102 134 185 232 286 354 411
#
# _framework density 21.093178999999999
#
# number of rings (size 3 to 8) (size 9 to 14) (size 15 to 20)
#    0.000    0.000    5.000    4.500    7.000    0.000 
#    2.250    0.000    0.000    0.000    0.000    0.000 
#    0.000    0.000    0.000    0.000    0.000    0.000 
#
# Total GULP energy -89498.602637 kJ/mol
# GULP energy per Si atom -5593.662665 kJ/mol
# Density = 2.104517 g / cm^3
# Si number density = 21.093179 Si / 1000 Ang^3
#
#
#
# Elastic Constant Matrix: (Units=GPa)
#
#
# Indices 1 2 3 4 5 6 
#
# 1 147.6368 56.1360 29.2759 15.1529 -1.9735 -4.8838
# 2 56.1360 97.1082 30.1265 8.2475 8.8810 -12.5124
# 3 29.2759 30.1265 136.0953 11.5321 -4.7907 -15.4735
# 4 15.1529 8.2475 11.5321 36.3168 -4.6047 -1.2599
# 5 -1.9735 8.8810 -4.7907 -4.6047 37.2556 1.0621
# 6 -4.8838 -12.5124 -15.4735 -1.2599 1.0621 46.2804
#
#
#
# Elastic Compliance Matrix: (Units=1/GPa)
#
#
# Indices 1 2 3 4 5 6 
#
# 1 0.009053 -0.005047 -0.000673 -0.002273 0.001336 -0.000727
# 2 -0.005047 0.014646 -0.001890 -0.001055 -0.004214 0.002863
# 3 -0.000673 -0.001890 0.008341 -0.001711 0.001215 0.002132
# 4 -0.002273 -0.001055 -0.001711 0.029709 0.003594 -0.000371
# 5 0.001336 -0.004214 0.001215 0.003594 0.028550 -0.001149
# 6 -0.000727 0.002863 0.002132 -0.000371 -0.001149 0.023034
#
#
# Mechanical properties :
#
#
# Convention : Reuss Voigt Hill
#
# Bulk Modulus (GPa) = 59.45465 67.99079 63.72272
# Shear Modulus (GPa) = 37.26886 41.65734 39.46310
#
# Velocity S-wave (km/s) = 4.20797 4.44883 4.33008
# Velocity P-wave (km/s) = 7.20120 7.66113 7.43472
#
# Compressibility (1/GPa) = 0.01681954
#
# Stress axis : x y z
#
# Youngs Moduli (GPa) = 110.45880 68.27959 119.88885
#
# Poissons Ratio (x) = 0.34463 0.08070
# Poissons Ratio (y) = 0.55752 0.22655
# Poissons Ratio (z) = 0.07436 0.12903
#
# Static dielectric constant tensor:
#      x y z
#    x 1.714510 0.156520 -0.002910 
#    y 0.156520 1.690710 0.060160 
#    z -0.002910 0.060160 1.721540 
# 
# From -- ./inp_files/223735.got.cif
#   From: 2010.05.17/outbox.cif.g08.bks.cpg/sg2_112_cif.got.tgz:223735.got - 2010.06.03 11:33:40.
