data_PCOD9069666
_publ_section_title
;
Structure prediction by ZEFSAII (Michael W. Deem and Ramdas Pophale) SiO2 
 PCOD9069666
Probable space group: P -1
;
_chemical_formula_sum "Si O2"
_cell_formula_units_Z 16
_cell_length_a 17.766188
_cell_length_b 19.807750
_cell_length_c 11.069665
_cell_angle_alpha 44.502851
_cell_angle_beta 30.617533
_cell_angle_gamma 21.988073
_cell_volume 665.395596
_symmetry_space_group_name_H-M "P -1"
_symmetry_group_IT_number 2
_symmetry_cell_setting 'triclinic'
loop_
_space_group_symop_operation_xyz
x,y,z
-x,-y,-z
loop_
_atom_site_type_symbol
_atom_site_label
_atom_site_fract_x
_atom_site_fract_y
_atom_site_fract_z
Si Si1 0.115538 0.665554 0.611262
Si Si2 0.235996 0.437561 0.317973
Si Si3 0.597871 0.091180 0.420196
Si Si4 0.770014 0.882971 0.045257
Si Si5 0.359016 0.320019 0.705947
Si Si6 0.621676 0.521215 0.160754
Si Si7 0.332810 0.858716 0.246442
Si Si8 0.853454 0.328626 0.713382
O O1 0.342072 0.445283 0.564637
O O2 0.314489 0.635007 0.438158
O O3 0.032261 0.741880 0.492922
O O4 0.846832 0.801713 0.906128
O O5 0.503265 0.217690 0.284011
O O6 0.102089 0.585808 0.415862
O O7 0.000000 0.500000 0.500000
O O8 0.345188 0.451368 0.050688
O O9 0.473868 0.211682 0.559880
O O10 0.429890 0.083439 0.655297
O O11 0.951318 0.859343 0.239198
O O12 0.085724 0.706399 0.910617
O O13 0.636075 0.065652 0.977456
O O14 0.589351 0.157742 0.702818
O O15 0.000000 0.500000 0.000000
O O16 0.586255 0.632917 0.154190
O O17 0.000000 0.000000 0.500000
O O18 0.500000 0.500000 0.000000
#
# Coordination Sequence:
#
# PCOD9069666 Si02
#       8
#     2   2   2   2   2   2   2   2
#     4  12  23  46  77 105 152 193 242 310 383 444
#     4  12  28  51  74 105 149 201 258 312 373 453
#     4  12  28  47  79 110 147 201 253 309 383 447
#     4  12  25  45  75 114 147 189 244 310 384 451
#     4  12  25  45  77 112 155 194 242 313 386 459
#     4  12  25  48  71 105 155 194 244 315 371 446
#     4  12  26  43  72 111 149 192 243 300 381 457
#     4  12  29  52  73 107 151 203 256 314 370 451
#
# _framework density 24.045846999999998
#
# number of rings (size 3 to 8) (size 9 to 14) (size 15 to 20)
#    0.000    0.000    7.500    1.875    3.500    3.000 
#    2.250    0.000    0.000    0.000    0.000    0.000 
#    0.000    0.000    0.000    0.000    0.000    0.000 
#
# Total GULP energy -89630.286273 kJ/mol
# GULP energy per Si atom -5601.892892 kJ/mol
# Density = 2.399112 g / cm^3
# Si number density = 24.045847 Si / 1000 Ang^3
#
#
#
# Elastic Constant Matrix: (Units=GPa)
#
#
# Indices 1 2 3 4 5 6 
#
# 1 83.1333 29.3399 20.4542 -0.9619 -15.8185 -11.6923
# 2 29.3399 153.3800 19.7550 -12.8260 -15.4673 -17.4973
# 3 20.4542 19.7550 63.0523 -2.5435 1.6380 -6.8513
# 4 -0.9619 -12.8260 -2.5435 43.2456 -0.5875 -1.9450
# 5 -15.8185 -15.4673 1.6380 -0.5875 22.1099 -14.8554
# 6 -11.6923 -17.4973 -6.8513 -1.9450 -14.8554 50.9240
#
#
#
# Elastic Compliance Matrix: (Units=1/GPa)
#
#
# Indices 1 2 3 4 5 6 
#
# 1 0.018515 0.000418 -0.005584 0.000919 0.020459 0.009647
# 2 0.000418 0.008757 -0.002387 0.002883 0.010725 0.006022
# 3 -0.005584 -0.002387 0.018414 0.000043 -0.008426 -0.002081
# 4 0.000919 0.002883 0.000043 0.024255 0.005907 0.003857
# 5 0.020459 0.010725 -0.008426 0.005907 0.091010 0.034023
# 6 0.009647 0.006022 -0.002081 0.003857 0.034023 0.033714
#
#
# Mechanical properties :
#
#
# Convention : Reuss Voigt Hill
#
# Bulk Modulus (GPa) = 32.70080 48.74043 40.72061
# Shear Modulus (GPa) = 22.73102 38.59033 30.66067
#
# Velocity S-wave (km/s) = 3.07794 4.01042 3.57472
# Velocity P-wave (km/s) = 5.12450 6.46208 5.83176
#
# Compressibility (1/GPa) = 0.03058029
#
# Stress axis : x y z
#
# Youngs Moduli (GPa) = 54.00886 114.19631 54.30788
#
# Poissons Ratio (x) = -0.04772 0.30323
# Poissons Ratio (y) = -0.02257 0.12964
# Poissons Ratio (z) = 0.30156 0.27260
#
# Static dielectric constant tensor:
#      x y z
#    x 2.043990 0.007660 -0.007340 
#    y 0.007660 1.902500 0.002220 
#    z -0.007340 0.002220 1.948480 
# 
# From -- ./inp_files/467090.got.cif
#   From: 2010.05.17/outbox.cif.g08.bks.cpg/sg2_234_cif.got.tgz:467090.got - 2010.06.03 11:33:40.
