data_PCOD9069438
_publ_section_title
;
Structure prediction by ZEFSAII (Michael W. Deem and Ramdas Pophale) SiO2 
 PCOD9069438
Probable space group: P -1
;
_chemical_formula_sum "Si O2"
_cell_formula_units_Z 13
_cell_length_a 12.143355
_cell_length_b 11.460151
_cell_length_c 7.116720
_cell_angle_alpha 140.722292
_cell_angle_beta 74.422745
_cell_angle_gamma 87.360991
_cell_volume 549.125781
_symmetry_space_group_name_H-M "P -1"
_symmetry_group_IT_number 2
_symmetry_cell_setting 'triclinic'
loop_
_space_group_symop_operation_xyz
x,y,z
-x,-y,-z
loop_
_atom_site_type_symbol
_atom_site_label
_atom_site_fract_x
_atom_site_fract_y
_atom_site_fract_z
Si Si1 0.259075 0.030955 0.867225
Si Si2 0.373269 0.577412 0.273200
Si Si3 0.116103 0.828967 0.125322
Si Si4 0.304803 0.017888 0.384576
Si Si5 0.743488 0.544611 0.163783
Si Si6 0.000000 0.000000 0.000000
Si Si7 0.585014 0.731213 0.792694
O O1 0.335877 0.806626 0.630825
O O2 0.296058 0.015916 0.611505
O O3 0.309788 0.181647 0.124224
O O4 0.114353 0.076952 0.018606
O O5 0.390260 0.433912 0.262594
O O6 0.500000 0.500000 0.000000
O O7 0.270167 0.565774 0.157647
O O8 0.231194 0.891131 0.184119
O O9 0.152569 0.616152 0.949532
O O10 0.000000 0.000000 0.500000
O O11 0.078112 0.850024 0.952942
O O12 0.241742 0.252930 0.647014
O O13 0.448573 0.909813 0.113941
O O14 0.614676 0.622162 0.441876
#
# Coordination Sequence:
#
# PCOD9069438 Si02
#       7
#     2   2   2   2   2   1   2
#     4  12  24  48  73 105 150 195 240 300 365 428
#     4  12  23  43  73 106 150 192 238 298 365 433
#     4  12  26  50  72 103 146 193 243 304 359 429
#     4  12  24  47  75 107 152 190 237 305 365 429
#     4  12  26  43  74 111 140 194 247 294 365 438
#     4  12  26  48  74  96 140 194 242 300 356 426
#     4  12  26  46  75 113 152 189 242 300 367 434
#
# _framework density 23.673992999999999
#
# number of rings (size 3 to 8) (size 9 to 14) (size 15 to 20)
#    0.000    0.000    6.154    3.692    0.000    4.308 
#    0.000    5.385    0.000    0.000    0.000    0.000 
#    0.000    0.000    0.000    0.000    0.000    0.000 
#
# Total GULP energy -72622.863840 kJ/mol
# GULP energy per Si atom -5586.374142 kJ/mol
# Density = 2.362011 g / cm^3
# Si number density = 23.673993 Si / 1000 Ang^3
#
#
#
# Elastic Constant Matrix: (Units=GPa)
#
#
# Indices 1 2 3 4 5 6 
#
# 1 94.4670 23.8273 21.0977 0.0525 -10.2385 5.7769
# 2 23.8273 136.4026 61.2498 32.0133 6.2866 -4.6160
# 3 21.0977 61.2498 73.2832 13.4516 -2.5921 0.5718
# 4 0.0525 32.0133 13.4516 58.6433 -2.1155 -5.9193
# 5 -10.2385 6.2866 -2.5921 -2.1155 34.2653 -6.8769
# 6 5.7769 -4.6160 0.5718 -5.9193 -6.8769 50.1557
#
#
#
# Elastic Compliance Matrix: (Units=1/GPa)
#
#
# Indices 1 2 3 4 5 6 
#
# 1 0.011930 -0.001624 -0.002205 0.001428 0.003617 -0.000834
# 2 -0.001624 0.013536 -0.010037 -0.005189 -0.003970 0.000390
# 3 -0.002205 -0.010037 0.022714 0.000322 0.002819 -0.000504
# 4 0.001428 -0.005189 0.000322 0.020138 0.003078 0.002153
# 5 0.003617 -0.003970 0.002819 0.003078 0.032192 0.003963
# 6 -0.000834 0.000390 -0.000504 0.002153 0.003963 0.020873
#
#
# Mechanical properties :
#
#
# Convention : Reuss Voigt Hill
#
# Bulk Modulus (GPa) = 48.90336 57.38915 53.14625
# Shear Modulus (GPa) = 32.06573 41.81141 36.93857
#
# Velocity S-wave (km/s) = 3.68431 4.20710 3.95435
# Velocity P-wave (km/s) = 6.22902 6.92052 6.58385
#
# Compressibility (1/GPa) = 0.02044849
#
# Stress axis : x y z
#
# Youngs Moduli (GPa) = 83.82290 73.87807 44.02635
#
# Poissons Ratio (x) = 0.11997 0.09708
# Poissons Ratio (y) = 0.13612 0.44188
# Poissons Ratio (z) = 0.18483 0.74149
#
# Static dielectric constant tensor:
#      x y z
#    x 1.870660 -0.022600 0.007340 
#    y -0.022600 1.881190 -0.039110 
#    z 0.007340 -0.039110 1.939340 
# 
# From -- ./inp_files/255405.got.cif
#   From: 2010.05.17/outbox.cif.g08.bks.cpg/sg2_128_cif.got.tgz:255405.got - 2010.06.03 11:33:40.
