data_PCOD9069770
_publ_section_title
;
Structure prediction by ZEFSAII (Michael W. Deem and Ramdas Pophale) SiO2 
 PCOD9069770
Probable space group: P -1
;
_chemical_formula_sum "Si O2"
_cell_formula_units_Z 16
_cell_length_a 12.529198
_cell_length_b 9.383607
_cell_length_c 11.991824
_cell_angle_alpha 99.257635
_cell_angle_beta 42.663077
_cell_angle_gamma 125.004697
_cell_volume 690.739738
_symmetry_space_group_name_H-M "P -1"
_symmetry_group_IT_number 2
_symmetry_cell_setting 'triclinic'
loop_
_space_group_symop_operation_xyz
x,y,z
-x,-y,-z
loop_
_atom_site_type_symbol
_atom_site_label
_atom_site_fract_x
_atom_site_fract_y
_atom_site_fract_z
Si Si1 0.993606 0.107391 0.118702
Si Si2 0.370081 0.290915 0.511578
Si Si3 0.595811 0.684677 0.027863
Si Si4 0.927444 0.293308 0.007639
Si Si5 0.471534 0.091230 0.277590
Si Si6 0.889308 0.641053 0.361778
Si Si7 0.817419 0.984159 0.697960
Si Si8 0.780128 0.351842 0.578017
O O1 0.933473 0.214550 0.111025
O O2 0.817213 0.921470 0.311153
O O3 0.230895 0.266602 0.009884
O O4 0.000000 0.000000 0.000000
O O5 0.500000 0.500000 0.500000
O O6 0.510764 0.247853 0.351730
O O7 0.268654 0.321976 0.493632
O O8 0.406792 0.667115 0.222012
O O9 0.500000 0.500000 0.000000
O O10 0.744216 0.867784 0.853688
O O11 0.690392 0.140532 0.117978
O O12 0.000000 0.500000 0.000000
O O13 0.065589 0.322956 0.799942
O O14 0.388687 0.115387 0.232562
O O15 0.288966 0.857435 0.411770
O O16 0.803993 0.438203 0.448151
O O17 0.087306 0.803124 0.309730
O O18 0.000000 0.000000 0.500000
O O19 0.000000 0.500000 0.500000
#
# Coordination Sequence:
#
# PCOD9069770 Si02
#       8
#     2   2   2   2   2   2   2   2
#     4  12  26  52  77 107 157 201 270 315 387 480
#     4  12  28  48  80 107 148 212 262 322 385 477
#     4  12  29  47  83 116 154 213 261 321 394 478
#     4  12  30  49  73 112 154 207 257 326 388 461
#     4  12  28  48  76 114 156 197 258 326 401 456
#     4  12  25  49  73 105 157 201 259 315 390 470
#     4  12  23  48  79 114 151 200 257 321 389 473
#     4  12  29  46  75 119 160 198 255 330 402 463
#
# _framework density 23.163571999999998
#
# number of rings (size 3 to 8) (size 9 to 14) (size 15 to 20)
#    0.000    0.000    5.000    3.000   10.500    1.500 
#    0.000    0.000    0.000    0.000    0.000    0.000 
#    0.000    0.000    0.000    0.000    0.000    0.000 
#
# Total GULP energy -89343.609252 kJ/mol
# GULP energy per Si atom -5583.975578 kJ/mol
# Density = 2.311085 g / cm^3
# Si number density = 23.163572 Si / 1000 Ang^3
#
#
#
# Elastic Constant Matrix: (Units=GPa)
#
#
# Indices 1 2 3 4 5 6 
#
# 1 158.7383 28.1707 43.6804 -9.1113 -10.4735 3.6348
# 2 28.1707 143.1676 6.6992 -3.5913 0.2516 10.1807
# 3 43.6804 6.6992 67.6961 -0.8312 -13.0268 0.8105
# 4 -9.1113 -3.5913 -0.8312 25.8866 -3.8695 3.2723
# 5 -10.4735 0.2516 -13.0268 -3.8695 33.9263 -13.1555
# 6 3.6348 10.1807 0.8105 3.2723 -13.1555 47.6730
#
#
#
# Elastic Compliance Matrix: (Units=1/GPa)
#
#
# Indices 1 2 3 4 5 6 
#
# 1 0.008087 -0.001282 -0.004892 0.002665 0.000851 -0.000208
# 2 -0.001282 0.007390 -0.000090 0.000635 -0.001124 -0.001832
# 3 -0.004892 -0.000090 0.019169 -0.000381 0.006543 0.001898
# 4 0.002665 0.000635 -0.000381 0.040563 0.004580 -0.001853
# 5 0.000851 -0.001124 0.006543 0.004580 0.036601 0.009850
# 6 -0.000208 -0.001832 0.001898 -0.001853 0.009850 0.024196
#
#
# Mechanical properties :
#
#
# Convention : Reuss Voigt Hill
#
# Bulk Modulus (GPa) = 45.21578 58.52252 51.86915
# Shear Modulus (GPa) = 32.07011 40.90064 36.48538
#
# Velocity S-wave (km/s) = 3.72493 4.20662 3.97308
# Velocity P-wave (km/s) = 6.16950 6.99385 6.59457
#
# Compressibility (1/GPa) = 0.02211617
#
# Stress axis : x y z
#
# Youngs Moduli (GPa) = 123.64946 135.32625 52.16644
#
# Poissons Ratio (x) = 0.17353 0.25522
# Poissons Ratio (y) = 0.15855 0.00471
# Poissons Ratio (z) = 0.60495 0.01223
#
# Static dielectric constant tensor:
#      x y z
#    x 1.610460 0.612380 -0.542050 
#    y 0.612380 1.296350 0.515210 
#    z -0.542050 0.515210 1.474600 
# 
# From -- ./inp_files/419413.got.cif
#   From: 2010.05.17/outbox.cif.g08.bks.cpg/sg2_210_cif.got.tgz:419413.got - 2010.06.03 11:33:40.
