data_PCOD9069750
_publ_section_title
;
Structure prediction by ZEFSAII (Michael W. Deem and Ramdas Pophale) SiO2 
 PCOD9069750
Probable space group: P -1
;
_chemical_formula_sum "Si O2"
_cell_formula_units_Z 10
_cell_length_a 7.274595
_cell_length_b 8.635079
_cell_length_c 7.065463
_cell_angle_alpha 87.308254
_cell_angle_beta 101.611301
_cell_angle_gamma 128.099581
_cell_volume 340.397777
_symmetry_space_group_name_H-M "P -1"
_symmetry_group_IT_number 2
_symmetry_cell_setting 'triclinic'
loop_
_space_group_symop_operation_xyz
x,y,z
-x,-y,-z
loop_
_atom_site_type_symbol
_atom_site_label
_atom_site_fract_x
_atom_site_fract_y
_atom_site_fract_z
Si Si1 0.713119 0.802988 0.477873
Si Si2 0.000810 0.686233 0.478362
Si Si3 0.551446 0.154601 0.234270
Si Si4 0.049041 0.840941 0.055489
Si Si5 0.362484 0.566049 0.078130
O O1 0.584655 0.813455 0.631606
O O2 0.002509 0.753666 0.262355
O O3 0.535093 0.722955 0.266069
O O4 0.000000 0.000000 0.500000
O O5 0.766832 0.646608 0.516822
O O6 0.677157 0.330112 0.100559
O O7 0.000000 0.500000 0.500000
O O8 0.254995 0.853875 0.622525
O O9 0.329889 0.965258 0.091218
O O10 0.885783 0.644749 0.908086
O O11 0.000000 0.000000 0.000000
O O12 0.500000 0.500000 0.000000
#
# Coordination Sequence:
#
# PCOD9069750 Si02
#       5
#     2   2   2   2   2
#     4  12  27  49  83 118 154 215 266 316 406 482
#     4  12  25  49  79 119 159 202 268 332 390 471
#     4  12  26  50  82 110 159 211 259 332 395 464
#     4  12  24  47  80 111 160 216 255 325 405 464
#     4  12  23  48  75 115 158 201 263 328 387 472
#
# _framework density 29.377393000000001
#
# number of rings (size 3 to 8) (size 9 to 14) (size 15 to 20)
#    0.000    0.000    8.000    0.600    0.000    3.200 
#    0.000    8.000    0.000    0.000    0.000    0.000 
#    0.000    0.000    0.000    0.000    0.000    0.000 
#
# Total GULP energy -56125.834197 kJ/mol
# GULP energy per Si atom -5612.583420 kJ/mol
# Density = 2.931053 g / cm^3
# Si number density = 29.377393 Si / 1000 Ang^3
#
#
#
# Elastic Constant Matrix: (Units=GPa)
#
#
# Indices 1 2 3 4 5 6 
#
# 1 224.1535 56.1513 61.5619 -1.5420 24.7545 12.7048
# 2 56.1513 197.2559 106.5363 24.0520 8.9363 -2.9530
# 3 61.5619 106.5363 256.1652 6.7926 42.5529 -3.2006
# 4 -1.5420 24.0520 6.7926 77.2539 -2.9017 14.6202
# 5 24.7545 8.9363 42.5529 -2.9017 59.2506 6.6220
# 6 12.7048 -2.9530 -3.2006 14.6202 6.6220 49.0502
#
#
#
# Elastic Compliance Matrix: (Units=1/GPa)
#
#
# Indices 1 2 3 4 5 6 
#
# 1 0.005159 -0.001231 -0.000537 0.000763 -0.001380 -0.001487
# 2 -0.001231 0.007165 -0.002819 -0.002158 0.001236 0.001043
# 3 -0.000537 -0.002819 0.005814 0.000065 -0.003614 0.000817
# 4 0.000763 -0.002158 0.000065 0.014586 0.001215 -0.004835
# 5 -0.001380 0.001236 -0.003614 0.001215 0.020247 -0.002899
# 6 -0.001487 0.001043 0.000817 -0.004835 -0.002899 0.022721
#
#
# Mechanical properties :
#
#
# Convention : Reuss Voigt Hill
#
# Bulk Modulus (GPa) = 111.56556 125.11927 118.34241
# Shear Modulus (GPa) = 56.91104 67.33262 62.12183
#
# Velocity S-wave (km/s) = 4.40618 4.79266 4.60348
# Velocity P-wave (km/s) = 7.99656 8.56207 8.28414
#
# Compressibility (1/GPa) = 0.00896334
#
# Stress axis : x y z
#
# Youngs Moduli (GPa) = 193.82994 139.55810 171.99294
#
# Poissons Ratio (x) = 0.17182 0.09242
# Poissons Ratio (y) = 0.23864 0.48489
# Poissons Ratio (z) = 0.10415 0.39345
#
# Static dielectric constant tensor:
#      x y z
#    x 2.351970 -0.083000 -0.106870 
#    y -0.083000 2.603230 0.110750 
#    z -0.106870 0.110750 2.301620 
# 
# From -- ./inp_files/129555.got.cif
#   From: 2010.05.17/outbox.cif.g08.bks.cpg/sg2_65_cif.got.tgz:129555.got - 2010.06.03 11:33:40.
