data_PCOD9069567
_publ_section_title
;
Structure prediction by ZEFSAII (Michael W. Deem and Ramdas Pophale) SiO2 
 PCOD9069567
Probable space group: P -1
;
_chemical_formula_sum "Si O2"
_cell_formula_units_Z 16
_cell_length_a 11.824427
_cell_length_b 11.692773
_cell_length_c 9.341261
_cell_angle_alpha 129.682766
_cell_angle_beta 58.582125
_cell_angle_gamma 126.879017
_cell_volume 774.806899
_symmetry_space_group_name_H-M "P -1"
_symmetry_group_IT_number 2
_symmetry_cell_setting 'triclinic'
loop_
_space_group_symop_operation_xyz
x,y,z
-x,-y,-z
loop_
_atom_site_type_symbol
_atom_site_label
_atom_site_fract_x
_atom_site_fract_y
_atom_site_fract_z
Si Si1 0.525476 0.384295 0.269907
Si Si2 0.359371 0.039073 0.227055
Si Si3 0.611579 0.653949 0.963889
Si Si4 0.129913 0.141233 0.602361
Si Si5 0.793579 0.207244 0.131247
Si Si6 0.076203 0.160223 0.980445
Si Si7 0.458635 0.031748 0.710518
Si Si8 0.148800 0.491226 0.835404
O O1 0.500000 0.500000 0.500000
O O2 0.483592 0.198432 0.200588
O O3 0.416832 0.378899 0.211086
O O4 0.690115 0.448866 0.149592
O O5 0.269899 0.123670 0.436420
O O6 0.421898 0.957026 0.239767
O O7 0.265368 0.911794 0.065305
O O8 0.500000 0.500000 0.000000
O O9 0.779308 0.709724 0.938643
O O10 0.574192 0.809035 0.142244
O O11 0.122840 0.123939 0.764016
O O12 0.115162 0.303905 0.692028
O O13 0.000000 0.000000 0.500000
O O14 0.807105 0.386493 0.229656
O O15 0.684120 0.118133 0.258674
O O16 0.952393 0.222883 0.078899
O O17 0.000000 0.000000 0.000000
O O18 0.500000 0.000000 0.500000
O O19 0.000000 0.500000 0.000000
#
# Coordination Sequence:
#
# PCOD9069567 Si02
#       8
#     2   2   2   2   2   2   2   2
#     4  12  25  44  78 106 142 187 253 304 361 443
#     4  12  23  45  73 106 137 188 251 301 365 436
#     4  12  28  46  72 104 149 197 239 301 380 435
#     4  12  25  44  72 105 141 189 242 304 364 445
#     4  12  24  46  73 103 143 194 242 309 363 439
#     4  12  24  45  72 101 147 190 243 289 376 437
#     4  12  26  45  71 105 148 190 242 306 372 442
#     4  12  24  42  72 108 142 180 244 308 366 424
#
# _framework density 20.650306
#
# number of rings (size 3 to 8) (size 9 to 14) (size 15 to 20)
#    0.000    0.000    7.500    2.625    1.750    0.000 
#    0.000    0.000    2.750    2.250    0.000    0.000 
#    0.000    0.000    0.000    0.000    0.000    0.000 
#
# Total GULP energy -89401.068783 kJ/mol
# GULP energy per Si atom -5587.566799 kJ/mol
# Density = 2.060330 g / cm^3
# Si number density = 20.650306 Si / 1000 Ang^3
#
#
#
# Elastic Constant Matrix: (Units=GPa)
#
#
# Indices 1 2 3 4 5 6 
#
# 1 159.2665 53.4476 56.0861 3.2953 6.2042 18.2293
# 2 53.4476 167.7976 48.0705 5.6669 3.6371 -5.6433
# 3 56.0861 48.0705 125.3844 -17.3934 5.9850 -0.4698
# 4 3.2953 5.6669 -17.3934 33.7936 -0.8074 -6.5536
# 5 6.2042 3.6371 5.9850 -0.8074 46.4363 0.6979
# 6 18.2293 -5.6433 -0.4698 -6.5536 0.6979 46.6789
#
#
#
# Elastic Compliance Matrix: (Units=1/GPa)
#
#
# Indices 1 2 3 4 5 6 
#
# 1 0.008713 -0.001740 -0.003671 -0.003256 -0.000550 -0.004099
# 2 -0.001740 0.007277 -0.002277 -0.001981 -0.000097 0.001260
# 3 -0.003671 -0.002277 0.011518 0.007093 -0.000727 0.002281
# 4 -0.003256 -0.001981 0.007093 0.035065 0.000195 0.006023
# 5 -0.000550 -0.000097 -0.000727 0.000195 0.021715 -0.000102
# 6 -0.004099 0.001260 0.002281 0.006023 -0.000102 0.024046
#
#
# Mechanical properties :
#
#
# Convention : Reuss Voigt Hill
#
# Bulk Modulus (GPa) = 82.42564 85.29522 83.86043
# Shear Modulus (GPa) = 39.13742 45.03804 42.08773
#
# Velocity S-wave (km/s) = 4.35817 4.67517 4.51945
# Velocity P-wave (km/s) = 8.08248 8.39864 8.24208
#
# Compressibility (1/GPa) = 0.01213215
#
# Stress axis : x y z
#
# Youngs Moduli (GPa) = 114.76564 137.41054 86.82039
#
# Poissons Ratio (x) = 0.23905 0.31875
# Poissons Ratio (y) = 0.19965 0.19772
# Poissons Ratio (z) = 0.42135 0.31293
#
# Static dielectric constant tensor:
#      x y z
#    x 1.777910 0.019640 -0.016660 
#    y 0.019640 1.802670 0.005920 
#    z -0.016660 0.005920 1.729610 
# 
# From -- ./inp_files/263381.got.cif
#   From: 2010.05.17/outbox.cif.g08.bks.cpg/sg2_132_cif.got.tgz:263381.got - 2010.06.03 11:33:40.
