data_PCOD9069526
_publ_section_title
;
Structure prediction by ZEFSAII (Michael W. Deem and Ramdas Pophale) SiO2 
 PCOD9069526
Probable space group: P -1
;
_chemical_formula_sum "Si O2"
_cell_formula_units_Z 15
_cell_length_a 15.289230
_cell_length_b 12.305852
_cell_length_c 9.255946
_cell_angle_alpha 58.705702
_cell_angle_beta 68.054617
_cell_angle_gamma 27.750307
_cell_volume 676.525987
_symmetry_space_group_name_H-M "P -1"
_symmetry_group_IT_number 2
_symmetry_cell_setting 'triclinic'
loop_
_space_group_symop_operation_xyz
x,y,z
-x,-y,-z
loop_
_atom_site_type_symbol
_atom_site_label
_atom_site_fract_x
_atom_site_fract_y
_atom_site_fract_z
Si Si1 0.414644 0.876235 0.715540
Si Si2 0.209526 0.557437 0.026279
Si Si3 0.952476 0.857743 0.237480
Si Si4 0.857220 0.149084 0.352357
Si Si5 0.170254 0.405039 0.603100
Si Si6 0.500000 0.500000 0.500000
Si Si7 0.863859 0.652027 0.840260
Si Si8 0.525413 0.758440 0.391258
O O1 0.595155 0.645746 0.867582
O O2 0.481969 0.808001 0.555862
O O3 0.263015 0.940883 0.782835
O O4 0.305657 0.133372 0.650953
O O5 0.189064 0.432085 0.096197
O O6 0.036340 0.800620 0.072249
O O7 0.201510 0.649000 0.823687
O O8 0.084233 0.586117 0.398756
O O9 0.959300 0.951856 0.295615
O O10 0.676692 0.278254 0.427245
O O11 0.000000 0.000000 0.500000
O O12 0.298721 0.349539 0.658485
O O13 0.991376 0.559052 0.695647
O O14 0.569029 0.566544 0.442114
O O15 0.666842 0.962807 0.759597
O O16 0.000000 0.500000 0.000000
#
# Coordination Sequence:
#
# PCOD9069526 Si02
#       8
#     2   2   2   2   2   1   2   2
#     4  12  23  44  75 113 141 186 248 307 371 430
#     4  12  28  47  76 113 147 191 254 314 366 441
#     4  12  24  47  78 111 148 199 246 309 365 447
#     4  12  30  51  75 105 150 205 248 303 378 447
#     4  12  23  44  78 108 146 191 243 298 377 433
#     4  12  28  48  74 106 146 204 246 288 378 448
#     4  12  28  45  70 112 151 193 246 304 371 445
#     4  12  25  46  74 106 148 195 243 305 365 440
#
# _framework density 22.172096
#
# number of rings (size 3 to 8) (size 9 to 14) (size 15 to 20)
#    0.000    0.000    6.667    2.800    5.600    3.200 
#    0.000    0.000    0.000    0.000    0.000    0.000 
#    0.000    0.000    0.000    0.000    0.000    0.000 
#
# Total GULP energy -83822.833013 kJ/mol
# GULP energy per Si atom -5588.188868 kJ/mol
# Density = 2.212163 g / cm^3
# Si number density = 22.172096 Si / 1000 Ang^3
#
#
#
# Elastic Constant Matrix: (Units=GPa)
#
#
# Indices 1 2 3 4 5 6 
#
# 1 153.3475 24.8895 32.7808 -15.3829 4.6211 -5.2671
# 2 24.8895 44.0447 4.2573 1.5515 -5.8052 -11.2498
# 3 32.7808 4.2573 97.7103 0.1960 6.6380 -26.6076
# 4 -15.3829 1.5515 0.1960 29.5982 -7.4368 -1.4822
# 5 4.6211 -5.8052 6.6380 -7.4368 32.4572 -1.8133
# 6 -5.2671 -11.2498 -26.6076 -1.4822 -1.8133 50.9771
#
#
#
# Elastic Compliance Matrix: (Units=1/GPa)
#
#
# Indices 1 2 3 4 5 6 
#
# 1 0.008406 -0.005133 -0.003041 0.004426 -0.000576 -0.001743
# 2 -0.005133 0.027907 0.002012 -0.002520 0.005112 0.006787
# 3 -0.003041 0.002012 0.013178 -0.001920 -0.001958 0.006883
# 4 0.004426 -0.002520 -0.001920 0.038281 0.008100 0.000300
# 5 -0.000576 0.005112 -0.001958 0.008100 0.034146 0.001497
# 6 -0.001743 0.006787 0.006883 0.000300 0.001497 0.024589
#
#
# Mechanical properties :
#
#
# Convention : Reuss Voigt Hill
#
# Bulk Modulus (GPa) = 26.90603 46.55084 36.72843
# Shear Modulus (GPa) = 29.20238 38.15150 33.67694
#
# Velocity S-wave (km/s) = 3.63309 4.15263 3.90152
# Velocity P-wave (km/s) = 5.45533 6.63576 6.07428
#
# Compressibility (1/GPa) = 0.03716639
#
# Stress axis : x y z
#
# Youngs Moduli (GPa) = 118.96542 35.83376 75.88464
#
# Poissons Ratio (x) = 0.18395 0.23075
# Poissons Ratio (y) = 0.61069 -0.15269
# Poissons Ratio (z) = 0.36176 -0.07210
#
# Static dielectric constant tensor:
#      x y z
#    x 1.798010 0.011730 -0.008750 
#    y 0.011730 1.819470 -0.002970 
#    z -0.008750 -0.002970 1.797330 
# 
# From -- ./inp_files/306476.got.cif
#   From: 2010.05.17/outbox.cif.g08.bks.cpg/sg2_154_cif.got.tgz:306476.got - 2010.06.03 11:33:40.
