data_PCOD9069120
_publ_section_title
;
Structure prediction by ZEFSAII (Michael W. Deem and Ramdas Pophale) SiO2 
 PCOD9069120
Probable space group: P -1
;
_chemical_formula_sum "Si O2"
_cell_formula_units_Z 16
_cell_length_a 9.861533
_cell_length_b 9.750702
_cell_length_c 12.507393
_cell_angle_alpha 71.711753
_cell_angle_beta 83.327389
_cell_angle_gamma 136.402352
_cell_volume 670.430998
_symmetry_space_group_name_H-M "P -1"
_symmetry_group_IT_number 2
_symmetry_cell_setting 'triclinic'
loop_
_space_group_symop_operation_xyz
x,y,z
-x,-y,-z
loop_
_atom_site_type_symbol
_atom_site_label
_atom_site_fract_x
_atom_site_fract_y
_atom_site_fract_z
Si Si1 0.579400 0.904697 0.003348
Si Si2 0.446706 0.720337 0.666437
Si Si3 0.217549 0.263476 0.363971
Si Si4 0.774101 0.207265 0.599737
Si Si5 0.483955 0.752102 0.289257
Si Si6 0.182121 0.521445 0.962508
Si Si7 0.036198 0.916187 0.787051
Si Si8 0.007320 0.227321 0.743489
O O1 0.556827 0.811015 0.143320
O O2 0.396240 0.695732 0.983373
O O3 0.500000 0.000000 0.000000
O O4 0.838892 0.121389 0.882967
O O5 0.578794 0.680445 0.674631
O O6 0.243743 0.520590 0.648443
O O7 0.630808 0.007862 0.566780
O O8 0.301413 0.628265 0.810174
O O9 0.295049 0.464559 0.380463
O O10 0.131357 0.240319 0.260972
O O11 0.000000 0.000000 0.500000
O O12 0.606769 0.167869 0.692633
O O13 0.000000 0.500000 0.500000
O O14 0.857012 0.140894 0.676332
O O15 0.702019 0.905824 0.306050
O O16 0.047775 0.260213 0.067950
O O17 0.000000 0.500000 0.000000
O O18 0.049322 0.093636 0.775688
#
# Coordination Sequence:
#
# PCOD9069120 Si02
#       8
#     2   2   2   2   2   2   2   2
#     4  12  22  43  68 104 146 183 229 294 363 434
#     4  12  25  48  72 105 146 188 243 297 364 433
#     4  12  27  47  72 103 143 192 246 297 354 423
#     4  12  27  48  72 102 144 191 247 302 354 424
#     4  12  26  44  73 107 140 188 236 298 364 423
#     4  12  25  43  74 110 149 188 234 298 371 440
#     4  12  26  46  75 107 145 189 238 297 366 433
#     4  12  26  44  75 106 144 190 238 296 365 434
#
# _framework density 23.865244000000001
#
# number of rings (size 3 to 8) (size 9 to 14) (size 15 to 20)
#    0.000    0.000    6.250    3.750    1.750    5.000 
#    0.000    0.000    0.000    0.000    0.000    0.000 
#    0.000    0.000    0.000    0.000    0.000    0.000 
#
# Total GULP energy -89564.776577 kJ/mol
# GULP energy per Si atom -5597.798536 kJ/mol
# Density = 2.381093 g / cm^3
# Si number density = 23.865244 Si / 1000 Ang^3
#
#
#
# Elastic Constant Matrix: (Units=GPa)
#
#
# Indices 1 2 3 4 5 6 
#
# 1 123.7677 36.4000 24.9302 -5.9959 -10.5192 12.0709
# 2 36.4000 138.4171 -5.1325 -34.7721 -2.9488 7.8366
# 3 24.9302 -5.1325 41.9535 -19.2929 -4.2988 -5.3955
# 4 -5.9959 -34.7721 -19.2929 45.0004 -4.4856 4.8981
# 5 -10.5192 -2.9488 -4.2988 -4.4856 34.4287 -8.2377
# 6 12.0709 7.8366 -5.3955 4.8981 -8.2377 44.9379
#
#
#
# Elastic Compliance Matrix: (Units=1/GPa)
#
#
# Indices 1 2 3 4 5 6 
#
# 1 0.011744 -0.005015 -0.011014 -0.006701 0.000234 -0.002829
# 2 -0.005015 0.012634 0.011286 0.014261 0.002682 -0.000564
# 3 -0.011014 0.011286 0.045688 0.027098 0.008032 0.004995
# 4 -0.006701 0.014261 0.027098 0.044874 0.008208 -0.000820
# 5 0.000234 0.002682 0.008032 0.008208 0.032745 0.005542
# 6 -0.002829 -0.000564 0.004995 -0.000820 0.005542 0.024816
#
#
# Mechanical properties :
#
#
# Convention : Reuss Voigt Hill
#
# Bulk Modulus (GPa) = 16.50689 46.28152 31.39420
# Shear Modulus (GPa) = 24.73042 41.40277 33.06659
#
# Velocity S-wave (km/s) = 3.22258 4.16968 3.72634
# Velocity P-wave (km/s) = 4.55834 6.52814 5.63005
#
# Compressibility (1/GPa) = 0.06058076
#
# Stress axis : x y z
#
# Youngs Moduli (GPa) = 85.14823 79.15442 21.88742
#
# Poissons Ratio (x) = 0.39696 0.24107
# Poissons Ratio (y) = 0.42702 -0.24703
# Poissons Ratio (z) = 0.93781 -0.89336
#
# Static dielectric constant tensor:
#      x y z
#    x 1.839830 0.024310 -0.001930 
#    y 0.024310 1.968480 -0.030060 
#    z -0.001930 -0.030060 1.956880 
# 
# From -- ./inp_files/242185.got.cif
#   From: 2010.05.17/outbox.cif.g08.bks.cpg/sg2_122_cif.got.tgz:242185.got - 2010.06.03 11:33:40.
