data_PCOD9069075
_publ_section_title
;
Structure prediction by ZEFSAII (Michael W. Deem and Ramdas Pophale) SiO2 
 PCOD9069075
Probable space group: P -1
;
_chemical_formula_sum "Si O2"
_cell_formula_units_Z 16
_cell_length_a 14.509511
_cell_length_b 19.797766
_cell_length_c 10.874427
_cell_angle_alpha 147.907813
_cell_angle_beta 31.583229
_cell_angle_gamma 152.858273
_cell_volume 692.473718
_symmetry_space_group_name_H-M "P -1"
_symmetry_group_IT_number 2
_symmetry_cell_setting 'triclinic'
loop_
_space_group_symop_operation_xyz
x,y,z
-x,-y,-z
loop_
_atom_site_type_symbol
_atom_site_label
_atom_site_fract_x
_atom_site_fract_y
_atom_site_fract_z
Si Si1 0.416321 0.797058 0.524615
Si Si2 0.322004 0.737730 0.255935
Si Si3 0.549003 0.427529 0.718348
Si Si4 0.731838 0.545116 0.256959
Si Si5 0.056053 0.002535 0.797358
Si Si6 0.899837 0.663862 0.491308
Si Si7 0.210360 0.182827 0.525057
Si Si8 0.300283 0.024041 0.985149
O O1 0.331494 0.744731 0.401666
O O2 0.335312 0.647297 0.471749
O O3 0.683904 0.900222 0.371796
O O4 0.339631 0.904100 0.815492
O O5 0.536912 0.892621 0.187510
O O6 0.116088 0.723497 0.412969
O O7 0.306590 0.587495 0.994425
O O8 0.699957 0.567482 0.665123
O O9 0.346765 0.283115 0.644944
O O10 0.500000 0.500000 0.000000
O O11 0.500000 0.500000 0.500000
O O12 0.855727 0.558005 0.259958
O O13 0.850541 0.710759 0.304871
O O14 0.930676 0.815308 0.630075
O O15 0.940304 0.055792 0.923904
O O16 0.000000 0.000000 0.000000
O O17 0.352139 0.158318 0.230824
O O18 0.000000 0.000000 0.500000
#
# Coordination Sequence:
#
# PCOD9069075 Si02
#       8
#     2   2   2   2   2   2   2   2
#     4  12  27  46  73 111 153 195 244 310 373 441
#     4  12  24  44  74 109 147 191 253 304 368 448
#     4  12  28  49  72 109 154 200 249 303 380 450
#     4  12  23  46  74 102 144 194 245 304 370 440
#     4  12  22  41  76 106 143 192 244 300 369 438
#     4  12  25  44  73 108 140 195 249 301 370 442
#     4  12  27  46  76 111 148 199 252 309 377 446
#     4  12  24  46  74 110 150 190 249 312 367 439
#
# _framework density 23.105571000000001
#
# number of rings (size 3 to 8) (size 9 to 14) (size 15 to 20)
#    0.000    0.000    6.250    3.750    0.000    3.000 
#    0.000    0.000    0.000    0.000    0.000    0.000 
#    0.000    0.000    0.000    0.000    0.000    0.000 
#
# Total GULP energy -89584.936196 kJ/mol
# GULP energy per Si atom -5599.058512 kJ/mol
# Density = 2.305298 g / cm^3
# Si number density = 23.105571 Si / 1000 Ang^3
#
#
#
# Elastic Constant Matrix: (Units=GPa)
#
#
# Indices 1 2 3 4 5 6 
#
# 1 138.7173 9.7994 29.7581 -1.1944 3.2442 18.0836
# 2 9.7994 35.5701 -2.8322 -4.6794 -7.6823 10.0327
# 3 29.7581 -2.8322 96.7991 19.5186 -1.8236 10.4575
# 4 -1.1944 -4.6794 19.5186 31.4687 4.7226 -6.1641
# 5 3.2442 -7.6823 -1.8236 4.7226 43.4621 5.1192
# 6 18.0836 10.0327 10.4575 -6.1641 5.1192 39.2933
#
#
#
# Elastic Compliance Matrix: (Units=1/GPa)
#
#
# Indices 1 2 3 4 5 6 
#
# 1 0.008236 -0.001858 -0.002632 0.001362 -0.000933 -0.002280
# 2 -0.001858 0.032989 0.002579 0.000382 0.007111 -0.009121
# 3 -0.002632 0.002579 0.013757 -0.009658 0.002868 -0.004997
# 4 0.001362 0.000382 -0.009658 0.040519 -0.005899 0.008971
# 5 -0.000933 0.007111 0.002868 -0.005899 0.025855 -0.006443
# 6 -0.002280 -0.009121 -0.004997 0.008971 -0.006443 0.032404
#
#
# Mechanical properties :
#
#
# Convention : Reuss Voigt Hill
#
# Bulk Modulus (GPa) = 19.54681 38.28192 28.91436
# Shear Modulus (GPa) = 28.63106 38.46890 33.54998
#
# Velocity S-wave (km/s) = 3.52396 4.08477 3.81468
# Velocity P-wave (km/s) = 5.00359 6.23308 5.65187
#
# Compressibility (1/GPa) = 0.05115924
#
# Stress axis : x y z
#
# Youngs Moduli (GPa) = 121.42453 30.31290 72.69234
#
# Poissons Ratio (x) = 0.05631 0.19133
# Poissons Ratio (y) = 0.22556 -0.18745
# Poissons Ratio (z) = 0.31960 -0.07817
#
# Static dielectric constant tensor:
#      x y z
#    x 1.879330 0.027820 0.004190 
#    y 0.027820 1.915960 0.000770 
#    z 0.004190 0.000770 1.904310 
# 
# From -- ./inp_files/457711.got.cif
#   From: 2010.05.17/outbox.cif.g08.bks.cpg/sg2_229_cif.got.tgz:457711.got - 2010.06.03 11:33:40.
