data_PCOD9069662
_publ_section_title
;
Structure prediction by ZEFSAII (Michael W. Deem and Ramdas Pophale) SiO2 
 PCOD9069662
Probable space group: P -1
;
_chemical_formula_sum "Si O2"
_cell_formula_units_Z 16
_cell_length_a 8.189674
_cell_length_b 12.618897
_cell_length_c 9.221952
_cell_angle_alpha 102.862762
_cell_angle_beta 61.949072
_cell_angle_gamma 119.240131
_cell_volume 733.883706
_symmetry_space_group_name_H-M "P -1"
_symmetry_group_IT_number 2
_symmetry_cell_setting 'triclinic'
loop_
_space_group_symop_operation_xyz
x,y,z
-x,-y,-z
loop_
_atom_site_type_symbol
_atom_site_label
_atom_site_fract_x
_atom_site_fract_y
_atom_site_fract_z
Si Si1 0.301765 0.870756 0.560254
Si Si2 0.412061 0.186557 0.083647
Si Si3 0.693860 0.626559 0.994088
Si Si4 0.976669 0.010641 0.185062
Si Si5 0.011298 0.487262 0.165636
Si Si6 0.210801 0.757605 0.245611
Si Si7 0.578783 0.306972 0.356656
Si Si8 0.212633 0.255141 0.700740
O O1 0.239193 0.806900 0.410798
O O2 0.359221 0.785963 0.613004
O O3 0.122761 0.899832 0.708617
O O4 0.500000 0.000000 0.500000
O O5 0.329385 0.268365 0.052318
O O6 0.208244 0.064442 0.168660
O O7 0.522237 0.259618 0.202637
O O8 0.580085 0.168682 0.910332
O O9 0.896192 0.607562 0.871193
O O10 0.500000 0.500000 0.000000
O O11 0.704033 0.658764 0.168859
O O12 0.830076 0.879545 0.271932
O O13 0.000000 0.000000 0.000000
O O14 0.780419 0.435738 0.307868
O O15 0.162229 0.616210 0.210790
O O16 0.000000 0.500000 0.000000
O O17 0.008989 0.757839 0.258793
O O18 0.380081 0.303447 0.518527
#
# Coordination Sequence:
#
# PCOD9069662 Si02
#       8
#     2   2   2   2   2   2   2   2
#     4  12  27  50  73 107 151 188 242 310 360 428
#     4  12  25  45  75 108 139 199 239 292 370 430
#     4  12  23  46  77 103 149 187 241 300 360 436
#     4  12  26  47  75 104 144 191 247 297 365 434
#     4  12  24  50  75 109 145 191 243 298 361 439
#     4  12  27  49  74 106 149 190 245 297 367 432
#     4  12  27  47  74 107 148 190 241 300 365 426
#     4  12  27  47  71 109 145 189 243 305 360 432
#
# _framework density 21.801817
#
# number of rings (size 3 to 8) (size 9 to 14) (size 15 to 20)
#    0.000    0.000    6.250    3.000    3.500    2.500 
#    2.250    0.000    0.000    0.000    0.000    0.000 
#    0.000    0.000    0.000    0.000    0.000    0.000 
#
# Total GULP energy -89643.185283 kJ/mol
# GULP energy per Si atom -5602.699080 kJ/mol
# Density = 2.175220 g / cm^3
# Si number density = 21.801817 Si / 1000 Ang^3
#
#
#
# Elastic Constant Matrix: (Units=GPa)
#
#
# Indices 1 2 3 4 5 6 
#
# 1 118.7246 14.6303 55.5346 8.1964 -3.3009 1.6825
# 2 14.6303 64.5772 21.8425 2.4509 -7.3734 15.0516
# 3 55.5346 21.8425 134.2861 17.6876 -7.4012 3.2067
# 4 8.1964 2.4509 17.6876 41.5248 11.3509 -4.6275
# 5 -3.3009 -7.3734 -7.4012 11.3509 47.8758 -6.4063
# 6 1.6825 15.0516 3.2067 -4.6275 -6.4063 39.9401
#
#
#
# Elastic Compliance Matrix: (Units=1/GPa)
#
#
# Indices 1 2 3 4 5 6 
#
# 1 0.010504 -0.001024 -0.004154 -0.000218 0.000010 0.000253
# 2 -0.001024 0.018202 -0.002126 -0.001187 0.001817 -0.006492
# 3 -0.004154 -0.002126 0.010124 -0.003877 0.001872 0.000014
# 4 -0.000218 -0.001187 -0.003877 0.028102 -0.007073 0.002889
# 5 0.000010 0.001817 0.001872 -0.007073 0.023415 0.002101
# 6 0.000253 -0.006492 0.000014 0.002889 0.002101 0.028144
#
#
# Mechanical properties :
#
#
# Convention : Reuss Voigt Hill
#
# Bulk Modulus (GPa) = 41.28508 55.73364 48.50936
# Shear Modulus (GPa) = 35.41748 40.90685 38.16217
#
# Velocity S-wave (km/s) = 4.03491 4.33633 4.18833
# Velocity P-wave (km/s) = 6.37847 7.11976 6.75929
#
# Compressibility (1/GPa) = 0.02422182
#
# Stress axis : x y z
#
# Youngs Moduli (GPa) = 95.20227 54.93925 98.77475
#
# Poissons Ratio (x) = 0.05627 0.41033
# Poissons Ratio (y) = 0.09752 0.20995
# Poissons Ratio (z) = 0.39549 0.11678
#
# Static dielectric constant tensor:
#      x y z
#    x 1.791430 -0.000430 -0.031260 
#    y -0.000430 1.826300 -0.008560 
#    z -0.031260 -0.008560 1.752830 
# 
# From -- ./inp_files/189046.got.cif
#   From: 2010.05.17/outbox.cif.g08.bks.cpg/sg2_95_cif.got.tgz:189046.got - 2010.06.03 11:33:40.
