data_PCOD9069739
_publ_section_title
;
Structure prediction by ZEFSAII (Michael W. Deem and Ramdas Pophale) SiO2 
 PCOD9069739
Probable space group: P -1
;
_chemical_formula_sum "Si O2"
_cell_formula_units_Z 12
_cell_length_a 14.450884
_cell_length_b 8.155007
_cell_length_c 12.131936
_cell_angle_alpha 127.570372
_cell_angle_beta 40.130315
_cell_angle_gamma 144.150971
_cell_volume 539.482637
_symmetry_space_group_name_H-M "P -1"
_symmetry_group_IT_number 2
_symmetry_cell_setting 'triclinic'
loop_
_space_group_symop_operation_xyz
x,y,z
-x,-y,-z
loop_
_atom_site_type_symbol
_atom_site_label
_atom_site_fract_x
_atom_site_fract_y
_atom_site_fract_z
Si Si1 0.433027 0.439173 0.160834
Si Si2 0.025179 0.949056 0.331933
Si Si3 0.806155 0.441248 0.173569
Si Si4 0.819779 0.665720 0.018328
Si Si5 0.965818 0.277260 0.358346
Si Si6 0.428775 0.905414 0.402830
O O1 0.363535 0.604958 0.320216
O O2 0.500000 0.500000 0.000000
O O3 0.618830 0.566982 0.117923
O O4 0.251880 0.105260 0.192326
O O5 0.865788 0.631960 0.305523
O O6 0.006452 0.109208 0.321364
O O7 0.000000 0.000000 0.500000
O O8 0.612134 0.127271 0.247988
O O9 0.782030 0.543160 0.124114
O O10 0.000000 0.500000 0.000000
O O11 0.898912 0.588051 0.818552
O O12 0.000000 0.000000 0.000000
O O13 0.740877 0.091260 0.456602
O O14 0.000000 0.500000 0.500000
O O15 0.500000 0.000000 0.500000
#
# Coordination Sequence:
#
# PCOD9069739 Si02
#       6
#     2   2   2   2   2   2
#     4  12  23  48  70 100 137 188 227 283 351 413
#     4  12  27  45  70 101 145 181 231 288 350 413
#     4  12  27  46  72 106 138 184 238 287 346 414
#     4  12  24  46  74 101 142 182 235 290 346 412
#     4  12  25  47  70 102 141 186 227 286 355 412
#     4  12  26  45  72 102 140 182 235 285 348 415
#
# _framework density 22.243534
#
# number of rings (size 3 to 8) (size 9 to 14) (size 15 to 20)
#    0.000    0.000    5.000    5.000    4.667    0.667 
#    0.000    2.500    0.000    0.000    0.000    0.000 
#    0.000    0.000    0.000    0.000    0.000    0.000 
#
# Total GULP energy -67111.873403 kJ/mol
# GULP energy per Si atom -5592.656117 kJ/mol
# Density = 2.219291 g / cm^3
# Si number density = 22.243534 Si / 1000 Ang^3
#
#
#
# Elastic Constant Matrix: (Units=GPa)
#
#
# Indices 1 2 3 4 5 6 
#
# 1 153.2113 27.6532 27.5010 -18.5875 0.7910 34.4437
# 2 27.6532 68.8615 2.7419 -10.7988 -0.6857 15.5062
# 3 27.5010 2.7419 95.4097 -6.7641 16.2121 7.8133
# 4 -18.5875 -10.7988 -6.7641 52.8088 11.9226 0.8530
# 5 0.7910 -0.6857 16.2121 11.9226 53.0875 -8.0921
# 6 34.4437 15.5062 7.8133 0.8530 -8.0921 31.0865
#
#
#
# Elastic Compliance Matrix: (Units=1/GPa)
#
#
# Indices 1 2 3 4 5 6 
#
# 1 0.009818 -0.000883 -0.001263 0.003801 -0.002275 -0.010816
# 2 -0.000883 0.017410 0.001158 0.004071 -0.002360 -0.008723
# 3 -0.001263 0.001158 0.012081 0.002468 -0.004746 -0.003518
# 4 0.003801 0.004071 0.002468 0.023250 -0.007417 -0.009432
# 5 -0.002275 -0.002360 -0.004746 -0.007417 0.023671 0.011255
# 6 -0.010816 -0.008723 -0.003518 -0.009432 0.011255 0.052577
#
#
# Mechanical properties :
#
#
# Convention : Reuss Voigt Hill
#
# Bulk Modulus (GPa) = 26.78587 48.14163 37.46375
# Shear Modulus (GPa) = 32.63156 44.70231 38.66693
#
# Velocity S-wave (km/s) = 3.83432 4.48780 4.17387
# Velocity P-wave (km/s) = 5.62769 6.96734 6.33304
#
# Compressibility (1/GPa) = 0.03733311
#
# Stress axis : x y z
#
# Youngs Moduli (GPa) = 101.85836 57.43986 82.77183
#
# Poissons Ratio (x) = 0.05073 0.10451
# Poissons Ratio (y) = 0.08995 -0.09586
# Poissons Ratio (z) = 0.12861 -0.06652
#
# Static dielectric constant tensor:
#      x y z
#    x 1.803070 -0.027650 -0.163670 
#    y -0.027650 1.801290 0.111770 
#    z -0.163670 0.111770 1.986160 
# 
# From -- ./inp_files/147556.got.cif
#   From: 2010.05.17/outbox.cif.g08.bks.cpg/sg2_74_cif.got.tgz:147556.got - 2010.06.03 11:33:40.
