data_PCOD9069050
_publ_section_title
;
Structure prediction by ZEFSAII (Michael W. Deem and Ramdas Pophale) SiO2 
 PCOD9069050
Probable space group: P -1
;
_chemical_formula_sum "Si O2"
_cell_formula_units_Z 14
_cell_length_a 23.852798
_cell_length_b 11.806508
_cell_length_c 12.694584
_cell_angle_alpha 157.013437
_cell_angle_beta 27.885468
_cell_angle_gamma 149.645302
_cell_volume 628.815896
_symmetry_space_group_name_H-M "P -1"
_symmetry_group_IT_number 2
_symmetry_cell_setting 'triclinic'
loop_
_space_group_symop_operation_xyz
x,y,z
-x,-y,-z
loop_
_atom_site_type_symbol
_atom_site_label
_atom_site_fract_x
_atom_site_fract_y
_atom_site_fract_z
Si Si1 0.413258 0.169665 0.351780
Si Si2 0.709520 0.902430 0.817713
Si Si3 0.210513 0.394891 0.759046
Si Si4 0.547572 0.523495 0.061247
Si Si5 0.071846 0.815428 0.948151
Si Si6 0.108744 0.195095 0.412564
Si Si7 0.676948 0.044583 0.449003
O O1 0.500000 0.500000 0.500000
O O2 0.292664 0.211542 0.526777
O O3 0.372396 0.054109 0.437444
O O4 0.500000 0.000000 0.000000
O O5 0.787793 0.731122 0.469562
O O6 0.766293 0.884469 0.823711
O O7 0.567517 0.703832 0.880795
O O8 0.729861 0.244549 0.038352
O O9 0.069698 0.319001 0.969009
O O10 0.661844 0.377342 0.745639
O O11 0.500000 0.500000 0.000000
O O12 0.592601 0.832618 0.317130
O O13 0.109155 0.542771 0.713838
O O14 0.179275 0.940911 0.792458
O O15 0.077325 0.079205 0.247658
O O16 0.000000 0.000000 0.500000
#
# Coordination Sequence:
#
# PCOD9069050 Si02
#       7
#     2   2   2   2   2   2   2
#     4  12  26  47  71  96 129 175 230 281 335 389
#     4  12  23  39  67  96 132 172 223 277 322 388
#     4  12  24  41  67  98 126 170 227 274 324 394
#     4  12  25  44  65  99 135 176 221 267 336 405
#     4  12  24  42  65 100 136 174 221 267 338 402
#     4  12  22  41  63  99 139 176 215 265 331 398
#     4  12  26  45  68  96 139 177 215 281 336 392
#
# _framework density 22.264068000000002
#
# number of rings (size 3 to 8) (size 9 to 14) (size 15 to 20)
#    0.000    0.000    2.857    9.429    0.000    0.571 
#    0.000    0.000    0.000    6.857    0.000    0.000 
#    0.000    0.000    0.000    0.000    0.000    0.000 
#
# Total GULP energy -78324.209948 kJ/mol
# GULP energy per Si atom -5594.586425 kJ/mol
# Density = 2.221339 g / cm^3
# Si number density = 22.264068 Si / 1000 Ang^3
#
#
#
# Elastic Constant Matrix: (Units=GPa)
#
#
# Indices 1 2 3 4 5 6 
#
# 1 82.0571 24.7375 12.9794 -9.0072 -9.4120 -4.2674
# 2 24.7375 128.4361 41.8882 -26.1401 4.1429 1.2476
# 3 12.9794 41.8882 115.4346 0.1540 3.8856 -6.5753
# 4 -9.0072 -26.1401 0.1540 50.2338 4.6563 -1.7700
# 5 -9.4120 4.1429 3.8856 4.6563 35.8769 -8.4420
# 6 -4.2674 1.2476 -6.5753 -1.7700 -8.4420 35.6721
#
#
#
# Elastic Compliance Matrix: (Units=1/GPa)
#
#
# Indices 1 2 3 4 5 6 
#
# 1 0.013778 -0.002427 -0.000666 0.000889 0.004491 0.002717
# 2 -0.002427 0.010593 -0.003587 0.005266 -0.002546 -0.001663
# 3 -0.000666 -0.003587 0.010150 -0.001937 -0.000191 0.001775
# 4 0.000889 0.005266 -0.001937 0.023105 -0.003173 -0.000039
# 5 0.004491 -0.002546 -0.000191 -0.003173 0.031642 0.007922
# 6 0.002717 -0.001663 0.001775 -0.000039 0.007922 0.030616
#
#
# Mechanical properties :
#
#
# Convention : Reuss Voigt Hill
#
# Bulk Modulus (GPa) = 47.25802 53.90424 50.58113
# Shear Modulus (GPa) = 35.63857 40.77806 38.20831
#
# Velocity S-wave (km/s) = 4.00524 4.28432 4.14713
# Velocity P-wave (km/s) = 6.53158 6.98124 6.76015
#
# Compressibility (1/GPa) = 0.02116043
#
# Stress axis : x y z
#
# Youngs Moduli (GPa) = 72.58173 94.39927 98.52545
#
# Poissons Ratio (x) = 0.22907 0.06563
# Poissons Ratio (y) = 0.17613 0.35343
# Poissons Ratio (z) = 0.04835 0.33863
#
# Static dielectric constant tensor:
#      x y z
#    x 1.756220 0.035170 0.004050 
#    y 0.035170 1.835680 -0.041790 
#    z 0.004050 -0.041790 1.780430 
# 
# From -- ./inp_files/474805.got.cif
#   From: 2010.05.17/outbox.cif.g08.bks.cpg/sg2_238_cif.got.tgz:474805.got - 2010.06.03 11:33:40.
