data_PCOD9069006
_publ_section_title
;
Structure prediction by ZEFSAII (Michael W. Deem and Ramdas Pophale) SiO2 
 PCOD9069006
Probable space group: P -1
;
_chemical_formula_sum "Si O2"
_cell_formula_units_Z 16
_cell_length_a 9.135742
_cell_length_b 11.176037
_cell_length_c 17.345784
_cell_angle_alpha 52.746970
_cell_angle_beta 101.428768
_cell_angle_gamma 59.183807
_cell_volume 809.602603
_symmetry_space_group_name_H-M "P -1"
_symmetry_group_IT_number 2
_symmetry_cell_setting 'triclinic'
loop_
_space_group_symop_operation_xyz
x,y,z
-x,-y,-z
loop_
_atom_site_type_symbol
_atom_site_label
_atom_site_fract_x
_atom_site_fract_y
_atom_site_fract_z
Si Si1 0.254537 0.259025 0.070705
Si Si2 0.284408 0.759975 0.088933
Si Si3 0.447721 0.776181 0.645402
Si Si4 0.486269 0.039661 0.640556
Si Si5 0.062215 0.202661 0.328921
Si Si6 0.552899 0.583368 0.035341
Si Si7 0.289996 0.069873 0.990223
Si Si8 0.882708 0.543931 0.674117
O O1 0.441440 0.014621 0.241514
O O2 0.190521 0.221924 0.000226
O O3 0.392919 0.299547 0.043290
O O4 0.000000 0.500000 0.000000
O O5 0.426286 0.487214 0.223653
O O6 0.320348 0.763741 0.000704
O O7 0.401253 0.814961 0.117041
O O8 0.000000 0.000000 0.000000
O O9 0.443584 0.897842 0.668339
O O10 0.632368 0.714873 0.630754
O O11 0.188950 0.983943 0.487818
O O12 0.731024 0.908922 0.670263
O O13 0.231354 0.331976 0.470414
O O14 0.003933 0.396869 0.299546
O O15 0.811741 0.347014 0.204311
O O16 0.500000 0.500000 0.000000
O O17 0.068595 0.258284 0.828875
O O18 0.500000 0.000000 0.000000
#
# Coordination Sequence:
#
# PCOD9069006 Si02
#       8
#     2   2   2   2   2   2   2   2
#     4  12  22  39  65  94 120 158 213 260 305 365
#     4  12  25  39  60  91 128 170 203 249 312 381
#     4   9  18  35  62  92 123 159 208 255 311 365
#     4   9  18  33  66  95 118 155 208 265 308 355
#     4   9  17  36  61  92 123 158 207 262 304 366
#     4  12  25  39  61  95 127 157 209 269 311 353
#     4  12  23  41  63  87 130 170 208 246 305 383
#     4   9  16  35  62  91 120 161 206 252 306 370
#
# _framework density 19.762782000000001
#
# number of rings (size 3 to 8) (size 9 to 14) (size 15 to 20)
#    0.000    1.500    5.000    3.000    1.750    0.500 
#    0.000    1.875    2.750    2.250    0.000    0.000 
#    0.000    0.000    0.000    0.000    0.000    0.000 
#
# Total GULP energy -89134.963645 kJ/mol
# GULP energy per Si atom -5570.935228 kJ/mol
# Density = 1.971780 g / cm^3
# Si number density = 19.762782 Si / 1000 Ang^3
#
#
#
# Elastic Constant Matrix: (Units=GPa)
#
#
# Indices 1 2 3 4 5 6 
#
# 1 86.6792 34.1988 25.7596 -0.8817 -8.8148 -0.4863
# 2 34.1988 89.6973 33.5657 1.9553 -8.2016 -3.4137
# 3 25.7596 33.5657 127.4334 12.3586 -4.2738 3.5857
# 4 -0.8817 1.9553 12.3586 19.6152 5.6829 -4.0568
# 5 -8.8148 -8.2016 -4.2738 5.6829 35.1300 -2.5494
# 6 -0.4863 -3.4137 3.5857 -4.0568 -2.5494 33.2191
#
#
#
# Elastic Compliance Matrix: (Units=1/GPa)
#
#
# Indices 1 2 3 4 5 6 
#
# 1 0.014076 -0.004555 -0.001748 0.001665 0.002007 0.000284
# 2 -0.004555 0.014182 -0.002796 -0.000047 0.001969 0.001838
# 3 -0.001748 -0.002796 0.009671 -0.006616 0.001004 -0.002088
# 4 0.001665 -0.000047 -0.006616 0.059482 -0.009493 0.007269
# 5 0.002007 0.001969 0.001004 -0.009493 0.031185 0.001357
# 6 0.000284 0.001838 -0.002088 0.007269 0.001357 0.031513
#
#
# Mechanical properties :
#
#
# Convention : Reuss Voigt Hill
#
# Bulk Modulus (GPa) = 50.67798 54.53977 52.60888
# Shear Modulus (GPa) = 27.04384 31.61190 29.32787
#
# Velocity S-wave (km/s) = 3.70323 4.00380 3.85644
# Velocity P-wave (km/s) = 6.63205 7.00221 6.81964
#
# Compressibility (1/GPa) = 0.01973244
#
# Stress axis : x y z
#
# Youngs Moduli (GPa) = 71.04370 70.50954 103.40160
#
# Poissons Ratio (x) = 0.32114 0.18073
# Poissons Ratio (y) = 0.32357 0.28912
# Poissons Ratio (z) = 0.12417 0.19715
#
# Static dielectric constant tensor:
#      x y z
#    x 1.792930 -0.043410 0.049110 
#    y -0.043410 1.754170 -0.075940 
#    z 0.049110 -0.075940 1.824090 
# 
# From -- ./inp_files/559779.got.cif
#   From: 2010.05.17/outbox.cif.g08.bks.cpg/sg2_280_cif.got.tgz:559779.got - 2010.06.03 11:33:40.
