data_PCOD9069446
_publ_section_title
;
Structure prediction by ZEFSAII (Michael W. Deem and Ramdas Pophale) SiO2 
 PCOD9069446
Probable space group: P -1
;
_chemical_formula_sum "Si O2"
_cell_formula_units_Z 16
_cell_length_a 19.051224
_cell_length_b 9.191140
_cell_length_c 11.925390
_cell_angle_alpha 39.581361
_cell_angle_beta 134.023069
_cell_angle_gamma 104.017098
_cell_volume 734.823083
_symmetry_space_group_name_H-M "P -1"
_symmetry_group_IT_number 2
_symmetry_cell_setting 'triclinic'
loop_
_space_group_symop_operation_xyz
x,y,z
-x,-y,-z
loop_
_atom_site_type_symbol
_atom_site_label
_atom_site_fract_x
_atom_site_fract_y
_atom_site_fract_z
Si Si1 0.824246 0.274750 0.880326
Si Si2 0.643965 0.200378 0.840288
Si Si3 0.006920 0.210668 0.804360
Si Si4 0.746254 0.660502 0.111612
Si Si5 0.993081 0.208290 0.276682
Si Si6 0.643965 0.305093 0.235573
Si Si7 0.175755 0.261581 0.083343
Si Si8 0.253747 0.101290 0.626597
O O1 0.735071 0.277511 0.866205
O O2 0.763465 0.599373 0.576207
O O3 0.960492 0.143490 0.160936
O O4 0.864792 0.025672 0.982936
O O5 0.500000 0.500000 0.500000
O O6 0.668952 0.965548 0.915160
O O7 0.681364 0.054976 0.090722
O O8 0.883716 0.438836 0.457572
O O9 0.039509 0.376603 0.818971
O O10 0.000000 0.000000 0.000000
O O11 0.681364 0.510963 0.134736
O O12 0.763465 0.697925 0.977654
O O13 0.116284 0.180885 0.422708
O O14 0.864792 0.532374 0.976234
O O15 0.000000 0.000000 0.500000
O O16 0.735070 0.069636 0.574079
O O17 0.668952 0.120060 0.260648
O O18 0.500000 0.500000 0.000000
#
# Coordination Sequence:
#
# PCOD9069446 Si02
#       8
#     2   2   2   2   2   2   2   2
#     4  12  25  45  73 108 145 184 234 292 364 423
#     4  12  30  49  72 104 142 197 243 288 350 424
#     4  12  23  43  74 108 145 180 231 295 365 420
#     4  12  27  48  74 107 144 186 238 298 356 424
#     4  12  23  43  74 108 145 180 231 295 365 420
#     4  12  30  49  72 104 142 197 243 288 350 424
#     4  12  25  45  73 108 145 184 234 292 364 423
#     4  12  27  48  74 107 144 186 238 298 356 424
#
# _framework density 21.773948000000001
#
# number of rings (size 3 to 8) (size 9 to 14) (size 15 to 20)
#    0.000    0.000    5.000    5.250    3.500    1.000 
#    0.000    0.000    0.000    0.000    0.000    0.000 
#    0.000    0.000    0.000    0.000    0.000    0.000 
#
# Total GULP energy -89579.497546 kJ/mol
# GULP energy per Si atom -5598.718597 kJ/mol
# Density = 2.172439 g / cm^3
# Si number density = 21.773948 Si / 1000 Ang^3
#
#
#
# Elastic Constant Matrix: (Units=GPa)
#
#
# Indices 1 2 3 4 5 6 
#
# 1 107.2888 6.7985 39.7910 -15.7089 -6.1771 -8.6519
# 2 6.7985 46.9101 13.6897 -17.3485 12.6008 -6.1528
# 3 39.7910 13.6897 90.2266 -22.9061 2.6639 -9.8425
# 4 -15.7089 -17.3485 -22.9061 33.5749 -5.6399 -4.4581
# 5 -6.1771 12.6008 2.6639 -5.6399 40.7428 -7.6724
# 6 -8.6519 -6.1528 -9.8425 -4.4581 -7.6724 38.3897
#
#
#
# Elastic Compliance Matrix: (Units=1/GPa)
#
#
# Indices 1 2 3 4 5 6 
#
# 1 0.011748 0.000459 -0.004076 0.003807 0.002942 0.002706
# 2 0.000459 0.029047 -0.000079 0.014891 -0.005850 0.005299
# 3 -0.004076 -0.000079 0.015746 0.009450 0.000495 0.004302
# 4 0.003807 0.014891 0.009450 0.048033 0.004282 0.012101
# 5 0.002942 -0.005850 0.000495 0.004282 0.028498 0.006045
# 6 0.002706 0.005299 0.004302 0.012101 0.006045 0.031224
#
#
# Mechanical properties :
#
#
# Convention : Reuss Voigt Hill
#
# Bulk Modulus (GPa) = 20.34521 40.55377 30.44949
# Shear Modulus (GPa) = 26.58567 34.81788 30.70177
#
# Velocity S-wave (km/s) = 3.49805 4.00316 3.75910
# Velocity P-wave (km/s) = 5.06747 6.32712 5.73200
#
# Compressibility (1/GPa) = 0.04915163
#
# Stress axis : x y z
#
# Youngs Moduli (GPa) = 85.11883 34.42670 63.50666
#
# Poissons Ratio (x) = -0.01582 0.25885
# Poissons Ratio (y) = -0.03910 0.00499
# Poissons Ratio (z) = 0.34694 0.00270
#
# Static dielectric constant tensor:
#      x y z
#    x 1.771320 -0.018450 -0.026220 
#    y -0.018450 1.744070 -0.038060 
#    z -0.026220 -0.038060 1.736820 
# 
# From -- ./inp_files/272757.got.cif
#   From: 2010.05.17/outbox.cif.g08.bks.cpg/sg2_137_cif.got.tgz:272757.got - 2010.06.03 11:33:40.
