data_PCOD9069354
_publ_section_title
;
Structure prediction by ZEFSAII (Michael W. Deem and Ramdas Pophale) SiO2 
 PCOD9069354
Probable space group: P -1
;
_chemical_formula_sum "Si O2"
_cell_formula_units_Z 16
_cell_length_a 11.930742
_cell_length_b 16.288755
_cell_length_c 8.566977
_cell_angle_alpha 132.648011
_cell_angle_beta 142.037660
_cell_angle_gamma 45.048048
_cell_volume 696.480925
_symmetry_space_group_name_H-M "P -1"
_symmetry_group_IT_number 2
_symmetry_cell_setting 'triclinic'
loop_
_space_group_symop_operation_xyz
x,y,z
-x,-y,-z
loop_
_atom_site_type_symbol
_atom_site_label
_atom_site_fract_x
_atom_site_fract_y
_atom_site_fract_z
Si Si1 0.623171 0.489222 0.966421
Si Si2 0.003083 0.678738 0.672764
Si Si3 0.896867 0.125250 0.139077
Si Si4 0.534323 0.068396 0.774512
Si Si5 0.270521 0.178568 0.172170
Si Si6 0.946071 0.137323 0.560466
Si Si7 0.277714 0.329255 0.881002
Si Si8 0.505472 0.304640 0.399520
O O1 0.556281 0.409000 0.671196
O O2 0.500000 0.500000 0.000000
O O3 0.604029 0.614212 0.029262
O O4 0.847538 0.419906 0.178936
O O5 0.816073 0.756412 0.674500
O O6 0.935766 0.627512 0.378555
O O7 0.103016 0.769067 0.837640
O O8 0.990188 0.132663 0.418740
O O9 0.690029 0.123302 0.960613
O O10 0.000000 0.000000 0.000000
O O11 0.350793 0.184468 0.773540
O O12 0.500000 0.000000 0.500000
O O13 0.619068 0.964791 0.862879
O O14 0.419163 0.233257 0.332485
O O15 0.082862 0.192595 0.875672
O O16 0.713922 0.214352 0.438685
O O17 0.000000 0.000000 0.500000
O O18 0.333619 0.358610 0.151282
#
# Coordination Sequence:
#
# PCOD9069354 Si02
#       8
#     2   2   2   2   2   2   2   2
#     4  12  28  51  80 106 149 202 260 314 373 450
#     4  12  25  47  76 111 147 196 250 318 369 452
#     4  12  23  42  69 106 149 193 244 302 379 439
#     4  12  24  41  72 106 152 189 243 310 369 454
#     4  12  25  46  75 117 150 195 254 306 386 449
#     4  12  24  46  71 109 154 200 249 308 380 452
#     4  12  25  50  70 111 150 196 253 306 376 448
#     4  12  28  48  79 110 156 203 249 319 378 450
#
# _framework density 22.972633999999999
#
# number of rings (size 3 to 8) (size 9 to 14) (size 15 to 20)
#    0.000    0.000    6.250    3.000    1.750    3.000 
#    0.000    1.250    0.000    0.000    0.000    0.000 
#    0.000    0.000    0.000    0.000    0.000    0.000 
#
# Total GULP energy -89557.735777 kJ/mol
# GULP energy per Si atom -5597.358486 kJ/mol
# Density = 2.292035 g / cm^3
# Si number density = 22.972634 Si / 1000 Ang^3
#
#
#
# Elastic Constant Matrix: (Units=GPa)
#
#
# Indices 1 2 3 4 5 6 
#
# 1 79.2738 25.4008 17.2250 7.6872 8.6783 20.9123
# 2 25.4008 94.3601 30.4729 5.6939 3.4106 21.8936
# 3 17.2250 30.4729 156.2982 -12.4917 -6.4277 -2.3364
# 4 7.6872 5.6939 -12.4917 23.6103 10.5205 -2.3936
# 5 8.6783 3.4106 -6.4277 10.5205 45.9248 10.4573
# 6 20.9123 21.8936 -2.3364 -2.3936 10.4573 31.7376
#
#
#
# Elastic Compliance Matrix: (Units=1/GPa)
#
#
# Indices 1 2 3 4 5 6 
#
# 1 0.017303 -0.000460 -0.002648 -0.008707 0.001196 -0.012330
# 2 -0.000460 0.014995 -0.003558 -0.007885 0.002987 -0.011882
# 3 -0.002648 -0.003558 0.007983 0.006960 -0.000997 0.005640
# 4 -0.008707 -0.007885 0.006960 0.059753 -0.015320 0.021243
# 5 0.001196 0.002987 -0.000997 -0.015320 0.027704 -0.013206
# 6 -0.012330 -0.011882 0.005640 0.021243 -0.013206 0.054198
#
#
# Mechanical properties :
#
#
# Convention : Reuss Voigt Hill
#
# Bulk Modulus (GPa) = 37.10585 52.90328 45.00456
# Shear Modulus (GPa) = 24.47966 37.37675 30.92821
#
# Velocity S-wave (km/s) = 3.26790 4.03800 3.67319
# Velocity P-wave (km/s) = 5.51599 6.69473 6.13374
#
# Compressibility (1/GPa) = 0.02694993
#
# Stress axis : x y z
#
# Youngs Moduli (GPa) = 57.79263 66.68850 125.26439
#
# Poissons Ratio (x) = 0.03065 0.33174
# Poissons Ratio (y) = 0.02656 0.44567
# Poissons Ratio (z) = 0.15305 0.23726
#
# Static dielectric constant tensor:
#      x y z
#    x 1.898230 -0.071870 0.012350 
#    y -0.071870 1.942410 -0.070510 
#    z 0.012350 -0.070510 1.959210 
# 
# From -- ./inp_files/274513.got.cif
#   From: 2010.05.17/outbox.cif.g08.bks.cpg/sg2_138_cif.got.tgz:274513.got - 2010.06.03 11:33:40.
