data_PCOD9069850
_publ_section_title
;
Structure prediction by ZEFSAII (Michael W. Deem and Ramdas Pophale) SiO2 
 PCOD9069850
Probable space group: P -1
;
_chemical_formula_sum "Si O2"
_cell_formula_units_Z 16
_cell_length_a 15.668131
_cell_length_b 14.905496
_cell_length_c 14.964323
_cell_angle_alpha 140.409260
_cell_angle_beta 41.437973
_cell_angle_gamma 161.028810
_cell_volume 720.356100
_symmetry_space_group_name_H-M "P -1"
_symmetry_group_IT_number 2
_symmetry_cell_setting 'triclinic'
loop_
_space_group_symop_operation_xyz
x,y,z
-x,-y,-z
loop_
_atom_site_type_symbol
_atom_site_label
_atom_site_fract_x
_atom_site_fract_y
_atom_site_fract_z
Si Si1 0.623351 0.849585 0.849910
Si Si2 0.938124 0.494101 0.316458
Si Si3 0.606554 0.562417 0.765160
Si Si4 0.772079 0.194806 0.395038
Si Si5 0.926500 0.516662 0.981000
Si Si6 0.881777 0.965034 0.152557
Si Si7 0.593076 0.865734 0.532767
Si Si8 0.263364 0.165711 0.434951
O O1 0.600028 0.675827 0.781669
O O2 0.702314 0.909546 0.730602
O O3 0.353002 0.676112 0.934680
O O4 0.851850 0.153450 0.951641
O O5 0.069758 0.564992 0.176782
O O6 0.814090 0.270350 0.314886
O O7 0.677328 0.330584 0.365161
O O8 0.174890 0.803989 0.417765
O O9 0.516338 0.330332 0.613053
O O10 0.892507 0.826144 0.787924
O O11 0.378527 0.367834 0.867948
O O12 0.807122 0.059060 0.270570
O O13 0.000000 0.500000 0.500000
O O14 0.500000 0.000000 0.500000
O O15 0.000000 0.500000 0.000000
O O16 0.000000 0.000000 0.000000
O O17 0.730249 0.899109 0.524132
O O18 0.500000 0.500000 0.500000
O O19 0.000000 0.000000 0.500000
#
# Coordination Sequence:
#
# PCOD9069850 Si02
#       8
#     2   2   2   2   2   2   2   2
#     4  12  26  44  73 104 146 186 242 290 358 429
#     4  12  26  44  75 104 140 195 239 294 359 438
#     4  12  26  45  76 106 143 186 235 303 366 429
#     4  12  26  48  73 105 144 188 244 305 369 432
#     4  12  26  48  71 103 148 193 239 293 355 433
#     4  12  28  49  74 107 148 190 244 305 374 443
#     4  12  24  45  72 107 145 181 243 290 358 428
#     4  12  24  42  66 107 144 187 229 292 353 420
#
# _framework density 22.211236
#
# number of rings (size 3 to 8) (size 9 to 14) (size 15 to 20)
#    0.000    0.000    1.250    9.750    5.250    0.000 
#    0.000    0.000    0.000    0.000    0.000    0.000 
#    0.000    0.000    0.000    0.000    0.000    0.000 
#
# Total GULP energy -89593.465757 kJ/mol
# GULP energy per Si atom -5599.591610 kJ/mol
# Density = 2.216068 g / cm^3
# Si number density = 22.211236 Si / 1000 Ang^3
#
#
#
# Elastic Constant Matrix: (Units=GPa)
#
#
# Indices 1 2 3 4 5 6 
#
# 1 97.3867 24.1413 34.4808 -4.1557 -0.9658 15.3277
# 2 24.1413 136.1806 20.2431 -10.3104 -22.2215 20.5854
# 3 34.4808 20.2431 93.9947 -21.0347 -1.0589 4.2941
# 4 -4.1557 -10.3104 -21.0347 53.0486 -3.9892 -4.5379
# 5 -0.9658 -22.2215 -1.0589 -3.9892 29.6307 -11.4221
# 6 15.3277 20.5854 4.2941 -4.5379 -11.4221 50.2935
#
#
#
# Elastic Compliance Matrix: (Units=1/GPa)
#
#
# Indices 1 2 3 4 5 6 
#
# 1 0.012741 -0.001575 -0.004561 -0.001611 -0.002521 -0.003567
# 2 -0.001575 0.009163 -0.000881 0.001653 0.006398 -0.001593
# 3 -0.004561 -0.000881 0.013579 0.005023 0.000827 0.001232
# 4 -0.001611 0.001653 0.005023 0.021650 0.005258 0.002533
# 5 -0.002521 0.006398 0.000827 0.005258 0.042352 0.008172
# 6 -0.003567 -0.001593 0.001232 0.002533 0.008172 0.023602
#
#
# Mechanical properties :
#
#
# Convention : Reuss Voigt Hill
#
# Bulk Modulus (GPa) = 46.61952 53.92137 50.27045
# Shear Modulus (GPa) = 34.65726 43.17434 38.91580
#
# Velocity S-wave (km/s) = 3.95441 4.41364 4.19032
# Velocity P-wave (km/s) = 6.47183 7.09246 6.78924
#
# Compressibility (1/GPa) = 0.02145024
#
# Stress axis : x y z
#
# Youngs Moduli (GPa) = 78.48572 109.13161 73.64380
#
# Poissons Ratio (x) = 0.17186 0.33587
# Poissons Ratio (y) = 0.12360 0.06487
# Poissons Ratio (z) = 0.35796 0.09614
#
# Static dielectric constant tensor:
#      x y z
#    x 1.858420 -0.041710 0.037950 
#    y -0.041710 1.796420 -0.010650 
#    z 0.037950 -0.010650 1.878520 
# 
# From -- ./inp_files/534435.got.cif
#   From: 2010.05.17/outbox.cif.g08.bks.cpg/sg2_268_cif.got.tgz:534435.got - 2010.06.03 11:33:40.
