data_PCOD9069390
_publ_section_title
;
Structure prediction by ZEFSAII (Michael W. Deem and Ramdas Pophale) SiO2 
 PCOD9069390
Probable space group: P -1
;
_chemical_formula_sum "Si O2"
_cell_formula_units_Z 14
_cell_length_a 26.840652
_cell_length_b 5.602892
_cell_length_c 10.699390
_cell_angle_alpha 108.398205
_cell_angle_beta 155.211471
_cell_angle_gamma 72.909915
_cell_volume 640.027452
_symmetry_space_group_name_H-M "P -1"
_symmetry_group_IT_number 2
_symmetry_cell_setting 'triclinic'
loop_
_space_group_symop_operation_xyz
x,y,z
-x,-y,-z
loop_
_atom_site_type_symbol
_atom_site_label
_atom_site_fract_x
_atom_site_fract_y
_atom_site_fract_z
Si Si1 0.901770 0.890577 0.168246
Si Si2 0.817468 0.102344 0.761480
Si Si3 0.351148 0.171706 0.384985
Si Si4 0.733052 0.647036 0.319999
Si Si5 0.482151 0.628367 0.614091
Si Si6 0.987163 0.544338 0.828509
Si Si7 0.640134 0.490223 0.325768
O O1 0.954044 0.667787 0.162148
O O2 0.784783 0.823272 0.970531
O O3 0.000000 0.000000 0.500000
O O4 0.854814 0.082679 0.987451
O O5 0.703267 0.285857 0.521751
O O6 0.781545 0.871965 0.553114
O O7 0.934678 0.216081 0.983787
O O8 0.423712 0.401188 0.525544
O O9 0.334717 0.247249 0.506016
O O10 0.411143 0.894099 0.474434
O O11 0.846597 0.563837 0.484552
O O12 0.696911 0.449718 0.312670
O O13 0.610548 0.697868 0.976898
O O14 0.500000 0.500000 0.500000
O O15 0.000000 0.500000 0.000000
O O16 0.500000 0.500000 0.000000
#
# Coordination Sequence:
#
# PCOD9069390 Si02
#       7
#     2   2   2   2   2   2   2
#     4  12  29  46  74 110 149 205 254 320 385 460
#     4  12  23  46  72 106 150 193 258 315 387 447
#     4  12  25  52  76 105 153 193 258 313 379 459
#     4  12  26  42  74 107 146 196 248 315 377 460
#     4  12  30  50  75 111 154 203 249 315 391 464
#     4  12  24  47  69 107 150 192 259 312 382 457
#     4  12  23  42  75 109 142 186 250 312 379 446
#
# _framework density 21.874061000000001
#
# number of rings (size 3 to 8) (size 9 to 14) (size 15 to 20)
#    0.000    0.000    7.143    2.571    2.000    2.857 
#    0.000    0.000    0.000    0.000    0.000    0.000 
#    0.000    0.000    0.000    0.000    0.000    0.000 
#
# Total GULP energy -78136.954528 kJ/mol
# GULP energy per Si atom -5581.211038 kJ/mol
# Density = 2.182427 g / cm^3
# Si number density = 21.874061 Si / 1000 Ang^3
#
#
#
# Elastic Constant Matrix: (Units=GPa)
#
#
# Indices 1 2 3 4 5 6 
#
# 1 79.9141 32.4018 47.3394 -10.0683 6.0668 6.0451
# 2 32.4018 102.9692 52.8607 -23.2019 7.1884 -11.9946
# 3 47.3394 52.8607 206.0144 -2.2258 17.3776 2.7453
# 4 -10.0683 -23.2019 -2.2258 33.4647 -8.5862 12.4123
# 5 6.0668 7.1884 17.3776 -8.5862 46.0640 6.2817
# 6 6.0451 -11.9946 2.7453 12.4123 6.2817 36.6643
#
#
#
# Elastic Compliance Matrix: (Units=1/GPa)
#
#
# Indices 1 2 3 4 5 6 
#
# 1 0.016509 -0.003341 -0.002903 0.004723 0.001056 -0.005377
# 2 -0.003341 0.014292 -0.002884 0.007792 0.000376 0.002740
# 3 -0.002903 -0.002884 0.006410 -0.003224 -0.002259 0.000534
# 4 0.004723 0.007792 -0.003224 0.044414 0.009659 -0.014679
# 5 0.001056 0.000376 -0.002259 0.009659 0.025182 -0.007466
# 6 -0.005377 0.002740 0.000534 -0.014679 -0.007466 0.035266
#
#
# Mechanical properties :
#
#
# Convention : Reuss Voigt Hill
#
# Bulk Modulus (GPa) = 52.75193 72.67794 62.71493
# Shear Modulus (GPa) = 30.00381 40.32499 35.16440
#
# Velocity S-wave (km/s) = 3.70761 4.29827 4.01382
# Velocity P-wave (km/s) = 6.51898 7.61126 7.08619
#
# Compressibility (1/GPa) = 0.01895665
#
# Stress axis : x y z
#
# Youngs Moduli (GPa) = 60.57239 69.96973 156.01642
#
# Poissons Ratio (x) = 0.23374 0.45288
# Poissons Ratio (y) = 0.20235 0.44988
# Poissons Ratio (z) = 0.17583 0.20176
#
# Static dielectric constant tensor:
#      x y z
#    x 1.834320 0.048820 0.035410 
#    y 0.048820 1.894670 -0.000910 
#    z 0.035410 -0.000910 1.802100 
# 
# From -- ./inp_files/70412.got.cif
#   From: 2010.05.17/outbox.cif.g08.bks.cpg/sg2_36_cif.got.tgz:70412.got - 2010.06.03 11:33:40.
