data_PCOD9069340
_publ_section_title
;
Structure prediction by ZEFSAII (Michael W. Deem and Ramdas Pophale) SiO2 
 PCOD9069340
Probable space group: P -1
;
_chemical_formula_sum "Si O2"
_cell_formula_units_Z 14
_cell_length_a 8.093109
_cell_length_b 6.130452
_cell_length_c 21.009235
_cell_angle_alpha 59.868555
_cell_angle_beta 137.272566
_cell_angle_gamma 115.837508
_cell_volume 607.678997
_symmetry_space_group_name_H-M "P -1"
_symmetry_group_IT_number 2
_symmetry_cell_setting 'triclinic'
loop_
_space_group_symop_operation_xyz
x,y,z
-x,-y,-z
loop_
_atom_site_type_symbol
_atom_site_label
_atom_site_fract_x
_atom_site_fract_y
_atom_site_fract_z
Si Si1 0.569785 0.518056 0.709300
Si Si2 0.113333 0.388801 0.690957
Si Si3 0.351324 0.744900 0.020797
Si Si4 0.328597 0.694682 0.816125
Si Si5 0.990282 0.877428 0.802423
Si Si6 0.763930 0.125964 0.891242
Si Si7 0.415895 0.689885 0.505253
O O1 0.340495 0.408946 0.703473
O O2 0.778947 0.331483 0.809325
O O3 0.489531 0.550316 0.610244
O O4 0.702301 0.792250 0.728694
O O5 0.179599 0.635386 0.717594
O O6 0.872684 0.336836 0.587629
O O7 0.071432 0.171223 0.765997
O O8 0.515790 0.526215 0.083099
O O9 0.319928 0.743612 0.087314
O O10 0.090235 0.760467 0.911896
O O11 0.500000 0.000000 0.000000
O O12 0.135773 0.755961 0.804851
O O13 0.546466 0.919183 0.838311
O O14 0.000000 0.000000 0.000000
O O15 0.500000 0.500000 0.500000
O O16 0.500000 0.000000 0.500000
#
# Coordination Sequence:
#
# PCOD9069340 Si02
#       7
#     2   2   2   2   2   2   2
#     4  12  26  51  77 112 152 203 254 329 398 461
#     4  12  26  50  75 116 150 195 263 319 388 476
#     4  12  23  42  65 104 150 202 252 310 381 455
#     4  12  23  45  70 102 158 198 255 321 379 468
#     4  12  25  44  75 104 153 200 254 311 388 463
#     4  12  28  44  69 113 152 201 266 310 390 471
#     4  12  29  55  87 119 155 207 268 331 406 479
#
# _framework density 23.038481000000001
#
# number of rings (size 3 to 8) (size 9 to 14) (size 15 to 20)
#    0.000    0.000    7.143    2.571    4.000    3.429 
#    0.000    2.143    0.000    0.000    0.000    0.000 
#    0.000    0.000    0.000    0.000    0.000    0.000 
#
# Total GULP energy -78129.050885 kJ/mol
# GULP energy per Si atom -5580.646492 kJ/mol
# Density = 2.298604 g / cm^3
# Si number density = 23.038481 Si / 1000 Ang^3
#
#
#
# Elastic Constant Matrix: (Units=GPa)
#
#
# Indices 1 2 3 4 5 6 
#
# 1 57.1444 39.9603 33.2480 6.5256 5.1138 7.2030
# 2 39.9603 113.2373 38.9758 21.5420 -0.8892 17.3802
# 3 33.2480 38.9758 174.6930 31.6529 -25.4595 7.6659
# 4 6.5256 21.5420 31.6529 51.8249 7.6000 5.4000
# 5 5.1138 -0.8892 -25.4595 7.6000 37.8156 8.4697
# 6 7.2030 17.3802 7.6659 5.4000 8.4697 37.5196
#
#
#
# Elastic Compliance Matrix: (Units=1/GPa)
#
#
# Indices 1 2 3 4 5 6 
#
# 1 0.026800 -0.008782 -0.005293 0.004639 -0.008614 0.001282
# 2 -0.008782 0.013498 0.000262 -0.004709 0.003698 -0.004777
# 3 -0.005293 0.000262 0.009096 -0.006036 0.008510 -0.002016
# 4 0.004639 -0.004709 -0.006036 0.025738 -0.010227 0.001128
# 5 -0.008614 0.003698 0.008510 -0.010227 0.037447 -0.008779
# 6 0.001282 -0.004777 -0.002016 0.001128 -0.008779 0.030851
#
#
# Mechanical properties :
#
#
# Convention : Reuss Voigt Hill
#
# Bulk Modulus (GPa) = 45.94273 63.27143 54.60708
# Shear Modulus (GPa) = 28.04049 40.95808 34.49928
#
# Velocity S-wave (km/s) = 3.49250 4.22098 3.87391
# Velocity P-wave (km/s) = 6.02067 7.16091 6.61540
#
# Compressibility (1/GPa) = 0.02176623
#
# Stress axis : x y z
#
# Youngs Moduli (GPa) = 37.31292 74.08341 109.94204
#
# Poissons Ratio (x) = 0.65063 0.58196
# Poissons Ratio (y) = 0.32770 -0.02877
# Poissons Ratio (z) = 0.19751 -0.01939
#
# Static dielectric constant tensor:
#      x y z
#    x 1.860580 -0.073710 0.034670 
#    y -0.073710 1.807040 -0.050400 
#    z 0.034670 -0.050400 1.884620 
# 
# From -- ./inp_files/47608.got.cif
#   From: 2010.05.17/outbox.cif.g08.bks.cpg/sg2_24_cif.got.tgz:47608.got - 2010.06.03 11:33:40.
