data_PCOD9069812
_publ_section_title
;
Structure prediction by ZEFSAII (Michael W. Deem and Ramdas Pophale) SiO2 
 PCOD9069812
Probable space group: P -1
;
_chemical_formula_sum "Si O2"
_cell_formula_units_Z 12
_cell_length_a 11.978112
_cell_length_b 11.152148
_cell_length_c 16.553267
_cell_angle_alpha 27.744659
_cell_angle_beta 27.838341
_cell_angle_gamma 45.412094
_cell_volume 446.441392
_symmetry_space_group_name_H-M "P -1"
_symmetry_group_IT_number 2
_symmetry_cell_setting 'triclinic'
loop_
_space_group_symop_operation_xyz
x,y,z
-x,-y,-z
loop_
_atom_site_type_symbol
_atom_site_label
_atom_site_fract_x
_atom_site_fract_y
_atom_site_fract_z
Si Si1 0.172870 0.144418 0.020801
Si Si2 0.471140 0.786476 0.873925
Si Si3 0.717545 0.192377 0.186834
Si Si4 0.945573 0.438490 0.462987
Si Si5 0.395692 0.392970 0.884925
Si Si6 0.712161 0.166458 0.623013
O O1 0.225986 0.360223 0.933019
O O2 0.454300 0.230845 0.749881
O O3 0.981521 0.176961 0.057282
O O4 0.068740 0.837735 0.313580
O O5 0.384170 0.900582 0.781767
O O6 0.711889 0.020193 0.624510
O O7 0.500000 0.500000 0.000000
O O8 0.223006 0.676537 0.157324
O O9 0.703138 0.483739 0.050050
O O10 0.500000 0.000000 0.500000
O O11 0.299453 0.482304 0.404935
O O12 0.928624 0.394692 0.401443
O O13 0.355976 0.084071 0.120382
#
# Coordination Sequence:
#
# PCOD9069812 Si02
#       6
#     2   2   2   2   2   2
#     4   9  20  40  65  90 119 158 200 249 299 356
#     4  12  24  40  62  91 124 159 203 250 297 359
#     4  12  25  39  57  93 126 158 197 250 309 351
#     4   9  21  42  70  87 114 164 205 246 294 358
#     4   9  19  42  65  87 120 161 202 240 299 368
#     4   9  20  41  66  92 118 157 207 244 297 364
#
# _framework density 26.879228999999999
#
# number of rings (size 3 to 8) (size 9 to 14) (size 15 to 20)
#    0.000    2.000    1.667    3.500    2.333    2.667 
#    6.000    1.667    0.000    0.000    0.000    0.000 
#    0.000    0.000    0.000    0.000    0.000    0.000 
#
# Total GULP energy -67127.271867 kJ/mol
# GULP energy per Si atom -5593.939322 kJ/mol
# Density = 2.681805 g / cm^3
# Si number density = 26.879229 Si / 1000 Ang^3
#
#
#
# Elastic Constant Matrix: (Units=GPa)
#
#
# Indices 1 2 3 4 5 6 
#
# 1 191.5190 43.6797 12.3989 -8.1629 -27.5663 21.2803
# 2 43.6797 83.3681 -5.1285 8.4003 -8.2159 3.2763
# 3 12.3989 -5.1285 63.9852 0.4332 -12.9070 2.1503
# 4 -8.1629 8.4003 0.4332 17.6183 6.9611 -13.8392
# 5 -27.5663 -8.2159 -12.9070 6.9611 40.7953 -4.2912
# 6 21.2803 3.2763 2.1503 -13.8392 -4.2912 52.2825
#
#
#
# Elastic Compliance Matrix: (Units=1/GPa)
#
#
# Indices 1 2 3 4 5 6 
#
# 1 0.006796 -0.003497 -0.000951 0.002365 0.003012 -0.001635
# 2 -0.003497 0.015757 0.002848 -0.012808 0.003605 -0.002776
# 3 -0.000951 0.002848 0.017402 -0.005937 0.006285 -0.001563
# 4 0.002365 -0.012808 -0.005937 0.087480 -0.015476 0.021970
# 5 0.003012 0.003605 0.006285 -0.015476 0.031565 -0.003216
# 6 -0.001635 -0.002776 -0.001563 0.021970 -0.003216 0.025582
#
#
# Mechanical properties :
#
#
# Convention : Reuss Voigt Hill
#
# Bulk Modulus (GPa) = 27.20658 48.97471 38.09065
# Shear Modulus (GPa) = 24.99584 41.33403 33.16493
#
# Velocity S-wave (km/s) = 3.05279 3.92569 3.51643
# Velocity P-wave (km/s) = 4.75076 6.22960 5.53975
#
# Compressibility (1/GPa) = 0.03675581
#
# Stress axis : x y z
#
# Youngs Moduli (GPa) = 147.13615 63.46353 57.46567
#
# Poissons Ratio (x) = 0.22191 0.05464
# Poissons Ratio (y) = 0.51448 -0.16365
# Poissons Ratio (z) = 0.13989 -0.18073
#
# Static dielectric constant tensor:
#      x y z
#    x 2.156040 0.285760 -0.137290 
#    y 0.285760 3.149090 -0.605860 
#    z -0.137290 -0.605860 2.409760 
# 
# From -- ./inp_files/364345.got.cif
#   From: 2010.05.17/outbox.cif.g08.bks.cpg/sg2_183_cif.got.tgz:364345.got - 2010.06.03 11:33:40.
