data_PCOD9069843
_publ_section_title
;
Structure prediction by ZEFSAII (Michael W. Deem and Ramdas Pophale) SiO2 
 PCOD9069843
Probable space group: P -1
;
_chemical_formula_sum "Si O2"
_cell_formula_units_Z 14
_cell_length_a 26.838170
_cell_length_b 24.027508
_cell_length_c 6.015130
_cell_angle_alpha 60.579778
_cell_angle_beta 117.716395
_cell_angle_gamma 170.025445
_cell_volume 580.712867
_symmetry_space_group_name_H-M "P -1"
_symmetry_group_IT_number 2
_symmetry_cell_setting 'triclinic'
loop_
_space_group_symop_operation_xyz
x,y,z
-x,-y,-z
loop_
_atom_site_type_symbol
_atom_site_label
_atom_site_fract_x
_atom_site_fract_y
_atom_site_fract_z
Si Si1 0.813212 0.118130 0.580956
Si Si2 0.299918 0.315806 0.112314
Si Si3 0.544017 0.706634 0.091275
Si Si4 0.784914 0.402656 0.149543
Si Si5 0.104638 0.639828 0.191326
Si Si6 0.773551 0.503237 0.614299
Si Si7 0.980049 0.849532 0.580499
O O1 0.069630 0.438997 0.616006
O O2 0.979424 0.254167 0.498275
O O3 0.555238 0.871839 0.420830
O O4 0.633537 0.874915 0.858971
O O5 0.450679 0.549360 0.029912
O O6 0.500000 0.500000 0.000000
O O7 0.194734 0.148220 0.407153
O O8 0.000000 0.000000 0.000000
O O9 0.280117 0.418933 0.277650
O O10 0.819942 0.982221 0.234607
O O11 0.987743 0.582957 0.067805
O O12 0.448964 0.010837 0.196304
O O13 0.788075 0.479229 0.919542
O O14 0.000000 0.500000 0.500000
O O15 0.000000 0.500000 0.000000
O O16 0.834655 0.647463 0.473771
#
# Coordination Sequence:
#
# PCOD9069843 Si02
#       7
#     2   2   2   2   2   2   2
#     4  12  26  45  74 108 150 195 249 306 373 447
#     4  12  24  42  64  94 134 190 252 301 373 440
#     4  12  24  43  66  99 141 188 247 308 372 441
#     4  12  28  50  80 113 156 196 252 304 376 451
#     4  12  30  54  84 118 160 205 256 315 382 464
#     4  12  26  45  74 108 150 195 249 306 373 447
#     4  12  24  43  66  99 141 188 247 308 372 441
#
# _framework density 24.1083
#
# number of rings (size 3 to 8) (size 9 to 14) (size 15 to 20)
#    0.000    0.000    1.429    8.571    8.000    0.000 
#    0.000    0.000    0.000    0.000    0.000    0.000 
#    0.000    0.000    0.000    0.000    0.000    0.000 
#
# Total GULP energy -78273.731460 kJ/mol
# GULP energy per Si atom -5590.980819 kJ/mol
# Density = 2.405343 g / cm^3
# Si number density = 24.108300 Si / 1000 Ang^3
#
#
#
# Elastic Constant Matrix: (Units=GPa)
#
#
# Indices 1 2 3 4 5 6 
#
# 1 99.4479 20.4833 -0.6451 5.1705 -6.8781 12.8385
# 2 20.4833 158.0089 27.4355 17.0769 -6.8381 19.0070
# 3 -0.6451 27.4355 60.3948 4.2478 10.9222 5.5742
# 4 5.1705 17.0769 4.2478 52.3183 9.5727 -9.3153
# 5 -6.8781 -6.8381 10.9222 9.5727 41.5912 -0.8719
# 6 12.8385 19.0070 5.5742 -9.3153 -0.8719 61.8164
#
#
#
# Elastic Compliance Matrix: (Units=1/GPa)
#
#
# Indices 1 2 3 4 5 6 
#
# 1 0.010744 -0.000988 0.000550 -0.001495 0.001768 -0.002177
# 2 -0.000988 0.007812 -0.003626 -0.003066 0.002731 -0.002293
# 3 0.000550 -0.003626 0.019276 0.000473 -0.005692 -0.000747
# 4 -0.001495 -0.003066 0.000473 0.022091 -0.005866 0.004457
# 5 0.001768 0.002731 -0.005692 -0.005866 0.027605 -0.001188
# 6 -0.002177 -0.002293 -0.000747 0.004457 -0.001188 0.018056
#
#
# Mechanical properties :
#
#
# Convention : Reuss Voigt Hill
#
# Bulk Modulus (GPa) = 33.66637 45.82212 39.74424
# Shear Modulus (GPa) = 40.44913 49.18371 44.81642
#
# Velocity S-wave (km/s) = 4.10055 4.52166 4.31625
# Velocity P-wave (km/s) = 6.03443 6.80504 6.43129
#
# Compressibility (1/GPa) = 0.02970323
#
# Stress axis : x y z
#
# Youngs Moduli (GPa) = 93.07725 128.01236 51.87905
#
# Poissons Ratio (x) = 0.12650 -0.02853
# Poissons Ratio (y) = 0.09198 0.18810
# Poissons Ratio (z) = -0.05119 0.46414
#
# Static dielectric constant tensor:
#      x y z
#    x 4.362170 -1.714790 1.662700 
#    y -1.714790 2.991440 -1.075590 
#    z 1.662700 -1.075590 3.132080 
# 
# From -- ./inp_files/125307.got.cif
#   From: 2010.05.17/outbox.cif.g08.bks.cpg/sg2_63_cif.got.tgz:125307.got - 2010.06.03 11:33:40.
