data_PCOD9069108
_publ_section_title
;
Structure prediction by ZEFSAII (Michael W. Deem and Ramdas Pophale) SiO2 
 PCOD9069108
Probable space group: P -1
;
_chemical_formula_sum "Si O2"
_cell_formula_units_Z 16
_cell_length_a 9.516469
_cell_length_b 12.154626
_cell_length_c 9.061170
_cell_angle_alpha 79.983203
_cell_angle_beta 45.846401
_cell_angle_gamma 69.421250
_cell_volume 700.065846
_symmetry_space_group_name_H-M "P -1"
_symmetry_group_IT_number 2
_symmetry_cell_setting 'triclinic'
loop_
_space_group_symop_operation_xyz
x,y,z
-x,-y,-z
loop_
_atom_site_type_symbol
_atom_site_label
_atom_site_fract_x
_atom_site_fract_y
_atom_site_fract_z
Si Si1 0.983135 0.998245 0.187942
Si Si2 0.787282 0.832034 0.998568
Si Si3 0.474310 0.878735 0.489073
Si Si4 0.141342 0.731986 0.202341
Si Si5 0.448963 0.303287 0.248907
Si Si6 0.968027 0.616367 0.101393
Si Si7 0.049640 0.320795 0.361832
Si Si8 0.663794 0.527536 0.477412
O O1 0.768396 0.091694 0.375730
O O2 0.995423 0.865553 0.245535
O O3 0.165257 0.047070 0.093061
O O4 0.000000 0.000000 0.000000
O O5 0.600135 0.852475 0.247327
O O6 0.967634 0.729273 0.978562
O O7 0.806824 0.770291 0.839820
O O8 0.517330 0.797190 0.626113
O O9 0.500000 0.000000 0.500000
O O10 0.089202 0.635048 0.156234
O O11 0.098153 0.716775 0.407762
O O12 0.370188 0.730955 0.994657
O O13 0.220943 0.343668 0.336973
O O14 0.457721 0.420006 0.298616
O O15 0.739178 0.628029 0.323409
O O16 0.000000 0.500000 0.000000
O O17 0.881539 0.428350 0.376881
O O18 0.500000 0.500000 0.500000
#
# Coordination Sequence:
#
# PCOD9069108 Si02
#       8
#     2   2   2   2   2   2   2   2
#     4  12  23  44  78 107 145 194 253 307 360 438
#     4  12  25  43  73 109 145 193 248 304 363 443
#     4  12  22  42  76 108 136 190 255 303 360 434
#     4  12  26  49  74 110 155 200 244 306 383 438
#     4  12  25  46  75 106 149 197 245 302 381 437
#     4  12  22  43  75 108 144 188 252 310 357 440
#     4  12  29  48  70 109 161 196 235 313 383 440
#     4  12  27  46  76 109 145 196 256 304 366 448
#
# _framework density 22.854994000000001
#
# number of rings (size 3 to 8) (size 9 to 14) (size 15 to 20)
#    0.000    0.000    7.500    1.875    1.750    3.000 
#    0.000    4.375    0.000    0.000    0.000    0.000 
#    0.000    0.000    0.000    0.000    0.000    0.000 
#
# Total GULP energy -89161.686343 kJ/mol
# GULP energy per Si atom -5572.605396 kJ/mol
# Density = 2.280297 g / cm^3
# Si number density = 22.854994 Si / 1000 Ang^3
#
#
#
# Elastic Constant Matrix: (Units=GPa)
#
#
# Indices 1 2 3 4 5 6 
#
# 1 71.6432 33.4801 48.1363 0.9040 -10.0064 -10.3260
# 2 33.4801 81.8160 41.0882 -0.8278 4.3744 5.4964
# 3 48.1363 41.0882 180.6505 4.2626 8.1818 3.3627
# 4 0.9040 -0.8278 4.2626 38.1520 5.3983 1.9318
# 5 -10.0064 4.3744 8.1818 5.3983 40.7000 0.1735
# 6 -10.3260 5.4964 3.3627 1.9318 0.1735 16.1603
#
#
#
# Elastic Compliance Matrix: (Units=1/GPa)
#
#
# Indices 1 2 3 4 5 6 
#
# 1 0.027028 -0.010231 -0.005638 -0.002646 0.009135 0.022141
# 2 -0.010231 0.018011 -0.000980 0.002015 -0.004468 -0.012652
# 3 -0.005638 -0.000980 0.007477 -0.000091 -0.002751 -0.004785
# 4 -0.002646 0.002015 -0.000091 0.027237 -0.004438 -0.005566
# 5 0.009135 -0.004468 -0.002751 -0.004438 0.028403 0.008154
# 6 0.022141 -0.012652 -0.004785 -0.005566 0.008154 0.081904
#
#
# Mechanical properties :
#
#
# Convention : Reuss Voigt Hill
#
# Bulk Modulus (GPa) = 53.14509 64.39099 58.76804
# Shear Modulus (GPa) = 21.73621 33.09615 27.41618
#
# Velocity S-wave (km/s) = 3.08725 3.80951 3.46724
# Velocity P-wave (km/s) = 6.00099 6.89817 6.46516
#
# Compressibility (1/GPa) = 0.01881641
#
# Stress axis : x y z
#
# Youngs Moduli (GPa) = 36.99856 55.52273 133.74975
#
# Poissons Ratio (x) = 0.56807 0.75412
# Poissons Ratio (y) = 0.37854 0.13106
# Poissons Ratio (z) = 0.20861 0.05441
#
# Static dielectric constant tensor:
#      x y z
#    x 1.766190 0.136430 -0.123410 
#    y 0.136430 1.900600 0.205150 
#    z -0.123410 0.205150 1.819350 
# 
# From -- ./inp_files/187230.got.cif
#   From: 2010.05.17/outbox.cif.g08.bks.cpg/sg2_94_cif.got.tgz:187230.got - 2010.06.03 11:33:40.
