data_PCOD9069927
_publ_section_title
;
Structure prediction by ZEFSAII (Michael W. Deem and Ramdas Pophale) SiO2 
 PCOD9069927
Probable space group: P -1
;
_chemical_formula_sum "Si O2"
_cell_formula_units_Z 14
_cell_length_a 9.158299
_cell_length_b 5.760462
_cell_length_c 17.459956
_cell_angle_alpha 129.157591
_cell_angle_beta 70.310488
_cell_angle_gamma 123.853698
_cell_volume 592.997105
_symmetry_space_group_name_H-M "P -1"
_symmetry_group_IT_number 2
_symmetry_cell_setting 'triclinic'
loop_
_space_group_symop_operation_xyz
x,y,z
-x,-y,-z
loop_
_atom_site_type_symbol
_atom_site_label
_atom_site_fract_x
_atom_site_fract_y
_atom_site_fract_z
Si Si1 0.968651 0.628200 0.909481
Si Si2 0.080749 0.296587 0.232352
Si Si3 0.422825 0.315203 0.249646
Si Si4 0.585068 0.373927 0.524007
Si Si5 0.955314 0.616325 0.451223
Si Si6 0.402290 0.716926 0.036693
Si Si7 0.262742 0.425916 0.843690
O O1 0.891619 0.525803 0.817005
O O2 0.810127 0.413591 0.949678
O O3 0.148124 0.609218 0.877513
O O4 0.000000 0.000000 0.000000
O O5 0.254641 0.276036 0.222540
O O6 0.044371 0.501054 0.346726
O O7 0.898928 0.940770 0.181584
O O8 0.384533 0.377727 0.356371
O O9 0.612475 0.614643 0.250202
O O10 0.455756 0.000726 0.153309
O O11 0.500000 0.500000 0.500000
O O12 0.748879 0.411803 0.453720
O O13 0.500000 0.000000 0.500000
O O14 0.000000 0.500000 0.500000
O O15 0.000000 0.000000 0.500000
O O16 0.500000 0.500000 0.000000
O O17 0.402388 0.667661 0.933679
#
# Coordination Sequence:
#
# PCOD9069927 Si02
#       7
#     2   2   2   2   2   2   2
#     4  12  24  43  72 107 151 197 249 314 382 464
#     4  12  27  48  79 108 153 205 255 320 397 474
#     4  12  27  48  79 111 152 205 259 319 398 471
#     4  12  29  53  81 117 162 206 271 340 401 477
#     4  12  28  51  80 116 157 205 271 335 397 472
#     4  12  25  46  75 110 158 200 254 318 388 475
#     4  12  26  48  72 112 154 196 257 315 388 471
#
# _framework density 23.608885000000001
#
# number of rings (size 3 to 8) (size 9 to 14) (size 15 to 20)
#    0.000    0.000    4.286    5.143    6.000    1.143 
#    0.000    0.000    0.000    0.000    0.000    0.000 
#    0.000    0.000    0.000    0.000    0.000    0.000 
#
# Total GULP energy -77998.950090 kJ/mol
# GULP energy per Si atom -5571.353578 kJ/mol
# Density = 2.355515 g / cm^3
# Si number density = 23.608885 Si / 1000 Ang^3
#
#
#
# Elastic Constant Matrix: (Units=GPa)
#
#
# Indices 1 2 3 4 5 6 
#
# 1 127.6403 -1.7627 30.2026 4.0404 -15.9268 -21.1544
# 2 -1.7627 69.8801 25.0104 6.3857 -12.0819 -2.6676
# 3 30.2026 25.0104 158.1993 -3.9637 -17.3313 -30.5996
# 4 4.0404 6.3857 -3.9637 44.5932 -1.3714 -2.7234
# 5 -15.9268 -12.0819 -17.3313 -1.3714 49.6065 -14.3861
# 6 -21.1544 -2.6676 -30.5996 -2.7234 -14.3861 51.4901
#
#
#
# Elastic Compliance Matrix: (Units=1/GPa)
#
#
# Indices 1 2 3 4 5 6 
#
# 1 0.009383 0.001487 -0.000621 -0.000686 0.004529 0.004792
# 2 0.001487 0.016087 -0.002268 -0.002459 0.003837 0.001039
# 3 -0.000621 -0.002268 0.008384 0.001599 0.003899 0.005784
# 4 -0.000686 -0.002459 0.001599 0.023135 0.000970 0.002036
# 5 0.004529 0.003837 0.003899 0.000970 0.027444 0.012096
# 6 0.004792 0.001039 0.005784 0.002036 0.012096 0.028368
#
#
# Mechanical properties :
#
#
# Convention : Reuss Voigt Hill
#
# Bulk Modulus (GPa) = 32.20342 51.40224 41.80283
# Shear Modulus (GPa) = 39.69691 49.28926 44.49308
#
# Velocity S-wave (km/s) = 4.10498 4.57414 4.34590
# Velocity P-wave (km/s) = 6.01148 7.05100 6.55189
#
# Compressibility (1/GPa) = 0.03105260
#
# Stress axis : x y z
#
# Youngs Moduli (GPa) = 106.57624 62.16206 119.27247
#
# Poissons Ratio (x) = -0.09246 0.07403
# Poissons Ratio (y) = -0.15853 0.27046
# Poissons Ratio (z) = 0.06615 0.14096
#
# Static dielectric constant tensor:
#      x y z
#    x 1.790770 -0.092050 0.096870 
#    y -0.092050 2.363280 -0.020930 
#    z 0.096870 -0.020930 1.868020 
# 
# From -- ./inp_files/553209.got.cif
#   From: 2010.05.17/outbox.cif.g08.bks.cpg/sg2_277_cif.got.tgz:553209.got - 2010.06.03 11:33:40.
