data_PCOD9069095
_publ_section_title
;
Structure prediction by ZEFSAII (Michael W. Deem and Ramdas Pophale) SiO2 
 PCOD9069095
Probable space group: P -1
;
_chemical_formula_sum "Si O2"
_cell_formula_units_Z 14
_cell_length_a 15.141737
_cell_length_b 10.373962
_cell_length_c 9.893193
_cell_angle_alpha 120.509354
_cell_angle_beta 46.966167
_cell_angle_gamma 150.104169
_cell_volume 550.934113
_symmetry_space_group_name_H-M "P -1"
_symmetry_group_IT_number 2
_symmetry_cell_setting 'triclinic'
loop_
_space_group_symop_operation_xyz
x,y,z
-x,-y,-z
loop_
_atom_site_type_symbol
_atom_site_label
_atom_site_fract_x
_atom_site_fract_y
_atom_site_fract_z
Si Si1 0.196756 0.759585 0.522584
Si Si2 0.578399 0.441357 0.792361
Si Si3 0.444466 0.011629 0.917583
Si Si4 0.421200 0.285740 0.233085
Si Si5 0.112374 0.213315 0.875805
Si Si6 0.180161 0.806978 0.857144
Si Si7 0.052185 0.880282 0.595453
O O1 0.404743 0.917400 0.310135
O O2 0.157204 0.897149 0.619279
O O3 0.000000 0.500000 0.500000
O O4 0.185392 0.710129 0.666189
O O5 0.627356 0.594061 0.692156
O O6 0.391012 0.131905 0.795021
O O7 0.802519 0.594552 0.681058
O O8 0.500000 0.500000 0.000000
O O9 0.216813 0.774372 0.950489
O O10 0.479471 0.224455 0.023370
O O11 0.500000 0.000000 0.000000
O O12 0.634997 0.512676 0.219459
O O13 0.209226 0.004506 0.374906
O O14 0.063461 0.066550 0.716761
O O15 0.000000 0.000000 0.000000
O O16 0.013812 0.275883 0.997768
#
# Coordination Sequence:
#
# PCOD9069095 Si02
#       7
#     2   2   2   2   2   2   2
#     4  12  26  46  73 103 146 201 253 294 350 444
#     4  12  22  42  77 108 139 187 245 310 370 436
#     4  12  26  48  70 100 149 199 243 299 360 431
#     4  12  24  44  70 103 153 188 237 312 371 429
#     4  12  22  42  73 108 140 187 247 306 370 435
#     4  12  25  45  78 109 140 191 257 301 361 441
#     4  12  24  42  69 108 148 186 238 311 377 425
#
# _framework density 25.411387000000001
#
# number of rings (size 3 to 8) (size 9 to 14) (size 15 to 20)
#    0.000    0.000    7.143    3.000    0.000    0.000 
#    0.000    2.857    0.000    0.000    0.000    0.000 
#    0.000    0.000    0.000    0.000    0.000    0.000 
#
# Total GULP energy -78317.305972 kJ/mol
# GULP energy per Si atom -5594.093284 kJ/mol
# Density = 2.535355 g / cm^3
# Si number density = 25.411387 Si / 1000 Ang^3
#
#
#
# Elastic Constant Matrix: (Units=GPa)
#
#
# Indices 1 2 3 4 5 6 
#
# 1 146.2925 0.2241 32.5108 -6.5414 -1.7225 10.7694
# 2 0.2241 83.2572 16.5927 -0.6081 1.0625 16.3148
# 3 32.5108 16.5927 114.7506 0.3147 -7.1748 10.5771
# 4 -6.5414 -0.6081 0.3147 47.8068 9.6828 -6.9659
# 5 -1.7225 1.0625 -7.1748 9.6828 38.2424 5.7696
# 6 10.7694 16.3148 10.5771 -6.9659 5.7696 43.9619
#
#
#
# Elastic Compliance Matrix: (Units=1/GPa)
#
#
# Indices 1 2 3 4 5 6 
#
# 1 0.007439 0.000682 -0.002081 0.000847 -0.000073 -0.001431
# 2 0.000682 0.013273 -0.001658 -0.000464 0.000192 -0.004793
# 3 -0.002081 -0.001658 0.009852 -0.001096 0.002339 -0.001726
# 4 0.000847 -0.000464 -0.001096 0.023091 -0.006721 0.004769
# 5 -0.000073 0.000192 0.002339 -0.006721 0.029111 -0.005501
# 6 -0.001431 -0.004793 -0.001726 0.004769 -0.005501 0.026769
#
#
# Mechanical properties :
#
#
# Convention : Reuss Voigt Hill
#
# Bulk Modulus (GPa) = 40.89736 49.21727 45.05732
# Shear Modulus (GPa) = 40.38813 45.66707 43.02760
#
# Velocity S-wave (km/s) = 3.99102 4.24383 4.11937
# Velocity P-wave (km/s) = 6.11283 6.58967 6.35572
#
# Compressibility (1/GPa) = 0.02445146
#
# Stress axis : x y z
#
# Youngs Moduli (GPa) = 134.41816 75.34210 101.49994
#
# Poissons Ratio (x) = -0.05141 0.21126
# Poissons Ratio (y) = -0.09172 0.16824
# Poissons Ratio (z) = 0.27977 0.12488
#
# Static dielectric constant tensor:
#      x y z
#    x 2.191000 -0.093770 0.126420 
#    y -0.093770 2.011540 -0.035300 
#    z 0.126420 -0.035300 2.050720 
# 
# From -- ./inp_files/242224.got.cif
#   From: 2010.05.17/outbox.cif.g08.bks.cpg/sg2_122_cif.got.tgz:242224.got - 2010.06.03 11:33:40.
