data_PCOD9069848
_publ_section_title
;
Structure prediction by ZEFSAII (Michael W. Deem and Ramdas Pophale) SiO2 
 PCOD9069848
Probable space group: P -1
;
_chemical_formula_sum "Si O2"
_cell_formula_units_Z 16
_cell_length_a 21.662847
_cell_length_b 5.341750
_cell_length_c 17.383997
_cell_angle_alpha 75.684292
_cell_angle_beta 18.395572
_cell_angle_gamma 78.994557
_cell_volume 608.787903
_symmetry_space_group_name_H-M "P -1"
_symmetry_group_IT_number 2
_symmetry_cell_setting 'triclinic'
loop_
_space_group_symop_operation_xyz
x,y,z
-x,-y,-z
loop_
_atom_site_type_symbol
_atom_site_label
_atom_site_fract_x
_atom_site_fract_y
_atom_site_fract_z
Si Si1 0.194725 0.868494 0.793815
Si Si2 0.158653 0.406792 0.379208
Si Si3 0.543079 0.838481 0.034044
Si Si4 0.218555 0.465133 0.484928
Si Si5 0.818142 0.981299 0.825338
Si Si6 0.531423 0.849855 0.674033
Si Si7 0.714399 0.672802 0.231832
Si Si8 0.783741 0.525203 0.001113
O O1 0.336177 0.927080 0.547960
O O2 0.280168 0.056479 0.749875
O O3 0.159546 0.557167 0.873020
O O4 0.000000 0.000000 0.000000
O O5 0.357220 0.405631 0.095895
O O6 0.217101 0.486940 0.391388
O O7 0.000000 0.500000 0.500000
O O8 0.038727 0.119197 0.560383
O O9 0.721847 0.004804 0.855226
O O10 0.356850 0.744254 0.316017
O O11 0.500000 0.000000 0.000000
O O12 0.331667 0.271636 0.416380
O O13 0.987206 0.410739 0.783111
O O14 0.660882 0.079902 0.060680
O O15 0.815699 0.680554 0.871649
O O16 0.426728 0.649493 0.748380
O O17 0.500000 0.500000 0.500000
O O18 0.772976 0.719747 0.070292
#
# Coordination Sequence:
#
# PCOD9069848 Si02
#       8
#     2   2   2   2   2   2   2   2
#     4  12  28  49  78 115 153 199 256 312 376 453
#     4  12  24  44  71 102 143 187 240 302 367 442
#     4  12  24  42  66 103 138 180 242 299 357 442
#     4  12  25  46  70 105 141 190 242 295 376 438
#     4  12  25  45  73 103 142 191 241 300 375 435
#     4  12  26  48  73 105 151 188 242 314 365 445
#     4  12  26  48  79 110 152 203 251 304 385 450
#     4  12  26  47  74 105 149 191 246 306 369 447
#
# _framework density 26.281732000000002
#
# number of rings (size 3 to 8) (size 9 to 14) (size 15 to 20)
#    0.000    0.000    3.750    6.750    1.750    2.000 
#    0.000    0.000    0.000    0.000    0.000    0.000 
#    0.000    0.000    0.000    0.000    0.000    0.000 
#
# Total GULP energy -89450.581914 kJ/mol
# GULP energy per Si atom -5590.661370 kJ/mol
# Density = 2.622191 g / cm^3
# Si number density = 26.281732 Si / 1000 Ang^3
#
#
#
# Elastic Constant Matrix: (Units=GPa)
#
#
# Indices 1 2 3 4 5 6 
#
# 1 132.8756 29.0563 39.5146 21.9463 -6.6940 -8.5607
# 2 29.0563 63.4166 3.9405 11.8445 -13.1967 -20.6858
# 3 39.5146 3.9405 93.9909 10.4894 -15.2587 -10.1707
# 4 21.9463 11.8445 10.4894 40.2168 -1.5154 -3.5712
# 5 -6.6940 -13.1967 -15.2587 -1.5154 52.9669 5.5187
# 6 -8.5607 -20.6858 -10.1707 -3.5712 5.5187 49.9464
#
#
#
# Elastic Compliance Matrix: (Units=1/GPa)
#
#
# Indices 1 2 3 4 5 6 
#
# 1 0.010069 -0.004254 -0.003936 -0.003336 -0.000915 -0.000975
# 2 -0.004254 0.021943 0.002981 -0.004014 0.004825 0.008146
# 3 -0.003936 0.002981 0.013272 -0.001809 0.003733 0.002721
# 4 -0.003336 -0.004014 -0.001809 0.028258 -0.001086 -0.000462
# 5 -0.000915 0.004825 0.003733 -0.001086 0.020989 0.000205
# 6 -0.000975 0.008146 0.002721 -0.000462 0.000205 0.023726
#
#
# Mechanical properties :
#
#
# Convention : Reuss Voigt Hill
#
# Bulk Modulus (GPa) = 28.68207 48.36730 38.52468
# Shear Modulus (GPa) = 35.63847 43.14413 39.39130
#
# Velocity S-wave (km/s) = 3.68641 4.05606 3.87565
# Velocity P-wave (km/s) = 5.39041 6.35444 5.89217
#
# Compressibility (1/GPa) = 0.03486499
#
# Stress axis : x y z
#
# Youngs Moduli (GPa) = 99.31678 45.57162 75.34857
#
# Poissons Ratio (x) = 0.19387 0.29661
# Poissons Ratio (y) = 0.42251 -0.22463
# Poissons Ratio (z) = 0.39096 -0.13586
#
# Static dielectric constant tensor:
#      x y z
#    x 2.102590 0.026570 -0.036240 
#    y 0.026570 2.193640 0.062220 
#    z -0.036240 0.062220 2.077010 
# 
# From -- ./inp_files/576787.got.cif
#   From: 2010.05.17/outbox.cif.g08.bks.cpg/sg2_289_cif.got.tgz:576787.got - 2010.06.03 11:33:40.
