data_PCOD9069610
_publ_section_title
;
Structure prediction by ZEFSAII (Michael W. Deem and Ramdas Pophale) SiO2 
 PCOD9069610
Probable space group: P -1
;
_chemical_formula_sum "Si O2"
_cell_formula_units_Z 13
_cell_length_a 24.641063
_cell_length_b 19.154136
_cell_length_c 24.054246
_cell_angle_alpha 14.516378
_cell_angle_beta 168.310793
_cell_angle_gamma 164.931221
_cell_volume 540.756034
_symmetry_space_group_name_H-M "P -1"
_symmetry_group_IT_number 2
_symmetry_cell_setting 'triclinic'
loop_
_space_group_symop_operation_xyz
x,y,z
-x,-y,-z
loop_
_atom_site_type_symbol
_atom_site_label
_atom_site_fract_x
_atom_site_fract_y
_atom_site_fract_z
Si Si1 0.800360 0.475810 0.517117
Si Si2 0.463810 0.816569 0.224404
Si Si3 0.000000 0.500000 0.500000
Si Si4 0.909719 0.851548 0.444572
Si Si5 0.946451 0.069994 0.674623
Si Si6 0.169660 0.103672 0.147617
Si Si7 0.668398 0.289955 0.697134
O O1 0.761903 0.626797 0.419151
O O2 0.490563 0.330786 0.289824
O O3 0.998673 0.726673 0.482044
O O4 0.968760 0.246018 0.870144
O O5 0.500000 0.500000 0.500000
O O6 0.398937 0.824678 0.218780
O O7 0.757298 0.044374 0.317616
O O8 0.209516 0.878179 0.888808
O O9 0.957994 0.701204 0.355653
O O10 0.189307 0.808416 0.421729
O O11 0.801968 0.646727 0.548705
O O12 0.620096 0.860410 0.510636
O O13 0.115450 0.849069 0.005279
O O14 0.000000 0.000000 0.000000
#
# Coordination Sequence:
#
# PCOD9069610 Si02
#       7
#     2   2   1   2   2   2   2
#     4  12  23  46  68  93 133 184 232 278 344 408
#     4  12  26  46  74 110 142 177 229 288 348 423
#     4  12  28  42  66 100 136 178 238 292 338 398
#     4  12  25  45  75 100 142 187 227 284 346 418
#     4  12  25  44  72  97 140 186 234 290 344 404
#     4  12  26  42  63  93 132 176 230 290 342 392
#     4  12  25  48  72 103 139 189 232 280 352 418
#
# _framework density 24.040416
#
# number of rings (size 3 to 8) (size 9 to 14) (size 15 to 20)
#    0.000    0.000    4.615    5.538    0.000    2.462 
#    0.000    0.000    0.000    0.000    0.000    0.000 
#    0.000    0.000    0.000    0.000    0.000    0.000 
#
# Total GULP energy -72541.619845 kJ/mol
# GULP energy per Si atom -5580.124603 kJ/mol
# Density = 2.398570 g / cm^3
# Si number density = 24.040416 Si / 1000 Ang^3
#
#
#
# Elastic Constant Matrix: (Units=GPa)
#
#
# Indices 1 2 3 4 5 6 
#
# 1 81.2002 29.1032 28.7470 14.5618 20.3360 17.8924
# 2 29.1032 106.4204 37.5339 24.6615 -0.0015 31.5911
# 3 28.7470 37.5339 133.0267 18.3627 34.7235 2.9148
# 4 14.5618 24.6615 18.3627 52.1223 27.4152 2.9311
# 5 20.3360 -0.0015 34.7235 27.4152 30.8014 -7.1979
# 6 17.8924 31.5911 2.9148 2.9311 -7.1979 36.5567
#
#
#
# Elastic Compliance Matrix: (Units=1/GPa)
#
#
# Indices 1 2 3 4 5 6 
#
# 1 0.023696 -0.008586 0.006103 0.018287 -0.042175 -0.014435
# 2 -0.008586 0.023110 -0.011485 -0.025174 0.039859 -0.004986
# 3 0.006103 -0.011485 0.018237 0.020908 -0.044350 -0.004925
# 4 0.018287 -0.025174 0.020908 0.075634 -0.106689 -0.015934
# 5 -0.042175 0.039859 -0.044350 -0.106689 0.214752 0.040572
# 6 -0.014435 -0.004986 -0.004925 -0.015934 0.040572 0.048388
#
#
# Mechanical properties :
#
#
# Convention : Reuss Voigt Hill
#
# Bulk Modulus (GPa) = 26.94951 56.82394 41.88673
# Shear Modulus (GPa) = 11.25816 38.91361 25.08588
#
# Velocity S-wave (km/s) = 2.16637 4.02764 3.23381
# Velocity P-wave (km/s) = 4.18234 6.73181 5.60399
#
# Compressibility (1/GPa) = 0.03710642
#
# Stress axis : x y z
#
# Youngs Moduli (GPa) = 42.20164 43.27134 54.83229
#
# Poissons Ratio (x) = 0.37153 -0.33463
# Poissons Ratio (y) = 0.36234 0.62976
# Poissons Ratio (z) = -0.25755 0.49698
#
# Static dielectric constant tensor:
#      x y z
#    x 1.960800 -0.005380 -0.039190 
#    y -0.005380 1.885100 -0.043630 
#    z -0.039190 -0.043630 1.909260 
# 
# From -- ./inp_files/313336.got.cif
#   From: 2010.05.17/outbox.cif.g08.bks.cpg/sg2_157_cif.got.tgz:313336.got - 2010.06.03 11:33:40.
