data_PCOD9069309
_publ_section_title
;
Structure prediction by ZEFSAII (Michael W. Deem and Ramdas Pophale) SiO2 
 PCOD9069309
Probable space group: P -1
;
_chemical_formula_sum "Si O2"
_cell_formula_units_Z 16
_cell_length_a 9.466789
_cell_length_b 25.529249
_cell_length_c 25.884024
_cell_angle_alpha 168.920223
_cell_angle_beta 142.021779
_cell_angle_gamma 39.283207
_cell_volume 739.772007
_symmetry_space_group_name_H-M "P -1"
_symmetry_group_IT_number 2
_symmetry_cell_setting 'triclinic'
loop_
_space_group_symop_operation_xyz
x,y,z
-x,-y,-z
loop_
_atom_site_type_symbol
_atom_site_label
_atom_site_fract_x
_atom_site_fract_y
_atom_site_fract_z
Si Si1 0.654115 0.068687 0.769133
Si Si2 0.123223 0.723184 0.786333
Si Si3 0.600666 0.819441 0.966260
Si Si4 0.146540 0.263026 0.786610
Si Si5 0.643112 0.354220 0.444311
Si Si6 0.226607 0.486816 0.913652
Si Si7 0.132817 0.460002 0.647136
Si Si8 0.924025 0.970725 0.646633
O O1 0.681268 0.786526 0.536109
O O2 0.400442 0.195038 0.815096
O O3 0.750619 0.000525 0.673888
O O4 0.805681 0.305090 0.067085
O O5 0.101885 0.615378 0.734381
O O6 0.000000 0.500000 0.500000
O O7 0.392497 0.752054 0.878929
O O8 0.000000 0.000000 0.000000
O O9 0.823329 0.947766 0.182246
O O10 0.529026 0.067861 0.148462
O O11 0.652476 0.554001 0.689871
O O12 0.168957 0.337467 0.805220
O O13 0.000000 0.000000 0.500000
O O14 0.000000 0.500000 0.000000
O O15 0.500000 0.500000 0.500000
O O16 0.898404 0.317713 0.460286
O O17 0.112277 0.320819 0.672676
O O18 0.500000 0.500000 0.000000
O O19 0.141594 0.796754 0.188264
#
# Coordination Sequence:
#
# PCOD9069309 Si02
#       8
#     2   2   2   2   2   2   2   2
#     4  12  25  45  74 103 144 181 236 307 351 421
#     4  12  27  48  69 101 149 191 232 293 359 432
#     4  12  25  44  68 101 137 180 233 293 347 413
#     4  12  28  47  70 105 146 184 235 290 356 428
#     4  12  23  41  69 103 134 176 236 291 343 421
#     4  12  26  44  76 101 139 193 236 286 359 426
#     4  12  24  44  72 104 136 191 235 284 375 416
#     4  12  24  44  74 107 139 180 245 301 349 412
#
# _framework density 21.628287
#
# number of rings (size 3 to 8) (size 9 to 14) (size 15 to 20)
#    0.000    0.000    3.750    6.750    1.750    3.000 
#    0.000    0.000    0.000    0.000    0.000    0.000 
#    0.000    0.000    0.000    0.000    0.000    0.000 
#
# Total GULP energy -89576.147302 kJ/mol
# GULP energy per Si atom -5598.509206 kJ/mol
# Density = 2.157906 g / cm^3
# Si number density = 21.628287 Si / 1000 Ang^3
#
#
#
# Elastic Constant Matrix: (Units=GPa)
#
#
# Indices 1 2 3 4 5 6 
#
# 1 112.7583 23.0541 30.5248 -5.9785 8.6383 -2.2202
# 2 23.0541 80.8453 10.2152 12.3407 -8.2055 -2.3718
# 3 30.5248 10.2152 116.6607 13.2323 -1.6131 2.8673
# 4 -5.9785 12.3407 13.2323 46.0423 3.9093 9.1384
# 5 8.6383 -8.2055 -1.6131 3.9093 36.9241 6.5421
# 6 -2.2202 -2.3718 2.8673 9.1384 6.5421 37.8151
#
#
#
# Elastic Compliance Matrix: (Units=1/GPa)
#
#
# Indices 1 2 3 4 5 6 
#
# 1 0.010928 -0.003659 -0.003003 0.003504 -0.003956 0.000478
# 2 -0.003659 0.014639 0.000286 -0.005086 0.004458 0.001139
# 3 -0.003003 0.000286 0.009742 -0.003329 0.001610 -0.000371
# 4 0.003504 -0.005086 -0.003329 0.025905 -0.003872 -0.005451
# 5 -0.003956 0.004458 0.001610 -0.003872 0.030254 -0.004373
# 6 0.000478 0.001139 -0.000371 -0.005451 -0.004373 0.028646
#
#
# Mechanical properties :
#
#
# Convention : Reuss Voigt Hill
#
# Bulk Modulus (GPa) = 44.33322 48.65028 46.49175
# Shear Modulus (GPa) = 35.61672 40.58766 38.10219
#
# Velocity S-wave (km/s) = 4.06244 4.33667 4.20179
# Velocity P-wave (km/s) = 6.52279 6.90060 6.71436
#
# Compressibility (1/GPa) = 0.02255645
#
# Stress axis : x y z
#
# Youngs Moduli (GPa) = 91.50939 68.31137 102.65347
#
# Poissons Ratio (x) = 0.24997 0.30825
# Poissons Ratio (y) = 0.33485 -0.02937
# Poissons Ratio (z) = 0.27478 -0.01954
#
# Static dielectric constant tensor:
#      x y z
#    x 1.745370 0.103260 0.012050 
#    y 0.103260 1.441990 -0.055460 
#    z 0.012050 -0.055460 1.720070 
# 
# From -- ./inp_files/557252.got.cif
#   From: 2010.05.17/outbox.cif.g08.bks.cpg/sg2_279_cif.got.tgz:557252.got - 2010.06.03 11:33:40.
