data_PCOD9069022
_publ_section_title
;
Structure prediction by ZEFSAII (Michael W. Deem and Ramdas Pophale) SiO2 
 PCOD9069022
Probable space group: P -1
;
_chemical_formula_sum "Si O2"
_cell_formula_units_Z 12
_cell_length_a 11.889173
_cell_length_b 12.014954
_cell_length_c 9.339924
_cell_angle_alpha 144.682355
_cell_angle_beta 142.039903
_cell_angle_gamma 36.474838
_cell_volume 423.174396
_symmetry_space_group_name_H-M "P -1"
_symmetry_group_IT_number 2
_symmetry_cell_setting 'triclinic'
loop_
_space_group_symop_operation_xyz
x,y,z
-x,-y,-z
loop_
_atom_site_type_symbol
_atom_site_label
_atom_site_fract_x
_atom_site_fract_y
_atom_site_fract_z
Si Si1 0.436614 0.764455 0.809655
Si Si2 0.864529 0.469100 0.981372
Si Si3 0.000000 0.000000 0.000000
Si Si4 0.722445 0.359043 0.009055
Si Si5 0.000000 0.000000 0.500000
Si Si6 0.804588 0.437494 0.465805
Si Si7 0.360434 0.079147 0.303002
O O1 0.665568 0.601748 0.823216
O O2 0.347859 0.633965 0.684326
O O3 0.254717 0.883453 0.641610
O O4 0.462683 0.934090 0.116265
O O5 0.985091 0.222145 0.795737
O O6 0.775472 0.476307 0.060288
O O7 0.011991 0.581866 0.270018
O O8 0.842699 0.947578 0.897193
O O9 0.197830 0.888169 0.207704
O O10 0.874841 0.292744 0.236791
O O11 0.500000 0.500000 0.000000
O O12 0.705093 0.675318 0.549444
O O13 0.500000 0.000000 0.500000
#
# Coordination Sequence:
#
# PCOD9069022 Si02
#       7
#     2   2   1   2   1   2   2
#     4  12  27  52  76 110 156 197 259 326 363 463
#     4  12  26  49  79 110 152 204 252 317 376 459
#     4  12  22  40  66 106 162 198 222 310 368 460
#     4  12  23  43  75 114 156 189 240 312 390 446
#     4  12  28  58  76 106 154 210 266 304 382 446
#     4  12  25  46  77 119 152 197 255 315 396 451
#     4  12  26  42  74 119 155 201 249 303 401 458
#
# _framework density 28.357104
#
# number of rings (size 3 to 8) (size 9 to 14) (size 15 to 20)
#    0.000    0.000    6.667    3.000    2.333    0.667 
#    3.000    1.667    0.000    0.000    0.000    0.000 
#    0.000    0.000    0.000    0.000    0.000    0.000 
#
# Total GULP energy -66913.934269 kJ/mol
# GULP energy per Si atom -5576.161189 kJ/mol
# Density = 2.829256 g / cm^3
# Si number density = 28.357104 Si / 1000 Ang^3
#
#
#
# Elastic Constant Matrix: (Units=GPa)
#
#
# Indices 1 2 3 4 5 6 
#
# 1 114.4008 37.1593 25.0422 7.5505 18.8751 -7.5138
# 2 37.1593 206.7409 45.3192 -11.2115 6.3435 -24.5534
# 3 25.0422 45.3192 170.9071 -1.3903 -7.8856 -9.9307
# 4 7.5505 -11.2115 -1.3903 66.9167 -2.7495 0.8317
# 5 18.8751 6.3435 -7.8856 -2.7495 46.5124 -1.0905
# 6 -7.5138 -24.5534 -9.9307 0.8317 -1.0905 52.6614
#
#
#
# Elastic Compliance Matrix: (Units=1/GPa)
#
#
# Indices 1 2 3 4 5 6 
#
# 1 0.010356 -0.001473 -0.001311 -0.001626 -0.004309 0.000480
# 2 -0.001473 0.005684 -0.001167 0.001056 -0.000261 0.002198
# 3 -0.001311 -0.001167 0.006468 0.000155 0.001809 0.000523
# 4 -0.001626 0.001056 0.000155 0.015366 0.001452 0.000077
# 5 -0.004309 -0.000261 0.001809 0.001452 0.023678 0.000072
# 6 0.000480 0.002198 0.000523 0.000077 0.000072 0.020181
#
#
# Mechanical properties :
#
#
# Convention : Reuss Voigt Hill
#
# Bulk Modulus (GPa) = 68.46557 78.56556 73.51557
# Shear Modulus (GPa) = 52.90737 58.85331 55.88034
#
# Velocity S-wave (km/s) = 4.32412 4.56064 4.44395
# Velocity P-wave (km/s) = 7.00908 7.44973 7.23276
#
# Compressibility (1/GPa) = 0.01460588
#
# Stress axis : x y z
#
# Youngs Moduli (GPa) = 96.55879 175.93628 154.61058
#
# Poissons Ratio (x) = 0.25915 0.20270
# Poissons Ratio (y) = 0.14223 0.18045
# Poissons Ratio (z) = 0.12659 0.20534
#
# Static dielectric constant tensor:
#      x y z
#    x 2.155430 0.064140 0.139200 
#    y 0.064140 2.308170 -0.234280 
#    z 0.139200 -0.234280 1.748460 
# 
# From -- ./inp_files/455316.got.cif
#   From: 2010.05.17/outbox.cif.g08.bks.cpg/sg2_228_cif.got.tgz:455316.got - 2010.06.03 11:33:40.
