data_PCOD9069206
_publ_section_title
;
Structure prediction by ZEFSAII (Michael W. Deem and Ramdas Pophale) SiO2 
 PCOD9069206
Probable space group: P -1
;
_chemical_formula_sum "Si O2"
_cell_formula_units_Z 14
_cell_length_a 13.945581
_cell_length_b 10.679781
_cell_length_c 11.540045
_cell_angle_alpha 35.425468
_cell_angle_beta 140.583301
_cell_angle_gamma 139.784805
_cell_volume 589.091634
_symmetry_space_group_name_H-M "P -1"
_symmetry_group_IT_number 2
_symmetry_cell_setting 'triclinic'
loop_
_space_group_symop_operation_xyz
x,y,z
-x,-y,-z
loop_
_atom_site_type_symbol
_atom_site_label
_atom_site_fract_x
_atom_site_fract_y
_atom_site_fract_z
Si Si1 0.467135 0.137707 0.716921
Si Si2 0.671595 0.009331 0.706116
Si Si3 0.828451 0.525842 0.559533
Si Si4 0.219626 0.527689 0.169606
Si Si5 0.108532 0.854737 0.674898
Si Si6 0.420850 0.269988 0.936388
Si Si7 0.686076 0.716235 0.746920
O O1 0.278183 0.341092 0.696914
O O2 0.584823 0.338995 0.754594
O O3 0.287549 0.022022 0.684143
O O4 0.551139 0.949334 0.929009
O O5 0.773893 0.266850 0.653720
O O6 0.441809 0.224722 0.500237
O O7 0.625474 0.819430 0.908801
O O8 0.758089 0.924998 0.746409
O O9 0.802126 0.517016 0.680948
O O10 0.018859 0.685969 0.612453
O O11 0.130818 0.697344 0.918626
O O12 0.190665 0.333179 0.190722
O O13 0.000000 0.000000 0.500000
O O14 0.585598 0.489582 0.899688
O O15 0.500000 0.000000 0.500000
#
# Coordination Sequence:
#
# PCOD9069206 Si02
#       7
#     2   2   2   2   2   2   2
#     4  12  24  44  75 108 141 183 249 296 350 427
#     4  12  24  45  74 110 141 187 246 296 346 428
#     4  12  27  47  72 111 148 188 235 303 362 419
#     4  12  24  48  74 105 143 188 242 300 348 428
#     4  12  28  44  72 108 150 188 234 298 375 418
#     4  12  22  45  77 103 144 185 246 289 356 416
#     4  12  25  41  76 108 139 182 249 295 347 416
#
# _framework density 23.765402999999999
#
# number of rings (size 3 to 8) (size 9 to 14) (size 15 to 20)
#    0.000    0.000    7.143    3.429    2.000    0.000 
#    0.000    1.429    0.000    0.000    0.000    0.000 
#    0.000    0.000    0.000    0.000    0.000    0.000 
#
# Total GULP energy -78393.032804 kJ/mol
# GULP energy per Si atom -5599.502343 kJ/mol
# Density = 2.371131 g / cm^3
# Si number density = 23.765403 Si / 1000 Ang^3
#
#
#
# Elastic Constant Matrix: (Units=GPa)
#
#
# Indices 1 2 3 4 5 6 
#
# 1 106.7326 43.1746 49.5794 -3.6323 1.6427 -36.8016
# 2 43.1746 124.2644 30.6443 -10.8871 6.8330 -22.2804
# 3 49.5794 30.6443 178.0620 1.0020 -17.0727 -26.2976
# 4 -3.6323 -10.8871 1.0020 36.0726 -6.1758 9.5601
# 5 1.6427 6.8330 -17.0727 -6.1758 36.8633 -7.5845
# 6 -36.8016 -22.2804 -26.2976 9.5601 -7.5845 40.2130
#
#
#
# Elastic Compliance Matrix: (Units=1/GPa)
#
#
# Indices 1 2 3 4 5 6 
#
# 1 0.015540 -0.003030 -0.001911 -0.002304 0.001076 0.012045
# 2 -0.003030 0.009801 -0.000786 0.002065 -0.001414 0.001386
# 3 -0.001911 -0.000786 0.007204 -0.000850 0.004147 0.003512
# 4 -0.002304 0.002065 -0.000850 0.030818 0.002777 -0.008324
# 5 0.001076 -0.001414 0.004147 0.002777 0.031410 0.008178
# 6 0.012045 0.001386 0.003512 -0.008324 0.008178 0.042476
#
#
# Mechanical properties :
#
#
# Convention : Reuss Voigt Hill
#
# Bulk Modulus (GPa) = 47.40748 72.87283 60.14015
# Shear Modulus (GPa) = 32.10623 41.67383 36.89003
#
# Velocity S-wave (km/s) = 3.67954 4.19208 3.94414
# Velocity P-wave (km/s) = 6.16793 7.35944 6.78987
#
# Compressibility (1/GPa) = 0.02109372
#
# Stress axis : x y z
#
# Youngs Moduli (GPa) = 64.34883 102.03053 138.80533
#
# Poissons Ratio (x) = 0.30912 0.26520
# Poissons Ratio (y) = 0.19495 0.10906
# Poissons Ratio (z) = 0.12295 0.08016
#
# Static dielectric constant tensor:
#      x y z
#    x 1.997850 0.066490 -0.013520 
#    y 0.066490 1.965560 -0.051120 
#    z -0.013520 -0.051120 1.914820 
# 
# From -- ./inp_files/530896.got.cif
#   From: 2010.05.17/outbox.cif.g08.bks.cpg/sg2_266_cif.got.tgz:530896.got - 2010.06.03 11:33:40.
