data_PCOD9069994
_publ_section_title
;
Structure prediction by ZEFSAII (Michael W. Deem and Ramdas Pophale) SiO2 
 PCOD9069994
Probable space group: P -1
;
_chemical_formula_sum "Si O2"
_cell_formula_units_Z 16
_cell_length_a 9.453154
_cell_length_b 28.338830
_cell_length_c 9.012151
_cell_angle_alpha 140.663899
_cell_angle_beta 148.367824
_cell_angle_gamma 39.334237
_cell_volume 753.117195
_symmetry_space_group_name_H-M "P -1"
_symmetry_group_IT_number 2
_symmetry_cell_setting 'triclinic'
loop_
_space_group_symop_operation_xyz
x,y,z
-x,-y,-z
loop_
_atom_site_type_symbol
_atom_site_label
_atom_site_fract_x
_atom_site_fract_y
_atom_site_fract_z
Si Si1 0.230911 0.569741 0.499104
Si Si2 0.301301 0.482886 0.653851
Si Si3 0.792846 0.948279 0.711262
Si Si4 0.718000 0.183277 0.669139
Si Si5 0.386366 0.334134 0.924577
Si Si6 0.662250 0.691444 0.847793
Si Si7 0.078792 0.784996 0.396554
Si Si8 0.686466 0.918027 0.887342
O O1 0.500000 0.500000 0.500000
O O2 0.259801 0.545164 0.635946
O O3 0.901485 0.593557 0.208313
O O4 0.332635 0.643078 0.737332
O O5 0.357927 0.394794 0.422626
O O6 0.000000 0.500000 0.500000
O O7 0.500000 0.500000 0.000000
O O8 0.741071 0.933920 0.802981
O O9 0.895125 0.865109 0.511888
O O10 0.500000 0.000000 0.500000
O O11 0.000000 0.000000 0.000000
O O12 0.509051 0.268034 0.749689
O O13 0.823915 0.194886 0.628252
O O14 0.515049 0.132462 0.383894
O O15 0.004656 0.134324 0.896942
O O16 0.306019 0.305084 0.938243
O O17 0.362766 0.750202 0.664253
O O18 0.913136 0.721174 0.079854
O O19 0.500000 0.000000 0.000000
#
# Coordination Sequence:
#
# PCOD9069994 Si02
#       8
#     2   2   2   2   2   2   2   2
#     4  12  26  47  71 100 133 183 232 289 346 426
#     4  12  28  45  70 101 138 179 234 289 358 415
#     4  12  24  44  72 105 141 182 230 282 343 411
#     4  12  26  45  68 104 138 182 231 282 344 412
#     4  12  26  45  72  98 139 179 233 285 354 411
#     4  12  26  46  69  99 139 184 229 290 350 418
#     4  12  26  44  70 102 142 182 233 284 351 411
#     4  12  24  45  72 101 142 183 230 281 338 407
#
# _framework density 21.245031999999998
#
# number of rings (size 3 to 8) (size 9 to 14) (size 15 to 20)
#    0.000    0.000    1.250    9.000    7.000    0.000 
#    0.000    0.000    0.000    0.000    0.000    0.000 
#    0.000    0.000    0.000    0.000    0.000    0.000 
#
# Total GULP energy -89369.722838 kJ/mol
# GULP energy per Si atom -5585.607677 kJ/mol
# Density = 2.119668 g / cm^3
# Si number density = 21.245032 Si / 1000 Ang^3
#
#
#
# Elastic Constant Matrix: (Units=GPa)
#
#
# Indices 1 2 3 4 5 6 
#
# 1 198.4515 56.9662 50.3859 -12.3598 -7.1905 12.1381
# 2 56.9662 95.0788 25.3443 -31.0339 -19.9330 -8.7358
# 3 50.3859 25.3443 125.7493 -27.0621 21.2075 4.7678
# 4 -12.3598 -31.0339 -27.0621 61.4027 5.8111 -6.6489
# 5 -7.1905 -19.9330 21.2075 5.8111 46.8837 4.0101
# 6 12.1381 -8.7358 4.7678 -6.6489 4.0101 43.7868
#
#
#
# Elastic Compliance Matrix: (Units=1/GPa)
#
#
# Indices 1 2 3 4 5 6 
#
# 1 0.006984 -0.004373 -0.002439 -0.002281 0.000852 -0.002967
# 2 -0.004373 0.017756 -0.001466 0.007460 0.006148 0.005484
# 3 -0.002439 -0.001466 0.011289 0.004424 -0.006690 0.000439
# 4 -0.002281 0.007460 0.004424 0.022342 -0.002398 0.005251
# 5 0.000852 0.006148 -0.006690 -0.002398 0.027497 -0.001163
# 6 -0.002967 0.005484 0.000439 0.005251 -0.001163 0.025611
#
#
# Mechanical properties :
#
#
# Convention : Reuss Voigt Hill
#
# Bulk Modulus (GPa) = 51.35311 76.07470 63.71391
# Shear Modulus (GPa) = 37.16793 49.52016 43.34405
#
# Velocity S-wave (km/s) = 4.18723 4.83318 4.52175
# Velocity P-wave (km/s) = 6.89938 8.18732 7.57079
#
# Compressibility (1/GPa) = 0.01947302
#
# Stress axis : x y z
#
# Youngs Moduli (GPa) = 143.18897 56.31922 88.58406
#
# Poissons Ratio (x) = 0.24627 0.21606
# Poissons Ratio (y) = 0.62613 0.12985
# Poissons Ratio (z) = 0.34925 0.08256
#
# Static dielectric constant tensor:
#      x y z
#    x 1.682200 0.006710 -0.026780 
#    y 0.006710 1.716230 0.024070 
#    z -0.026780 0.024070 1.726160 
# 
# From -- ./inp_files/228010.got.cif
#   From: 2010.05.17/outbox.cif.g08.bks.cpg/sg2_115_cif.got.tgz:228010.got - 2010.06.03 11:33:40.
