data_PCOD9069457
_publ_section_title
;
Structure prediction by ZEFSAII (Michael W. Deem and Ramdas Pophale) SiO2 
 PCOD9069457
Probable space group: P -1
;
_chemical_formula_sum "Si O2"
_cell_formula_units_Z 14
_cell_length_a 9.489325
_cell_length_b 9.176514
_cell_length_c 11.516392
_cell_angle_alpha 61.295635
_cell_angle_beta 67.335712
_cell_angle_gamma 45.750145
_cell_volume 628.044415
_symmetry_space_group_name_H-M "P -1"
_symmetry_group_IT_number 2
_symmetry_cell_setting 'triclinic'
loop_
_space_group_symop_operation_xyz
x,y,z
-x,-y,-z
loop_
_atom_site_type_symbol
_atom_site_label
_atom_site_fract_x
_atom_site_fract_y
_atom_site_fract_z
Si Si1 0.530228 0.142327 0.852994
Si Si2 0.637484 0.433815 0.754669
Si Si3 0.014868 0.285463 0.566055
Si Si4 0.120986 0.140836 0.327303
Si Si5 0.201959 0.835840 0.734005
Si Si6 0.895739 0.242879 0.964183
Si Si7 0.909739 0.575221 0.127652
O O1 0.615807 0.249224 0.843215
O O2 0.307158 0.341542 0.815820
O O3 0.671000 0.022553 0.742344
O O4 0.500000 0.000000 0.000000
O O5 0.432114 0.660731 0.697567
O O6 0.735951 0.412246 0.855568
O O7 0.794536 0.374162 0.628783
O O8 0.101488 0.157058 0.465533
O O9 0.000000 0.500000 0.500000
O O10 0.141504 0.069934 0.690486
O O11 0.957722 0.136374 0.315651
O O12 0.058993 0.370876 0.234379
O O13 0.192865 0.723618 0.893217
O O14 0.075091 0.246446 0.912273
O O15 0.000000 0.000000 0.000000
O O16 0.000000 0.500000 0.000000
#
# Coordination Sequence:
#
# PCOD9069457 Si02
#       7
#     2   2   2   2   2   2   2
#     4  12  23  43  75 116 147 186 246 300 378 445
#     4  12  26  47  78 110 150 198 245 309 376 442
#     4  12  29  53  70 104 154 201 256 303 368 448
#     4  12  25  46  77 104 151 197 244 309 363 447
#     4  12  25  47  75 109 144 196 253 306 375 437
#     4  12  23  46  73 109 157 191 234 313 378 436
#     4  12  23  44  71 110 148 184 246 307 363 443
#
# _framework density 22.291416000000002
#
# number of rings (size 3 to 8) (size 9 to 14) (size 15 to 20)
#    0.000    0.000    7.143    2.571    0.000    2.286 
#    7.714    0.000    0.000    0.000    0.000    0.000 
#    0.000    0.000    0.000    0.000    0.000    0.000 
#
# Total GULP energy -78050.589898 kJ/mol
# GULP energy per Si atom -5575.042136 kJ/mol
# Density = 2.224068 g / cm^3
# Si number density = 22.291416 Si / 1000 Ang^3
#
#
#
# Elastic Constant Matrix: (Units=GPa)
#
#
# Indices 1 2 3 4 5 6 
#
# 1 102.8291 46.2154 35.7922 12.6992 -22.2758 3.1499
# 2 46.2154 130.9202 29.8985 13.1992 -20.2696 -14.9404
# 3 35.7922 29.8985 95.4996 21.2232 -14.4130 -0.2125
# 4 12.6992 13.1992 21.2232 43.2045 10.0112 -20.8314
# 5 -22.2758 -20.2696 -14.4130 10.0112 33.9462 0.4486
# 6 3.1499 -14.9404 -0.2125 -20.8314 0.4486 45.4894
#
#
#
# Elastic Compliance Matrix: (Units=1/GPa)
#
#
# Indices 1 2 3 4 5 6 
#
# 1 0.014897 -0.003349 -0.001423 -0.007613 0.009493 -0.005718
# 2 -0.003349 0.010074 -0.001177 -0.000825 0.003520 0.003123
# 3 -0.001423 -0.001177 0.015043 -0.011074 0.008087 -0.005369
# 4 -0.007613 -0.000825 -0.011074 0.047435 -0.024472 0.022168
# 5 0.009493 0.003520 0.008087 -0.024472 0.048587 -0.011150
# 6 -0.005718 0.003123 -0.005369 0.022168 -0.011150 0.033641
#
#
# Mechanical properties :
#
#
# Convention : Reuss Voigt Hill
#
# Bulk Modulus (GPa) = 35.56799 61.45121 48.50960
# Shear Modulus (GPa) = 26.18533 39.01753 32.60143
#
# Velocity S-wave (km/s) = 3.43108 4.18824 3.82843
# Velocity P-wave (km/s) = 5.62912 7.14252 6.43050
#
# Compressibility (1/GPa) = 0.02811517
#
# Stress axis : x y z
#
# Youngs Moduli (GPa) = 67.12710 99.26779 66.47748
#
# Poissons Ratio (x) = 0.33246 0.09459
# Poissons Ratio (y) = 0.22482 0.07825
# Poissons Ratio (z) = 0.09552 0.11685
#
# Static dielectric constant tensor:
#      x y z
#    x 1.851360 0.010510 0.026260 
#    y 0.010510 1.849380 -0.038730 
#    z 0.026260 -0.038730 1.837380 
# 
# From -- ./inp_files/308387.got.cif
#   From: 2010.05.17/outbox.cif.g08.bks.cpg/sg2_155_cif.got.tgz:308387.got - 2010.06.03 11:33:40.
