data_PCOD9069913
_publ_section_title
;
Structure prediction by ZEFSAII (Michael W. Deem and Ramdas Pophale) SiO2 
 PCOD9069913
Probable space group: P -1
;
_chemical_formula_sum "Si O2"
_cell_formula_units_Z 12
_cell_length_a 14.645340
_cell_length_b 18.115276
_cell_length_c 9.805302
_cell_angle_alpha 35.213932
_cell_angle_beta 133.266756
_cell_angle_gamma 159.059605
_cell_volume 496.601291
_symmetry_space_group_name_H-M "P -1"
_symmetry_group_IT_number 2
_symmetry_cell_setting 'triclinic'
loop_
_space_group_symop_operation_xyz
x,y,z
-x,-y,-z
loop_
_atom_site_type_symbol
_atom_site_label
_atom_site_fract_x
_atom_site_fract_y
_atom_site_fract_z
Si Si1 0.940689 0.037353 0.510235
Si Si2 0.871080 0.479701 0.788624
Si Si3 0.542105 0.906149 0.601741
Si Si4 0.578633 0.274324 0.548807
Si Si5 0.080515 0.153686 0.984567
Si Si6 0.470943 0.672300 0.134007
O O1 0.242865 0.355718 0.387304
O O2 0.739482 0.975249 0.368217
O O3 0.800037 0.832592 0.799573
O O4 0.000000 0.000000 0.500000
O O5 0.733807 0.321888 0.741748
O O6 0.623435 0.317874 0.860896
O O7 0.130291 0.805692 0.525242
O O8 0.000000 0.500000 0.000000
O O9 0.407129 0.771105 0.519437
O O10 0.500000 0.000000 0.500000
O O11 0.439215 0.703746 0.903525
O O12 0.735003 0.554017 0.294962
O O13 0.789215 0.933057 0.081118
O O14 0.000000 0.000000 0.000000
#
# Coordination Sequence:
#
# PCOD9069913 Si02
#       6
#     2   2   2   2   2   2
#     4  12  24  43  70 113 145 192 252 296 369 449
#     4  12  26  50  73 109 149 194 252 311 371 443
#     4  12  26  50  73 109 151 195 252 312 369 438
#     4  12  26  47  77 110 152 197 247 309 373 440
#     4  12  24  45  76 109 153 196 244 304 371 443
#     4  12  24  47  75 104 156 193 241 312 366 437
#
# _framework density 24.164254
#
# number of rings (size 3 to 8) (size 9 to 14) (size 15 to 20)
#    0.000    0.000    5.000    6.000    0.000    1.333 
#    0.000    0.000    0.000    0.000    0.000    0.000 
#    0.000    0.000    0.000    0.000    0.000    0.000 
#
# Total GULP energy -67159.309879 kJ/mol
# GULP energy per Si atom -5596.609157 kJ/mol
# Density = 2.410926 g / cm^3
# Si number density = 24.164254 Si / 1000 Ang^3
#
#
#
# Elastic Constant Matrix: (Units=GPa)
#
#
# Indices 1 2 3 4 5 6 
#
# 1 114.3817 31.5397 11.7859 12.7490 -18.9937 -14.0256
# 2 31.5397 114.6755 16.3637 14.5319 -10.3431 -9.1052
# 3 11.7859 16.3637 76.1884 4.5597 -17.8129 -11.2235
# 4 12.7490 14.5319 4.5597 59.2862 -5.0589 -19.7347
# 5 -18.9937 -10.3431 -17.8129 -5.0589 35.7699 0.6531
# 6 -14.0256 -9.1052 -11.2235 -19.7347 0.6531 54.0826
#
#
#
# Elastic Compliance Matrix: (Units=1/GPa)
#
#
# Indices 1 2 3 4 5 6 
#
# 1 0.010477 -0.002241 0.000376 -0.000595 0.004979 0.002141
# 2 -0.002241 0.009837 -0.001488 -0.001714 0.000669 0.000133
# 3 0.000376 -0.001488 0.015598 0.000829 0.007594 0.003295
# 4 -0.000595 -0.001714 0.000829 0.019859 0.002283 0.006948
# 5 0.004979 0.000669 0.007594 0.002283 0.034837 0.003392
# 6 0.002141 0.000133 0.003295 0.006948 0.003392 0.022246
#
#
# Mechanical properties :
#
#
# Convention : Reuss Voigt Hill
#
# Bulk Modulus (GPa) = 34.23852 47.18046 40.70949
# Shear Modulus (GPa) = 38.67122 46.19818 42.43470
#
# Velocity S-wave (km/s) = 4.00478 4.37720 4.19512
# Velocity P-wave (km/s) = 5.96524 6.71668 6.35208
#
# Compressibility (1/GPa) = 0.02920687
#
# Stress axis : x y z
#
# Youngs Moduli (GPa) = 95.44265 101.65861 64.11088
#
# Poissons Ratio (x) = 0.22779 -0.02408
# Poissons Ratio (y) = 0.21386 0.09537
# Poissons Ratio (z) = -0.03585 0.15122
#
# Static dielectric constant tensor:
#      x y z
#    x 1.951110 -0.023500 0.022770 
#    y -0.023500 1.902410 0.051010 
#    z 0.022770 0.051010 1.973140 
# 
# From -- ./inp_files/24426.got.cif
#   From: 2010.05.17/outbox.cif.g08.bks.cpg/sg2_13_cif.got.tgz:24426.got - 2010.06.03 11:33:40.
