data_PCOD9069586
_publ_section_title
;
Structure prediction by ZEFSAII (Michael W. Deem and Ramdas Pophale) SiO2 
 PCOD9069586
Probable space group: P -1
;
_chemical_formula_sum "Si O2"
_cell_formula_units_Z 16
_cell_length_a 16.000120
_cell_length_b 12.558995
_cell_length_c 5.250162
_cell_angle_alpha 53.654712
_cell_angle_beta 91.067263
_cell_angle_gamma 66.189835
_cell_volume 728.273087
_symmetry_space_group_name_H-M "P -1"
_symmetry_group_IT_number 2
_symmetry_cell_setting 'triclinic'
loop_
_space_group_symop_operation_xyz
x,y,z
-x,-y,-z
loop_
_atom_site_type_symbol
_atom_site_label
_atom_site_fract_x
_atom_site_fract_y
_atom_site_fract_z
Si Si1 0.655482 0.182154 0.983873
Si Si2 0.256994 0.646012 0.024334
Si Si3 0.481856 0.397139 0.348644
Si Si4 0.975730 0.607072 0.597139
Si Si5 0.252593 0.139476 0.784936
Si Si6 0.498532 0.156916 0.328372
Si Si7 0.703699 0.738632 0.889887
Si Si8 0.841318 0.386375 0.434486
O O1 0.725381 0.214816 0.111704
O O2 0.572882 0.341681 0.623006
O O3 0.587356 0.146209 0.200988
O O4 0.716739 0.036491 0.011937
O O5 0.366409 0.496080 0.254535
O O6 0.191727 0.640482 0.255927
O O7 0.207364 0.656785 0.735724
O O8 0.501132 0.229789 0.493761
O O9 0.500000 0.500000 0.000000
O O10 0.862838 0.740817 0.401521
O O11 0.000000 0.500000 0.500000
O O12 0.044110 0.681311 0.491239
O O13 0.000000 0.500000 0.000000
O O14 0.298241 0.190784 0.486075
O O15 0.291238 0.160248 0.026976
O O16 0.390042 0.278640 0.051310
O O17 0.500000 0.000000 0.500000
O O18 0.796732 0.569645 0.147348
#
# Coordination Sequence:
#
# PCOD9069586 Si02
#       8
#     2   2   2   2   2   2   2   2
#     4  12  28  44  67  99 149 190 240 286 359 419
#     4  12  26  44  69 100 139 196 238 288 341 426
#     4  12  25  45  69  99 143 198 248 281 347 430
#     4  12  23  45  75 107 136 176 233 297 372 433
#     4  12  26  46  69 102 144 180 222 296 369 427
#     4  12  25  40  67 103 145 186 235 298 357 423
#     4  12  24  41  68 103 140 178 225 286 361 417
#     4  12  24  43  72 105 136 172 246 295 343 423
#
# _framework density 21.96978
#
# number of rings (size 3 to 8) (size 9 to 14) (size 15 to 20)
#    0.000    0.000    6.250    4.125    1.750    1.000 
#    0.000    1.250    0.000    0.000    0.000    0.000 
#    0.000    0.000    0.000    0.000    0.000    0.000 
#
# Total GULP energy -89471.132842 kJ/mol
# GULP energy per Si atom -5591.945803 kJ/mol
# Density = 2.191978 g / cm^3
# Si number density = 21.969780 Si / 1000 Ang^3
#
#
#
# Elastic Constant Matrix: (Units=GPa)
#
#
# Indices 1 2 3 4 5 6 
#
# 1 123.9971 31.4955 10.2516 7.8110 5.6326 -8.0733
# 2 31.4955 111.0283 1.0479 7.1617 8.7634 16.3141
# 3 10.2516 1.0479 52.2528 12.9545 -3.9585 -4.5815
# 4 7.8110 7.1617 12.9545 33.9494 1.1228 -1.4839
# 5 5.6326 8.7634 -3.9585 1.1228 41.0096 0.2539
# 6 -8.0733 16.3141 -4.5815 -1.4839 0.2539 43.7842
#
#
#
# Elastic Compliance Matrix: (Units=1/GPa)
#
#
# Indices 1 2 3 4 5 6 
#
# 1 0.009158 -0.002849 -0.001361 -0.000848 -0.000773 0.002583
# 2 -0.002849 0.010743 0.000267 -0.001852 -0.001800 -0.004552
# 3 -0.001361 0.000267 0.021721 -0.008041 0.002437 0.001636
# 4 -0.000848 -0.001852 -0.008041 0.033184 -0.001177 0.000824
# 5 -0.000773 -0.001800 0.002437 -0.001177 0.025139 0.000597
# 6 0.002583 -0.004552 0.001636 0.000824 0.000597 0.025207
#
#
# Mechanical properties :
#
#
# Convention : Reuss Voigt Hill
#
# Bulk Modulus (GPa) = 29.64253 41.42979 35.53616
# Shear Modulus (GPa) = 34.65409 40.04752 37.35080
#
# Velocity S-wave (km/s) = 3.97590 4.27411 4.12770
# Velocity P-wave (km/s) = 5.88207 6.57692 6.23918
#
# Compressibility (1/GPa) = 0.03373532
#
# Stress axis : x y z
#
# Youngs Moduli (GPa) = 109.19916 93.08622 46.03873
#
# Poissons Ratio (x) = 0.26518 0.06267
# Poissons Ratio (y) = 0.31108 -0.01230
# Poissons Ratio (z) = 0.14866 -0.02487
#
# Static dielectric constant tensor:
#      x y z
#    x 1.841950 0.007910 0.064160 
#    y 0.007910 1.854920 0.014090 
#    z 0.064160 0.014090 1.909370 
# 
# From -- ./inp_files/94314.got.cif
#   From: 2010.05.17/outbox.cif.g08.bks.cpg/sg2_48_cif.got.tgz:94314.got - 2010.06.03 11:33:40.
