data_PCOD9069162
_publ_section_title
;
Structure prediction by ZEFSAII (Michael W. Deem and Ramdas Pophale) SiO2 
 PCOD9069162
Probable space group: P -1
;
_chemical_formula_sum "Si O2"
_cell_formula_units_Z 16
_cell_length_a 7.024518
_cell_length_b 14.251733
_cell_length_c 14.536674
_cell_angle_alpha 140.867065
_cell_angle_beta 57.425179
_cell_angle_gamma 109.927952
_cell_volume 765.869892
_symmetry_space_group_name_H-M "P -1"
_symmetry_group_IT_number 2
_symmetry_cell_setting 'triclinic'
loop_
_space_group_symop_operation_xyz
x,y,z
-x,-y,-z
loop_
_atom_site_type_symbol
_atom_site_label
_atom_site_fract_x
_atom_site_fract_y
_atom_site_fract_z
Si Si1 0.022261 0.353745 0.585817
Si Si2 0.325869 0.149955 0.670118
Si Si3 0.732397 0.379846 0.331603
Si Si4 0.813113 0.131700 0.788671
Si Si5 0.365670 0.151828 0.458752
Si Si6 0.122201 0.831010 0.692091
Si Si7 0.702322 0.093129 0.993772
Si Si8 0.643043 0.339820 0.832380
O O1 0.952004 0.264190 0.447302
O O2 0.834495 0.340540 0.703953
O O3 0.075271 0.520119 0.675729
O O4 0.259693 0.266569 0.496423
O O5 0.310423 0.221258 0.626395
O O6 0.449278 0.241834 0.779322
O O7 0.078265 0.115118 0.732514
O O8 0.500000 0.000000 0.500000
O O9 0.500000 0.500000 0.500000
O O10 0.827251 0.285472 0.325214
O O11 0.691244 0.249625 0.170731
O O12 0.687110 0.128452 0.915715
O O13 0.750970 0.277444 0.852786
O O14 0.758527 0.993530 0.635167
O O15 0.635610 0.114404 0.349923
O O16 0.932096 0.976170 0.866706
O O17 0.500000 0.000000 0.000000
O O18 0.500000 0.500000 0.000000
#
# Coordination Sequence:
#
# PCOD9069162 Si02
#       8
#     2   2   2   2   2   2   2   2
#     4  12  25  47  72 108 145 195 243 300 363 435
#     4  12  23  43  73 104 139 191 240 288 362 425
#     4  12  27  48  75 105 148 195 245 302 370 436
#     4  12  26  44  75 104 147 187 241 305 354 431
#     4  12  22  43  77 107 143 186 247 298 361 427
#     4  12  25  48  79 106 143 194 245 306 363 433
#     4  12  28  50  76 111 144 190 249 304 364 436
#     4  12  29  44  69 110 154 194 239 295 367 438
#
# _framework density 20.891275
#
# number of rings (size 3 to 8) (size 9 to 14) (size 15 to 20)
#    0.000    0.000    6.250    4.125    1.750    3.500 
#    0.000    0.000    0.000    0.000    0.000    0.000 
#    0.000    0.000    0.000    0.000    0.000    0.000 
#
# Total GULP energy -89501.087997 kJ/mol
# GULP energy per Si atom -5593.818000 kJ/mol
# Density = 2.084373 g / cm^3
# Si number density = 20.891275 Si / 1000 Ang^3
#
#
#
# Elastic Constant Matrix: (Units=GPa)
#
#
# Indices 1 2 3 4 5 6 
#
# 1 117.7836 40.4468 46.1459 -4.2849 -2.5989 8.7087
# 2 40.4468 114.0702 33.0015 -4.5004 -7.0902 1.2984
# 3 46.1459 33.0015 107.8334 13.9248 -3.9254 0.9494
# 4 -4.2849 -4.5004 13.9248 41.0050 -0.2532 1.0492
# 5 -2.5989 -7.0902 -3.9254 -0.2532 28.3008 -3.8987
# 6 8.7087 1.2984 0.9494 1.0492 -3.8987 57.4910
#
#
#
# Elastic Compliance Matrix: (Units=1/GPa)
#
#
# Indices 1 2 3 4 5 6 
#
# 1 0.011303 -0.002669 -0.004332 0.002399 -0.000438 -0.001654
# 2 -0.002669 0.010551 -0.002223 0.001639 0.002148 0.000318
# 3 -0.004332 -0.002223 0.012470 -0.004943 0.000820 0.000646
# 4 0.002399 0.001639 -0.004943 0.026517 0.000073 -0.000798
# 5 -0.000438 0.002148 0.000820 0.000073 0.036286 0.002464
# 6 -0.001654 0.000318 0.000646 -0.000798 0.002464 0.017808
#
#
# Mechanical properties :
#
#
# Convention : Reuss Voigt Hill
#
# Bulk Modulus (GPa) = 62.98299 64.31948 63.65123
# Shear Modulus (GPa) = 36.05547 40.03224 38.04385
#
# Velocity S-wave (km/s) = 4.15886 4.38221 4.27199
# Velocity P-wave (km/s) = 7.29897 7.51396 7.40724
#
# Compressibility (1/GPa) = 0.01587730
#
# Stress axis : x y z
#
# Youngs Moduli (GPa) = 88.46827 94.78223 80.19210
#
# Poissons Ratio (x) = 0.25293 0.34736
# Poissons Ratio (y) = 0.23608 0.17828
# Poissons Ratio (z) = 0.38321 0.21072
#
# Static dielectric constant tensor:
#      x y z
#    x 1.987810 0.083050 -0.014070 
#    y 0.083050 1.866770 -0.050270 
#    z -0.014070 -0.050270 1.732320 
# 
# From -- ./inp_files/98583.got.cif
#   From: 2010.05.17/outbox.cif.g08.bks.cpg/sg2_50_cif.got.tgz:98583.got - 2010.06.03 11:33:40.
