data_PCOD9069820
_publ_section_title
;
Structure prediction by ZEFSAII (Michael W. Deem and Ramdas Pophale) SiO2 
 PCOD9069820
Probable space group: P -1
;
_chemical_formula_sum "Si O2"
_cell_formula_units_Z 14
_cell_length_a 10.878314
_cell_length_b 10.197869
_cell_length_c 13.311410
_cell_angle_alpha 94.992827
_cell_angle_beta 32.287026
_cell_angle_gamma 73.919759
_cell_volume 591.192914
_symmetry_space_group_name_H-M "P -1"
_symmetry_group_IT_number 2
_symmetry_cell_setting 'triclinic'
loop_
_space_group_symop_operation_xyz
x,y,z
-x,-y,-z
loop_
_atom_site_type_symbol
_atom_site_label
_atom_site_fract_x
_atom_site_fract_y
_atom_site_fract_z
Si Si1 0.328325 0.807225 0.057225
Si Si2 0.693369 0.434410 0.463472
Si Si3 0.599200 0.885034 0.999454
Si Si4 0.348652 0.991483 0.388072
Si Si5 0.361520 0.271792 0.375204
Si Si6 0.277154 0.408749 0.879687
Si Si7 0.303238 0.483688 0.098108
O O1 0.450127 0.764039 0.856239
O O2 0.400640 0.610187 0.024472
O O3 0.374696 0.964701 0.050416
O O4 0.968971 0.929595 0.337395
O O5 0.500000 0.500000 0.500000
O O6 0.642550 0.603195 0.542180
O O7 0.533360 0.405547 0.655547
O O8 0.050935 0.258652 0.206184
O O9 0.339789 0.997915 0.273106
O O10 0.583408 0.722197 0.972197
O O11 0.588360 0.787925 0.226910
O O12 0.456248 0.097917 0.347917
O O13 0.998896 0.389190 0.613999
O O14 0.220421 0.484229 0.036697
O O15 0.000000 0.500000 0.000000
#
# Coordination Sequence:
#
# PCOD9069820 Si02
#       7
#     2   2   2   2   2   2   2
#     4  12  24  40  76 116 156 188 242 310 388 438
#     4  12  28  52  78 105 152 209 257 308 386 467
#     4  12  24  43  75 111 153 199 250 310 380 451
#     4  12  26  46  78 114 151 194 251 316 379 452
#     4  12  26  46  78 114 151 194 251 316 379 452
#     4  12  28  52  78 105 152 209 257 308 386 467
#     4  12  24  43  75 111 153 199 250 310 380 451
#
# _framework density 23.680934000000001
#
# number of rings (size 3 to 8) (size 9 to 14) (size 15 to 20)
#    0.000    0.000    5.714    4.286    4.000    0.000 
#    0.000    5.714    3.143    0.000    0.000    0.000 
#    0.000    0.000    0.000    0.000    0.000    0.000 
#
# Total GULP energy -78137.691736 kJ/mol
# GULP energy per Si atom -5581.263695 kJ/mol
# Density = 2.362704 g / cm^3
# Si number density = 23.680934 Si / 1000 Ang^3
#
#
#
# Elastic Constant Matrix: (Units=GPa)
#
#
# Indices 1 2 3 4 5 6 
#
# 1 149.2151 72.0665 77.2559 13.0747 -8.4518 -3.2759
# 2 72.0665 234.7801 57.4596 -5.7841 -2.1197 12.4039
# 3 77.2559 57.4596 191.9680 -17.8125 16.9511 -2.7077
# 4 13.0747 -5.7841 -17.8125 54.3286 -1.3943 4.7735
# 5 -8.4518 -2.1197 16.9511 -1.3943 28.0456 -6.9302
# 6 -3.2759 12.4039 -2.7077 4.7735 -6.9302 33.2508
#
#
#
# Elastic Compliance Matrix: (Units=1/GPa)
#
#
# Indices 1 2 3 4 5 6 
#
# 1 0.011273 -0.002550 -0.004755 -0.004700 0.006774 0.003761
# 2 -0.002550 0.005307 -0.000422 0.001250 -0.000690 -0.002588
# 3 -0.004755 -0.000422 0.008156 0.003741 -0.006594 -0.001558
# 4 -0.004700 0.001250 0.003741 0.021193 -0.003622 -0.004422
# 5 0.006774 -0.000690 -0.006594 -0.003622 0.043938 0.010065
# 6 0.003761 -0.002588 -0.001558 -0.004422 0.010065 0.034016
#
#
# Mechanical properties :
#
#
# Convention : Reuss Voigt Hill
#
# Bulk Modulus (GPa) = 107.72242 109.94747 108.83494
# Shear Modulus (GPa) = 35.10479 47.73707 41.42093
#
# Velocity S-wave (km/s) = 3.85438 4.49469 4.18679
# Velocity P-wave (km/s) = 8.08679 8.57122 8.33252
#
# Compressibility (1/GPa) = 0.00928312
#
# Stress axis : x y z
#
# Youngs Moduli (GPa) = 88.70593 188.44559 122.60413
#
# Poissons Ratio (x) = 0.48054 0.58295
# Poissons Ratio (y) = 0.22620 0.05170
# Poissons Ratio (z) = 0.42178 0.07947
#
# Static dielectric constant tensor:
#      x y z
#    x 1.882730 0.026300 -0.017680 
#    y 0.026300 2.223440 -0.074650 
#    z -0.017680 -0.074650 1.853300 
# 
# From -- ./inp_files/537309.got.cif
#   From: 2010.05.17/outbox.cif.g08.bks.cpg/sg2_269_cif.got.tgz:537309.got - 2010.06.03 11:33:40.
