data_PCOD9069040
_publ_section_title
;
Structure prediction by ZEFSAII (Michael W. Deem and Ramdas Pophale) SiO2 
 PCOD9069040
Probable space group: P -1
;
_chemical_formula_sum "Si O2"
_cell_formula_units_Z 14
_cell_length_a 18.195143
_cell_length_b 8.787536
_cell_length_c 7.787220
_cell_angle_alpha 147.411468
_cell_angle_beta 77.638717
_cell_angle_gamma 100.143293
_cell_volume 655.046542
_symmetry_space_group_name_H-M "P -1"
_symmetry_group_IT_number 2
_symmetry_cell_setting 'triclinic'
loop_
_space_group_symop_operation_xyz
x,y,z
-x,-y,-z
loop_
_atom_site_type_symbol
_atom_site_label
_atom_site_fract_x
_atom_site_fract_y
_atom_site_fract_z
Si Si1 0.440449 0.251975 0.780559
Si Si2 0.222668 0.406924 0.353385
Si Si3 0.067174 0.084063 0.673319
Si Si4 0.931853 0.433236 0.597473
Si Si5 0.690607 0.409720 0.988868
Si Si6 0.222110 0.107112 0.433829
Si Si7 0.309072 0.917978 0.683370
O O1 0.500000 0.000000 0.500000
O O2 0.383804 0.115720 0.822616
O O3 0.500000 0.500000 0.000000
O O4 0.384805 0.391653 0.795813
O O5 0.145826 0.525490 0.426947
O O6 0.212831 0.258266 0.399799
O O7 0.286227 0.653520 0.565061
O O8 0.247446 0.155440 0.975140
O O9 0.143325 0.013427 0.463111
O O10 0.062820 0.888532 0.655582
O O11 0.065606 0.391957 0.056942
O O12 0.000000 0.000000 0.500000
O O13 0.000000 0.500000 0.500000
O O14 0.691827 0.245360 0.651918
O O15 0.715775 0.146713 0.847890
O O16 0.751297 0.646759 0.217892
#
# Coordination Sequence:
#
# PCOD9069040 Si02
#       7
#     2   2   2   2   2   2   2
#     4  12  22  40  72 106 132 166 226 282 334 404
#     4  12  25  42  66  99 137 179 226 280 333 398
#     4  12  26  44  68  95 137 178 230 279 339 393
#     4  12  26  44  68  95 137 178 230 279 339 393
#     4  12  22  42  69 100 131 170 229 272 335 388
#     4  12  25  42  66  99 137 179 226 280 333 398
#     4  12  22  42  69 100 131 170 229 272 335 388
#
# _framework density 21.372525
#
# number of rings (size 3 to 8) (size 9 to 14) (size 15 to 20)
#    0.000    0.000    4.286    6.857    0.000    2.286 
#    0.000    0.000    0.000   17.143    0.000    0.000 
#    0.000    0.000    0.000    0.000    0.000    0.000 
#
# Total GULP energy -77956.213079 kJ/mol
# GULP energy per Si atom -5568.300934 kJ/mol
# Density = 2.132388 g / cm^3
# Si number density = 21.372525 Si / 1000 Ang^3
#
#
#
# Elastic Constant Matrix: (Units=GPa)
#
#
# Indices 1 2 3 4 5 6 
#
# 1 131.3340 41.5810 32.4741 7.7561 5.8964 5.9613
# 2 41.5810 103.5406 13.7459 14.1961 5.5170 5.4078
# 3 32.4741 13.7459 108.2396 25.2823 1.4885 0.2432
# 4 7.7561 14.1961 25.2823 43.0382 1.8510 3.7249
# 5 5.8964 5.5170 1.4885 1.8510 35.6257 8.4187
# 6 5.9613 5.4078 0.2432 3.7249 8.4187 27.8753
#
#
#
# Elastic Compliance Matrix: (Units=1/GPa)
#
#
# Indices 1 2 3 4 5 6 
#
# 1 0.009384 -0.003474 -0.002628 0.001136 -0.000667 -0.001260
# 2 -0.003474 0.011544 0.000357 -0.003285 -0.000868 -0.000798
# 3 -0.002628 0.000357 0.011500 -0.006508 -0.000066 0.001282
# 4 0.001136 -0.003285 -0.006508 0.028226 -0.000096 -0.003292
# 5 -0.000667 -0.000868 -0.000066 -0.000096 0.030416 -0.008862
# 6 -0.001260 -0.000798 0.001282 -0.003292 -0.008862 0.039404
#
#
# Mechanical properties :
#
#
# Convention : Reuss Voigt Hill
#
# Bulk Modulus (GPa) = 47.75709 57.63513 52.69611
# Shear Modulus (GPa) = 33.57010 38.32870 35.94940
#
# Velocity S-wave (km/s) = 3.96752 4.23941 4.10572
# Velocity P-wave (km/s) = 6.58649 7.14065 6.86916
#
# Compressibility (1/GPa) = 0.02093930
#
# Stress axis : x y z
#
# Youngs Moduli (GPa) = 106.56655 86.62393 86.95788
#
# Poissons Ratio (x) = 0.30094 0.22848
# Poissons Ratio (y) = 0.37022 -0.03107
# Poissons Ratio (z) = 0.28001 -0.03095
#
# Static dielectric constant tensor:
#      x y z
#    x 1.571790 -0.004240 0.012110 
#    y -0.004240 1.764660 0.008400 
#    z 0.012110 0.008400 1.762530 
# 
# From -- ./inp_files/329721.got.cif
#   From: 2010.05.17/outbox.cif.g08.bks.cpg/sg2_165_cif.got.tgz:329721.got - 2010.06.03 11:33:40.
