data_PCOD9069201
_publ_section_title
;
Structure prediction by ZEFSAII (Michael W. Deem and Ramdas Pophale) SiO2 
 PCOD9069201
Probable space group: P -1
;
_chemical_formula_sum "Si O2"
_cell_formula_units_Z 14
_cell_length_a 12.023268
_cell_length_b 18.180317
_cell_length_c 8.259077
_cell_angle_alpha 51.209228
_cell_angle_beta 137.657442
_cell_angle_gamma 147.526167
_cell_volume 652.865557
_symmetry_space_group_name_H-M "P -1"
_symmetry_group_IT_number 2
_symmetry_cell_setting 'triclinic'
loop_
_space_group_symop_operation_xyz
x,y,z
-x,-y,-z
loop_
_atom_site_type_symbol
_atom_site_label
_atom_site_fract_x
_atom_site_fract_y
_atom_site_fract_z
Si Si1 0.985803 0.859612 0.339631
Si Si2 0.453488 0.579138 0.246448
Si Si3 0.356547 0.697008 0.223542
Si Si4 0.876294 0.159291 0.836724
Si Si5 0.867690 0.901011 0.647918
Si Si6 0.964652 0.574598 0.240091
Si Si7 0.591792 0.079357 0.158483
O O1 0.709780 0.730975 0.266275
O O2 0.045928 0.851128 0.235946
O O3 0.148392 0.856684 0.624660
O O4 0.074730 0.002098 0.279199
O O5 0.500000 0.500000 0.500000
O O6 0.327304 0.594603 0.220609
O O7 0.292176 0.511651 0.002927
O O8 0.589400 0.780449 0.472425
O O9 0.139873 0.630651 0.199667
O O10 0.402032 0.805941 0.007737
O O11 0.952060 0.298297 0.748685
O O12 0.596293 0.030607 0.755492
O O13 0.020687 0.154583 0.125492
O O14 0.000000 0.000000 0.500000
O O15 0.000000 0.500000 0.500000
O O16 0.500000 0.000000 0.000000
#
# Coordination Sequence:
#
# PCOD9069201 Si02
#       7
#     2   2   2   2   2   2   2
#     4  12  26  43  72 109 144 178 230 295 367 415
#     4  12  28  48  73 100 141 194 249 284 341 427
#     4  12  25  45  78  98 140 182 244 290 349 422
#     4  12  26  45  72 104 150 179 232 295 364 415
#     4  12  22  45  74 109 138 177 231 301 359 421
#     4  12  30  49  69 103 145 196 240 287 350 418
#     4  12  22  45  75 106 137 183 231 296 359 424
#
# _framework density 21.443925
#
# number of rings (size 3 to 8) (size 9 to 14) (size 15 to 20)
#    0.000    0.000    5.714    3.000    6.000    0.571 
#    2.571    0.000    0.000    0.000    0.000    0.000 
#    0.000    0.000    0.000    0.000    0.000    0.000 
#
# Total GULP energy -78381.175588 kJ/mol
# GULP energy per Si atom -5598.655399 kJ/mol
# Density = 2.139512 g / cm^3
# Si number density = 21.443925 Si / 1000 Ang^3
#
#
#
# Elastic Constant Matrix: (Units=GPa)
#
#
# Indices 1 2 3 4 5 6 
#
# 1 103.1567 18.1814 3.9999 -6.4537 -6.1165 -20.0003
# 2 18.1814 73.4942 36.9765 -10.9926 -1.4530 -18.9723
# 3 3.9999 36.9765 115.7176 -8.0667 3.7867 -8.3648
# 4 -6.4537 -10.9926 -8.0667 47.3649 -1.7884 25.2691
# 5 -6.1165 -1.4530 3.7867 -1.7884 35.6450 -3.0045
# 6 -20.0003 -18.9723 -8.3648 25.2691 -3.0045 37.2381
#
#
#
# Elastic Compliance Matrix: (Units=1/GPa)
#
#
# Indices 1 2 3 4 5 6 
#
# 1 0.011339 -0.001406 0.000335 -0.002576 0.002346 0.007387
# 2 -0.001406 0.018770 -0.005475 -0.001285 0.001765 0.008593
# 3 0.000335 -0.005475 0.010418 0.001097 -0.001312 -0.001120
# 4 -0.002576 -0.001285 0.001097 0.033875 -0.001007 -0.024861
# 5 0.002346 0.001765 -0.001312 -0.001007 0.029030 0.004890
# 6 0.007387 0.008593 -0.001120 -0.024861 0.004890 0.052212
#
#
# Mechanical properties :
#
#
# Convention : Reuss Voigt Hill
#
# Bulk Modulus (GPa) = 36.45051 45.63159 41.04105
# Shear Modulus (GPa) = 28.10852 39.59698 33.85275
#
# Velocity S-wave (km/s) = 3.62441 4.30180 3.97755
# Velocity P-wave (km/s) = 5.87794 6.78230 6.34625
#
# Compressibility (1/GPa) = 0.02743446
#
# Stress axis : x y z
#
# Youngs Moduli (GPa) = 88.19249 53.27684 95.98562
#
# Poissons Ratio (x) = 0.07489 -0.03214
# Poissons Ratio (y) = 0.12397 0.52556
# Poissons Ratio (z) = -0.02953 0.29171
#
# Static dielectric constant tensor:
#      x y z
#    x 1.748950 -0.002000 -0.015380 
#    y -0.002000 1.770070 0.022160 
#    z -0.015380 0.022160 1.801700 
# 
# From -- ./inp_files/186584.got.cif
#   From: 2010.05.17/outbox.cif.g08.bks.cpg/sg2_94_cif.got.tgz:186584.got - 2010.06.03 11:33:40.
