data_PCOD9069487
_publ_section_title
;
Structure prediction by ZEFSAII (Michael W. Deem and Ramdas Pophale) SiO2 
 PCOD9069487
Probable space group: P -1
;
_chemical_formula_sum "Si O2"
_cell_formula_units_Z 16
_cell_length_a 8.198221
_cell_length_b 17.986235
_cell_length_c 8.425840
_cell_angle_alpha 82.987624
_cell_angle_beta 145.893240
_cell_angle_gamma 94.589085
_cell_volume 690.970688
_symmetry_space_group_name_H-M "P -1"
_symmetry_group_IT_number 2
_symmetry_cell_setting 'triclinic'
loop_
_space_group_symop_operation_xyz
x,y,z
-x,-y,-z
loop_
_atom_site_type_symbol
_atom_site_label
_atom_site_fract_x
_atom_site_fract_y
_atom_site_fract_z
Si Si1 0.699558 0.052336 0.245135
Si Si2 0.356766 0.792883 0.025655
Si Si3 0.745875 0.798114 0.647128
Si Si4 0.793498 0.554269 0.425879
Si Si5 0.716294 0.948310 0.784613
Si Si6 0.460448 0.346030 0.328599
Si Si7 0.869989 0.441035 0.789494
Si Si8 0.689180 0.351963 0.166668
O O1 0.732142 0.130868 0.160008
O O2 0.487196 0.069139 0.221997
O O3 0.000000 0.000000 0.500000
O O4 0.500000 0.000000 0.000000
O O5 0.069803 0.765892 0.888528
O O6 0.591661 0.808055 0.348020
O O7 0.421484 0.726001 0.971205
O O8 0.778628 0.873675 0.753261
O O9 0.579881 0.739172 0.633709
O O10 0.734808 0.498216 0.534396
O O11 0.516563 0.583980 0.097363
O O12 0.000000 0.500000 0.500000
O O13 0.983435 0.624265 0.614289
O O14 0.500000 0.000000 0.500000
O O15 0.000000 0.000000 0.000000
O O16 0.607195 0.383547 0.591888
O O17 0.664624 0.351089 0.337327
O O18 0.157744 0.386356 0.016287
O O19 0.000000 0.500000 0.000000
#
# Coordination Sequence:
#
# PCOD9069487 Si02
#       8
#     2   2   2   2   2   2   2   2
#     4  12  25  46  76 108 145 186 240 294 351 430
#     4  12  27  46  70 106 141 187 237 295 358 433
#     4  12  27  46  70 103 147 184 236 293 365 432
#     4  12  23  44  69  98 131 182 237 297 356 432
#     4  12  25  46  76 108 145 190 234 292 361 431
#     4  12  25  47  66  99 138 185 231 297 359 433
#     4  12  27  42  68  99 136 179 238 294 366 427
#     4  12  25  44  71  97 137 182 238 292 362 426
#
# _framework density 23.155829000000001
#
# number of rings (size 3 to 8) (size 9 to 14) (size 15 to 20)
#    0.000    0.000    2.500    8.250    5.250    0.000 
#    0.000    7.500    0.000    0.000    0.000    0.000 
#    0.000    0.000    0.000    0.000    0.000    0.000 
#
# Total GULP energy -89333.672958 kJ/mol
# GULP energy per Si atom -5583.354560 kJ/mol
# Density = 2.310313 g / cm^3
# Si number density = 23.155829 Si / 1000 Ang^3
#
#
#
# Elastic Constant Matrix: (Units=GPa)
#
#
# Indices 1 2 3 4 5 6 
#
# 1 58.2689 20.8293 16.0247 6.6642 -2.7043 2.4668
# 2 20.8293 148.4063 36.1492 18.5882 -12.8733 5.3171
# 3 16.0247 36.1492 139.8533 16.0770 13.3692 1.8996
# 4 6.6642 18.5882 16.0770 43.6945 1.5827 -3.1894
# 5 -2.7043 -12.8733 13.3692 1.5827 35.4509 3.6912
# 6 2.4668 5.3171 1.8996 -3.1894 3.6912 47.8873
#
#
#
# Elastic Compliance Matrix: (Units=1/GPa)
#
#
# Indices 1 2 3 4 5 6 
#
# 1 0.018552 -0.001854 -0.001598 -0.001574 0.001509 -0.000908
# 2 -0.001854 0.008184 -0.001939 -0.002712 0.003809 -0.001210
# 3 -0.001598 -0.001939 0.008425 -0.001878 -0.003934 0.000142
# 4 -0.001574 -0.002712 -0.001878 0.025200 -0.001758 0.002271
# 5 0.001509 0.003809 -0.003934 -0.001758 0.031570 -0.002895
# 6 -0.000908 -0.001210 0.000142 0.002271 -0.002895 0.021432
#
#
# Mechanical properties :
#
#
# Convention : Reuss Voigt Hill
#
# Bulk Modulus (GPa) = 41.01717 54.72609 47.87163
# Shear Modulus (GPa) = 37.80100 43.64158 40.72129
#
# Velocity S-wave (km/s) = 4.04476 4.34601 4.19809
# Velocity P-wave (km/s) = 6.29010 6.99063 6.64960
#
# Compressibility (1/GPa) = 0.02438003
#
# Stress axis : x y z
#
# Youngs Moduli (GPa) = 53.90125 122.18664 118.69946
#
# Poissons Ratio (x) = 0.22656 0.18962
# Poissons Ratio (y) = 0.09994 0.23015
# Poissons Ratio (z) = 0.08611 0.23691
#
# Static dielectric constant tensor:
#      x y z
#    x 1.303760 0.176910 0.387440 
#    y 0.176910 1.774050 -0.108030 
#    z 0.387440 -0.108030 1.506090 
# 
# From -- ./inp_files/217757.got.cif
#   From: 2010.05.17/outbox.cif.g08.bks.cpg/sg2_109_cif.got.tgz:217757.got - 2010.06.03 11:33:40.
