data_PCOD9069965
_publ_section_title
;
Structure prediction by ZEFSAII (Michael W. Deem and Ramdas Pophale) SiO2 
 PCOD9069965
Probable space group: P -1
;
_chemical_formula_sum "Si O2"
_cell_formula_units_Z 14
_cell_length_a 12.480374
_cell_length_b 11.563505
_cell_length_c 12.545686
_cell_angle_alpha 58.745976
_cell_angle_beta 22.624386
_cell_angle_gamma 61.624306
_cell_volume 595.382943
_symmetry_space_group_name_H-M "P -1"
_symmetry_group_IT_number 2
_symmetry_cell_setting 'triclinic'
loop_
_space_group_symop_operation_xyz
x,y,z
-x,-y,-z
loop_
_atom_site_type_symbol
_atom_site_label
_atom_site_fract_x
_atom_site_fract_y
_atom_site_fract_z
Si Si1 0.821048 0.366664 0.255298
Si Si2 0.156167 0.204509 0.651903
Si Si3 0.286406 0.492435 0.298434
Si Si4 0.266054 0.213428 0.795776
Si Si5 0.314229 0.123271 0.157718
Si Si6 0.244919 0.719004 0.407821
Si Si7 0.431481 0.913500 0.827042
O O1 0.502962 0.332500 0.527749
O O2 0.820196 0.354014 0.388560
O O3 0.000000 0.500000 0.000000
O O4 0.997077 0.251098 0.091990
O O5 0.283785 0.350537 0.431269
O O6 0.175001 0.191782 0.767320
O O7 0.846540 0.172509 0.906297
O O8 0.353604 0.100894 0.459804
O O9 0.261241 0.615135 0.345426
O O10 0.000000 0.500000 0.500000
O O11 0.500000 0.500000 0.000000
O O12 0.372577 0.072355 0.812883
O O13 0.984684 0.159269 0.450210
O O14 0.435858 0.231921 0.910726
O O15 0.428547 0.137089 0.167333
O O16 0.500000 0.000000 0.000000
#
# Coordination Sequence:
#
# PCOD9069965 Si02
#       7
#     2   2   2   2   2   2   2
#     4  12  26  46  70 100 135 178 227 279 338 406
#     4  12  25  44  69  99 135 181 228 280 339 401
#     4  12  25  43  67  98 135 176 223 278 337 402
#     4  12  26  46  69  99 135 178 227 282 337 402
#     4  12  25  43  69 101 136 177 223 279 341 404
#     4  12  25  44  68  99 135 177 223 278 340 404
#     4  12  24  44  69 100 136 177 226 280 338 405
#
# _framework density 23.514277
#
# number of rings (size 3 to 8) (size 9 to 14) (size 15 to 20)
#    0.000    0.000    0.000   12.000    0.000    2.286 
#    0.000    0.000    0.000    0.000    0.000    0.000 
#    0.000    0.000    0.000    0.000    0.000    0.000 
#
# Total GULP energy -78215.264243 kJ/mol
# GULP energy per Si atom -5586.804589 kJ/mol
# Density = 2.346076 g / cm^3
# Si number density = 23.514277 Si / 1000 Ang^3
#
#
#
# Elastic Constant Matrix: (Units=GPa)
#
#
# Indices 1 2 3 4 5 6 
#
# 1 114.5893 4.2873 51.2557 10.0639 26.2851 5.9239
# 2 4.2873 45.7356 8.9403 13.9440 14.8448 3.8920
# 3 51.2557 8.9403 175.0921 17.9984 8.5333 5.7318
# 4 10.0639 13.9440 17.9984 46.9964 4.4504 15.8813
# 5 26.2851 14.8448 8.5333 4.4504 51.3535 2.1160
# 6 5.9239 3.8920 5.7318 15.8813 2.1160 38.1707
#
#
#
# Elastic Compliance Matrix: (Units=1/GPa)
#
#
# Indices 1 2 3 4 5 6 
#
# 1 0.011468 0.001760 -0.003038 -0.001012 -0.005755 -0.000763
# 2 0.001760 0.026614 -0.000746 -0.007470 -0.007851 0.000668
# 3 -0.003038 -0.000746 0.006786 -0.001895 0.000796 0.000273
# 4 -0.001012 -0.007470 -0.001895 0.027873 0.001007 -0.010449
# 5 -0.005755 -0.007851 0.000796 0.001007 0.024477 -0.000202
# 6 -0.000763 0.000668 0.000273 -0.010449 -0.000202 0.030566
#
#
# Mechanical properties :
#
#
# Convention : Reuss Voigt Hill
#
# Bulk Modulus (GPa) = 24.49660 51.59819 38.04739
# Shear Modulus (GPa) = 34.37921 45.36638 39.87280
#
# Velocity S-wave (km/s) = 3.82783 4.39716 4.12234
# Velocity P-wave (km/s) = 5.47511 6.91166 6.23489
#
# Compressibility (1/GPa) = 0.04082199
#
# Stress axis : x y z
#
# Youngs Moduli (GPa) = 87.19905 37.57367 147.37142
#
# Poissons Ratio (x) = -0.06613 0.44764
# Poissons Ratio (y) = -0.15347 0.10987
# Poissons Ratio (z) = 0.26487 0.02801
#
# Static dielectric constant tensor:
#      x y z
#    x 1.834420 -0.000290 -0.034270 
#    y -0.000290 1.935620 -0.045710 
#    z -0.034270 -0.045710 1.833960 
# 
# From -- ./inp_files/427684.got.cif
#   From: 2010.05.17/outbox.cif.g08.bks.cpg/sg2_214_cif.got.tgz:427684.got - 2010.06.03 11:33:40.
