data_PCOD9069180
_publ_section_title
;
Structure prediction by ZEFSAII (Michael W. Deem and Ramdas Pophale) SiO2 
 PCOD9069180
Probable space group: P -1
;
_chemical_formula_sum "Si O2"
_cell_formula_units_Z 16
_cell_length_a 19.969360
_cell_length_b 9.496293
_cell_length_c 11.235070
_cell_angle_alpha 108.828924
_cell_angle_beta 132.548908
_cell_angle_gamma 34.574857
_cell_volume 738.050002
_symmetry_space_group_name_H-M "P -1"
_symmetry_group_IT_number 2
_symmetry_cell_setting 'triclinic'
loop_
_space_group_symop_operation_xyz
x,y,z
-x,-y,-z
loop_
_atom_site_type_symbol
_atom_site_label
_atom_site_fract_x
_atom_site_fract_y
_atom_site_fract_z
Si Si1 0.109562 0.102127 0.035737
Si Si2 0.970162 0.574088 0.345941
Si Si3 0.185185 0.447773 0.391319
Si Si4 0.246036 0.693135 0.469197
Si Si5 0.378213 0.757196 0.828667
Si Si6 0.423361 0.853440 0.460142
Si Si7 0.074689 0.687141 0.887620
Si Si8 0.395736 0.436518 0.154252
O O1 0.973400 0.233514 0.009280
O O2 0.243996 0.027729 0.240442
O O3 0.245824 0.781034 0.066181
O O4 0.983472 0.342475 0.844723
O O5 0.953817 0.441546 0.222333
O O6 0.000000 0.500000 0.500000
O O7 0.130082 0.446603 0.447176
O O8 0.784484 0.930882 0.213468
O O9 0.204861 0.596748 0.459809
O O10 0.366461 0.106813 0.470358
O O11 0.304949 0.737788 0.642955
O O12 0.407532 0.426332 0.497525
O O13 0.071100 0.004162 0.273540
O O14 0.490101 0.714844 0.870385
O O15 0.500000 0.500000 0.000000
O O16 0.475270 0.723745 0.619328
O O17 0.277344 0.456922 0.039566
#
# Coordination Sequence:
#
# PCOD9069180 Si02
#       8
#     2   2   2   2   2   2   2   2
#     4  12  22  44  73 106 139 181 221 280 362 419
#     4  12  27  48  71  97 138 188 239 278 335 405
#     4  12  27  44  72 107 142 177 228 290 347 411
#     4  12  25  46  73 104 141 182 226 285 353 411
#     4  12  28  45  70 101 137 185 238 288 333 397
#     4  12  24  42  73 107 141 177 219 288 356 418
#     4  12  25  45  76 102 139 186 226 283 349 418
#     4  12  24  45  72 101 139 180 233 278 350 418
#
# _framework density 21.678747999999999
#
# number of rings (size 3 to 8) (size 9 to 14) (size 15 to 20)
#    0.000    0.000    6.250    4.500    0.000    3.000 
#    0.000    0.000    0.000    0.000    0.000    0.000 
#    0.000    0.000    0.000    0.000    0.000    0.000 
#
# Total GULP energy -89629.245439 kJ/mol
# GULP energy per Si atom -5601.827840 kJ/mol
# Density = 2.162941 g / cm^3
# Si number density = 21.678748 Si / 1000 Ang^3
#
#
#
# Elastic Constant Matrix: (Units=GPa)
#
#
# Indices 1 2 3 4 5 6 
#
# 1 109.1364 12.8566 13.4452 9.6069 16.3404 -2.0273
# 2 12.8566 114.9709 -3.3210 -20.3986 7.5122 7.0477
# 3 13.4452 -3.3210 68.1598 -12.1853 -9.8262 -2.2418
# 4 9.6069 -20.3986 -12.1853 23.3628 3.0181 -6.6034
# 5 16.3404 7.5122 -9.8262 3.0181 42.1472 -4.3832
# 6 -2.0273 7.0477 -2.2418 -6.6034 -4.3832 32.5042
#
#
#
# Elastic Compliance Matrix: (Units=1/GPa)
#
#
# Indices 1 2 3 4 5 6 
#
# 1 0.011577 -0.002723 -0.004833 -0.009508 -0.004613 -0.001574
# 2 -0.002723 0.011476 0.003256 0.013002 -0.001156 0.000052
# 3 -0.004833 0.003256 0.019430 0.015478 0.005149 0.004171
# 4 -0.009508 0.013002 0.015478 0.069343 0.001251 0.011911
# 5 -0.004613 -0.001156 0.005149 0.001251 0.027274 0.004250
# 6 -0.001574 0.000052 0.004171 0.011911 0.004250 0.033936
#
#
# Mechanical properties :
#
#
# Convention : Reuss Voigt Hill
#
# Bulk Modulus (GPa) = 29.51461 37.58097 33.54779
# Shear Modulus (GPa) = 25.91596 37.55527 31.73561
#
# Velocity S-wave (km/s) = 3.46129 4.16667 3.83025
# Velocity P-wave (km/s) = 5.44225 6.36563 5.92196
#
# Compressibility (1/GPa) = 0.03388153
#
# Stress axis : x y z
#
# Youngs Moduli (GPa) = 86.37449 87.14155 51.46682
#
# Poissons Ratio (x) = 0.23732 0.24875
# Poissons Ratio (y) = 0.23523 -0.16756
# Poissons Ratio (z) = 0.41746 -0.28371
#
# Static dielectric constant tensor:
#      x y z
#    x 1.772990 0.071010 0.021180 
#    y 0.071010 1.486290 0.044790 
#    z 0.021180 0.044790 1.774830 
# 
# From -- ./inp_files/190351.got.cif
#   From: 2010.05.17/outbox.cif.g08.bks.cpg/sg2_96_cif.got.tgz:190351.got - 2010.06.03 11:33:40.
