data_PCOD9069083
_publ_section_title
;
Structure prediction by ZEFSAII (Michael W. Deem and Ramdas Pophale) SiO2 
 PCOD9069083
Probable space group: P -1
;
_chemical_formula_sum "Si O2"
_cell_formula_units_Z 14
_cell_length_a 10.433996
_cell_length_b 11.537543
_cell_length_c 10.956270
_cell_angle_alpha 25.516710
_cell_angle_beta 82.573869
_cell_angle_gamma 83.669493
_cell_volume 563.339273
_symmetry_space_group_name_H-M "P -1"
_symmetry_group_IT_number 2
_symmetry_cell_setting 'triclinic'
loop_
_space_group_symop_operation_xyz
x,y,z
-x,-y,-z
loop_
_atom_site_type_symbol
_atom_site_label
_atom_site_fract_x
_atom_site_fract_y
_atom_site_fract_z
Si Si1 0.416064 0.317480 0.462566
Si Si2 0.354014 0.965246 0.418895
Si Si3 0.064981 0.532301 0.171650
Si Si4 0.905994 0.250974 0.782191
Si Si5 0.626298 0.127552 0.930481
Si Si6 0.681879 0.491134 0.969656
Si Si7 0.935169 0.009458 0.632491
O O1 0.545839 0.156203 0.571304
O O2 0.424674 0.592528 0.274936
O O3 0.364130 0.404173 0.254676
O O4 0.335810 0.098593 0.758506
O O5 0.210678 0.907724 0.444017
O O6 0.359271 0.282683 0.143624
O O7 0.367206 0.797929 0.703119
O O8 0.130707 0.669907 0.149130
O O9 0.164798 0.525061 0.053855
O O10 0.015338 0.232266 0.486035
O O11 0.948803 0.722509 0.966663
O O12 0.766531 0.199558 0.783237
O O13 0.000000 0.500000 0.500000
O O14 0.000000 0.000000 0.000000
O O15 0.500000 0.000000 0.000000
O O16 0.000000 0.000000 0.500000
#
# Coordination Sequence:
#
# PCOD9069083 Si02
#       7
#     2   2   2   2   2   2   2
#     4  12  26  46  72 107 146 191 244 297 364 438
#     4  12  25  40  68 106 149 189 238 288 350 439
#     4  12  24  42  71  97 138 191 232 290 361 428
#     4  12  28  50  78 108 139 187 254 313 370 440
#     4  12  28  51  79 106 147 195 246 314 380 432
#     4  12  22  42  70 100 144 191 237 280 357 435
#     4  12  23  40  64 103 143 191 233 286 350 424
#
# _framework density 24.85181
#
# number of rings (size 3 to 8) (size 9 to 14) (size 15 to 20)
#    0.000    0.000    4.286    6.000    2.000    3.429 
#    0.000    0.000    0.000    0.000    0.000    0.000 
#    0.000    0.000    0.000    0.000    0.000    0.000 
#
# Total GULP energy -78404.553181 kJ/mol
# GULP energy per Si atom -5600.325227 kJ/mol
# Density = 2.479525 g / cm^3
# Si number density = 24.851810 Si / 1000 Ang^3
#
#
#
# Elastic Constant Matrix: (Units=GPa)
#
#
# Indices 1 2 3 4 5 6 
#
# 1 138.9981 35.6074 24.7201 -16.9031 -4.0904 -7.5213
# 2 35.6074 77.9570 33.1693 -36.5417 -0.5276 -3.8282
# 3 24.7201 33.1693 146.8865 -24.1466 -7.2334 -6.4601
# 4 -16.9031 -36.5417 -24.1466 52.5440 -2.9280 6.4715
# 5 -4.0904 -0.5276 -7.2334 -2.9280 34.0138 -7.7549
# 6 -7.5213 -3.8282 -6.4601 6.4715 -7.7549 34.3764
#
#
#
# Elastic Compliance Matrix: (Units=1/GPa)
#
#
# Indices 1 2 3 4 5 6 
#
# 1 0.008299 -0.003578 -0.000487 -0.000176 0.001195 0.001629
# 2 -0.003578 0.021352 -0.002140 0.012874 0.000288 -0.001166
# 3 -0.000487 -0.002140 0.007842 0.001921 0.002020 0.001223
# 4 -0.000176 0.012874 0.001921 0.029341 0.002376 -0.003232
# 5 0.001195 0.000288 0.002020 0.002376 0.031873 0.007416
# 6 0.001629 -0.001166 0.001223 -0.003232 0.007416 0.031827
#
#
# Mechanical properties :
#
#
# Convention : Reuss Voigt Hill
#
# Bulk Modulus (GPa) = 39.86835 61.20393 50.53614
# Shear Modulus (GPa) = 33.04534 42.20983 37.62758
#
# Velocity S-wave (km/s) = 3.65045 4.12571 3.89534
# Velocity P-wave (km/s) = 5.81765 6.88305 6.37265
#
# Compressibility (1/GPa) = 0.02508256
#
# Stress axis : x y z
#
# Youngs Moduli (GPa) = 120.48974 46.83428 127.51394
#
# Poissons Ratio (x) = 0.16758 0.06213
# Poissons Ratio (y) = 0.43113 0.27289
# Poissons Ratio (z) = 0.05871 0.10023
#
# Static dielectric constant tensor:
#      x y z
#    x 2.026470 0.032510 -0.011230 
#    y 0.032510 2.005400 0.068470 
#    z -0.011230 0.068470 1.940950 
# 
# From -- ./inp_files/424756.got.cif
#   From: 2010.05.17/outbox.cif.g08.bks.cpg/sg2_213_cif.got.tgz:424756.got - 2010.06.03 11:33:40.
