data_PCOD9069324
_publ_section_title
;
Structure prediction by ZEFSAII (Michael W. Deem and Ramdas Pophale) SiO2 
 PCOD9069324
Probable space group: P -1
;
_chemical_formula_sum "Si O2"
_cell_formula_units_Z 16
_cell_length_a 6.446609
_cell_length_b 19.351474
_cell_length_c 14.441761
_cell_angle_alpha 144.238477
_cell_angle_beta 44.499271
_cell_angle_gamma 114.726340
_cell_volume 678.968543
_symmetry_space_group_name_H-M "P -1"
_symmetry_group_IT_number 2
_symmetry_cell_setting 'triclinic'
loop_
_space_group_symop_operation_xyz
x,y,z
-x,-y,-z
loop_
_atom_site_type_symbol
_atom_site_label
_atom_site_fract_x
_atom_site_fract_y
_atom_site_fract_z
Si Si1 0.447546 0.838780 0.047724
Si Si2 0.170214 0.817008 0.795108
Si Si3 0.135124 0.695566 0.483467
Si Si4 0.815659 0.566580 0.845489
Si Si5 0.119312 0.771126 0.244093
Si Si6 0.715261 0.904455 0.701522
Si Si7 0.180682 0.407384 0.924149
Si Si8 0.348163 0.651203 0.734312
O O1 0.251900 0.850735 0.218301
O O2 0.279893 0.954698 0.154495
O O3 0.464674 0.709496 0.848856
O O4 0.793571 0.845939 0.963184
O O5 0.238294 0.741753 0.594838
O O6 0.345757 0.915958 0.835828
O O7 0.357965 0.726697 0.721293
O O8 0.061941 0.569723 0.394192
O O9 0.442679 0.637203 0.256469
O O10 0.888602 0.817067 0.638830
O O11 0.980165 0.665724 0.879655
O O12 0.438236 0.648790 0.040927
O O13 0.916009 0.526043 0.874788
O O14 0.906597 0.836615 0.472859
O O15 0.907532 0.715960 0.189554
O O16 0.000000 0.500000 0.000000
O O17 0.500000 0.500000 0.500000
#
# Coordination Sequence:
#
# PCOD9069324 Si02
#       8
#     2   2   2   2   2   2   2   2
#     4  12  28  50  73 104 146 194 236 296 356 429
#     4  12  27  47  73 104 141 193 242 294 355 423
#     4  12  26  43  73 110 144 189 238 298 356 424
#     4  12  24  44  73 108 149 182 240 305 361 416
#     4  12  24  47  74 108 142 189 239 297 362 422
#     4  12  27  49  73 106 145 188 247 291 354 431
#     4  12  23  41  72 106 146 186 236 297 364 418
#     4  12  28  47  73 107 145 188 241 295 360 429
#
# _framework density 23.565156000000002
#
# number of rings (size 3 to 8) (size 9 to 14) (size 15 to 20)
#    0.000    0.000    6.250    4.125    3.500    4.000 
#    0.000    1.250    0.000    0.000    0.000    0.000 
#    0.000    0.000    0.000    0.000    0.000    0.000 
#
# Total GULP energy -89432.056614 kJ/mol
# GULP energy per Si atom -5589.503538 kJ/mol
# Density = 2.351152 g / cm^3
# Si number density = 23.565156 Si / 1000 Ang^3
#
#
#
# Elastic Constant Matrix: (Units=GPa)
#
#
# Indices 1 2 3 4 5 6 
#
# 1 60.5930 27.5324 11.1480 1.9127 2.3650 -1.8452
# 2 27.5324 138.6946 23.6478 4.0022 -2.0248 3.9898
# 3 11.1480 23.6478 51.9714 -3.1467 -4.2681 7.5361
# 4 1.9127 4.0022 -3.1467 33.0788 -5.6501 -1.3439
# 5 2.3650 -2.0248 -4.2681 -5.6501 32.7113 -4.6581
# 6 -1.8452 3.9898 7.5361 -1.3439 -4.6581 43.9073
#
#
#
# Elastic Compliance Matrix: (Units=1/GPa)
#
#
# Indices 1 2 3 4 5 6 
#
# 1 0.018675 -0.003233 -0.002966 -0.001252 -0.001963 0.001341
# 2 -0.003233 0.008434 -0.003149 -0.001133 0.000094 -0.000386
# 3 -0.002966 -0.003149 0.022210 0.003043 0.002981 -0.003241
# 4 -0.001252 -0.001133 0.003043 0.031814 0.006076 0.001146
# 5 -0.001963 0.000094 0.002981 0.006076 0.032590 0.003041
# 6 0.001341 -0.000386 -0.003241 0.001146 0.003041 0.023781
#
#
# Mechanical properties :
#
#
# Convention : Reuss Voigt Hill
#
# Bulk Modulus (GPa) = 32.65559 41.76837 37.21198
# Shear Modulus (GPa) = 30.04696 34.53487 32.29091
#
# Velocity S-wave (km/s) = 3.57467 3.83235 3.70575
# Velocity P-wave (km/s) = 5.56106 6.11110 5.84256
#
# Compressibility (1/GPa) = 0.03062263
#
# Stress axis : x y z
#
# Youngs Moduli (GPa) = 53.54730 118.56966 45.02576
#
# Poissons Ratio (x) = 0.38328 0.13356
# Poissons Ratio (y) = 0.17309 0.14178
# Poissons Ratio (z) = 0.15884 0.37337
#
# Static dielectric constant tensor:
#      x y z
#    x 1.855690 0.065990 -0.047060 
#    y 0.065990 1.994650 -0.028660 
#    z -0.047060 -0.028660 1.904990 
# 
# From -- ./inp_files/364148.got.cif
#   From: 2010.05.17/outbox.cif.g08.bks.cpg/sg2_183_cif.got.tgz:364148.got - 2010.06.03 11:33:40.
