data_PCOD9069786
_publ_section_title
;
Structure prediction by ZEFSAII (Michael W. Deem and Ramdas Pophale) SiO2 
 PCOD9069786
Probable space group: P -1
;
_chemical_formula_sum "Si O2"
_cell_formula_units_Z 16
_cell_length_a 8.916773
_cell_length_b 14.722934
_cell_length_c 8.786465
_cell_angle_alpha 59.939440
_cell_angle_beta 80.369846
_cell_angle_gamma 118.553372
_cell_volume 740.874088
_symmetry_space_group_name_H-M "P -1"
_symmetry_group_IT_number 2
_symmetry_cell_setting 'triclinic'
loop_
_space_group_symop_operation_xyz
x,y,z
-x,-y,-z
loop_
_atom_site_type_symbol
_atom_site_label
_atom_site_fract_x
_atom_site_fract_y
_atom_site_fract_z
Si Si1 0.066964 0.345155 0.027452
Si Si2 0.585234 0.139185 0.789865
Si Si3 0.997323 0.381072 0.659807
Si Si4 0.520728 0.346505 0.241408
Si Si5 0.155375 0.143841 0.253107
Si Si6 0.363757 0.842829 0.582204
Si Si7 0.783494 0.880104 0.067256
Si Si8 0.321269 0.371863 0.539923
O O1 0.074533 0.221294 0.146476
O O2 0.852919 0.270012 0.206527
O O3 0.056106 0.383900 0.822764
O O4 0.263080 0.494193 0.942338
O O5 0.660172 0.147426 0.601180
O O6 0.405712 0.142763 0.813943
O O7 0.768052 0.250010 0.775607
O O8 0.500000 0.000000 0.000000
O O9 0.150173 0.380361 0.534244
O O10 0.000000 0.500000 0.500000
O O11 0.363274 0.272090 0.192077
O O12 0.544522 0.232994 0.363414
O O13 0.405524 0.353833 0.391545
O O14 0.207606 0.101270 0.130050
O O15 0.000000 0.000000 0.500000
O O16 0.500000 0.000000 0.500000
O O17 0.760008 0.750206 0.227481
O O18 0.000000 0.000000 0.000000
O O19 0.500000 0.500000 0.500000
#
# Coordination Sequence:
#
# PCOD9069786 Si02
#       8
#     2   2   2   2   2   2   2   2
#     4  12  27  50  74 112 156 204 250 326 394 459
#     4  12  28  46  75 112 147 202 262 313 387 461
#     4  12  26  48  78 112 153 199 259 317 389 462
#     4  12  26  50  75 111 151 207 262 316 392 464
#     4  12  28  47  77 114 153 202 257 321 392 463
#     4  12  28  50  75 108 159 201 256 326 393 462
#     4  12  26  49  77 106 151 201 262 319 378 458
#     4  12  23  49  77 106 151 201 258 317 379 457
#
# _framework density 21.596112000000002
#
# number of rings (size 3 to 8) (size 9 to 14) (size 15 to 20)
#    0.000    0.000    3.750    5.250    8.750    0.000 
#    0.000    0.000    0.000    0.000    0.000    0.000 
#    0.000    0.000    0.000    0.000    0.000    0.000 
#
# Total GULP energy -89367.331765 kJ/mol
# GULP energy per Si atom -5585.458235 kJ/mol
# Density = 2.154696 g / cm^3
# Si number density = 21.596112 Si / 1000 Ang^3
#
#
#
# Elastic Constant Matrix: (Units=GPa)
#
#
# Indices 1 2 3 4 5 6 
#
# 1 147.6589 46.7312 47.2320 -8.9396 -4.8004 -9.8679
# 2 46.7312 138.5989 67.8856 -13.6818 -13.0996 19.7849
# 3 47.2320 67.8856 128.5445 -12.9786 -3.3624 -2.9645
# 4 -8.9396 -13.6818 -12.9786 57.7347 -7.2011 -0.6493
# 5 -4.8004 -13.0996 -3.3624 -7.2011 46.3848 -7.1420
# 6 -9.8679 19.7849 -2.9645 -0.6493 -7.1420 47.2842
#
#
#
# Elastic Compliance Matrix: (Units=1/GPa)
#
#
# Indices 1 2 3 4 5 6 
#
# 1 0.008250 -0.002200 -0.001747 0.000466 0.000583 0.002627
# 2 -0.002200 0.011629 -0.005257 0.001433 0.002079 -0.005321
# 3 -0.001747 -0.005257 0.011351 0.001027 -0.000296 0.002516
# 4 0.000466 0.001433 0.001027 0.018395 0.003434 0.000333
# 5 0.000583 0.002079 -0.000296 0.003434 0.023145 0.002776
# 6 0.002627 -0.005321 0.002516 0.000333 0.002776 0.024505
#
#
# Mechanical properties :
#
#
# Convention : Reuss Voigt Hill
#
# Bulk Modulus (GPa) = 77.98180 82.05555 80.01867
# Shear Modulus (GPa) = 41.68138 47.14431 44.41284
#
# Velocity S-wave (km/s) = 4.39799 4.67733 4.53981
# Velocity P-wave (km/s) = 7.87257 8.20048 8.03820
#
# Compressibility (1/GPa) = 0.01282350
#
# Stress axis : x y z
#
# Youngs Moduli (GPa) = 121.21087 85.99120 88.09591
#
# Poissons Ratio (x) = 0.18920 0.15387
# Poissons Ratio (y) = 0.26669 0.46309
# Poissons Ratio (z) = 0.21171 0.45203
#
# Static dielectric constant tensor:
#      x y z
#    x 1.866430 -0.047290 0.008370 
#    y -0.047290 1.756830 0.032380 
#    z 0.008370 0.032380 1.756420 
# 
# From -- ./inp_files/205898.got.cif
#   From: 2010.05.17/outbox.cif.g08.bks.cpg/sg2_103_cif.got.tgz:205898.got - 2010.06.03 11:33:40.
