data_PCOD9069427
_publ_section_title
;
Structure prediction by ZEFSAII (Michael W. Deem and Ramdas Pophale) SiO2 
 PCOD9069427
Probable space group: P -1
;
_chemical_formula_sum "Si O2"
_cell_formula_units_Z 14
_cell_length_a 23.500866
_cell_length_b 14.231951
_cell_length_c 15.004050
_cell_angle_alpha 29.725028
_cell_angle_beta 21.499693
_cell_angle_gamma 19.238179
_cell_volume 603.904030
_symmetry_space_group_name_H-M "P -1"
_symmetry_group_IT_number 2
_symmetry_cell_setting 'triclinic'
loop_
_space_group_symop_operation_xyz
x,y,z
-x,-y,-z
loop_
_atom_site_type_symbol
_atom_site_label
_atom_site_fract_x
_atom_site_fract_y
_atom_site_fract_z
Si Si1 0.482835 0.404816 0.009273
Si Si2 0.378292 0.439465 0.465861
Si Si3 0.055986 0.129936 0.625168
Si Si4 0.851701 0.344339 0.191399
Si Si5 0.105143 0.115667 0.760336
Si Si6 0.766167 0.709955 0.873211
Si Si7 0.674528 0.896968 0.250309
O O1 0.630639 0.385588 0.737251
O O2 0.500000 0.500000 0.000000
O O3 0.221749 0.641734 0.156192
O O4 0.552720 0.126953 0.159827
O O5 0.273618 0.590960 0.587888
O O6 0.238212 0.383768 0.681664
O O7 0.648256 0.124959 0.348663
O O8 0.141758 0.144550 0.580232
O O9 0.104734 0.211233 0.400002
O O10 0.169732 0.819833 0.703900
O O11 0.757106 0.619756 0.056400
O O12 0.122266 0.150736 0.972500
O O13 0.917250 0.422733 0.829839
O O14 0.000000 0.000000 0.000000
O O15 0.500000 0.000000 0.000000
O O16 0.500000 0.000000 0.500000
#
# Coordination Sequence:
#
# PCOD9069427 Si02
#       7
#     2   2   2   2   2   2   2
#     4  12  23  43  72 104 130 194 246 290 362 440
#     4  12  27  45  72 104 149 189 242 306 364 436
#     4  12  25  46  77 103 149 187 249 296 361 444
#     4  12  27  46  69 112 148 192 235 315 368 419
#     4  12  24  49  76 103 145 196 241 294 371 429
#     4  12  28  46  74 111 147 189 245 303 364 439
#     4  12  24  46  73  99 145 190 247 293 366 436
#
# _framework density 23.182492
#
# number of rings (size 3 to 8) (size 9 to 14) (size 15 to 20)
#    0.000    0.000    5.714    4.286    2.000    4.000 
#    0.000    0.000    0.000    0.000    0.000    0.000 
#    0.000    0.000    0.000    0.000    0.000    0.000 
#
# Total GULP energy -78347.771924 kJ/mol
# GULP energy per Si atom -5596.269423 kJ/mol
# Density = 2.312973 g / cm^3
# Si number density = 23.182492 Si / 1000 Ang^3
#
#
#
# Elastic Constant Matrix: (Units=GPa)
#
#
# Indices 1 2 3 4 5 6 
#
# 1 76.8437 9.1922 25.0968 -1.0564 29.4422 -7.2705
# 2 9.1922 74.2211 40.0445 -10.3113 16.0368 -13.4543
# 3 25.0968 40.0445 120.3557 -25.9303 33.8811 -0.9707
# 4 -1.0564 -10.3113 -25.9303 48.5465 -9.0900 9.1299
# 5 29.4422 16.0368 33.8811 -9.0900 47.9141 -9.9972
# 6 -7.2705 -13.4543 -0.9707 9.1299 -9.9972 32.8847
#
#
#
# Elastic Compliance Matrix: (Units=1/GPa)
#
#
# Indices 1 2 3 4 5 6 
#
# 1 0.017380 0.000860 -0.001654 -0.002520 -0.009893 0.001838
# 2 0.000860 0.018046 -0.006071 -0.000950 -0.000916 0.007379
# 3 -0.001654 -0.006071 0.013849 0.005942 -0.006909 -0.006191
# 4 -0.002520 -0.000950 0.005942 0.025083 0.000865 -0.007472
# 5 -0.009893 -0.000916 -0.006909 0.000865 0.033824 0.007277
# 6 0.001838 0.007379 -0.006191 -0.007472 0.007277 0.037939
#
#
# Mechanical properties :
#
#
# Convention : Reuss Voigt Hill
#
# Bulk Modulus (GPa) = 28.13225 46.67640 37.40432
# Shear Modulus (GPa) = 29.12091 39.00818 34.06454
#
# Velocity S-wave (km/s) = 3.54808 4.10647 3.83744
# Velocity P-wave (km/s) = 5.38021 6.53163 5.98368
#
# Compressibility (1/GPa) = 0.03554639
#
# Stress axis : x y z
#
# Youngs Moduli (GPa) = 57.53628 55.41473 72.20934
#
# Poissons Ratio (x) = -0.04767 0.11940
# Poissons Ratio (y) = -0.04949 0.43837
# Poissons Ratio (z) = 0.09514 0.33641
#
# Static dielectric constant tensor:
#      x y z
#    x 1.933880 -0.017250 0.071830 
#    y -0.017250 1.921610 0.014130 
#    z 0.071830 0.014130 1.978160 
# 
# From -- ./inp_files/542994.got.cif
#   From: 2010.05.17/outbox.cif.g08.bks.cpg/sg2_272_cif.got.tgz:542994.got - 2010.06.03 11:33:40.
