data_PCOD9069853
_publ_section_title
;
Structure prediction by ZEFSAII (Michael W. Deem and Ramdas Pophale) SiO2 
 PCOD9069853
Probable space group: P -1
;
_chemical_formula_sum "Si O2"
_cell_formula_units_Z 14
_cell_length_a 6.553898
_cell_length_b 17.612288
_cell_length_c 5.177626
_cell_angle_alpha 94.103441
_cell_angle_beta 85.944285
_cell_angle_gamma 79.221781
_cell_volume 583.438957
_symmetry_space_group_name_H-M "P -1"
_symmetry_group_IT_number 2
_symmetry_cell_setting 'triclinic'
loop_
_space_group_symop_operation_xyz
x,y,z
-x,-y,-z
loop_
_atom_site_type_symbol
_atom_site_label
_atom_site_fract_x
_atom_site_fract_y
_atom_site_fract_z
Si Si1 0.100408 0.103274 0.390777
Si Si2 0.337943 0.579895 0.057133
Si Si3 0.834208 0.112716 0.903717
Si Si4 0.481497 0.737789 0.100479
Si Si5 0.931118 0.418890 0.422518
Si Si6 0.500000 0.000000 0.000000
Si Si7 0.500000 0.000000 0.500000
Si Si8 0.254835 0.258994 0.414034
O O1 0.336908 0.051469 0.313874
O O2 0.132127 0.190214 0.465823
O O3 0.981886 0.101478 0.133038
O O4 0.945557 0.082207 0.618679
O O5 0.450437 0.651711 0.019660
O O6 0.246461 0.587679 0.354945
O O7 0.500000 0.500000 0.000000
O O8 0.158095 0.581340 0.859207
O O9 0.735931 0.203142 0.894500
O O10 0.641228 0.071524 0.963582
O O11 0.573521 0.743173 0.378373
O O12 0.638643 0.758494 0.877528
O O13 0.000000 0.500000 0.500000
O O14 0.111323 0.343983 0.433901
O O15 0.358285 0.033849 0.756901
#
# Coordination Sequence:
#
# PCOD9069853 Si02
#       8
#     2   2   2   2   2   1   1   2
#     4  12  26  46  72 102 137 182 231 286 351 417
#     4  12  24  42  66  99 136 177 227 278 340 409
#     4  12  26  46  72 102 137 182 231 286 351 417
#     4  12  24  44  69  98 137 180 227 283 343 408
#     4  12  24  42  66  99 136 177 227 278 340 409
#     4  12  26  46  68 100 136 174 226 286 342 412
#     4  12  26  46  68 100 136 174 226 286 342 412
#     4  12  24  44  69  98 137 180 227 283 343 408
#
# _framework density 23.995653999999998
#
# number of rings (size 3 to 8) (size 9 to 14) (size 15 to 20)
#    0.000    0.000    0.000   11.143    0.000    3.429 
#    0.000    0.000    0.000    0.000    0.000    0.000 
#    0.000    0.000    0.000    0.000    0.000    0.000 
#
# Total GULP energy -78165.312608 kJ/mol
# GULP energy per Si atom -5583.236615 kJ/mol
# Density = 2.394104 g / cm^3
# Si number density = 23.995654 Si / 1000 Ang^3
#
#
#
# Elastic Constant Matrix: (Units=GPa)
#
#
# Indices 1 2 3 4 5 6 
#
# 1 147.9707 27.4210 37.6908 8.2915 84.2208 -22.0868
# 2 27.4210 146.5869 26.1096 -0.8821 -43.7087 -7.2578
# 3 37.6908 26.1096 126.1125 -9.4806 29.4051 -19.1873
# 4 8.2915 -0.8821 -9.4806 38.1014 26.0787 0.0727
# 5 84.2208 -43.7087 29.4051 26.0787 213.2934 -7.6427
# 6 -22.0868 -7.2578 -19.1873 0.0727 -7.6427 64.2408
#
#
#
# Elastic Compliance Matrix: (Units=1/GPa)
#
#
# Indices 1 2 3 4 5 6 
#
# 1 0.010551 -0.003046 -0.001035 0.000538 -0.004627 0.002423
# 2 -0.003046 0.008749 -0.001898 -0.001998 0.003494 -0.000208
# 3 -0.001035 -0.001898 0.009625 0.003727 -0.001688 0.002100
# 4 0.000538 -0.001998 0.003727 0.030312 -0.004825 0.000464
# 5 -0.004627 0.003494 -0.001688 -0.004825 0.008027 -0.000740
# 6 0.002423 -0.000208 0.002100 0.000464 -0.000740 0.016915
#
#
# Mechanical properties :
#
#
# Convention : Reuss Voigt Hill
#
# Bulk Modulus (GPa) = 58.93244 67.01254 62.97249
# Shear Modulus (GPa) = 49.12038 85.09037 67.10537
#
# Velocity S-wave (km/s) = 4.52935 5.96135 5.29399
# Velocity P-wave (km/s) = 7.20876 8.68166 7.97927
#
# Compressibility (1/GPa) = 0.01696858
#
# Stress axis : x y z
#
# Youngs Moduli (GPa) = 94.77793 114.29723 103.89951
#
# Poissons Ratio (x) = 0.34811 0.10752
# Poissons Ratio (y) = 0.28866 0.19715
# Poissons Ratio (z) = 0.09808 0.21688
#
# Static dielectric constant tensor:
#      x y z
#    x 2.026020 0.037460 -0.046750 
#    y 0.037460 1.950800 -0.001960 
#    z -0.046750 -0.001960 2.199220 
# 
# From -- ./inp_files/8119.got.cif
#   From: 2010.05.17/outbox.cif.g08.bks.cpg/sg2_5_cif.got.tgz:8119.got - 2010.06.03 11:33:40.
