data_PCOD9069170
_publ_section_title
;
Structure prediction by ZEFSAII (Michael W. Deem and Ramdas Pophale) SiO2 
 PCOD9069170
Probable space group: P -1
;
_chemical_formula_sum "Si O2"
_cell_formula_units_Z 16
_cell_length_a 8.999310
_cell_length_b 14.409142
_cell_length_c 5.369969
_cell_angle_alpha 90.376435
_cell_angle_beta 100.168988
_cell_angle_gamma 75.418727
_cell_volume 662.797670
_symmetry_space_group_name_H-M "P -1"
_symmetry_group_IT_number 2
_symmetry_cell_setting 'triclinic'
loop_
_space_group_symop_operation_xyz
x,y,z
-x,-y,-z
loop_
_atom_site_type_symbol
_atom_site_label
_atom_site_fract_x
_atom_site_fract_y
_atom_site_fract_z
Si Si1 0.473841 0.212694 0.029522
Si Si2 0.665794 0.331993 0.207611
Si Si3 0.156152 0.550213 0.021296
Si Si4 0.930872 0.057303 0.731143
Si Si5 0.199752 0.358301 0.772087
Si Si6 0.948050 0.270966 0.675266
Si Si7 0.557736 0.094719 0.563501
Si Si8 0.609438 0.571002 0.558783
O O1 0.295116 0.280330 0.991954
O O2 0.472410 0.147093 0.784981
O O3 0.629631 0.253173 0.012617
O O4 0.516560 0.156066 0.299039
O O5 0.702037 0.423573 0.089816
O O6 0.797497 0.298099 0.452993
O O7 0.496860 0.355386 0.285042
O O8 0.110387 0.465234 0.848521
O O9 0.069945 0.657925 0.086467
O O10 0.231053 0.492028 0.284124
O O11 0.974013 0.160437 0.744303
O O12 0.743955 0.073226 0.663012
O O13 0.000000 0.000000 0.500000
O O14 0.000000 0.000000 0.000000
O O15 0.343727 0.376952 0.659966
O O16 0.086596 0.308056 0.586268
O O17 0.500000 0.000000 0.500000
O O18 0.500000 0.500000 0.500000
#
# Coordination Sequence:
#
# PCOD9069170 Si02
#       8
#     2   2   2   2   2   2   2   2
#     4  12  26  48  79 120 152 205 257 318 389 466
#     4  12  24  46  76 106 153 208 259 314 381 469
#     4  12  24  43  75 109 156 206 261 311 384 465
#     4  12  30  56  83 115 157 201 261 330 405 467
#     4  12  28  44  73 115 164 203 259 318 385 469
#     4  12  29  48  75 111 158 206 257 323 401 466
#     4  12  28  52  86 114 151 198 265 330 391 466
#     4  12  22  44  69 107 153 209 261 313 371 461
#
# _framework density 24.140097999999998
#
# number of rings (size 3 to 8) (size 9 to 14) (size 15 to 20)
#    0.000    0.000    5.000    4.125    5.250    3.000 
#    0.000    0.000    0.000    0.000    0.000    0.000 
#    0.000    0.000    0.000    0.000    0.000    0.000 
#
# Total GULP energy -89385.906473 kJ/mol
# GULP energy per Si atom -5586.619155 kJ/mol
# Density = 2.408515 g / cm^3
# Si number density = 24.140098 Si / 1000 Ang^3
#
#
#
# Elastic Constant Matrix: (Units=GPa)
#
#
# Indices 1 2 3 4 5 6 
#
# 1 76.9186 53.7106 29.1188 13.3063 23.7159 -5.2808
# 2 53.7106 177.7653 55.9259 9.6103 17.6746 25.7018
# 3 29.1188 55.9259 120.3143 -7.8362 9.7035 -9.1533
# 4 13.3063 9.6103 -7.8362 42.2591 6.0439 13.6491
# 5 23.7159 17.6746 9.7035 6.0439 31.9142 8.6645
# 6 -5.2808 25.7018 -9.1533 13.6491 8.6645 44.8212
#
#
#
# Elastic Compliance Matrix: (Units=1/GPa)
#
#
# Indices 1 2 3 4 5 6 
#
# 1 0.026028 -0.007214 -0.001165 -0.008498 -0.016861 0.012813
# 2 -0.007214 0.009720 -0.003531 0.001635 0.002973 -0.008217
# 3 -0.001165 -0.003531 0.010823 0.002227 -0.001921 0.003791
# 4 -0.008498 0.001635 0.002227 0.029603 0.002086 -0.010902
# 5 -0.016861 0.002973 -0.001921 0.002086 0.046108 -0.013632
# 6 0.012813 -0.008217 0.003791 -0.010902 -0.013632 0.035262
#
#
# Mechanical properties :
#
#
# Convention : Reuss Voigt Hill
#
# Bulk Modulus (GPa) = 43.95294 72.50097 58.22695
# Shear Modulus (GPa) = 26.46253 39.54843 33.00548
#
# Velocity S-wave (km/s) = 3.31449 4.05197 3.70164
# Velocity P-wave (km/s) = 5.73540 7.21040 6.51478
#
# Compressibility (1/GPa) = 0.02275161
#
# Stress axis : x y z
#
# Youngs Moduli (GPa) = 38.42050 102.88047 92.39690
#
# Poissons Ratio (x) = 0.74222 0.10761
# Poissons Ratio (y) = 0.27718 0.32621
# Poissons Ratio (z) = 0.04474 0.36322
#
# Static dielectric constant tensor:
#      x y z
#    x 2.059180 -0.031820 -0.022710 
#    y -0.031820 2.282100 0.182240 
#    z -0.022710 0.182240 1.961590 
# 
# From -- ./inp_files/38970.got.cif
#   From: 2010.05.17/outbox.cif.g08.bks.cpg/sg2_20_cif.got.tgz:38970.got - 2010.06.03 11:33:40.
