data_PCOD9069767
_publ_section_title
;
Structure prediction by ZEFSAII (Michael W. Deem and Ramdas Pophale) SiO2 
 PCOD9069767
Probable space group: P -1
;
_chemical_formula_sum "Si O2"
_cell_formula_units_Z 16
_cell_length_a 11.192160
_cell_length_b 18.773109
_cell_length_c 8.380835
_cell_angle_alpha 35.712527
_cell_angle_beta 42.049589
_cell_angle_gamma 47.606002
_cell_volume 676.900932
_symmetry_space_group_name_H-M "P -1"
_symmetry_group_IT_number 2
_symmetry_cell_setting 'triclinic'
loop_
_space_group_symop_operation_xyz
x,y,z
-x,-y,-z
loop_
_atom_site_type_symbol
_atom_site_label
_atom_site_fract_x
_atom_site_fract_y
_atom_site_fract_z
Si Si1 0.110951 0.705313 0.380754
Si Si2 0.569577 0.889976 0.297244
Si Si3 0.869823 0.061227 0.659925
Si Si4 0.283918 0.657373 0.633478
Si Si5 0.701328 0.837205 0.604256
Si Si6 0.790245 0.051655 0.292914
Si Si7 0.015392 0.472162 0.720877
Si Si8 0.359483 0.272545 0.797971
O O1 0.242341 0.675137 0.455528
O O2 0.090276 0.582575 0.530759
O O3 0.906106 0.762380 0.532481
O O4 0.179862 0.810497 0.018171
O O5 0.614723 0.818554 0.552220
O O6 0.356646 0.946054 0.424735
O O7 0.603552 0.809528 0.249581
O O8 0.703685 0.989097 0.979072
O O9 0.801365 0.208300 0.448261
O O10 0.000000 0.000000 0.500000
O O11 0.013972 0.031165 0.715820
O O12 0.494377 0.636897 0.504724
O O13 0.179280 0.550352 0.986544
O O14 0.707875 0.983122 0.354993
O O15 0.619161 0.797252 0.924682
O O16 0.156741 0.347286 0.846853
O O17 0.000000 0.500000 0.500000
#
# Coordination Sequence:
#
# PCOD9069767 Si02
#       8
#     2   2   2   2   2   2   2   2
#     4  12  25  48  77 104 146 199 245 300 368 433
#     4  12  26  44  74 115 153 190 239 299 368 445
#     4  12  24  41  74 109 151 194 234 297 371 435
#     4  12  26  48  74 105 144 190 247 300 364 435
#     4  12  23  48  78 108 153 191 238 303 370 439
#     4  12  24  44  74 112 151 191 238 297 371 444
#     4  12  29  51  74 103 144 195 252 309 363 429
#     4  12  28  50  75 112 147 191 248 305 366 436
#
# _framework density 23.637136000000002
#
# number of rings (size 3 to 8) (size 9 to 14) (size 15 to 20)
#    0.000    0.000    3.750    6.375    3.500    2.500 
#    2.250    0.000    0.000    0.000    0.000    0.000 
#    0.000    0.000    0.000    0.000    0.000    0.000 
#
# Total GULP energy -89637.155730 kJ/mol
# GULP energy per Si atom -5602.322233 kJ/mol
# Density = 2.358334 g / cm^3
# Si number density = 23.637136 Si / 1000 Ang^3
#
#
#
# Elastic Constant Matrix: (Units=GPa)
#
#
# Indices 1 2 3 4 5 6 
#
# 1 130.8724 19.6715 35.9445 8.4607 -0.5267 13.5931
# 2 19.6715 69.2993 22.7336 12.5960 -5.6685 26.8639
# 3 35.9445 22.7336 88.9976 11.6307 -0.4951 -5.0208
# 4 8.4607 12.5960 11.6307 32.2201 -1.0525 -8.7021
# 5 -0.5267 -5.6685 -0.4951 -1.0525 46.5503 10.5184
# 6 13.5931 26.8639 -5.0208 -8.7021 10.5184 39.1703
#
#
#
# Elastic Compliance Matrix: (Units=1/GPa)
#
#
# Indices 1 2 3 4 5 6 
#
# 1 0.009376 0.001859 -0.004171 -0.003314 0.001622 -0.006235
# 2 0.001859 0.033089 -0.008499 -0.018487 0.010635 -0.031391
# 3 -0.004171 -0.008499 0.015461 0.001560 -0.003250 0.010477
# 4 -0.003314 -0.018487 0.001560 0.045366 -0.007126 0.026021
# 5 0.001622 0.010635 -0.003250 -0.007126 0.026431 -0.016954
# 6 -0.006235 -0.031391 0.010477 0.026021 -0.016954 0.060898
#
#
# Mechanical properties :
#
#
# Convention : Reuss Voigt Hill
#
# Bulk Modulus (GPa) = 27.54547 49.54095 38.54321
# Shear Modulus (GPa) = 22.28724 37.64279 29.96501
#
# Velocity S-wave (km/s) = 3.07398 3.99498 3.56435
# Velocity P-wave (km/s) = 4.92726 6.50263 5.76898
#
# Compressibility (1/GPa) = 0.03630361
#
# Stress axis : x y z
#
# Youngs Moduli (GPa) = 106.66009 30.22126 64.67914
#
# Poissons Ratio (x) = -0.05618 0.26978
# Poissons Ratio (y) = -0.19827 0.54970
# Poissons Ratio (z) = 0.44489 0.25685
#
# Static dielectric constant tensor:
#      x y z
#    x 1.928760 0.001030 0.033210 
#    y 0.001030 1.867540 0.014550 
#    z 0.033210 0.014550 1.895140 
# 
# From -- ./inp_files/282594.got.cif
#   From: 2010.05.17/outbox.cif.g08.bks.cpg/sg2_142_cif.got.tgz:282594.got - 2010.06.03 11:33:40.
