data_PCOD9069963
_publ_section_title
;
Structure prediction by ZEFSAII (Michael W. Deem and Ramdas Pophale) SiO2 
 PCOD9069963
Probable space group: P -1
;
_chemical_formula_sum "Si O2"
_cell_formula_units_Z 13
_cell_length_a 16.664784
_cell_length_b 5.440992
_cell_length_c 9.240000
_cell_angle_alpha 122.010739
_cell_angle_beta 48.383392
_cell_angle_gamma 117.200388
_cell_volume 523.775056
_symmetry_space_group_name_H-M "P -1"
_symmetry_group_IT_number 2
_symmetry_cell_setting 'triclinic'
loop_
_space_group_symop_operation_xyz
x,y,z
-x,-y,-z
loop_
_atom_site_type_symbol
_atom_site_label
_atom_site_fract_x
_atom_site_fract_y
_atom_site_fract_z
Si Si1 0.755482 0.576598 0.450021
Si Si2 0.287439 0.049204 0.810354
Si Si3 0.002430 0.126414 0.694701
Si Si4 0.568163 0.796522 0.564361
Si Si5 0.368816 0.472672 0.105805
Si Si6 0.500000 0.000000 0.000000
Si Si7 0.920703 0.738990 0.932203
O O1 0.872563 0.776523 0.379006
O O2 0.669308 0.727046 0.514008
O O3 0.702031 0.526537 0.661984
O O4 0.770883 0.284295 0.250703
O O5 0.390176 0.038514 0.579441
O O6 0.323672 0.202762 0.968100
O O7 0.206348 0.246035 0.895851
O O8 0.951034 0.426608 0.841424
O O9 0.000000 0.000000 0.500000
O O10 0.943537 0.857622 0.778307
O O11 0.500000 0.500000 0.500000
O O12 0.498683 0.927416 0.807131
O O13 0.381060 0.771994 0.093492
O O14 0.500000 0.500000 0.000000
O O15 0.000000 0.000000 0.000000
#
# Coordination Sequence:
#
# PCOD9069963 Si02
#       7
#     2   2   2   2   2   1   2
#     4  12  27  45  76 106 145 201 253 310 389 462
#     4  12  27  44  77 106 148 201 249 311 392 457
#     4  12  28  52  81 114 158 201 261 328 389 464
#     4  12  26  45  71 107 146 195 245 312 377 458
#     4  12  26  46  67 108 144 193 248 310 371 458
#     4  12  24  44  68  98 152 186 242 312 368 440
#     4  12  26  51  78 116 156 200 258 327 391 463
#
# _framework density 24.819817
#
# number of rings (size 3 to 8) (size 9 to 14) (size 15 to 20)
#    0.000    0.000    6.154    2.769    4.308    2.462 
#    0.000    0.000    0.000    0.000    0.000    0.000 
#    0.000    0.000    0.000    0.000    0.000    0.000 
#
# Total GULP energy -72410.607965 kJ/mol
# GULP energy per Si atom -5570.046767 kJ/mol
# Density = 2.476333 g / cm^3
# Si number density = 24.819817 Si / 1000 Ang^3
#
#
#
# Elastic Constant Matrix: (Units=GPa)
#
#
# Indices 1 2 3 4 5 6 
#
# 1 137.0197 11.4573 40.0703 15.4730 -8.3595 7.7241
# 2 11.4573 76.0571 51.9361 -20.2417 8.8370 15.3525
# 3 40.0703 51.9361 159.4884 -11.3589 37.7246 4.6751
# 4 15.4730 -20.2417 -11.3589 59.8457 8.8496 13.9179
# 5 -8.3595 8.8370 37.7246 8.8496 50.1800 15.6229
# 6 7.7241 15.3525 4.6751 13.9179 15.6229 37.2549
#
#
#
# Elastic Compliance Matrix: (Units=1/GPa)
#
#
# Indices 1 2 3 4 5 6 
#
# 1 0.009346 0.000353 -0.004031 -0.003282 0.005996 -0.002866
# 2 0.000353 0.022795 -0.007538 0.008704 0.004418 -0.013625
# 3 -0.004031 -0.007538 0.012125 0.000841 -0.010654 0.006574
# 4 -0.003282 0.008704 0.000841 0.023597 -0.003670 -0.010288
# 5 0.005996 0.004418 -0.010654 -0.003670 0.033259 -0.014303
# 6 -0.002866 -0.013625 0.006574 -0.010288 -0.014303 0.042068
#
#
# Mechanical properties :
#
#
# Convention : Reuss Voigt Hill
#
# Bulk Modulus (GPa) = 45.79958 64.38807 55.09383
# Shear Modulus (GPa) = 28.91874 47.39624 38.15749
#
# Velocity S-wave (km/s) = 3.41713 4.37465 3.92520
# Velocity P-wave (km/s) = 5.83626 7.17742 6.54130
#
# Compressibility (1/GPa) = 0.02183426
#
# Stress axis : x y z
#
# Youngs Moduli (GPa) = 107.00275 43.86884 82.47674
#
# Poissons Ratio (x) = -0.01549 0.33247
# Poissons Ratio (y) = -0.03777 0.62167
# Poissons Ratio (z) = 0.43133 0.33066
#
# Static dielectric constant tensor:
#      x y z
#    x 1.920940 0.037110 -0.006640 
#    y 0.037110 1.771790 -0.129000 
#    z -0.006640 -0.129000 1.971800 
# 
# From -- ./inp_files/323081.got.cif
#   From: 2010.05.17/outbox.cif.g08.bks.cpg/sg2_162_cif.got.tgz:323081.got - 2010.06.03 11:33:40.
