data_PCOD9069187
_publ_section_title
;
Structure prediction by ZEFSAII (Michael W. Deem and Ramdas Pophale) SiO2 
 PCOD9069187
Probable space group: P -1
;
_chemical_formula_sum "Si O2"
_cell_formula_units_Z 14
_cell_length_a 8.696270
_cell_length_b 7.034419
_cell_length_c 11.532394
_cell_angle_alpha 58.284718
_cell_angle_beta 106.195853
_cell_angle_gamma 93.884526
_cell_volume 573.616020
_symmetry_space_group_name_H-M "P -1"
_symmetry_group_IT_number 2
_symmetry_cell_setting 'triclinic'
loop_
_space_group_symop_operation_xyz
x,y,z
-x,-y,-z
loop_
_atom_site_type_symbol
_atom_site_label
_atom_site_fract_x
_atom_site_fract_y
_atom_site_fract_z
Si Si1 0.373471 0.896308 0.659572
Si Si2 0.875440 0.754623 0.148824
Si Si3 0.340312 0.414881 0.443990
Si Si4 0.949617 0.055136 0.277499
Si Si5 0.634444 0.661462 0.942780
Si Si6 0.854960 0.508573 0.840899
Si Si7 0.174079 0.635130 0.553194
O O1 0.221539 0.878054 0.719289
O O2 0.541116 0.838001 0.778866
O O3 0.337918 0.729199 0.602733
O O4 0.357607 0.148064 0.531811
O O5 0.869102 0.541501 0.302411
O O6 0.016212 0.692061 0.106242
O O7 0.711641 0.773378 0.033718
O O8 0.088501 0.044427 0.824154
O O9 0.500000 0.500000 0.500000
O O10 0.286375 0.499626 0.279701
O O11 0.205752 0.506502 0.480274
O O12 0.059188 0.261063 0.229937
O O13 0.047516 0.851502 0.435312
O O14 0.776161 0.519095 0.947157
O O15 0.500000 0.500000 0.000000
#
# Coordination Sequence:
#
# PCOD9069187 Si02
#       7
#     2   2   2   2   2   2   2
#     4  12  25  45  75 109 150 188 233 295 367 423
#     4  12  25  46  75 106 145 193 241 288 350 437
#     4  12  27  43  74 114 148 184 236 303 365 426
#     4  12  24  43  76 113 136 184 244 300 359 419
#     4  12  28  49  72 101 149 201 236 291 360 430
#     4  12  26  47  75 104 143 187 245 301 351 425
#     4  12  22  44  75 109 144 182 236 296 363 418
#
# _framework density 24.406569000000001
#
# number of rings (size 3 to 8) (size 9 to 14) (size 15 to 20)
#    0.000    0.000    7.143    3.000    2.000    2.286 
#    0.000    1.429    0.000    0.000    0.000    0.000 
#    0.000    0.000    0.000    0.000    0.000    0.000 
#
# Total GULP energy -78541.590131 kJ/mol
# GULP energy per Si atom -5610.113581 kJ/mol
# Density = 2.435102 g / cm^3
# Si number density = 24.406569 Si / 1000 Ang^3
#
#
#
# Elastic Constant Matrix: (Units=GPa)
#
#
# Indices 1 2 3 4 5 6 
#
# 1 80.2126 6.6217 6.0252 12.0142 1.5797 5.7639
# 2 6.6217 100.9236 19.1707 31.7960 6.6798 13.9518
# 3 6.0252 19.1707 88.6886 31.1135 20.2643 5.4525
# 4 12.0142 31.7960 31.1135 48.9422 12.9860 7.5019
# 5 1.5797 6.6798 20.2643 12.9860 54.5930 10.9888
# 6 5.7639 13.9518 5.4525 7.5019 10.9888 48.1384
#
#
#
# Elastic Compliance Matrix: (Units=1/GPa)
#
#
# Indices 1 2 3 4 5 6 
#
# 1 0.013030 0.000352 0.000219 -0.003529 0.000594 -0.001273
# 2 0.000352 0.012787 0.000071 -0.008268 0.000904 -0.002674
# 3 0.000219 0.000071 0.015145 -0.008834 -0.003624 0.000442
# 4 -0.003529 -0.008268 -0.008834 0.033280 -0.003405 -0.000590
# 5 0.000594 0.000904 -0.003624 -0.003405 0.021196 -0.004231
# 6 -0.001273 -0.002674 0.000442 -0.000590 -0.004231 0.022708
#
#
# Mechanical properties :
#
#
# Convention : Reuss Voigt Hill
#
# Bulk Modulus (GPa) = 23.67119 37.05112 30.36115
# Shear Modulus (GPa) = 38.18415 46.20189 42.19302
#
# Velocity S-wave (km/s) = 3.95967 4.35559 4.16234
# Velocity P-wave (km/s) = 5.53399 6.36464 5.96380
#
# Compressibility (1/GPa) = 0.04224546
#
# Stress axis : x y z
#
# Youngs Moduli (GPa) = 76.74788 78.20592 66.02711
#
# Poissons Ratio (x) = -0.02752 -0.01448
# Poissons Ratio (y) = -0.02701 -0.00467
# Poissons Ratio (z) = -0.01683 -0.00553
#
# Static dielectric constant tensor:
#      x y z
#    x 1.967940 -0.009320 0.001170 
#    y -0.009320 1.886720 0.004560 
#    z 0.001170 0.004560 1.951470 
# 
# From -- ./inp_files/377763.got.cif
#   From: 2010.05.17/outbox.cif.g08.bks.cpg/sg2_189_cif.got.tgz:377763.got - 2010.06.03 11:33:40.
