data_PCOD9069773
_publ_section_title
;
Structure prediction by ZEFSAII (Michael W. Deem and Ramdas Pophale) SiO2 
 PCOD9069773
Probable space group: P -1
;
_chemical_formula_sum "Si O2"
_cell_formula_units_Z 11
_cell_length_a 9.263357
_cell_length_b 10.804370
_cell_length_c 7.588734
_cell_angle_alpha 114.775819
_cell_angle_beta 99.653022
_cell_angle_gamma 35.881543
_cell_volume 382.528357
_symmetry_space_group_name_H-M "P -1"
_symmetry_group_IT_number 2
_symmetry_cell_setting 'triclinic'
loop_
_space_group_symop_operation_xyz
x,y,z
-x,-y,-z
loop_
_atom_site_type_symbol
_atom_site_label
_atom_site_fract_x
_atom_site_fract_y
_atom_site_fract_z
Si Si1 0.064599 0.674376 0.188951
Si Si2 0.236217 0.566411 0.565390
Si Si3 0.000000 0.000000 0.000000
Si Si4 0.570938 0.155160 0.908449
Si Si5 0.727954 0.224606 0.671924
Si Si6 0.461617 0.101139 0.363464
O O1 0.130092 0.644192 0.391286
O O2 0.197321 0.706824 0.141752
O O3 0.255537 0.406281 0.012514
O O4 0.756095 0.909577 0.245027
O O5 0.522433 0.394282 0.578346
O O6 0.272163 0.376054 0.497996
O O7 0.068066 0.803858 0.786503
O O8 0.292242 0.843108 0.930982
O O9 0.627882 0.180876 0.746501
O O10 0.645445 0.939856 0.802896
O O11 0.000000 0.000000 0.500000
O O12 0.500000 0.000000 0.500000
#
# Coordination Sequence:
#
# PCOD9069773 Si02
#       6
#     2   2   1   2   2   2
#     4  12  27  48  80 118 161 207 269 328 400 472
#     4  12  27  50  80 114 160 206 269 331 394 472
#     4  12  28  46  78 118 152 204 278 316 392 468
#     4  12  28  48  78 122 159 210 263 330 398 480
#     4  12  23  48  80 113 155 212 267 324 393 468
#     4  12  26  53  81 115 161 213 261 330 409 471
#
# _framework density 28.756038
#
# number of rings (size 3 to 8) (size 9 to 14) (size 15 to 20)
#    0.000    0.000    5.455    3.818    2.545    3.636 
#    0.000    0.000    0.000    0.000    0.000    0.000 
#    0.000    0.000    0.000    0.000    0.000    0.000 
#
# Total GULP energy -61373.175936 kJ/mol
# GULP energy per Si atom -5579.379631 kJ/mol
# Density = 2.869059 g / cm^3
# Si number density = 28.756038 Si / 1000 Ang^3
#
#
#
# Elastic Constant Matrix: (Units=GPa)
#
#
# Indices 1 2 3 4 5 6 
#
# 1 192.0376 57.2413 54.0448 11.0663 41.0027 -4.5835
# 2 57.2413 114.7795 61.5514 13.6059 -1.9129 -4.8355
# 3 54.0448 61.5514 157.1379 31.0494 14.6977 21.6269
# 4 11.0663 13.6059 31.0494 74.5922 13.2601 10.7871
# 5 41.0027 -1.9129 14.6977 13.2601 60.2478 6.9157
# 6 -4.5835 -4.8355 21.6269 10.7871 6.9157 63.1340
#
#
#
# Elastic Compliance Matrix: (Units=1/GPa)
#
#
# Indices 1 2 3 4 5 6 
#
# 1 0.007639 -0.003333 -0.001124 0.000723 -0.005321 0.001144
# 2 -0.003333 0.012982 -0.004365 -0.001012 0.003737 0.002011
# 3 -0.001124 -0.004365 0.009437 -0.002368 -0.000792 -0.003157
# 4 0.000723 -0.001012 -0.002368 0.015239 -0.003131 -0.001475
# 5 -0.005321 0.003737 -0.000792 -0.003131 0.021408 -0.001639
# 6 0.001144 0.002011 -0.003157 -0.001475 -0.001639 0.017589
#
#
# Mechanical properties :
#
#
# Convention : Reuss Voigt Hill
#
# Bulk Modulus (GPa) = 80.56120 89.95889 85.26004
# Shear Modulus (GPa) = 47.13515 59.00262 53.06889
#
# Velocity S-wave (km/s) = 4.05302 4.53463 4.30057
# Velocity P-wave (km/s) = 7.06957 7.66607 7.37385
#
# Compressibility (1/GPa) = 0.01241292
#
# Stress axis : x y z
#
# Youngs Moduli (GPa) = 130.90989 77.02752 105.96591
#
# Poissons Ratio (x) = 0.25671 0.11915
# Poissons Ratio (y) = 0.43629 0.46259
# Poissons Ratio (z) = 0.14720 0.33626
#
# Static dielectric constant tensor:
#      x y z
#    x 2.171770 -0.190410 -0.024240 
#    y -0.190410 1.908340 -0.045370 
#    z -0.024240 -0.045370 2.370060 
# 
# From -- ./inp_files/172981.got.cif
#   From: 2010.05.17/outbox.cif.g08.bks.cpg/sg2_87_cif.got.tgz:172981.got - 2010.06.03 11:33:40.
