data_PCOD9069449
_publ_section_title
;
Structure prediction by ZEFSAII (Michael W. Deem and Ramdas Pophale) SiO2 
 PCOD9069449
Probable space group: P -1
;
_chemical_formula_sum "Si O2"
_cell_formula_units_Z 14
_cell_length_a 12.156350
_cell_length_b 8.696115
_cell_length_c 9.285844
_cell_angle_alpha 130.969764
_cell_angle_beta 58.199292
_cell_angle_gamma 98.136581
_cell_volume 597.255544
_symmetry_space_group_name_H-M "P -1"
_symmetry_group_IT_number 2
_symmetry_cell_setting 'triclinic'
loop_
_space_group_symop_operation_xyz
x,y,z
-x,-y,-z
loop_
_atom_site_type_symbol
_atom_site_label
_atom_site_fract_x
_atom_site_fract_y
_atom_site_fract_z
Si Si1 0.190065 0.092428 0.924795
Si Si2 0.464422 0.813918 0.999118
Si Si3 0.272518 0.926670 0.464948
Si Si4 0.757210 0.271276 0.103958
Si Si5 0.738822 0.527322 0.769084
Si Si6 0.008792 0.216584 0.696988
Si Si7 0.906227 0.435560 0.318688
O O1 0.274693 0.941000 0.645682
O O2 0.208448 0.957700 0.977393
O O3 0.250254 0.288130 0.019471
O O4 0.027976 0.209038 0.083011
O O5 0.388301 0.920713 0.265347
O O6 0.370677 0.718719 0.902342
O O7 0.596075 0.624899 0.844865
O O8 0.500000 0.000000 0.000000
O O9 0.248383 0.700047 0.310356
O O10 0.145093 0.134866 0.647283
O O11 0.771911 0.427790 0.318774
O O12 0.876262 0.296435 0.934631
O O13 0.858826 0.485586 0.544498
O O14 0.033498 0.386564 0.675487
O O15 0.000000 0.000000 0.500000
#
# Coordination Sequence:
#
# PCOD9069449 Si02
#       7
#     2   2   2   2   2   2   2
#     4  12  25  47  76 109 147 187 244 308 366 427
#     4  12  27  51  73 103 150 199 247 293 360 443
#     4  12  26  47  76 108 145 189 247 305 363 432
#     4  12  24  46  74 106 148 189 240 303 363 430
#     4  12  26  48  74 107 150 198 241 297 366 437
#     4  12  23  43  74 112 147 186 242 307 369 427
#     4  12  25  45  77 115 145 189 243 306 373 426
#
# _framework density 23.440550999999999
#
# number of rings (size 3 to 8) (size 9 to 14) (size 15 to 20)
#    0.000    0.000    5.714    5.143    0.000    1.143 
#    0.000    0.000    0.000    0.000    0.000    0.000 
#    0.000    0.000    0.000    0.000    0.000    0.000 
#
# Total GULP energy -78311.739830 kJ/mol
# GULP energy per Si atom -5593.695702 kJ/mol
# Density = 2.338720 g / cm^3
# Si number density = 23.440551 Si / 1000 Ang^3
#
#
#
# Elastic Constant Matrix: (Units=GPa)
#
#
# Indices 1 2 3 4 5 6 
#
# 1 114.6147 10.2762 26.0175 -0.8518 -13.5404 -5.4622
# 2 10.2762 144.0333 17.2304 -6.9666 -15.4923 8.0125
# 3 26.0175 17.2304 77.9987 -19.4824 3.1908 13.0994
# 4 -0.8518 -6.9666 -19.4824 40.9508 10.1347 3.7306
# 5 -13.5404 -15.4923 3.1908 10.1347 33.3657 5.7908
# 6 -5.4622 8.0125 13.0994 3.7306 5.7908 34.1854
#
#
#
# Elastic Compliance Matrix: (Units=1/GPa)
#
#
# Indices 1 2 3 4 5 6 
#
# 1 0.010714 0.000102 -0.005361 -0.003980 0.005555 0.003235
# 2 0.000102 0.007671 -0.001689 -0.000369 0.004190 -0.001804
# 3 -0.005361 -0.001689 0.019413 0.011259 -0.006853 -0.007967
# 4 -0.003980 -0.000369 0.011259 0.033142 -0.011805 -0.006480
# 5 0.005555 0.004190 -0.006853 -0.011805 0.038892 -0.002768
# 6 0.003235 -0.001804 -0.007967 -0.006480 -0.002768 0.034421
#
#
# Mechanical properties :
#
#
# Convention : Reuss Voigt Hill
#
# Bulk Modulus (GPa) = 41.83976 49.29943 45.56959
# Shear Modulus (GPa) = 30.09957 40.57523 35.33740
#
# Velocity S-wave (km/s) = 3.58730 4.16502 3.88691
# Velocity P-wave (km/s) = 5.91999 6.64885 6.29498
#
# Compressibility (1/GPa) = 0.02390071
#
# Stress axis : x y z
#
# Youngs Moduli (GPa) = 93.33988 130.36479 51.51305
#
# Poissons Ratio (x) = -0.01329 0.27615
# Poissons Ratio (y) = -0.00952 0.08702
# Poissons Ratio (z) = 0.50038 0.22021
#
# Static dielectric constant tensor:
#      x y z
#    x 1.969460 -0.016780 0.066080 
#    y -0.016780 1.839790 -0.030280 
#    z 0.066080 -0.030280 1.933690 
# 
# From -- ./inp_files/245763.got.cif
#   From: 2010.05.17/outbox.cif.g08.bks.cpg/sg2_123_cif.got.tgz:245763.got - 2010.06.03 11:33:40.
