data_PCOD9069896
_publ_section_title
;
Structure prediction by ZEFSAII (Michael W. Deem and Ramdas Pophale) SiO2 
 PCOD9069896
Probable space group: P -1
;
_chemical_formula_sum "Si O2"
_cell_formula_units_Z 16
_cell_length_a 18.632140
_cell_length_b 9.727746
_cell_length_c 21.821818
_cell_angle_alpha 145.911774
_cell_angle_beta 18.383964
_cell_angle_gamma 144.353781
_cell_volume 691.092341
_symmetry_space_group_name_H-M "P -1"
_symmetry_group_IT_number 2
_symmetry_cell_setting 'triclinic'
loop_
_space_group_symop_operation_xyz
x,y,z
-x,-y,-z
loop_
_atom_site_type_symbol
_atom_site_label
_atom_site_fract_x
_atom_site_fract_y
_atom_site_fract_z
Si Si1 0.344339 0.844634 0.449090
Si Si2 0.850150 0.729980 0.017989
Si Si3 0.476591 0.565816 0.472153
Si Si4 0.774610 0.860743 0.543398
Si Si5 0.145945 0.568522 0.969266
Si Si6 0.028638 0.483946 0.663725
Si Si7 0.465960 0.721551 0.065757
Si Si8 0.951652 0.923029 0.702749
O O1 0.582162 0.729589 0.216288
O O2 0.176002 0.697029 0.581941
O O3 0.448003 0.137726 0.484477
O O4 0.173322 0.834548 0.524660
O O5 0.873851 0.608866 0.020864
O O6 0.963730 0.606624 0.824424
O O7 0.000000 0.000000 0.000000
O O8 0.500000 0.500000 0.500000
O O9 0.250748 0.369557 0.568668
O O10 0.611627 0.461139 0.267843
O O11 0.829453 0.738579 0.517702
O O12 0.984000 0.036561 0.405434
O O13 0.573751 0.029027 0.774320
O O14 0.089523 0.830721 0.135276
O O15 0.000000 0.500000 0.000000
O O16 0.781162 0.362647 0.795008
O O17 0.500000 0.500000 0.000000
O O18 0.699024 0.762897 0.852657
#
# Coordination Sequence:
#
# PCOD9069896 Si02
#       8
#     2   2   2   2   2   2   2   2
#     4  12  27  45  77 115 156 204 250 314 382 458
#     4  12  29  47  76 116 159 198 247 316 384 455
#     4  12  24  42  78 113 155 198 249 309 383 456
#     4  12  26  48  78 109 154 200 257 314 396 453
#     4  12  24  46  72 107 153 197 250 306 375 463
#     4  12  28  52  74 113 158 202 258 318 386 445
#     4  12  29  50  79 110 149 202 265 327 372 453
#     4  12  26  48  75 111 145 205 259 311 379 456
#
# _framework density 23.151755000000001
#
# number of rings (size 3 to 8) (size 9 to 14) (size 15 to 20)
#    0.000    0.000    6.250    2.625    3.500    3.500 
#    0.000    0.000    0.000    0.000    0.000    0.000 
#    0.000    0.000    0.000    0.000    0.000    0.000 
#
# Total GULP energy -89178.743296 kJ/mol
# GULP energy per Si atom -5573.671456 kJ/mol
# Density = 2.309906 g / cm^3
# Si number density = 23.151755 Si / 1000 Ang^3
#
#
#
# Elastic Constant Matrix: (Units=GPa)
#
#
# Indices 1 2 3 4 5 6 
#
# 1 76.2654 44.3179 10.0004 7.1470 -4.4684 -26.1762
# 2 44.3179 124.4267 32.8631 -10.6512 -2.1313 -25.4396
# 3 10.0004 32.8631 89.0610 -10.7719 -3.9121 -18.2563
# 4 7.1470 -10.6512 -10.7719 43.9418 -5.4512 1.3389
# 5 -4.4684 -2.1313 -3.9121 -5.4512 46.0194 -5.1040
# 6 -26.1762 -25.4396 -18.2563 1.3389 -5.1040 39.4615
#
#
#
# Elastic Compliance Matrix: (Units=1/GPa)
#
#
# Indices 1 2 3 4 5 6 
#
# 1 0.020720 -0.005867 0.001729 -0.004387 0.002615 0.011249
# 2 -0.005867 0.011583 -0.002773 0.003056 0.000341 0.002233
# 3 0.001729 -0.002773 0.013655 0.002481 0.002145 0.005869
# 4 -0.004387 0.003056 0.002481 0.025186 0.002880 -0.000274
# 5 0.002615 0.000341 0.002145 0.002880 0.023171 0.005846
# 6 0.011249 0.002233 0.005869 -0.000274 0.005846 0.037723
#
#
# Mechanical properties :
#
#
# Convention : Reuss Voigt Hill
#
# Bulk Modulus (GPa) = 31.11939 51.56844 41.34391
# Shear Modulus (GPa) = 31.93394 39.38933 35.66164
#
# Velocity S-wave (km/s) = 3.71796 4.12922 3.92898
# Velocity P-wave (km/s) = 5.64816 6.71241 6.20315
#
# Compressibility (1/GPa) = 0.03213431
#
# Stress axis : x y z
#
# Youngs Moduli (GPa) = 48.26219 86.33307 73.23394
#
# Poissons Ratio (x) = 0.50656 -0.12659
# Poissons Ratio (y) = 0.28318 0.20307
# Poissons Ratio (z) = -0.08342 0.23940
#
# Static dielectric constant tensor:
#      x y z
#    x 1.910930 0.122410 -0.087480 
#    y 0.122410 2.162040 -0.032480 
#    z -0.087480 -0.032480 1.922750 
# 
# From -- ./inp_files/599765.got.cif
#   From: 2010.05.17/outbox.cif.g08.bks.cpg/sg2_300_cif.got.tgz:599765.got - 2010.06.03 11:33:40.
