data_PCOD9069825
_publ_section_title
;
Structure prediction by ZEFSAII (Michael W. Deem and Ramdas Pophale) SiO2 
 PCOD9069825
Probable space group: P -1
;
_chemical_formula_sum "Si O2"
_cell_formula_units_Z 12
_cell_length_a 14.357610
_cell_length_b 8.581814
_cell_length_c 7.122632
_cell_angle_alpha 147.184628
_cell_angle_beta 87.913010
_cell_angle_gamma 99.764772
_cell_volume 459.370293
_symmetry_space_group_name_H-M "P -1"
_symmetry_group_IT_number 2
_symmetry_cell_setting 'triclinic'
loop_
_space_group_symop_operation_xyz
x,y,z
-x,-y,-z
loop_
_atom_site_type_symbol
_atom_site_label
_atom_site_fract_x
_atom_site_fract_y
_atom_site_fract_z
Si Si1 0.310814 0.366200 0.116625
Si Si2 0.411765 0.112112 0.199281
Si Si3 0.186841 0.806504 0.647314
Si Si4 0.013126 0.592149 0.879564
Si Si5 0.143470 0.192724 0.386769
Si Si6 0.349520 0.538198 0.874637
O O1 0.263372 0.608839 0.463345
O O2 0.365875 0.232065 0.139785
O O3 0.360405 0.529120 0.089668
O O4 0.231510 0.063405 0.750734
O O5 0.427231 0.391842 0.621413
O O6 0.356469 0.845750 0.074594
O O7 0.500000 0.000000 0.000000
O O8 0.089485 0.567673 0.359810
O O9 0.168351 0.020928 0.030539
O O10 0.094523 0.462849 0.643237
O O11 0.000000 0.500000 0.000000
O O12 0.054717 0.943977 0.228300
O O13 0.242879 0.328308 0.624198
#
# Coordination Sequence:
#
# PCOD9069825 Si02
#       6
#     2   2   2   2   2   2
#     4  12  26  47  78 108 151 197 249 303 374 445
#     4  12  28  50  79 113 149 187 244 316 379 453
#     4  12  24  44  70 108 149 202 252 303 364 434
#     4  12  24  41  66 105 150 195 258 305 353 430
#     4  12  24  43  70 103 148 202 247 305 366 431
#     4  12  26  49  77 112 148 197 248 302 379 447
#
# _framework density 26.122716
#
# number of rings (size 3 to 8) (size 9 to 14) (size 15 to 20)
#    0.000    0.000    1.667    9.000    0.000    1.333 
#    0.000    0.000    0.000    0.000    0.000    0.000 
#    0.000    0.000    0.000    0.000    0.000    0.000 
#
# Total GULP energy -67138.838689 kJ/mol
# GULP energy per Si atom -5594.903224 kJ/mol
# Density = 2.606326 g / cm^3
# Si number density = 26.122716 Si / 1000 Ang^3
#
#
#
# Elastic Constant Matrix: (Units=GPa)
#
#
# Indices 1 2 3 4 5 6 
#
# 1 95.8295 56.3166 33.2026 -10.5352 -27.1758 -8.0891
# 2 56.3166 210.0317 60.7363 -3.8624 -10.7506 -5.8887
# 3 33.2026 60.7363 129.7151 24.9207 -31.8871 -10.2839
# 4 -10.5352 -3.8624 24.9207 46.2439 9.0581 8.9789
# 5 -27.1758 -10.7506 -31.8871 9.0581 52.2009 11.1578
# 6 -8.0891 -5.8887 -10.2839 8.9789 11.1578 29.6868
#
#
#
# Elastic Compliance Matrix: (Units=1/GPa)
#
#
# Indices 1 2 3 4 5 6 
#
# 1 0.014707 -0.003199 -0.001403 0.002742 0.005682 -0.000078
# 2 -0.003199 0.006472 -0.003319 0.002199 -0.002655 -0.000405
# 3 -0.001403 -0.003319 0.013919 -0.010436 0.008065 0.003907
# 4 0.002742 0.002199 -0.010436 0.031358 -0.008035 -0.008897
# 5 0.005682 -0.002655 0.008065 -0.008035 0.028873 -0.004607
# 6 -0.000078 -0.000405 0.003907 -0.008897 -0.004607 0.039359
#
#
# Mechanical properties :
#
#
# Convention : Reuss Voigt Hill
#
# Bulk Modulus (GPa) = 51.92726 81.78748 66.85737
# Shear Modulus (GPa) = 31.85766 44.64771 38.25269
#
# Velocity S-wave (km/s) = 3.49598 4.13868 3.83083
# Velocity P-wave (km/s) = 6.01807 7.36309 6.72429
#
# Compressibility (1/GPa) = 0.01925771
#
# Stress axis : x y z
#
# Youngs Moduli (GPa) = 67.99400 154.51832 71.84241
#
# Poissons Ratio (x) = 0.49426 0.10080
# Poissons Ratio (y) = 0.21749 0.23841
# Poissons Ratio (z) = 0.09540 0.51278
#
# Static dielectric constant tensor:
#      x y z
#    x 2.317720 0.119550 0.208380 
#    y 0.119550 2.119180 0.067910 
#    z 0.208380 0.067910 2.122980 
# 
# From -- ./inp_files/297170.got.cif
#   From: 2010.05.17/outbox.cif.g08.bks.cpg/sg2_149_cif.got.tgz:297170.got - 2010.06.03 11:33:40.
