data_PCOD9069973
_publ_section_title
;
Structure prediction by ZEFSAII (Michael W. Deem and Ramdas Pophale) SiO2 
 PCOD9069973
Probable space group: P -1
;
_chemical_formula_sum "Si O2"
_cell_formula_units_Z 14
_cell_length_a 12.053639
_cell_length_b 12.848449
_cell_length_c 19.490928
_cell_angle_alpha 33.557461
_cell_angle_beta 157.953025
_cell_angle_gamma 134.721252
_cell_volume 590.964444
_symmetry_space_group_name_H-M "P -1"
_symmetry_group_IT_number 2
_symmetry_cell_setting 'triclinic'
loop_
_space_group_symop_operation_xyz
x,y,z
-x,-y,-z
loop_
_atom_site_type_symbol
_atom_site_label
_atom_site_fract_x
_atom_site_fract_y
_atom_site_fract_z
Si Si1 0.430035 0.631139 0.075858
Si Si2 0.120491 0.092396 0.453205
Si Si3 0.236967 0.053220 0.161546
Si Si4 0.308634 0.736190 0.488289
Si Si5 0.137059 0.518235 0.277659
Si Si6 0.895477 0.512375 0.293192
Si Si7 0.829589 0.836188 0.269519
O O1 0.422644 0.439536 0.220754
O O2 0.555325 0.582591 0.096043
O O3 0.718895 0.674778 0.252726
O O4 0.138293 0.834350 0.795416
O O5 0.144633 0.312340 0.360936
O O6 0.459238 0.945857 0.706955
O O7 0.000000 0.000000 0.500000
O O8 0.378353 0.882689 0.393241
O O9 0.049137 0.259903 0.978443
O O10 0.000000 0.000000 0.000000
O O11 0.104741 0.633705 0.381033
O O12 0.089920 0.866381 0.352202
O O13 0.500000 0.500000 0.500000
O O14 0.956061 0.528080 0.240071
O O15 0.028569 0.278928 0.517216
O O16 0.500000 0.000000 0.000000
#
# Coordination Sequence:
#
# PCOD9069973 Si02
#       7
#     2   2   2   2   2   2   2
#     4   9  21  41  60  94 135 170 219 275 343 383
#     4  12  28  44  69 102 138 179 219 285 339 390
#     4  12  24  44  69  98 136 180 224 275 336 404
#     4   9  19  40  64  90 132 175 213 276 332 395
#     4  12  25  42  69  99 134 181 230 266 333 414
#     4   9  18  36  62  91 129 171 219 270 322 393
#     4   9  19  32  63  95 122 171 223 268 318 399
#
# _framework density 23.690086999999998
#
# number of rings (size 3 to 8) (size 9 to 14) (size 15 to 20)
#    0.000    1.714    2.857    2.571    6.000    2.857 
#    2.571    0.714    0.000    0.000    0.000    0.000 
#    0.000    0.000    0.000    0.000    0.000    0.000 
#
# Total GULP energy -78074.414882 kJ/mol
# GULP energy per Si atom -5576.743920 kJ/mol
# Density = 2.363617 g / cm^3
# Si number density = 23.690087 Si / 1000 Ang^3
#
#
#
# Elastic Constant Matrix: (Units=GPa)
#
#
# Indices 1 2 3 4 5 6 
#
# 1 67.6872 6.1354 18.6652 -7.9174 -8.3209 29.6467
# 2 6.1354 72.8277 20.6921 -7.0209 -0.7601 6.1821
# 3 18.6652 20.6921 136.1746 -15.9645 16.9496 13.9081
# 4 -7.9174 -7.0209 -15.9645 37.2623 -4.7870 0.2798
# 5 -8.3209 -0.7601 16.9496 -4.7870 37.3981 -7.0410
# 6 29.6467 6.1821 13.9081 0.2798 -7.0410 38.2703
#
#
#
# Elastic Compliance Matrix: (Units=1/GPa)
#
#
# Indices 1 2 3 4 5 6 
#
# 1 0.023722 0.000384 -0.001345 0.005088 0.003274 -0.017385
# 2 0.000384 0.014634 -0.002003 0.002153 0.001242 -0.001721
# 3 -0.001345 -0.002003 0.008995 0.002620 -0.004603 -0.002769
# 4 0.005088 0.002153 0.002620 0.029853 0.002881 -0.004929
# 5 0.003274 0.001242 -0.004603 0.002881 0.030811 0.004584
# 6 -0.017385 -0.001721 -0.002769 -0.004929 0.004584 0.041761
#
#
# Mechanical properties :
#
#
# Convention : Reuss Voigt Hill
#
# Bulk Modulus (GPa) = 24.14091 40.85277 32.49684
# Shear Modulus (GPa) = 29.49634 37.99924 33.74779
#
# Velocity S-wave (km/s) = 3.53241 4.00936 3.77842
# Velocity P-wave (km/s) = 5.18167 6.22217 5.72560
#
# Compressibility (1/GPa) = 0.04142347
#
# Stress axis : x y z
#
# Youngs Moduli (GPa) = 42.15500 68.33226 111.17075
#
# Poissons Ratio (x) = -0.02625 0.14957
# Poissons Ratio (y) = -0.01619 0.22265
# Poissons Ratio (z) = 0.05671 0.13686
#
# Static dielectric constant tensor:
#      x y z
#    x 1.979860 -0.112270 -0.056440 
#    y -0.112270 2.108710 0.015750 
#    z -0.056440 0.015750 1.931100 
# 
# From -- ./inp_files/236570.got.cif
#   From: 2010.05.17/outbox.cif.g08.bks.cpg/sg2_119_cif.got.tgz:236570.got - 2010.06.03 11:33:40.
