data_PCOD9069087
_publ_section_title
;
Structure prediction by ZEFSAII (Michael W. Deem and Ramdas Pophale) SiO2 
 PCOD9069087
Probable space group: P -1
;
_chemical_formula_sum "Si O2"
_cell_formula_units_Z 12
_cell_length_a 26.883294
_cell_length_b 8.954650
_cell_length_c 26.883368
_cell_angle_alpha 148.742604
_cell_angle_beta 11.159107
_cell_angle_gamma 148.747571
_cell_volume 641.374141
_symmetry_space_group_name_H-M "P -1"
_symmetry_group_IT_number 2
_symmetry_cell_setting 'triclinic'
loop_
_space_group_symop_operation_xyz
x,y,z
-x,-y,-z
loop_
_atom_site_type_symbol
_atom_site_label
_atom_site_fract_x
_atom_site_fract_y
_atom_site_fract_z
Si Si1 0.376541 0.341913 0.868185
Si Si2 0.115927 0.411908 0.624480
Si Si3 0.011810 0.734840 0.511866
Si Si4 0.527317 0.299504 0.027219
Si Si5 0.737497 0.340355 0.237607
Si Si6 0.775562 0.201827 0.275416
O O1 0.635450 0.470444 0.620187
O O2 0.415560 0.442293 0.915343
O O3 0.319925 0.995723 0.818743
O O4 0.135570 0.476804 0.120358
O O5 0.167292 0.552698 0.668471
O O6 0.069209 0.062944 0.570295
O O7 0.000000 0.500000 0.500000
O O8 0.739486 0.695490 0.738664
O O9 0.238808 0.695822 0.239479
O O10 0.500000 0.000000 0.000000
O O11 0.500000 0.500000 0.500000
O O12 0.766741 0.333731 0.266676
O O13 0.000000 0.500000 0.000000
O O14 0.500000 0.000000 0.500000
O O15 0.000000 0.000000 0.000000
#
# Coordination Sequence:
#
# PCOD9069087 Si02
#       6
#     2   2   2   2   2   2
#     4  12  24  41  73  96 129 179 226 266 327 404
#     4  12  22  42  70  98 128 179 227 264 326 403
#     4  12  26  43  67 104 141 168 218 289 331 379
#     4  12  23  44  70 100 131 179 228 266 327 404
#     4  12  26  44  65 101 136 165 216 287 333 377
#     4  12  23  43  69  96 127 178 224 265 324 403
#
# _framework density 18.70983
#
# number of rings (size 3 to 8) (size 9 to 14) (size 15 to 20)
#    0.000    0.000    6.667    4.000    0.000    2.667 
#    0.000    0.000    0.000    0.000    0.000    0.000 
#    0.000    0.000    0.000    0.000    0.000    0.000 
#
# Total GULP energy -67190.774726 kJ/mol
# GULP energy per Si atom -5599.231227 kJ/mol
# Density = 1.866725 g / cm^3
# Si number density = 18.709830 Si / 1000 Ang^3
#
#
#
# Elastic Constant Matrix: (Units=GPa)
#
#
# Indices 1 2 3 4 5 6 
#
# 1 188.5428 71.9309 78.0390 17.7191 4.8279 10.0450
# 2 71.9309 130.1287 34.3083 34.6196 8.9423 12.4304
# 3 78.0390 34.3083 164.1555 16.5419 -1.8167 -11.3023
# 4 17.7191 34.6196 16.5419 27.1404 -4.0523 6.0657
# 5 4.8279 8.9423 -1.8167 -4.0523 42.5947 4.5236
# 6 10.0450 12.4304 -11.3023 6.0657 4.5236 56.8625
#
#
#
# Elastic Compliance Matrix: (Units=1/GPa)
#
#
# Indices 1 2 3 4 5 6 
#
# 1 0.008095 -0.004082 -0.003325 0.002301 0.000171 -0.001458
# 2 -0.004082 0.014589 0.000525 -0.016831 -0.004154 -0.000238
# 3 -0.003325 0.000525 0.008142 -0.004032 -0.000038 0.002524
# 4 0.002301 -0.016831 -0.004032 0.061777 0.009496 -0.004874
# 5 0.000171 -0.004154 -0.000038 0.009496 0.025462 -0.002168
# 6 -0.001458 -0.000238 0.002524 -0.004874 -0.002168 0.019090
#
#
# Mechanical properties :
#
#
# Convention : Reuss Voigt Hill
#
# Bulk Modulus (GPa) = 58.61198 94.59815 76.60506
# Shear Modulus (GPa) = 31.92728 45.22277 38.57502
#
# Velocity S-wave (km/s) = 4.13539 4.92169 4.54558
# Velocity P-wave (km/s) = 7.36185 9.10867 8.28145
#
# Compressibility (1/GPa) = 0.01706136
#
# Stress axis : x y z
#
# Youngs Moduli (GPa) = 123.53729 68.54649 122.81316
#
# Poissons Ratio (x) = 0.27984 0.40839
# Poissons Ratio (y) = 0.50433 -0.06454
# Poissons Ratio (z) = 0.41080 -0.03602
#
# Static dielectric constant tensor:
#      x y z
#    x 1.620710 0.019410 0.003380 
#    y 0.019410 1.621010 0.002570 
#    z 0.003380 0.002570 1.620120 
# 
# From -- ./inp_files/88968.got.cif
#   From: 2010.05.17/outbox.cif.g08.bks.cpg/sg2_45_cif.got.tgz:88968.got - 2010.06.03 11:33:40.
