data_PCOD9069945
_publ_section_title
;
Structure prediction by ZEFSAII (Michael W. Deem and Ramdas Pophale) SiO2 
 PCOD9069945
Probable space group: P -1
;
_chemical_formula_sum "Si O2"
_cell_formula_units_Z 16
_cell_length_a 9.018843
_cell_length_b 18.088820
_cell_length_c 18.380107
_cell_angle_alpha 149.461779
_cell_angle_beta 40.897303
_cell_angle_gamma 150.327567
_cell_volume 753.902824
_symmetry_space_group_name_H-M "P -1"
_symmetry_group_IT_number 2
_symmetry_cell_setting 'triclinic'
loop_
_space_group_symop_operation_xyz
x,y,z
-x,-y,-z
loop_
_atom_site_type_symbol
_atom_site_label
_atom_site_fract_x
_atom_site_fract_y
_atom_site_fract_z
Si Si1 0.606853 0.997928 0.379592
Si Si2 0.066559 0.857452 0.360790
Si Si3 0.538510 0.429059 0.224383
Si Si4 0.970960 0.830825 0.908929
Si Si5 0.697471 0.702576 0.638562
Si Si6 0.427403 0.027844 0.130427
Si Si7 0.444331 0.345139 0.945986
Si Si8 0.931284 0.322813 0.941824
O O1 0.376095 0.967472 0.381699
O O2 0.580042 0.813433 0.223939
O O3 0.500000 0.000000 0.500000
O O4 0.950953 0.185400 0.398423
O O5 0.089253 0.779645 0.210423
O O6 0.788807 0.658800 0.334654
O O7 0.000000 0.000000 0.500000
O O8 0.262005 0.355796 0.213079
O O9 0.411791 0.330605 0.265999
O O10 0.697735 0.355881 0.066818
O O11 0.296361 0.897000 0.855345
O O12 0.825241 0.771631 0.993866
O O13 0.000000 0.000000 0.000000
O O14 0.500000 0.500000 0.500000
O O15 0.639593 0.831086 0.729574
O O16 0.141057 0.820871 0.089411
O O17 0.500000 0.000000 0.000000
O O18 0.500000 0.500000 0.000000
O O19 0.743519 0.473241 0.992950
#
# Coordination Sequence:
#
# PCOD9069945 Si02
#       8
#     2   2   2   2   2   2   2   2
#     4  12  28  49  74 105 150 194 242 304 371 440
#     4  12  29  48  74 109 151 193 244 304 371 438
#     4  12  24  48  73 106 146 194 244 305 367 435
#     4  12  24  43  74 111 146 187 245 313 369 432
#     4  12  29  49  72 106 152 197 243 298 377 442
#     4  12  25  45  74 108 144 189 243 304 365 442
#     4  12  26  44  77 111 146 191 257 304 370 437
#     4  12  24  45  77 105 147 190 250 303 363 426
#
# _framework density 21.222894
#
# number of rings (size 3 to 8) (size 9 to 14) (size 15 to 20)
#    0.000    0.000    5.000    4.875    7.000    1.000 
#    0.000    1.250    0.000    0.000    0.000    0.000 
#    0.000    0.000    0.000    0.000    0.000    0.000 
#
# Total GULP energy -89572.714176 kJ/mol
# GULP energy per Si atom -5598.294636 kJ/mol
# Density = 2.117459 g / cm^3
# Si number density = 21.222894 Si / 1000 Ang^3
#
#
#
# Elastic Constant Matrix: (Units=GPa)
#
#
# Indices 1 2 3 4 5 6 
#
# 1 111.0292 53.4423 36.5949 7.8493 -0.4490 13.2896
# 2 53.4423 157.2967 48.2870 8.2294 -4.0020 5.3091
# 3 36.5949 48.2870 109.4854 13.6968 6.8124 4.4567
# 4 7.8493 8.2294 13.6968 36.9562 -9.2468 7.2773
# 5 -0.4490 -4.0020 6.8124 -9.2468 39.5135 4.8414
# 6 13.2896 5.3091 4.4567 7.2773 4.8414 58.0533
#
#
#
# Elastic Compliance Matrix: (Units=1/GPa)
#
#
# Indices 1 2 3 4 5 6 
#
# 1 0.011572 -0.003094 -0.002397 -0.000348 0.000416 -0.002173
# 2 -0.003094 0.008265 -0.002711 0.000139 0.001298 0.000035
# 3 -0.002397 -0.002711 0.011850 -0.004278 -0.003433 0.000710
# 4 -0.000348 0.000139 -0.004278 0.031711 0.008696 -0.004305
# 5 0.000416 0.001298 -0.003433 0.008696 0.028489 -0.003416
# 6 -0.002173 0.000035 0.000710 -0.004305 -0.003416 0.018490
#
#
# Mechanical properties :
#
#
# Convention : Reuss Voigt Hill
#
# Bulk Modulus (GPa) = 65.42680 72.71774 69.07227
# Shear Modulus (GPa) = 37.91415 42.87041 40.39228
#
# Velocity S-wave (km/s) = 4.23126 4.49933 4.36735
# Velocity P-wave (km/s) = 7.40045 7.83135 7.61895
#
# Compressibility (1/GPa) = 0.01528426
#
# Stress axis : x y z
#
# Youngs Moduli (GPa) = 86.41301 120.98915 84.38529
#
# Poissons Ratio (x) = 0.37429 0.20231
# Poissons Ratio (y) = 0.26733 0.22875
# Poissons Ratio (z) = 0.20717 0.32797
#
# Static dielectric constant tensor:
#      x y z
#    x 1.825710 -0.044660 0.011890 
#    y -0.044660 1.863060 -0.010010 
#    z 0.011890 -0.010010 1.725040 
# 
# From -- ./inp_files/383509.got.cif
#   From: 2010.05.17/outbox.cif.g08.bks.cpg/sg2_192_cif.got.tgz:383509.got - 2010.06.03 11:33:40.
