data_PCOD9069045
_publ_section_title
;
Structure prediction by ZEFSAII (Michael W. Deem and Ramdas Pophale) SiO2 
 PCOD9069045
Probable space group: P -1
;
_chemical_formula_sum "Si O2"
_cell_formula_units_Z 16
_cell_length_a 8.348897
_cell_length_b 12.962945
_cell_length_c 8.489600
_cell_angle_alpha 48.180969
_cell_angle_beta 92.099032
_cell_angle_gamma 100.297557
_cell_volume 669.424216
_symmetry_space_group_name_H-M "P -1"
_symmetry_group_IT_number 2
_symmetry_cell_setting 'triclinic'
loop_
_space_group_symop_operation_xyz
x,y,z
-x,-y,-z
loop_
_atom_site_type_symbol
_atom_site_label
_atom_site_fract_x
_atom_site_fract_y
_atom_site_fract_z
Si Si1 0.355772 0.408422 0.190760
Si Si2 0.113059 0.611510 0.503397
Si Si3 0.903874 0.639690 0.039515
Si Si4 0.396757 0.592923 0.300678
Si Si5 0.862929 0.087747 0.341248
Si Si6 0.708633 0.798359 0.086291
Si Si7 0.608903 0.866070 0.356939
Si Si8 0.756413 0.101889 0.664652
O O1 0.203657 0.358711 0.121571
O O2 0.316757 0.498416 0.247897
O O3 0.416609 0.272771 0.394985
O O4 0.500000 0.500000 0.000000
O O5 0.279291 0.634350 0.384717
O O6 0.108762 0.772716 0.380182
O O7 0.000000 0.500000 0.500000
O O8 0.096938 0.522960 0.755486
O O9 0.060868 0.763685 0.892021
O O10 0.812549 0.688558 0.138967
O O11 0.500000 0.500000 0.500000
O O12 0.522970 0.728460 0.099582
O O13 0.768887 0.121835 0.458360
O O14 0.735798 0.989546 0.321843
O O15 0.000000 0.000000 0.500000
O O16 0.691474 0.824532 0.242887
O O17 0.785180 0.947481 0.860889
O O18 0.430665 0.900932 0.286204
#
# Coordination Sequence:
#
# PCOD9069045 Si02
#       8
#     2   2   2   2   2   2   2   2
#     4  12  22  40  76 103 141 190 239 288 352 427
#     4  12  29  49  71 108 147 183 235 305 362 418
#     4  12  26  49  71 107 142 194 241 288 360 434
#     4  12  22  45  73 106 141 189 242 290 348 433
#     4  12  27  47  71 105 146 189 239 292 360 430
#     4  12  24  45  79 102 141 190 249 288 347 437
#     4  12  25  45  73 108 141 188 241 304 353 414
#     4  12  27  49  70 107 147 184 239 298 360 424
#
# _framework density 23.901136000000001
#
# number of rings (size 3 to 8) (size 9 to 14) (size 15 to 20)
#    0.000    0.000    7.500    1.500    3.500    2.000 
#    4.500    0.000    0.000    0.000    0.000    0.000 
#    0.000    0.000    0.000    0.000    0.000    0.000 
#
# Total GULP energy -89553.300349 kJ/mol
# GULP energy per Si atom -5597.081272 kJ/mol
# Density = 2.384674 g / cm^3
# Si number density = 23.901136 Si / 1000 Ang^3
#
#
#
# Elastic Constant Matrix: (Units=GPa)
#
#
# Indices 1 2 3 4 5 6 
#
# 1 42.1699 22.3622 4.0004 -4.7968 -17.2677 7.7359
# 2 22.3622 142.6290 6.2918 -3.1602 -11.2237 24.3757
# 3 4.0004 6.2918 81.2639 -19.0623 -29.1939 -5.2075
# 4 -4.7968 -3.1602 -19.0623 54.6084 3.6448 -11.3780
# 5 -17.2677 -11.2237 -29.1939 3.6448 39.8852 1.3749
# 6 7.7359 24.3757 -5.2075 -11.3780 1.3749 31.8991
#
#
#
# Elastic Compliance Matrix: (Units=1/GPa)
#
#
# Indices 1 2 3 4 5 6 
#
# 1 0.033016 -0.003217 0.004978 0.002354 0.016977 -0.004627
# 2 -0.003217 0.008715 -0.001084 -0.001585 0.000640 -0.006649
# 3 0.004978 -0.001084 0.019683 0.007202 0.015435 0.004738
# 4 0.002354 -0.001585 0.007202 0.022751 0.003429 0.009783
# 5 0.016977 0.000640 0.015435 0.003429 0.043681 -0.002746
# 6 -0.004627 -0.006649 0.004738 0.009783 -0.002746 0.041934
#
#
# Mechanical properties :
#
#
# Convention : Reuss Voigt Hill
#
# Bulk Modulus (GPa) = 15.93186 36.81907 26.37546
# Shear Modulus (GPa) = 26.40648 40.83908 33.62278
#
# Velocity S-wave (km/s) = 3.32749 4.13809 3.75473
# Velocity P-wave (km/s) = 4.63067 6.18626 5.46411
#
# Compressibility (1/GPa) = 0.06276731
#
# Stress axis : x y z
#
# Youngs Moduli (GPa) = 30.28873 114.74381 50.80602
#
# Poissons Ratio (x) = 0.36914 -0.25293
# Poissons Ratio (y) = 0.09744 0.05509
# Poissons Ratio (z) = -0.15079 0.12442
#
# Static dielectric constant tensor:
#      x y z
#    x 1.935440 0.019380 0.012490 
#    y 0.019380 1.888580 -0.001720 
#    z 0.012490 -0.001720 1.878950 
# 
# From -- ./inp_files/184310.got.cif
#   From: 2010.05.17/outbox.cif.g08.bks.cpg/sg2_93_cif.got.tgz:184310.got - 2010.06.03 11:33:40.
