data_PCOD9069167
_publ_section_title
;
Structure prediction by ZEFSAII (Michael W. Deem and Ramdas Pophale) SiO2 
 PCOD9069167
Probable space group: P -1
;
_chemical_formula_sum "Si O2"
_cell_formula_units_Z 13
_cell_length_a 13.750921
_cell_length_b 8.283993
_cell_length_c 8.283981
_cell_angle_alpha 55.520334
_cell_angle_beta 59.762336
_cell_angle_gamma 40.095236
_cell_volume 496.558767
_symmetry_space_group_name_H-M "P -1"
_symmetry_group_IT_number 2
_symmetry_cell_setting 'triclinic'
loop_
_space_group_symop_operation_xyz
x,y,z
-x,-y,-z
loop_
_atom_site_type_symbol
_atom_site_label
_atom_site_fract_x
_atom_site_fract_y
_atom_site_fract_z
Si Si1 0.500000 0.500000 0.500000
Si Si2 0.889241 0.154503 0.156893
Si Si3 0.326493 0.635898 0.052861
Si Si4 0.280796 0.984378 0.151953
Si Si5 0.889241 0.767654 0.543743
Si Si6 0.673507 0.773632 0.537609
Si Si7 0.280796 0.371157 0.765174
O O1 0.394168 0.727543 0.315441
O O2 0.394169 0.421271 0.621712
O O3 0.857370 0.389794 0.144348
O O4 0.928571 0.942750 0.371320
O O5 0.728295 0.292623 0.125177
O O6 0.000000 0.000000 0.000000
O O7 0.234489 0.894904 0.095480
O O8 0.307993 0.438626 0.246619
O O9 0.500000 0.500000 0.000000
O O10 0.142629 0.213022 0.252836
O O11 0.349911 0.098814 0.948725
O O12 0.728295 0.896883 0.520918
O O13 0.000000 0.500000 0.500000
O O14 0.765511 0.639009 0.370607
O O15 0.500000 0.000000 0.500000
#
# Coordination Sequence:
#
# PCOD9069167 Si02
#       7
#     1   2   2   2   2   2   2
#     4  12  22  44  68 104 144 184 242 290 368 414
#     4  12  26  48  72 106 146 194 244 296 361 438
#     4  12  25  45  70 108 144 187 243 302 359 427
#     4  12  25  45  71 105 145 191 238 302 362 427
#     4  12  26  48  72 106 146 194 244 296 361 438
#     4  12  25  45  70 108 144 187 243 302 359 427
#     4  12  25  45  71 105 145 191 238 302 362 427
#
# _framework density 26.180185999999999
#
# number of rings (size 3 to 8) (size 9 to 14) (size 15 to 20)
#    0.000    0.000    3.077    7.846    0.000    1.231 
#    0.000    6.154    0.000    0.000    0.000    0.000 
#    0.000    0.000    0.000    0.000    0.000    0.000 
#
# Total GULP energy -72647.095045 kJ/mol
# GULP energy per Si atom -5588.238080 kJ/mol
# Density = 2.612060 g / cm^3
# Si number density = 26.180186 Si / 1000 Ang^3
#
#
#
# Elastic Constant Matrix: (Units=GPa)
#
#
# Indices 1 2 3 4 5 6 
#
# 1 70.8420 12.0585 13.7906 9.1898 11.5320 19.7608
# 2 12.0585 109.3483 38.0795 13.6380 10.1774 22.1821
# 3 13.7906 38.0795 179.1865 -44.9230 -20.8339 29.8713
# 4 9.1898 13.6380 -44.9230 70.6731 17.1398 4.9656
# 5 11.5320 10.1774 -20.8339 17.1398 42.1123 9.8987
# 6 19.7608 22.1821 29.8713 4.9656 9.8987 48.9021
#
#
#
# Elastic Compliance Matrix: (Units=1/GPa)
#
#
# Indices 1 2 3 4 5 6 
#
# 1 0.016540 0.000210 -0.001312 -0.001874 -0.003261 -0.005127
# 2 0.000210 0.011387 -0.003176 -0.003493 -0.002377 -0.002474
# 3 -0.001312 -0.003176 0.009227 0.005921 0.004499 -0.005178
# 4 -0.001874 -0.003493 0.005921 0.019779 -0.003141 -0.002648
# 5 -0.003261 -0.002377 0.004499 -0.003141 0.030160 -0.006138
# 6 -0.005127 -0.002474 -0.005178 -0.002648 -0.006138 0.028317
#
#
# Mechanical properties :
#
#
# Convention : Reuss Voigt Hill
#
# Bulk Modulus (GPa) = 34.96606 54.13712 44.55159
# Shear Modulus (GPa) = 37.45380 52.03404 44.74392
#
# Velocity S-wave (km/s) = 3.78645 4.46301 4.13858
# Velocity P-wave (km/s) = 5.70098 6.87616 6.31596
#
# Compressibility (1/GPa) = 0.02859916
#
# Stress axis : x y z
#
# Youngs Moduli (GPa) = 60.46079 87.82266 108.37336
#
# Poissons Ratio (x) = -0.01846 0.14217
# Poissons Ratio (y) = -0.01271 0.34415
# Poissons Ratio (z) = 0.07932 0.27889
#
# Static dielectric constant tensor:
#      x y z
#    x 2.042430 -0.100630 -0.030540 
#    y -0.100630 2.218900 0.094710 
#    z -0.030540 0.094710 2.006300 
# 
# From -- ./inp_files/293852.got.cif
#   From: 2010.05.17/outbox.cif.g08.bks.cpg/sg2_147_cif.got.tgz:293852.got - 2010.06.03 11:33:40.
