data_PCOD9069609
_publ_section_title
;
Structure prediction by ZEFSAII (Michael W. Deem and Ramdas Pophale) SiO2 
 PCOD9069609
Probable space group: P -1
;
_chemical_formula_sum "Si O2"
_cell_formula_units_Z 14
_cell_length_a 5.465902
_cell_length_b 9.504998
_cell_length_c 10.817470
_cell_angle_alpha 111.698238
_cell_angle_beta 86.323407
_cell_angle_gamma 108.256733
_cell_volume 495.045425
_symmetry_space_group_name_H-M "P -1"
_symmetry_group_IT_number 2
_symmetry_cell_setting 'triclinic'
loop_
_space_group_symop_operation_xyz
x,y,z
-x,-y,-z
loop_
_atom_site_type_symbol
_atom_site_label
_atom_site_fract_x
_atom_site_fract_y
_atom_site_fract_z
Si Si1 0.996396 0.569623 0.844196
Si Si2 0.251890 0.022360 0.081682
Si Si3 0.765279 0.932430 0.364907
Si Si4 0.976890 0.299171 0.396681
Si Si5 0.208002 0.806268 0.240553
Si Si6 0.538584 0.625897 0.835480
Si Si7 0.518987 0.661367 0.451458
O O1 0.031833 0.645037 0.727812
O O2 0.903376 0.380629 0.793851
O O3 0.763506 0.623235 0.920938
O O4 0.277871 0.624483 0.909256
O O5 0.355732 0.205626 0.184578
O O6 0.167475 0.889971 0.144528
O O7 0.500000 0.000000 0.000000
O O8 0.000000 0.000000 0.000000
O O9 0.517153 0.853879 0.258925
O O10 0.609585 0.846945 0.464906
O O11 0.016877 0.872440 0.352859
O O12 0.869274 0.109501 0.364016
O O13 0.232866 0.638669 0.504013
O O14 0.261533 0.350876 0.465149
O O15 0.484398 0.467328 0.699732
#
# Coordination Sequence:
#
# PCOD9069609 Si02
#       7
#     2   2   2   2   2   2   2
#     4  12  24  46  70 110 146 201 236 292 348 419
#     4  12  28  53  83 113 132 173 237 303 374 460
#     4  12  23  46  68 105 146 208 236 295 343 406
#     4  12  26  40  70 103 150 200 264 285 321 401
#     4  12  24  48  76 102 151 185 233 300 369 426
#     4  12  25  48  73 100 149 185 236 291 376 418
#     4  12  24  43  69 104 147 199 252 297 333 400
#
# _framework density 28.280232000000002
#
# number of rings (size 3 to 8) (size 9 to 14) (size 15 to 20)
#    0.000    0.000    2.857    7.714    0.000    3.429 
#    0.000    4.286    0.000    0.000    0.000    0.000 
#    0.000    0.000    0.000    0.000    0.000    0.000 
#
# Total GULP energy -78405.880686 kJ/mol
# GULP energy per Si atom -5600.420049 kJ/mol
# Density = 2.821587 g / cm^3
# Si number density = 28.280232 Si / 1000 Ang^3
#
#
#
# Elastic Constant Matrix: (Units=GPa)
#
#
# Indices 1 2 3 4 5 6 
#
# 1 225.2492 47.0944 39.2315 13.2673 29.3992 6.0717
# 2 47.0944 218.8728 33.7298 6.7314 20.2265 -20.1444
# 3 39.2315 33.7298 46.5572 -0.0452 15.1590 3.8415
# 4 13.2673 6.7314 -0.0452 64.2131 -2.7627 7.3668
# 5 29.3992 20.2265 15.1590 -2.7627 46.4485 3.0246
# 6 6.0717 -20.1444 3.8415 7.3668 3.0246 54.4286
#
#
#
# Elastic Compliance Matrix: (Units=1/GPa)
#
#
# Indices 1 2 3 4 5 6 
#
# 1 0.005516 -0.000413 -0.003620 -0.001166 -0.002185 -0.000233
# 2 -0.000413 0.005570 -0.003494 -0.000846 -0.001239 0.002538
# 3 -0.003620 -0.003494 0.029057 0.001224 -0.005415 -0.002805
# 4 -0.001166 -0.000846 0.001224 0.016278 0.001843 -0.002575
# 5 -0.002185 -0.001239 -0.005415 0.001843 0.025426 -0.001495
# 6 -0.000233 0.002538 -0.002805 -0.002575 -0.001495 0.019967
#
#
# Mechanical properties :
#
#
# Convention : Reuss Voigt Hill
#
# Bulk Modulus (GPa) = 39.85798 81.19898 60.52848
# Shear Modulus (GPa) = 39.92588 57.72626 48.82607
#
# Velocity S-wave (km/s) = 3.76146 4.52289 4.15964
# Velocity P-wave (km/s) = 5.74363 7.48665 6.67231
#
# Compressibility (1/GPa) = 0.02508908
#
# Stress axis : x y z
#
# Youngs Moduli (GPa) = 181.27656 179.52380 34.41566
#
# Poissons Ratio (x) = 0.07411 0.12458
# Poissons Ratio (y) = 0.07484 0.12026
# Poissons Ratio (z) = 0.65621 0.62732
#
# Static dielectric constant tensor:
#      x y z
#    x 2.230910 -0.022810 -0.061230 
#    y -0.022810 2.166510 0.063040 
#    z -0.061230 0.063040 2.326800 
# 
# From -- ./inp_files/479913.got.cif
#   From: 2010.05.17/outbox.cif.g08.bks.cpg/sg2_240_cif.got.tgz:479913.got - 2010.06.03 11:33:40.
