data_PCOD9069654
_publ_section_title
;
Structure prediction by ZEFSAII (Michael W. Deem and Ramdas Pophale) SiO2 
 PCOD9069654
Probable space group: P -1
;
_chemical_formula_sum "Si O2"
_cell_formula_units_Z 16
_cell_length_a 16.944392
_cell_length_b 9.170314
_cell_length_c 21.436084
_cell_angle_alpha 37.268738
_cell_angle_beta 20.646332
_cell_angle_gamma 35.616632
_cell_volume 673.897278
_symmetry_space_group_name_H-M "P -1"
_symmetry_group_IT_number 2
_symmetry_cell_setting 'triclinic'
loop_
_space_group_symop_operation_xyz
x,y,z
-x,-y,-z
loop_
_atom_site_type_symbol
_atom_site_label
_atom_site_fract_x
_atom_site_fract_y
_atom_site_fract_z
Si Si1 0.852503 0.296212 0.364331
Si Si2 0.153586 0.937175 0.735825
Si Si3 0.178357 0.120028 0.794712
Si Si4 0.429289 0.252459 0.150602
Si Si5 0.898598 0.546347 0.466088
Si Si6 0.595129 0.909097 0.646214
Si Si7 0.776453 0.820990 0.972027
Si Si8 0.446788 0.525863 0.357965
O O1 0.845417 0.591245 0.266525
O O2 0.744063 0.290400 0.515866
O O3 0.105021 0.169877 0.186065
O O4 0.693635 0.148943 0.496457
O O5 0.413907 0.728011 0.619427
O O6 0.973770 0.801665 0.886497
O O7 0.137909 0.074551 0.767710
O O8 0.085356 0.179937 0.658431
O O9 0.426162 0.957003 0.695913
O O10 0.000000 0.000000 0.000000
O O11 0.531345 0.112602 0.187801
O O12 0.147962 0.335172 0.340565
O O13 0.500000 0.500000 0.000000
O O14 0.548472 0.064145 0.071171
O O15 0.779618 0.626471 0.594263
O O16 0.710730 0.496873 0.575402
O O17 0.665248 0.599191 0.142789
#
# Coordination Sequence:
#
# PCOD9069654 Si02
#       8
#     2   2   2   2   2   2   2   2
#     4  12  26  44  75 113 154 196 244 308 383 448
#     4  12  23  46  75 109 153 193 241 314 384 448
#     4  12  26  42  74 117 155 192 245 315 384 453
#     4  12  26  50  78 104 150 204 261 309 360 450
#     4  12  25  47  79 105 151 200 253 306 374 448
#     4  12  25  48  75 111 146 202 255 305 381 450
#     4  12  27  47  72 110 152 202 250 302 375 448
#     4  12  26  47  74 112 155 192 242 320 379 443
#
# _framework density 23.74249
#
# number of rings (size 3 to 8) (size 9 to 14) (size 15 to 20)
#    0.000    0.000    6.250    3.750    1.750    0.500 
#    0.000    0.625    0.000    0.000    0.000    0.000 
#    0.000    0.000    0.000    0.000    0.000    0.000 
#
# Total GULP energy -89194.720931 kJ/mol
# GULP energy per Si atom -5574.670058 kJ/mol
# Density = 2.368845 g / cm^3
# Si number density = 23.742490 Si / 1000 Ang^3
#
#
#
# Elastic Constant Matrix: (Units=GPa)
#
#
# Indices 1 2 3 4 5 6 
#
# 1 54.1331 16.9835 31.7845 2.3148 -9.9637 28.2111
# 2 16.9835 79.8185 12.1057 25.0395 -8.0537 24.4432
# 3 31.7845 12.1057 104.4270 12.8947 -2.8322 15.5303
# 4 2.3148 25.0395 12.8947 34.5516 6.4717 15.9360
# 5 -9.9637 -8.0537 -2.8322 6.4717 49.5092 2.8627
# 6 28.2111 24.4432 15.5303 15.9360 2.8627 36.8309
#
#
#
# Elastic Compliance Matrix: (Units=1/GPa)
#
#
# Indices 1 2 3 4 5 6 
#
# 1 0.045105 -0.001152 -0.009901 0.017387 0.008235 -0.037772
# 2 -0.001152 0.019035 0.000807 -0.011463 0.004843 -0.007507
# 3 -0.009901 0.000807 0.012613 -0.006678 -0.000536 0.004661
# 4 0.017387 -0.011463 -0.006678 0.050609 -0.003947 -0.024485
# 5 0.008235 0.004843 -0.000536 -0.003947 0.023674 -0.009428
# 6 -0.037772 -0.007507 0.004661 -0.024485 -0.009428 0.070427
#
#
# Mechanical properties :
#
#
# Convention : Reuss Voigt Hill
#
# Bulk Modulus (GPa) = 17.77429 40.01398 28.89413
# Shear Modulus (GPa) = 19.17850 36.01202 27.59526
#
# Velocity S-wave (km/s) = 2.84521 3.89880 3.41291
# Velocity P-wave (km/s) = 4.27741 6.09569 5.26563
#
# Compressibility (1/GPa) = 0.05626104
#
# Stress axis : x y z
#
# Youngs Moduli (GPa) = 22.17055 52.53526 79.28300
#
# Poissons Ratio (x) = 0.06052 0.78500
# Poissons Ratio (y) = 0.02554 -0.06401
# Poissons Ratio (z) = 0.21952 -0.04241
#
# Static dielectric constant tensor:
#      x y z
#    x 1.938200 -0.010710 0.091880 
#    y -0.010710 1.997050 0.008160 
#    z 0.091880 0.008160 2.015310 
# 
# From -- ./inp_files/612945.got.cif
#   From: 2010.05.17/outbox.cif.g08.bks.cpg/sg2_307_cif.got.tgz:612945.got - 2010.06.03 11:33:40.
