data_PCOD9069382
_publ_section_title
;
Structure prediction by ZEFSAII (Michael W. Deem and Ramdas Pophale) SiO2 
 PCOD9069382
Probable space group: P -1
;
_chemical_formula_sum "Si O2"
_cell_formula_units_Z 13
_cell_length_a 8.892895
_cell_length_b 13.325035
_cell_length_c 9.234983
_cell_angle_alpha 111.683448
_cell_angle_beta 31.311892
_cell_angle_gamma 108.820148
_cell_volume 528.421142
_symmetry_space_group_name_H-M "P -1"
_symmetry_group_IT_number 2
_symmetry_cell_setting 'triclinic'
loop_
_space_group_symop_operation_xyz
x,y,z
-x,-y,-z
loop_
_atom_site_type_symbol
_atom_site_label
_atom_site_fract_x
_atom_site_fract_y
_atom_site_fract_z
Si Si1 0.000000 0.500000 0.000000
Si Si2 0.974446 0.749137 0.177903
Si Si3 0.860566 0.189195 0.605537
Si Si4 0.592408 0.552232 0.106324
Si Si5 0.339590 0.051169 0.019510
Si Si6 0.078937 0.692442 0.654159
Si Si7 0.609532 0.150495 0.325132
O O1 0.106548 0.375771 0.834861
O O2 0.222043 0.517825 0.971391
O O3 0.723342 0.823786 0.359682
O O4 0.016199 0.787270 0.326257
O O5 0.271901 0.770538 0.858464
O O6 0.525438 0.156677 0.877785
O O7 0.930897 0.290143 0.499167
O O8 0.028009 0.086593 0.348899
O O9 0.308146 0.597719 0.443164
O O10 0.500000 0.500000 0.000000
O O11 0.790013 0.654547 0.949186
O O12 0.340371 0.967476 0.842125
O O13 0.500000 0.000000 0.000000
O O14 0.202212 0.805928 0.673433
#
# Coordination Sequence:
#
# PCOD9069382 Si02
#       7
#     1   2   2   2   2   2   2
#     4  12  26  46  78 104 140 194 248 292 374 430
#     4  12  24  43  68 103 136 184 239 291 357 423
#     4  12  25  43  73 104 141 193 233 299 362 434
#     4  12  27  48  74 107 146 192 248 305 360 436
#     4  12  23  42  73 106 139 183 249 289 360 429
#     4  12  26  49  67 105 152 183 235 304 368 425
#     4  12  24  44  70  98 146 180 226 304 346 421
#
# _framework density 24.601588
#
# number of rings (size 3 to 8) (size 9 to 14) (size 15 to 20)
#    0.000    0.000    6.154    3.692    0.000    4.923 
#    0.000    0.000    0.000    0.000    0.000    0.000 
#    0.000    0.000    0.000    0.000    0.000    0.000 
#
# Total GULP energy -72575.156652 kJ/mol
# GULP energy per Si atom -5582.704358 kJ/mol
# Density = 2.454559 g / cm^3
# Si number density = 24.601588 Si / 1000 Ang^3
#
#
#
# Elastic Constant Matrix: (Units=GPa)
#
#
# Indices 1 2 3 4 5 6 
#
# 1 116.7135 10.4922 -0.0564 5.2685 7.9370 9.1360
# 2 10.4922 53.5479 11.7187 22.5494 -2.0897 19.4869
# 3 -0.0564 11.7187 74.2708 5.8969 0.6501 7.9233
# 4 5.2685 22.5494 5.8969 32.3845 4.6707 9.0519
# 5 7.9370 -2.0897 0.6501 4.6707 22.1693 1.5222
# 6 9.1360 19.4869 7.9233 9.0519 1.5222 54.4602
#
#
#
# Elastic Compliance Matrix: (Units=1/GPa)
#
#
# Indices 1 2 3 4 5 6 
#
# 1 0.009019 -0.001885 0.000388 0.000522 -0.003467 -0.000885
# 2 -0.001885 0.031019 -0.002602 -0.019982 0.008387 -0.007317
# 3 0.000388 -0.002602 0.014029 -0.000410 -0.000634 -0.001089
# 4 0.000522 -0.019982 -0.000410 0.046572 -0.011851 -0.000287
# 5 -0.003467 0.008387 -0.000634 -0.011851 0.049775 -0.001749
# 6 -0.000885 -0.007317 -0.001089 -0.000287 -0.001749 0.021384
#
#
# Mechanical properties :
#
#
# Convention : Reuss Voigt Hill
#
# Bulk Modulus (GPa) = 21.80181 32.09346 26.94764
# Shear Modulus (GPa) = 25.60347 36.62797 31.11572
#
# Velocity S-wave (km/s) = 3.22953 3.86274 3.56024
# Velocity P-wave (km/s) = 4.77364 5.74177 5.27994
#
# Compressibility (1/GPa) = 0.04586776
#
# Stress axis : x y z
#
# Youngs Moduli (GPa) = 110.87536 32.23881 71.27893
#
# Poissons Ratio (x) = 0.06078 -0.02763
# Poissons Ratio (y) = 0.20903 0.18546
# Poissons Ratio (z) = -0.04297 0.08388
#
# Static dielectric constant tensor:
#      x y z
#    x 1.946030 0.043310 0.007080 
#    y 0.043310 1.925210 -0.003340 
#    z 0.007080 -0.003340 1.885720 
# 
# From -- ./inp_files/54461.got.cif
#   From: 2010.05.17/outbox.cif.g08.bks.cpg/sg2_28_cif.got.tgz:54461.got - 2010.06.03 11:33:40.
