data_PCOD9069078
_publ_section_title
;
Structure prediction by ZEFSAII (Michael W. Deem and Ramdas Pophale) SiO2 
 PCOD9069078
Probable space group: P -1
;
_chemical_formula_sum "Si O2"
_cell_formula_units_Z 14
_cell_length_a 14.887118
_cell_length_b 15.184794
_cell_length_c 25.008052
_cell_angle_alpha 159.169293
_cell_angle_beta 157.489690
_cell_angle_gamma 19.284286
_cell_volume 620.845473
_symmetry_space_group_name_H-M "P -1"
_symmetry_group_IT_number 2
_symmetry_cell_setting 'triclinic'
loop_
_space_group_symop_operation_xyz
x,y,z
-x,-y,-z
loop_
_atom_site_type_symbol
_atom_site_label
_atom_site_fract_x
_atom_site_fract_y
_atom_site_fract_z
Si Si1 0.062019 0.791385 0.864522
Si Si2 0.419671 0.078370 0.678291
Si Si3 0.561313 0.083760 0.173115
Si Si4 0.200771 0.759811 0.311861
Si Si5 0.134042 0.916928 0.860810
Si Si6 0.670289 0.135386 0.383993
Si Si7 0.543985 0.265053 0.676424
O O1 0.283690 0.433890 0.797706
O O2 0.164510 0.885071 0.923330
O O3 0.750759 0.867157 0.720225
O O4 0.000000 0.000000 0.000000
O O5 0.228198 0.998875 0.495527
O O6 0.426341 0.989670 0.693310
O O7 0.387139 0.438778 0.263258
O O8 0.639519 0.045013 0.256853
O O9 0.865219 0.886513 0.196863
O O10 0.346793 0.988032 0.993024
O O11 0.341417 0.713987 0.305680
O O12 0.249266 0.584803 0.712848
O O13 0.801300 0.169295 0.805153
O O14 0.500000 0.500000 0.500000
O O15 0.000000 0.000000 0.500000
O O16 0.500000 0.000000 0.500000
#
# Coordination Sequence:
#
# PCOD9069078 Si02
#       7
#     2   2   2   2   2   2   2
#     4  12  26  45  69 101 139 184 232 282 349 417
#     4  12  24  43  71 101 139 181 234 289 340 409
#     4  12  25  44  69 105 143 182 228 284 355 420
#     4  12  25  44  72 102 136 180 239 286 344 416
#     4  12  27  47  71 101 144 182 227 292 352 409
#     4  12  22  42  66 103 144 179 224 278 345 410
#     4  12  27  49  73 101 134 183 239 292 346 407
#
# _framework density 22.549893999999998
#
# number of rings (size 3 to 8) (size 9 to 14) (size 15 to 20)
#    0.000    0.000    2.857    7.714    0.000    5.714 
#    0.000    0.000    0.000    0.000    0.000    0.000 
#    0.000    0.000    0.000    0.000    0.000    0.000 
#
# Total GULP energy -78503.488393 kJ/mol
# GULP energy per Si atom -5607.392028 kJ/mol
# Density = 2.249857 g / cm^3
# Si number density = 22.549894 Si / 1000 Ang^3
#
#
#
# Elastic Constant Matrix: (Units=GPa)
#
#
# Indices 1 2 3 4 5 6 
#
# 1 110.0949 -0.1622 7.6088 12.0202 7.4190 10.3746
# 2 -0.1622 107.2460 2.0217 -0.4922 8.9726 4.5028
# 3 7.6088 2.0217 56.1358 -10.2937 10.0912 13.0233
# 4 12.0202 -0.4922 -10.2937 32.4154 -11.6616 8.4803
# 5 7.4190 8.9726 10.0912 -11.6616 32.0425 -4.1741
# 6 10.3746 4.5028 13.0233 8.4803 -4.1741 36.9072
#
#
#
# Elastic Compliance Matrix: (Units=1/GPa)
#
#
# Indices 1 2 3 4 5 6 
#
# 1 0.010187 0.000443 -0.001174 -0.005201 -0.004239 -0.001788
# 2 0.000443 0.009671 0.000486 -0.000646 -0.003422 -0.001715
# 3 -0.001174 0.000486 0.022874 0.008500 -0.005324 -0.010356
# 4 -0.005201 -0.000646 0.008500 0.042698 0.012971 -0.009803
# 5 -0.004239 -0.003422 -0.005324 0.012971 0.040204 0.005054
# 6 -0.001788 -0.001715 -0.010356 -0.009803 0.005054 0.034285
#
#
# Mechanical properties :
#
#
# Convention : Reuss Voigt Hill
#
# Bulk Modulus (GPa) = 23.67207 32.49036 28.08121
# Shear Modulus (GPa) = 28.65523 37.87359 33.26441
#
# Velocity S-wave (km/s) = 3.56862 4.10267 3.84493
# Velocity P-wave (km/s) = 5.24409 6.07306 5.67374
#
# Compressibility (1/GPa) = 0.04224388
#
# Stress axis : x y z
#
# Youngs Moduli (GPa) = 98.16685 103.39957 43.71813
#
# Poissons Ratio (x) = -0.04584 0.05131
# Poissons Ratio (y) = -0.04352 -0.02126
# Poissons Ratio (z) = 0.11520 -0.05028
#
# Static dielectric constant tensor:
#      x y z
#    x 1.833190 0.005600 -0.000870 
#    y 0.005600 1.776460 -0.022590 
#    z -0.000870 -0.022590 1.835310 
# 
# From -- ./inp_files/53486.got.cif
#   From: 2010.05.17/outbox.cif.g08.bks.cpg/sg2_27_cif.got.tgz:53486.got - 2010.06.03 11:33:40.
