data_PCOD9069048
_publ_section_title
;
Structure prediction by ZEFSAII (Michael W. Deem and Ramdas Pophale) SiO2 
 PCOD9069048
Probable space group: P -1
;
_chemical_formula_sum "Si O2"
_cell_formula_units_Z 16
_cell_length_a 8.619755
_cell_length_b 12.089534
_cell_length_c 15.093046
_cell_angle_alpha 58.968333
_cell_angle_beta 62.704247
_cell_angle_gamma 111.242265
_cell_volume 740.021198
_symmetry_space_group_name_H-M "P -1"
_symmetry_group_IT_number 2
_symmetry_cell_setting 'triclinic'
loop_
_space_group_symop_operation_xyz
x,y,z
-x,-y,-z
loop_
_atom_site_type_symbol
_atom_site_label
_atom_site_fract_x
_atom_site_fract_y
_atom_site_fract_z
Si Si1 0.768969 0.180712 0.016283
Si Si2 0.851482 0.171754 0.475214
Si Si3 0.118696 0.981991 0.622159
Si Si4 0.296904 0.133797 0.909020
Si Si5 0.211105 0.000996 0.187006
Si Si6 0.115223 0.421053 0.485664
Si Si7 0.192761 0.775345 0.812517
Si Si8 0.223102 0.620015 0.712116
O O1 0.882511 0.229982 0.066078
O O2 0.651047 0.980886 0.091331
O O3 0.514908 0.133233 0.089534
O O4 0.045861 0.400910 0.807788
O O5 0.823567 0.285205 0.378043
O O6 0.992168 0.291741 0.479888
O O7 0.987406 0.138256 0.393796
O O8 0.526911 0.943986 0.665934
O O9 0.445963 0.216696 0.432031
O O10 0.930583 0.981648 0.715158
O O11 0.134728 0.867787 0.730350
O O12 0.550255 0.368548 0.707321
O O13 0.263942 0.100635 0.037392
O O14 0.000000 0.000000 0.000000
O O15 0.005890 0.754379 0.339662
O O16 0.000000 0.500000 0.500000
O O17 0.099044 0.601211 0.846668
#
# Coordination Sequence:
#
# PCOD9069048 Si02
#       8
#     2   2   2   2   2   2   2   2
#     4  12  22  41  63  96 132 169 217 276 323 393
#     4   9  18  40  66  94 130 172 216 266 325 391
#     4   9  21  41  65  96 132 171 217 267 323 394
#     4  12  29  48  64  97 134 171 228 280 321 392
#     4  12  26  44  69  99 132 175 222 270 335 392
#     4  12  25  45  71  98 133 179 217 272 336 388
#     4   9  17  39  63  95 130 169 213 265 326 386
#     4   9  20  35  68  94 127 174 215 262 326 390
#
# _framework density 21.621002000000001
#
# number of rings (size 3 to 8) (size 9 to 14) (size 15 to 20)
#    0.000    1.500    2.500    3.750    3.500    2.000 
#    0.000    6.875    0.000    0.000    0.000    0.000 
#    0.000    0.000    0.000    0.000    0.000    0.000 
#
# Total GULP energy -89256.543167 kJ/mol
# GULP energy per Si atom -5578.533948 kJ/mol
# Density = 2.157179 g / cm^3
# Si number density = 21.621002 Si / 1000 Ang^3
#
#
#
# Elastic Constant Matrix: (Units=GPa)
#
#
# Indices 1 2 3 4 5 6 
#
# 1 61.4752 16.6449 3.7980 12.1203 -17.2933 7.6844
# 2 16.6449 88.1630 10.8513 -4.6518 -7.2471 -3.9551
# 3 3.7980 10.8513 64.5100 -10.0087 -5.3563 8.6406
# 4 12.1203 -4.6518 -10.0087 35.9558 5.1908 -4.5874
# 5 -17.2933 -7.2471 -5.3563 5.1908 25.7823 9.0817
# 6 7.6844 -3.9551 8.6406 -4.5874 9.0817 25.6995
#
#
#
# Elastic Compliance Matrix: (Units=1/GPa)
#
#
# Indices 1 2 3 4 5 6 
#
# 1 0.036995 -0.006689 0.002856 -0.022055 0.038778 -0.030692
# 2 -0.006689 0.013097 -0.002454 0.004931 -0.004938 0.007466
# 3 0.002856 -0.002454 0.017955 0.001265 0.008203 -0.009941
# 4 -0.022055 0.004931 0.001265 0.044011 -0.031082 0.025768
# 5 0.038778 -0.004938 0.008203 -0.031082 0.089830 -0.052405
# 6 -0.030692 0.007466 -0.009941 0.025768 -0.052405 0.075698
#
#
# Mechanical properties :
#
#
# Convention : Reuss Voigt Hill
#
# Bulk Modulus (GPa) = 18.02701 30.74851 24.38776
# Shear Modulus (GPa) = 16.19952 29.67777 22.93864
#
# Velocity S-wave (km/s) = 2.74021 3.70893 3.26075
# Velocity P-wave (km/s) = 4.28573 5.70912 5.04785
#
# Compressibility (1/GPa) = 0.05547233
#
# Stress axis : x y z
#
# Youngs Moduli (GPa) = 27.03098 76.35470 55.69447
#
# Poissons Ratio (x) = 0.51073 -0.15906
# Poissons Ratio (y) = 0.18081 0.13668
# Poissons Ratio (z) = -0.07720 0.18738
#
# Static dielectric constant tensor:
#      x y z
#    x 1.769270 -0.020140 0.040850 
#    y -0.020140 1.820820 0.042930 
#    z 0.040850 0.042930 1.864020 
# 
# From -- ./inp_files/189384.got.cif
#   From: 2010.05.17/outbox.cif.g08.bks.cpg/sg2_95_cif.got.tgz:189384.got - 2010.06.03 11:33:40.
