data_PCOD9069506
_publ_section_title
;
Structure prediction by ZEFSAII (Michael W. Deem and Ramdas Pophale) SiO2 
 PCOD9069506
Probable space group: P -1
;
_chemical_formula_sum "Si O2"
_cell_formula_units_Z 15
_cell_length_a 14.913752
_cell_length_b 11.554487
_cell_length_c 20.706119
_cell_angle_alpha 148.314790
_cell_angle_beta 19.807699
_cell_angle_gamma 148.645095
_cell_volume 605.871042
_symmetry_space_group_name_H-M "P -1"
_symmetry_group_IT_number 2
_symmetry_cell_setting 'triclinic'
loop_
_space_group_symop_operation_xyz
x,y,z
-x,-y,-z
loop_
_atom_site_type_symbol
_atom_site_label
_atom_site_fract_x
_atom_site_fract_y
_atom_site_fract_z
Si Si1 0.517833 0.817377 0.847727
Si Si2 0.311192 0.079022 0.432993
Si Si3 0.954385 0.228286 0.105896
Si Si4 0.969316 0.876875 0.221452
Si Si5 0.388914 0.330494 0.747651
Si Si6 0.000000 0.000000 0.500000
Si Si7 0.784158 0.445389 0.800024
Si Si8 0.928224 0.310968 0.403660
O O1 0.551338 0.599800 0.760380
O O2 0.751968 0.921601 0.686536
O O3 0.206624 0.754023 0.000160
O O4 0.500000 0.000000 0.000000
O O5 0.629894 0.170726 0.281063
O O6 0.132287 0.067385 0.613203
O O7 0.195266 0.204748 0.515411
O O8 0.246835 0.829220 0.317478
O O9 0.096445 0.438411 0.158323
O O10 0.124818 0.279815 0.948407
O O11 0.000000 0.000000 0.000000
O O12 0.705186 0.740049 0.294321
O O13 0.078787 0.120496 0.225502
O O14 0.596809 0.205718 0.578306
O O15 0.989961 0.578256 0.668364
O O16 0.500000 0.500000 0.000000
O O17 0.000000 0.500000 0.500000
#
# Coordination Sequence:
#
# PCOD9069506 Si02
#       8
#     2   2   2   2   2   1   2   2
#     4  12  27  52  76 109 152 208 266 318 393 470
#     4  12  26  48  73 116 151 207 261 324 396 471
#     4  12  25  47  77 117 159 202 262 329 394 473
#     4  12  25  48  76 109 157 198 264 331 388 473
#     4  12  27  49  74 112 155 205 258 323 400 469
#     4  12  28  50  80 106 156 204 270 320 388 474
#     4  12  25  43  74 109 154 200 260 316 400 470
#     4  12  23  44  72 108 149 198 252 317 397 460
#
# _framework density 24.757743000000001
#
# number of rings (size 3 to 8) (size 9 to 14) (size 15 to 20)
#    0.000    0.000    4.000    6.400    3.733    0.000 
#    0.000    2.000    0.000    0.000    0.000    0.000 
#    0.000    0.000    0.000    0.000    0.000    0.000 
#
# Total GULP energy -83787.728656 kJ/mol
# GULP energy per Si atom -5585.848577 kJ/mol
# Density = 2.470139 g / cm^3
# Si number density = 24.757743 Si / 1000 Ang^3
#
#
#
# Elastic Constant Matrix: (Units=GPa)
#
#
# Indices 1 2 3 4 5 6 
#
# 1 136.9842 36.3491 36.4041 -5.7789 11.0493 31.7620
# 2 36.3491 79.8873 47.0852 2.8007 11.5627 11.5607
# 3 36.4041 47.0852 137.9902 -22.6697 -9.7487 0.9050
# 4 -5.7789 2.8007 -22.6697 52.0708 2.4639 2.1158
# 5 11.0493 11.5627 -9.7487 2.4639 55.1191 -13.5798
# 6 31.7620 11.5607 0.9050 2.1158 -13.5798 58.6585
#
#
#
# Elastic Compliance Matrix: (Units=1/GPa)
#
#
# Indices 1 2 3 4 5 6 
#
# 1 0.010040 -0.002068 -0.002023 0.000742 -0.003402 -0.005812
# 2 -0.002068 0.019019 -0.006946 -0.003866 -0.005533 -0.003663
# 3 -0.002023 -0.006946 0.011213 0.004694 0.004410 0.003143
# 4 0.000742 -0.003866 0.004694 0.021534 0.000434 -0.000388
# 5 -0.003402 -0.005533 0.004410 0.000434 0.022745 0.008114
# 6 -0.005812 -0.003663 0.003143 -0.000388 0.008114 0.022761
#
#
# Mechanical properties :
#
#
# Convention : Reuss Voigt Hill
#
# Bulk Modulus (GPa) = 54.95509 66.05982 60.50745
# Shear Modulus (GPa) = 36.91334 48.83792 42.87563
#
# Velocity S-wave (km/s) = 3.86551 4.44625 4.16601
# Velocity P-wave (km/s) = 6.49371 7.28692 6.90172
#
# Compressibility (1/GPa) = 0.01819668
#
# Stress axis : x y z
#
# Youngs Moduli (GPa) = 99.60335 52.57846 89.18203
#
# Poissons Ratio (x) = 0.10875 0.18044
# Poissons Ratio (y) = 0.20601 0.61947
# Poissons Ratio (z) = 0.20152 0.36522
#
# Static dielectric constant tensor:
#      x y z
#    x 1.537870 0.186410 0.360480 
#    y 0.186410 1.934000 -0.083310 
#    z 0.360480 -0.083310 1.502250 
# 
# From -- ./inp_files/598017.got.cif
#   From: 2010.05.17/outbox.cif.g08.bks.cpg/sg2_300_cif.got.tgz:598017.got - 2010.06.03 11:33:40.
