data_PCOD9069185
_publ_section_title
;
Structure prediction by ZEFSAII (Michael W. Deem and Ramdas Pophale) SiO2 
 PCOD9069185
Probable space group: P -1
;
_chemical_formula_sum "Si O2"
_cell_formula_units_Z 10
_cell_length_a 11.261723
_cell_length_b 5.407149
_cell_length_c 11.407182
_cell_angle_alpha 106.710798
_cell_angle_beta 138.712326
_cell_angle_gamma 95.919188
_cell_volume 378.881496
_symmetry_space_group_name_H-M "P -1"
_symmetry_group_IT_number 2
_symmetry_cell_setting 'triclinic'
loop_
_space_group_symop_operation_xyz
x,y,z
-x,-y,-z
loop_
_atom_site_type_symbol
_atom_site_label
_atom_site_fract_x
_atom_site_fract_y
_atom_site_fract_z
Si Si1 0.503026 0.800304 0.082211
Si Si2 0.115700 0.834632 0.874769
Si Si3 0.799373 0.857983 0.504651
Si Si4 0.182385 0.661296 0.246297
Si Si5 0.568467 0.540203 0.692030
O O1 0.708446 0.951061 0.339448
O O2 0.500000 0.500000 0.000000
O O3 0.282916 0.723625 0.969858
O O4 0.500000 0.000000 0.000000
O O5 0.022501 0.879042 0.687798
O O6 0.905873 0.591161 0.751521
O O7 0.238315 0.140097 0.083156
O O8 0.605755 0.532557 0.350458
O O9 0.803212 0.057621 0.643295
O O10 0.364656 0.709779 0.299602
O O11 0.000000 0.500000 0.000000
O O12 0.500000 0.500000 0.500000
#
# Coordination Sequence:
#
# PCOD9069185 Si02
#       5
#     2   2   2   2   2
#     4  12  31  55  80 110 151 207 276 344 396 443
#     4  12  27  48  77 112 155 201 267 315 387 476
#     4  12  27  48  79 112 158 206 258 319 387 474
#     4  12  23  42  74 115 159 199 244 304 387 480
#     4  12  22  44  74 115 164 201 242 303 387 478
#
# _framework density 26.39348
#
# number of rings (size 3 to 8) (size 9 to 14) (size 15 to 20)
#    0.000    0.000    4.000    6.000    5.600    1.600 
#    0.000    0.000    0.000    0.000    0.000    0.000 
#    0.000    0.000    0.000    0.000    0.000    0.000 
#
# Total GULP energy -55777.381199 kJ/mol
# GULP energy per Si atom -5577.738120 kJ/mol
# Density = 2.633341 g / cm^3
# Si number density = 26.393480 Si / 1000 Ang^3
#
#
#
# Elastic Constant Matrix: (Units=GPa)
#
#
# Indices 1 2 3 4 5 6 
#
# 1 95.2505 38.6733 29.8558 -13.3419 -0.6231 -13.2425
# 2 38.6733 116.9132 47.1068 -18.0390 -6.9608 -19.0937
# 3 29.8558 47.1068 139.3705 -46.3290 -3.6678 -17.5401
# 4 -13.3419 -18.0390 -46.3290 66.3930 6.5982 -4.9400
# 5 -0.6231 -6.9608 -3.6678 6.5982 33.5041 -1.9563
# 6 -13.2425 -19.0937 -17.5401 -4.9400 -1.9563 62.7354
#
#
#
# Elastic Compliance Matrix: (Units=1/GPa)
#
#
# Indices 1 2 3 4 5 6 
#
# 1 0.012532 -0.003381 -0.001037 0.001050 -0.000709 0.001387
# 2 -0.003381 0.011258 -0.002589 0.000529 0.002011 0.002093
# 3 -0.001037 -0.002589 0.010884 0.006931 -0.000581 0.002564
# 4 0.001050 0.000529 0.006931 0.020838 -0.002990 0.003868
# 5 -0.000709 0.002011 -0.000581 -0.002990 0.030837 0.001026
# 6 0.001387 0.002093 0.002564 0.003868 0.001026 0.017923
#
#
# Mechanical properties :
#
#
# Convention : Reuss Voigt Hill
#
# Bulk Modulus (GPa) = 48.40314 64.75624 56.57969
# Shear Modulus (GPa) = 39.94508 48.25304 44.09906
#
# Velocity S-wave (km/s) = 3.89452 4.28041 4.09202
# Velocity P-wave (km/s) = 6.21305 7.00124 6.61889
#
# Compressibility (1/GPa) = 0.02065982
#
# Stress axis : x y z
#
# Youngs Moduli (GPa) = 79.79767 88.82530 91.88043
#
# Poissons Ratio (x) = 0.30034 0.09527
# Poissons Ratio (y) = 0.26982 0.23785
# Poissons Ratio (z) = 0.08274 0.22994
#
# Static dielectric constant tensor:
#      x y z
#    x 1.549500 -0.181000 0.074670 
#    y -0.181000 2.227060 -0.244300 
#    z 0.074670 -0.244300 2.269730 
# 
# From -- ./inp_files/22055.got.cif
#   From: 2010.05.17/outbox.cif.g08.bks.cpg/sg2_12_cif.got.tgz:22055.got - 2010.06.03 11:33:40.
