data_PCOD9069155
_publ_section_title
;
Structure prediction by ZEFSAII (Michael W. Deem and Ramdas Pophale) SiO2 
 PCOD9069155
Probable space group: P -1
;
_chemical_formula_sum "Si O2"
_cell_formula_units_Z 16
_cell_length_a 10.978990
_cell_length_b 25.394516
_cell_length_c 9.635738
_cell_angle_alpha 27.274517
_cell_angle_beta 40.890969
_cell_angle_gamma 34.756612
_cell_volume 698.431509
_symmetry_space_group_name_H-M "P -1"
_symmetry_group_IT_number 2
_symmetry_cell_setting 'triclinic'
loop_
_space_group_symop_operation_xyz
x,y,z
-x,-y,-z
loop_
_atom_site_type_symbol
_atom_site_label
_atom_site_fract_x
_atom_site_fract_y
_atom_site_fract_z
Si Si1 0.961452 0.060427 0.238290
Si Si2 0.724351 0.946876 0.214974
Si Si3 0.325635 0.450541 0.588374
Si Si4 0.839444 0.629025 0.574418
Si Si5 0.351876 0.554676 0.863549
Si Si6 0.465861 0.242181 0.202872
Si Si7 0.329756 0.235582 0.885298
Si Si8 0.982979 0.845648 0.506185
O O1 0.717754 0.178508 0.162961
O O2 0.983680 0.950316 0.366469
O O3 0.000000 0.000000 0.500000
O O4 0.140608 0.094147 0.948963
O O5 0.587224 0.872681 0.529053
O O6 0.892751 0.904724 0.294448
O O7 0.561007 0.103713 0.989656
O O8 0.497461 0.491257 0.294721
O O9 0.325957 0.359349 0.674329
O O10 0.088069 0.573238 0.523975
O O11 0.394251 0.355441 0.884079
O O12 0.679505 0.699915 0.672090
O O13 0.763782 0.720996 0.289444
O O14 0.808827 0.503050 0.863193
O O15 0.211812 0.713060 0.611226
O O16 0.500000 0.500000 0.000000
O O17 0.178999 0.197861 0.189910
#
# Coordination Sequence:
#
# PCOD9069155 Si02
#       8
#     2   2   2   2   2   2   2   2
#     4  12  28  44  68 106 142 179 226 281 345 410
#     4  12  25  47  72 101 140 182 226 286 338 407
#     4  12  24  46  72  99 133 181 232 283 337 405
#     4  12  27  44  67 104 138 179 231 282 339 404
#     4  12  25  43  72  99 135 179 230 284 334 398
#     4  12  27  46  70 102 141 183 226 280 350 405
#     4  12  22  43  74  99 134 178 232 280 337 403
#     4  12  24  46  74 101 136 182 232 281 341 404
#
# _framework density 22.908473999999998
#
# number of rings (size 3 to 8) (size 9 to 14) (size 15 to 20)
#    0.000    0.000    5.000    5.250    3.500    2.500 
#    0.000    0.000    0.000    0.000    0.000    0.000 
#    0.000    0.000    0.000    0.000    0.000    0.000 
#
# Total GULP energy -89699.011327 kJ/mol
# GULP energy per Si atom -5606.188208 kJ/mol
# Density = 2.285633 g / cm^3
# Si number density = 22.908474 Si / 1000 Ang^3
#
#
#
# Elastic Constant Matrix: (Units=GPa)
#
#
# Indices 1 2 3 4 5 6 
#
# 1 56.0673 44.9932 47.8524 -4.7752 46.9318 -16.1998
# 2 44.9932 214.9438 80.1268 -6.3373 76.5709 -41.2623
# 3 47.8524 80.1268 167.7356 13.4403 75.0688 -24.6377
# 4 -4.7752 -6.3373 13.4403 51.1949 -10.1296 1.2100
# 5 46.9318 76.5709 75.0688 -10.1296 105.1297 -10.3901
# 6 -16.1998 -41.2623 -24.6377 1.2100 -10.3901 42.8637
#
#
#
# Elastic Compliance Matrix: (Units=1/GPa)
#
#
# Indices 1 2 3 4 5 6 
#
# 1 0.032289 -0.000103 -0.003157 0.001433 -0.011202 0.007534
# 2 -0.000103 0.007648 -0.000851 0.000167 -0.004330 0.005780
# 3 -0.003157 -0.000851 0.010562 -0.004358 -0.005655 0.002811
# 4 0.001433 0.000167 -0.004358 0.021716 0.004307 -0.001371
# 5 -0.011202 -0.004330 -0.005655 0.004307 0.021470 -0.006569
# 6 0.007534 0.005780 0.002811 -0.001371 -0.006569 0.031803
#
#
# Mechanical properties :
#
#
# Convention : Reuss Voigt Hill
#
# Bulk Modulus (GPa) = 23.65365 87.18792 55.42079
# Shear Modulus (GPa) = 33.82929 57.55596 45.69263
#
# Velocity S-wave (km/s) = 3.84697 5.01785 4.47091
# Velocity P-wave (km/s) = 5.48452 8.46839 7.13420
#
# Compressibility (1/GPa) = 0.04227677
#
# Stress axis : x y z
#
# Youngs Moduli (GPa) = 30.97074 130.75430 94.68268
#
# Poissons Ratio (x) = 0.01344 0.29892
# Poissons Ratio (y) = 0.00318 0.08056
# Poissons Ratio (z) = 0.09778 0.11125
#
# Static dielectric constant tensor:
#      x y z
#    x 1.865070 0.011080 -0.065810 
#    y 0.011080 1.832450 0.006680 
#    z -0.065810 0.006680 1.856460 
# 
# From -- ./inp_files/272485.got.cif
#   From: 2010.05.17/outbox.cif.g08.bks.cpg/sg2_137_cif.got.tgz:272485.got - 2010.06.03 11:33:40.
