data_PCOD9069347
_publ_section_title
;
Structure prediction by ZEFSAII (Michael W. Deem and Ramdas Pophale) SiO2 
 PCOD9069347
Probable space group: P -1
;
_chemical_formula_sum "Si O2"
_cell_formula_units_Z 12
_cell_length_a 9.247587
_cell_length_b 8.778204
_cell_length_c 14.625895
_cell_angle_alpha 58.567323
_cell_angle_beta 121.603676
_cell_angle_gamma 149.649338
_cell_volume 504.289718
_symmetry_space_group_name_H-M "P -1"
_symmetry_group_IT_number 2
_symmetry_cell_setting 'triclinic'
loop_
_space_group_symop_operation_xyz
x,y,z
-x,-y,-z
loop_
_atom_site_type_symbol
_atom_site_label
_atom_site_fract_x
_atom_site_fract_y
_atom_site_fract_z
Si Si1 0.716577 0.161320 0.935032
Si Si2 0.125916 0.915155 0.545520
Si Si3 0.160703 0.664984 0.792384
Si Si4 0.739913 0.582937 0.217170
Si Si5 0.880466 0.824644 0.918040
Si Si6 0.369725 0.689929 0.541091
O O1 0.906659 0.469476 0.845109
O O2 0.477668 0.893760 0.866901
O O3 0.975628 0.246315 0.018504
O O4 0.500000 0.000000 0.000000
O O5 0.185422 0.857058 0.676065
O O6 0.934008 0.613343 0.514782
O O7 0.407090 0.200852 0.490771
O O8 0.000000 0.000000 0.500000
O O9 0.109018 0.445012 0.782869
O O10 0.645164 0.417774 0.332567
O O11 0.462616 0.440326 0.121524
O O12 0.979021 0.940071 0.190304
O O13 0.000000 0.000000 0.000000
O O14 0.500000 0.000000 0.500000
#
# Coordination Sequence:
#
# PCOD9069347 Si02
#       6
#     2   2   2   2   2   2
#     4  12  27  44  68 102 142 186 237 295 358 438
#     4  12  28  48  74 108 151 191 237 302 369 437
#     4  12  24  45  73  99 142 192 235 293 372 423
#     4  12  24  41  74 106 137 187 240 300 353 422
#     4  12  23  42  68 100 138 181 240 291 353 421
#     4  12  26  46  75 110 142 188 251 298 352 433
#
# _framework density 23.795845
#
# number of rings (size 3 to 8) (size 9 to 14) (size 15 to 20)
#    0.000    0.000    5.000    5.000    2.333    4.000 
#    0.000    0.000    0.000    0.000    0.000    0.000 
#    0.000    0.000    0.000    0.000    0.000    0.000 
#
# Total GULP energy -67078.782084 kJ/mol
# GULP energy per Si atom -5589.898507 kJ/mol
# Density = 2.374168 g / cm^3
# Si number density = 23.795845 Si / 1000 Ang^3
#
#
#
# Elastic Constant Matrix: (Units=GPa)
#
#
# Indices 1 2 3 4 5 6 
#
# 1 99.0009 5.8741 51.9980 -12.0020 -2.7602 31.5250
# 2 5.8741 94.8557 21.8260 -9.3805 -12.0732 25.5466
# 3 51.9980 21.8260 136.2688 -27.4404 -10.0415 5.0970
# 4 -12.0020 -9.3805 -27.4404 34.3647 10.1838 -3.0833
# 5 -2.7602 -12.0732 -10.0415 10.1838 37.6613 -10.9310
# 6 31.5250 25.5466 5.0970 -3.0833 -10.9310 42.8537
#
#
#
# Elastic Compliance Matrix: (Units=1/GPa)
#
#
# Indices 1 2 3 4 5 6 
#
# 1 0.019289 0.004746 -0.007430 0.001906 -0.004541 -0.017157
# 2 0.004746 0.014295 -0.003285 0.001840 0.000240 -0.011429
# 3 -0.007430 -0.003285 0.011784 0.005964 0.001948 0.006948
# 4 0.001906 0.001840 0.005964 0.037324 -0.008558 -0.002706
# 5 -0.004541 0.000240 0.001948 -0.008558 0.032196 0.010562
# 6 -0.017157 -0.011429 0.006948 -0.002706 0.010562 0.044443
#
#
# Mechanical properties :
#
#
# Convention : Reuss Voigt Hill
#
# Bulk Modulus (GPa) = 29.91175 54.39128 42.15151
# Shear Modulus (GPa) = 27.41051 39.67110 33.54080
#
# Velocity S-wave (km/s) = 3.39765 4.08750 3.75844
# Velocity P-wave (km/s) = 5.29051 6.72190 6.04870
#
# Compressibility (1/GPa) = 0.03343168
#
# Stress axis : x y z
#
# Youngs Moduli (GPa) = 51.84188 69.95545 84.85792
#
# Poissons Ratio (x) = -0.33203 0.63048
# Poissons Ratio (y) = -0.24606 0.27876
# Poissons Ratio (z) = 0.38517 0.22980
#
# Static dielectric constant tensor:
#      x y z
#    x 1.947400 -0.053870 0.011110 
#    y -0.053870 1.879940 0.014640 
#    z 0.011110 0.014640 1.913610 
# 
# From -- ./inp_files/195454.got.cif
#   From: 2010.05.17/outbox.cif.g08.bks.cpg/sg2_98_cif.got.tgz:195454.got - 2010.06.03 11:33:40.
