data_PCOD9069339
_publ_section_title
;
Structure prediction by ZEFSAII (Michael W. Deem and Ramdas Pophale) SiO2 
 PCOD9069339
Probable space group: P -1
;
_chemical_formula_sum "Si O2"
_cell_formula_units_Z 14
_cell_length_a 24.665873
_cell_length_b 5.184016
_cell_length_c 11.406595
_cell_angle_alpha 102.469573
_cell_angle_beta 29.028669
_cell_angle_gamma 90.377864
_cell_volume 637.917531
_symmetry_space_group_name_H-M "P -1"
_symmetry_group_IT_number 2
_symmetry_cell_setting 'triclinic'
loop_
_space_group_symop_operation_xyz
x,y,z
-x,-y,-z
loop_
_atom_site_type_symbol
_atom_site_label
_atom_site_fract_x
_atom_site_fract_y
_atom_site_fract_z
Si Si1 0.941917 0.331220 0.674748
Si Si2 0.375166 0.626638 0.323418
Si Si3 0.898172 0.761340 0.431584
Si Si4 0.878293 0.205531 0.316336
Si Si5 0.572416 0.853314 0.632652
Si Si6 0.341968 0.456077 0.806217
Si Si7 0.653010 0.971425 0.050837
O O1 0.000000 0.500000 0.500000
O O2 0.975948 0.354721 0.747626
O O3 0.801352 0.443472 0.926972
O O4 0.000000 0.000000 0.500000
O O5 0.249956 0.736261 0.498368
O O6 0.378970 0.375907 0.379329
O O7 0.382530 0.891949 0.408257
O O8 0.500000 0.500000 0.000000
O O9 0.887809 0.510249 0.348106
O O10 0.879913 0.043325 0.419616
O O11 0.792236 0.840470 0.736254
O O12 0.000000 0.000000 0.000000
O O13 0.607323 0.703613 0.426064
O O14 0.426376 0.977097 0.912132
O O15 0.369744 0.735379 0.808211
O O16 0.378769 0.244415 0.826771
#
# Coordination Sequence:
#
# PCOD9069339 Si02
#       7
#     2   2   2   2   2   2   2
#     4  12  23  42  65 102 135 175 214 261 323 409
#     4  12  26  49  69  97 130 177 234 275 327 392
#     4  12  24  44  70  94 135 178 216 267 337 390
#     4  12  28  45  69  99 132 173 229 286 327 382
#     4  12  26  43  72  96 133 174 216 281 334 380
#     4  12  24  41  66 102 139 168 215 267 333 402
#     4  12  23  44  67 101 133 175 217 263 330 415
#
# _framework density 21.946408999999999
#
# number of rings (size 3 to 8) (size 9 to 14) (size 15 to 20)
#    0.000    0.000    2.857    7.714    4.000    0.000 
#    0.000    0.000    0.000    0.000    0.000    0.000 
#    0.000    0.000    0.000    0.000    0.000    0.000 
#
# Total GULP energy -78425.387910 kJ/mol
# GULP energy per Si atom -5601.813422 kJ/mol
# Density = 2.189646 g / cm^3
# Si number density = 21.946409 Si / 1000 Ang^3
#
#
#
# Elastic Constant Matrix: (Units=GPa)
#
#
# Indices 1 2 3 4 5 6 
#
# 1 127.0446 7.2319 5.4123 10.5515 -35.6628 -3.0254
# 2 7.2319 81.3072 -0.6414 8.6903 -10.5862 -7.5829
# 3 5.4123 -0.6414 80.9312 10.8922 -5.4081 -0.5682
# 4 10.5515 8.6903 10.8922 29.0088 -0.0036 10.5353
# 5 -35.6628 -10.5862 -5.4081 -0.0036 39.7422 3.2103
# 6 -3.0254 -7.5829 -0.5682 10.5353 3.2103 55.5145
#
#
#
# Elastic Compliance Matrix: (Units=1/GPa)
#
#
# Indices 1 2 3 4 5 6 
#
# 1 0.011093 0.000980 0.000623 -0.004959 0.010212 0.001095
# 2 0.000980 0.013694 0.001156 -0.005909 0.004458 0.002799
# 3 0.000623 0.001156 0.013320 -0.006057 0.002572 0.001329
# 4 -0.004959 -0.005909 -0.006057 0.043611 -0.006112 -0.009062
# 5 0.010212 0.004458 0.002572 -0.006112 0.035840 0.000279
# 6 0.001095 0.002799 0.001329 -0.009062 0.000279 0.020173
#
#
# Mechanical properties :
#
#
# Convention : Reuss Voigt Hill
#
# Bulk Modulus (GPa) = 22.92229 34.80985 28.86607
# Shear Modulus (GPa) = 34.07056 43.33845 38.70451
#
# Velocity S-wave (km/s) = 3.94438 4.44863 4.20407
# Velocity P-wave (km/s) = 5.58673 6.50252 6.06194
#
# Compressibility (1/GPa) = 0.04362566
#
# Stress axis : x y z
#
# Youngs Moduli (GPa) = 90.14374 73.02468 75.07521
#
# Poissons Ratio (x) = -0.07156 -0.04680
# Poissons Ratio (y) = -0.08834 -0.08677
# Poissons Ratio (z) = -0.05619 -0.08440
#
# Static dielectric constant tensor:
#      x y z
#    x 1.811670 -0.020930 -0.020420 
#    y -0.020930 1.751560 0.012450 
#    z -0.020420 0.012450 1.846290 
# 
# From -- ./inp_files/340447.got.cif
#   From: 2010.05.17/outbox.cif.g08.bks.cpg/sg2_171_cif.got.tgz:340447.got - 2010.06.03 11:33:40.
