data_PCOD9069053
_publ_section_title
;
Structure prediction by ZEFSAII (Michael W. Deem and Ramdas Pophale) SiO2 
 PCOD9069053
Probable space group: P -1
;
_chemical_formula_sum "Si O2"
_cell_formula_units_Z 14
_cell_length_a 7.886446
_cell_length_b 23.484968
_cell_length_c 8.021181
_cell_angle_alpha 135.292076
_cell_angle_beta 142.566311
_cell_angle_gamma 53.699720
_cell_volume 633.941223
_symmetry_space_group_name_H-M "P -1"
_symmetry_group_IT_number 2
_symmetry_cell_setting 'triclinic'
loop_
_space_group_symop_operation_xyz
x,y,z
-x,-y,-z
loop_
_atom_site_type_symbol
_atom_site_label
_atom_site_fract_x
_atom_site_fract_y
_atom_site_fract_z
Si Si1 0.670306 0.729995 0.784374
Si Si2 0.018996 0.589612 0.274482
Si Si3 0.670949 0.148583 0.758394
Si Si4 0.533555 0.689166 0.944725
Si Si5 0.751623 0.556241 0.342942
Si Si6 0.063788 0.093566 0.252817
Si Si7 0.186315 0.828250 0.436521
O O1 0.542884 0.740075 0.889175
O O2 0.663170 0.634870 0.544818
O O3 0.484984 0.786974 0.636192
O O4 0.981700 0.757632 0.087313
O O5 0.327383 0.617406 0.608185
O O6 0.856061 0.590341 0.321978
O O7 0.000000 0.500000 0.000000
O O8 0.844175 0.653087 0.152662
O O9 0.778644 0.121653 0.602515
O O10 0.391602 0.106664 0.509755
O O11 0.585004 0.245255 0.878620
O O12 0.902612 0.135675 0.056368
O O13 0.000000 0.500000 0.500000
O O14 0.500000 0.500000 0.000000
O O15 0.950123 0.127202 0.413623
O O16 0.000000 0.000000 0.000000
#
# Coordination Sequence:
#
# PCOD9069053 Si02
#       7
#     2   2   2   2   2   2   2
#     4  12  23  42  68  96 133 180 225 285 341 398
#     4  12  24  39  59  92 126 171 223 274 339 393
#     4  12  25  45  72 103 136 182 232 276 346 411
#     4  12  22  41  65  91 128 172 221 280 328 396
#     4  12  24  41  59  90 130 174 226 281 343 400
#     4  12  26  47  71 105 143 177 225 288 345 414
#     4  12  24  45  70 103 137 178 232 278 339 412
#
# _framework density 22.084069
#
# number of rings (size 3 to 8) (size 9 to 14) (size 15 to 20)
#    0.000    0.000    2.857    8.571    0.000    1.143 
#    0.000    0.000    0.000    0.000    0.000    0.000 
#    0.000    0.000    0.000    0.000    0.000    0.000 
#
# Total GULP energy -78377.536790 kJ/mol
# GULP energy per Si atom -5598.395485 kJ/mol
# Density = 2.203380 g / cm^3
# Si number density = 22.084069 Si / 1000 Ang^3
#
#
#
# Elastic Constant Matrix: (Units=GPa)
#
#
# Indices 1 2 3 4 5 6 
#
# 1 123.5973 -1.2279 21.0270 -3.8986 -17.3795 16.2468
# 2 -1.2279 32.2182 3.9617 6.6894 -10.7242 -2.1750
# 3 21.0270 3.9617 104.8692 8.1819 4.1439 -4.3933
# 4 -3.8986 6.6894 8.1819 40.9991 3.2860 -2.7475
# 5 -17.3795 -10.7242 4.1439 3.2860 29.7118 -3.2115
# 6 16.2468 -2.1750 -4.3933 -2.7475 -3.2115 20.0783
#
#
#
# Elastic Compliance Matrix: (Units=1/GPa)
#
#
# Indices 1 2 3 4 5 6 
#
# 1 0.010545 0.002375 -0.002801 0.000124 0.006557 -0.007822
# 2 0.002375 0.038581 -0.001915 -0.006787 0.016720 0.003584
# 3 -0.002801 -0.001915 0.010572 -0.001560 -0.003238 0.003641
# 4 0.000124 -0.006787 -0.001560 0.026323 -0.004893 0.001642
# 5 0.006557 0.016720 -0.003238 -0.004893 0.044767 0.002288
# 6 -0.007822 0.003584 0.003641 0.001642 0.002288 0.057910
#
#
# Mechanical properties :
#
#
# Convention : Reuss Voigt Hill
#
# Bulk Modulus (GPa) = 18.17637 34.24514 26.21075
# Shear Modulus (GPa) = 23.61639 33.95278 28.78458
#
# Velocity S-wave (km/s) = 3.27369 3.92527 3.61419
# Velocity P-wave (km/s) = 4.74740 6.00699 5.41396
#
# Compressibility (1/GPa) = 0.05501649
#
# Stress axis : x y z
#
# Youngs Moduli (GPa) = 94.83200 25.91970 94.59193
#
# Poissons Ratio (x) = -0.06155 0.26491
# Poissons Ratio (y) = -0.22521 0.18111
# Poissons Ratio (z) = 0.26558 0.04963
#
# Static dielectric constant tensor:
#      x y z
#    x 1.777640 0.118500 -0.006730 
#    y 0.118500 0.898300 0.363620 
#    z -0.006730 0.363620 1.482090 
# 
# From -- ./inp_files/125325.got.cif
#   From: 2010.05.17/outbox.cif.g08.bks.cpg/sg2_63_cif.got.tgz:125325.got - 2010.06.03 11:33:40.
