data_PCOD9069193
_publ_section_title
;
Structure prediction by ZEFSAII (Michael W. Deem and Ramdas Pophale) SiO2 
 PCOD9069193
Probable space group: P -1
;
_chemical_formula_sum "Si O2"
_cell_formula_units_Z 12
_cell_length_a 9.392501
_cell_length_b 11.659746
_cell_length_c 9.502561
_cell_angle_alpha 43.592686
_cell_angle_beta 68.547373
_cell_angle_gamma 54.350695
_cell_volume 580.134699
_symmetry_space_group_name_H-M "P -1"
_symmetry_group_IT_number 2
_symmetry_cell_setting 'triclinic'
loop_
_space_group_symop_operation_xyz
x,y,z
-x,-y,-z
loop_
_atom_site_type_symbol
_atom_site_label
_atom_site_fract_x
_atom_site_fract_y
_atom_site_fract_z
Si Si1 0.450827 0.385600 0.502993
Si Si2 0.801306 0.551427 0.019322
Si Si3 0.162503 0.825192 0.513564
Si Si4 0.688763 0.816876 0.078593
Si Si5 0.321454 0.551711 0.098014
Si Si6 0.017922 0.055148 0.101290
O O1 0.500000 0.500000 0.500000
O O2 0.639859 0.204540 0.546116
O O3 0.319207 0.327948 0.676638
O O4 0.361451 0.503822 0.289509
O O5 0.797980 0.372043 0.253191
O O6 0.697499 0.732204 0.995841
O O7 0.745502 0.568889 0.861864
O O8 0.000000 0.500000 0.000000
O O9 0.088722 0.871832 0.340110
O O10 0.000000 0.000000 0.500000
O O11 0.844809 0.864785 0.004579
O O12 0.500000 0.000000 0.000000
O O13 0.500000 0.500000 0.000000
O O14 0.172128 0.772045 0.938787
O O15 0.000000 0.000000 0.000000
#
# Coordination Sequence:
#
# PCOD9069193 Si02
#       6
#     2   2   2   2   2   2
#     4  12  24  44  74 102 140 189 234 290 355 417
#     4  12  25  46  72 102 145 187 235 293 350 424
#     4  12  22  45  69 100 141 186 226 285 358 413
#     4  12  26  46  71 102 142 187 237 290 354 419
#     4  12  24  44  71 103 136 185 239 284 354 414
#     4  12  27  44  70 104 143 182 240 292 349 421
#
# _framework density 20.684850999999998
#
# number of rings (size 3 to 8) (size 9 to 14) (size 15 to 20)
#    0.000    0.000    8.333    1.000    2.333    2.000 
#    0.000    0.833    0.000    0.000    0.000    0.000 
#    0.000    0.000    0.000    0.000    0.000    0.000 
#
# Total GULP energy -67017.887889 kJ/mol
# GULP energy per Si atom -5584.823991 kJ/mol
# Density = 2.063777 g / cm^3
# Si number density = 20.684851 Si / 1000 Ang^3
#
#
#
# Elastic Constant Matrix: (Units=GPa)
#
#
# Indices 1 2 3 4 5 6 
#
# 1 98.6918 30.6142 27.6867 7.0521 16.7772 7.8862
# 2 30.6142 134.2500 1.4821 0.0059 12.1862 2.5399
# 3 27.6867 1.4821 100.3813 12.8148 24.7519 18.1004
# 4 7.0521 0.0059 12.8148 31.7670 0.2713 10.0254
# 5 16.7772 12.1862 24.7519 0.2713 43.5274 7.8824
# 6 7.8862 2.5399 18.1004 10.0254 7.8824 47.2750
#
#
#
# Elastic Compliance Matrix: (Units=1/GPa)
#
#
# Indices 1 2 3 4 5 6 
#
# 1 0.012163 -0.002512 -0.002447 -0.001632 -0.002550 -0.000186
# 2 -0.002512 0.008184 0.001038 0.000199 -0.001889 -0.000146
# 3 -0.002447 0.001038 0.013174 -0.003825 -0.006303 -0.002830
# 4 -0.001632 0.000199 -0.003825 0.035369 0.003685 -0.006389
# 5 -0.002550 -0.001889 -0.006303 0.003685 0.028517 -0.002596
# 6 -0.000186 -0.000146 -0.002830 -0.006389 -0.002596 0.024063
#
#
# Mechanical properties :
#
#
# Convention : Reuss Voigt Hill
#
# Bulk Modulus (GPa) = 38.93938 50.32101 44.63020
# Shear Modulus (GPa) = 36.26567 42.74987 39.50777
#
# Velocity S-wave (km/s) = 4.19172 4.55106 4.37508
# Velocity P-wave (km/s) = 6.50333 7.21085 6.86621
#
# Compressibility (1/GPa) = 0.02568094
#
# Stress axis : x y z
#
# Youngs Moduli (GPa) = 82.21615 122.18590 75.90546
#
# Poissons Ratio (x) = 0.30688 0.18575
# Poissons Ratio (y) = 0.20650 -0.07882
# Poissons Ratio (z) = 0.20119 -0.12688
#
# Static dielectric constant tensor:
#      x y z
#    x 1.733120 -0.004550 -0.044970 
#    y -0.004550 1.754530 0.007070 
#    z -0.044970 0.007070 1.779870 
# 
# From -- ./inp_files/144419.got.cif
#   From: 2010.05.17/outbox.cif.g08.bks.cpg/sg2_73_cif.got.tgz:144419.got - 2010.06.03 11:33:40.
