data_PCOD9069589
_publ_section_title
;
Structure prediction by ZEFSAII (Michael W. Deem and Ramdas Pophale) SiO2 
 PCOD9069589
Probable space group: P -1
;
_chemical_formula_sum "Si O2"
_cell_formula_units_Z 16
_cell_length_a 17.879842
_cell_length_b 11.233082
_cell_length_c 8.334650
_cell_angle_alpha 131.228242
_cell_angle_beta 118.300155
_cell_angle_gamma 33.048365
_cell_volume 673.941724
_symmetry_space_group_name_H-M "P -1"
_symmetry_group_IT_number 2
_symmetry_cell_setting 'triclinic'
loop_
_space_group_symop_operation_xyz
x,y,z
-x,-y,-z
loop_
_atom_site_type_symbol
_atom_site_label
_atom_site_fract_x
_atom_site_fract_y
_atom_site_fract_z
Si Si1 0.796866 0.904087 0.097484
Si Si2 0.483871 0.496080 0.672077
Si Si3 0.056258 0.295499 0.243513
Si Si4 0.483492 0.919504 0.573706
Si Si5 0.221015 0.474367 0.898369
Si Si6 0.228332 0.800832 0.163829
Si Si7 0.723504 0.669211 0.825428
Si Si8 0.986628 0.858017 0.459655
O O1 0.894330 0.866558 0.275542
O O2 0.663456 0.203288 0.173492
O O3 0.888839 0.712112 0.870444
O O4 0.741527 0.822410 0.041324
O O5 0.500000 0.500000 0.500000
O O6 0.484263 0.315343 0.580601
O O7 0.620075 0.380348 0.777012
O O8 0.000000 0.500000 0.500000
O O9 0.934825 0.355559 0.122266
O O10 0.182412 0.006310 0.182420
O O11 0.580912 0.856545 0.752151
O O12 0.500000 0.000000 0.500000
O O13 0.321942 0.187499 0.687205
O O14 0.236731 0.611578 0.935721
O O15 0.263189 0.451222 0.104727
O O16 0.100783 0.988062 0.330138
O O17 0.851834 0.434284 0.630083
O O18 0.000000 0.000000 0.500000
#
# Coordination Sequence:
#
# PCOD9069589 Si02
#       8
#     2   2   2   2   2   2   2   2
#     4  12  26  45  77 106 142 192 245 298 364 436
#     4  12  25  49  78 107 147 193 248 299 367 447
#     4  12  28  46  71 107 149 190 241 305 368 428
#     4  12  30  47  75 110 149 193 243 308 369 430
#     4  12  26  49  71 104 147 193 243 297 365 442
#     4  12  26  45  76 105 146 189 241 302 368 429
#     4  12  25  46  74 104 145 189 245 297 360 442
#     4  12  23  45  75 110 142 185 244 303 360 436
#
# _framework density 23.740924
#
# number of rings (size 3 to 8) (size 9 to 14) (size 15 to 20)
#    0.000    0.000    3.750    5.625    8.750    0.500 
#    0.000    0.000    0.000    0.000    0.000    0.000 
#    0.000    0.000    0.000    0.000    0.000    0.000 
#
# Total GULP energy -89561.222157 kJ/mol
# GULP energy per Si atom -5597.576385 kJ/mol
# Density = 2.368689 g / cm^3
# Si number density = 23.740924 Si / 1000 Ang^3
#
#
#
# Elastic Constant Matrix: (Units=GPa)
#
#
# Indices 1 2 3 4 5 6 
#
# 1 88.4171 -12.9858 16.1766 -0.3645 22.2438 11.1296
# 2 -12.9858 92.1368 2.3579 5.9699 13.6343 -6.5532
# 3 16.1766 2.3579 48.1753 15.4973 -0.6950 9.5927
# 4 -0.3645 5.9699 15.4973 38.5641 7.0657 1.8599
# 5 22.2438 13.6343 -0.6950 7.0657 34.3746 13.6091
# 6 11.1296 -6.5532 9.5927 1.8599 13.6091 37.1225
#
#
#
# Elastic Compliance Matrix: (Units=1/GPa)
#
#
# Indices 1 2 3 4 5 6 
#
# 1 0.017167 0.004851 -0.008729 0.005635 -0.015734 0.003451
# 2 0.004851 0.013668 -0.004120 0.001369 -0.011346 0.006113
# 3 -0.008729 -0.004120 0.030805 -0.014067 0.015115 -0.010907
# 4 0.005635 0.001369 -0.014067 0.033645 -0.013556 0.005471
# 5 -0.015734 -0.011346 0.015115 -0.013556 0.055059 -0.020697
# 6 0.003451 0.006113 -0.010907 0.005471 -0.020697 0.037114
#
#
# Mechanical properties :
#
#
# Convention : Reuss Voigt Hill
#
# Bulk Modulus (GPa) = 21.90770 26.64739 24.27754
# Shear Modulus (GPa) = 22.86584 36.89095 29.87840
#
# Velocity S-wave (km/s) = 3.10682 3.94623 3.55141
# Velocity P-wave (km/s) = 4.70294 5.65793 5.20239
#
# Compressibility (1/GPa) = 0.04564606
#
# Stress axis : x y z
#
# Youngs Moduli (GPa) = 58.25228 73.16567 32.46190
#
# Poissons Ratio (x) = -0.35496 0.28335
# Poissons Ratio (y) = -0.28261 0.13373
# Poissons Ratio (z) = 0.50847 0.30141
#
# Static dielectric constant tensor:
#      x y z
#    x 1.922240 0.056280 -0.024250 
#    y 0.056280 1.841300 0.016820 
#    z -0.024250 0.016820 1.918420 
# 
# From -- ./inp_files/333794.got.cif
#   From: 2010.05.17/outbox.cif.g08.bks.cpg/sg2_167_cif.got.tgz:333794.got - 2010.06.03 11:33:40.
