data_PCOD9069420
_publ_section_title
;
Structure prediction by ZEFSAII (Michael W. Deem and Ramdas Pophale) SiO2 
 PCOD9069420
Probable space group: P -1
;
_chemical_formula_sum "Si O2"
_cell_formula_units_Z 14
_cell_length_a 4.813713
_cell_length_b 16.636465
_cell_length_c 22.355801
_cell_angle_alpha 158.598533
_cell_angle_beta 109.536732
_cell_angle_gamma 75.462295
_cell_volume 606.128458
_symmetry_space_group_name_H-M "P -1"
_symmetry_group_IT_number 2
_symmetry_cell_setting 'triclinic'
loop_
_space_group_symop_operation_xyz
x,y,z
-x,-y,-z
loop_
_atom_site_type_symbol
_atom_site_label
_atom_site_fract_x
_atom_site_fract_y
_atom_site_fract_z
Si Si1 0.602641 0.278162 0.325389
Si Si2 0.553583 0.842346 0.558718
Si Si3 0.208222 0.955012 0.715648
Si Si4 0.146177 0.430314 0.192932
Si Si5 0.512455 0.554807 0.885807
Si Si6 0.053110 0.949281 0.898164
Si Si7 0.664568 0.903373 0.390679
O O1 0.500000 0.500000 0.500000
O O2 0.240445 0.760613 0.755044
O O3 0.822504 0.193127 0.329709
O O4 0.287538 0.113068 0.190386
O O5 0.348932 0.599341 0.369079
O O6 0.494733 0.913222 0.670451
O O7 0.428003 0.002135 0.613120
O O8 0.910135 0.875904 0.600421
O O9 0.293254 0.216151 0.917652
O O10 0.274011 0.520574 0.200878
O O11 0.790750 0.422098 0.156509
O O12 0.200080 0.182142 0.039568
O O13 0.418455 0.365100 0.796965
O O14 0.000000 0.000000 0.000000
O O15 0.500000 0.000000 0.500000
O O16 0.000000 0.000000 0.500000
#
# Coordination Sequence:
#
# PCOD9069420 Si02
#       7
#     2   2   2   2   2   2   2
#     4  12  27  51  74 106 151 195 236 310 386 438
#     4  12  26  42  73 107 141 191 245 297 356 438
#     4  12  26  46  70 104 148 189 238 292 377 442
#     4  12  23  46  73 101 141 194 244 290 360 435
#     4  12  23  45  75  97 144 200 232 294 366 437
#     4  12  26  49  77 111 140 189 258 307 359 446
#     4  12  23  43  70 107 143 184 245 302 355 418
#
# _framework density 23.097411999999998
#
# number of rings (size 3 to 8) (size 9 to 14) (size 15 to 20)
#    0.000    0.000    5.714    4.286    2.000    1.143 
#    0.000    0.000    0.000    0.000    0.000    0.000 
#    0.000    0.000    0.000    0.000    0.000    0.000 
#
# Total GULP energy -78177.768882 kJ/mol
# GULP energy per Si atom -5584.126349 kJ/mol
# Density = 2.304484 g / cm^3
# Si number density = 23.097412 Si / 1000 Ang^3
#
#
#
# Elastic Constant Matrix: (Units=GPa)
#
#
# Indices 1 2 3 4 5 6 
#
# 1 133.6029 19.5533 21.2890 -4.4122 3.7879 1.1911
# 2 19.5533 80.5119 45.9224 -2.0236 5.3352 -2.7897
# 3 21.2890 45.9224 104.9343 5.5288 -3.6475 -16.0567
# 4 -4.4122 -2.0236 5.5288 26.6343 2.5572 -0.9000
# 5 3.7879 5.3352 -3.6475 2.5572 41.2067 -14.8516
# 6 1.1911 -2.7897 -16.0567 -0.9000 -14.8516 40.7556
#
#
#
# Elastic Compliance Matrix: (Units=1/GPa)
#
#
# Indices 1 2 3 4 5 6 
#
# 1 0.007976 -0.000983 -0.001528 0.001646 -0.001330 -0.001351
# 2 -0.000983 0.017725 -0.008440 0.003241 -0.004464 -0.003638
# 3 -0.001528 -0.008440 0.015067 -0.004300 0.005464 0.007299
# 4 0.001646 0.003241 -0.004300 0.039284 -0.004173 -0.002173
# 5 -0.001330 -0.004464 0.005464 -0.004173 0.030343 0.012851
# 6 -0.001351 -0.003638 0.007299 -0.002173 0.012851 0.031838
#
#
# Mechanical properties :
#
#
# Convention : Reuss Voigt Hill
#
# Bulk Modulus (GPa) = 53.00531 54.73094 53.86813
# Shear Modulus (GPa) = 29.33893 37.20495 33.27194
#
# Velocity S-wave (km/s) = 3.56789 4.01781 3.79952
# Velocity P-wave (km/s) = 6.32230 6.72836 6.52849
#
# Compressibility (1/GPa) = 0.01886603
#
# Stress axis : x y z
#
# Youngs Moduli (GPa) = 125.37189 56.41901 66.37156
#
# Poissons Ratio (x) = 0.05547 0.10139
# Poissons Ratio (y) = 0.12326 0.56018
# Poissons Ratio (z) = 0.19152 0.47618
#
# Static dielectric constant tensor:
#      x y z
#    x 1.837600 0.008870 -0.039050 
#    y 0.008870 1.933430 -0.082660 
#    z -0.039050 -0.082660 2.188500 
# 
# From -- ./inp_files/43524.got.cif
#   From: 2010.05.17/outbox.cif.g08.bks.cpg/sg2_22_cif.got.tgz:43524.got - 2010.06.03 11:33:40.
