data_PCOD9069364
_publ_section_title
;
Structure prediction by ZEFSAII (Michael W. Deem and Ramdas Pophale) SiO2 
 PCOD9069364
Probable space group: P -1
;
_chemical_formula_sum "Si O2"
_cell_formula_units_Z 16
_cell_length_a 12.114461
_cell_length_b 17.477709
_cell_length_c 20.705195
_cell_angle_alpha 18.855466
_cell_angle_beta 28.524769
_cell_angle_gamma 36.644816
_cell_volume 664.441550
_symmetry_space_group_name_H-M "P -1"
_symmetry_group_IT_number 2
_symmetry_cell_setting 'triclinic'
loop_
_space_group_symop_operation_xyz
x,y,z
-x,-y,-z
loop_
_atom_site_type_symbol
_atom_site_label
_atom_site_fract_x
_atom_site_fract_y
_atom_site_fract_z
Si Si1 0.914293 0.372726 0.518966
Si Si2 0.006586 0.898472 0.006340
Si Si3 0.650095 0.216866 0.896230
Si Si4 0.118560 0.518733 0.852732
Si Si5 0.559054 0.570493 0.772463
Si Si6 0.460611 0.860636 0.473937
Si Si7 0.163446 0.269472 0.281963
Si Si8 0.800503 0.999161 0.781404
O O1 0.804986 0.413640 0.612258
O O2 0.939284 0.612987 0.272555
O O3 0.175366 0.312874 0.439527
O O4 0.747059 0.146522 0.753345
O O5 0.276366 0.990676 0.775359
O O6 0.000000 0.000000 0.000000
O O7 0.814607 0.018665 0.973383
O O8 0.596948 0.341076 0.891532
O O9 0.405668 0.094128 0.088473
O O10 0.386430 0.653833 0.622816
O O11 0.990702 0.672883 0.746158
O O12 0.111965 0.247475 0.048340
O O13 0.000000 0.500000 0.000000
O O14 0.434048 0.731290 0.660578
O O15 0.389478 0.486468 0.987039
O O16 0.284533 0.036002 0.405875
O O17 0.990866 0.201520 0.484973
#
# Coordination Sequence:
#
# PCOD9069364 Si02
#       8
#     2   2   2   2   2   2   2   2
#     4  12  27  47  70 106 147 188 238 290 362 420
#     4  12  25  42  74 106 133 185 243 298 348 411
#     4  12  25  46  74 103 142 189 240 294 348 424
#     4  12  24  42  72 105 141 186 236 288 353 419
#     4  12  23  44  76 105 139 186 241 299 343 419
#     4  12  23  42  71 107 137 178 241 298 345 409
#     4  12  25  43  71 109 143 182 236 294 357 421
#     4  12  29  46  69 107 153 190 225 293 366 431
#
# _framework density 24.080372000000001
#
# number of rings (size 3 to 8) (size 9 to 14) (size 15 to 20)
#    0.000    0.000    7.500    1.875    3.500    2.000 
#    0.000    1.250    0.000    0.000    0.000    0.000 
#    0.000    0.000    0.000    0.000    0.000    0.000 
#
# Total GULP energy -89477.013996 kJ/mol
# GULP energy per Si atom -5592.313375 kJ/mol
# Density = 2.402556 g / cm^3
# Si number density = 24.080372 Si / 1000 Ang^3
#
#
#
# Elastic Constant Matrix: (Units=GPa)
#
#
# Indices 1 2 3 4 5 6 
#
# 1 97.7452 38.3176 32.3380 -13.2248 2.6912 -34.7432
# 2 38.3176 67.7295 36.7809 -17.9865 5.8333 -28.9742
# 3 32.3380 36.7809 111.3903 -4.8975 5.8748 -9.7132
# 4 -13.2248 -17.9865 -4.8975 46.5223 -5.2357 3.1239
# 5 2.6912 5.8333 5.8748 -5.2357 47.9391 -6.8234
# 6 -34.7432 -28.9742 -9.7132 3.1239 -6.8234 47.0097
#
#
#
# Elastic Compliance Matrix: (Units=1/GPa)
#
#
# Indices 1 2 3 4 5 6 
#
# 1 0.015984 -0.002862 -0.002826 0.002664 0.001440 0.009498
# 2 -0.002862 0.027994 -0.006911 0.008440 0.000403 0.013209
# 3 -0.002826 -0.006911 0.011706 -0.002115 -0.001231 -0.003968
# 4 0.002664 0.008440 -0.002115 0.025222 0.002611 0.005437
# 5 0.001440 0.000403 -0.001231 0.002611 0.021741 0.004041
# 6 0.009498 0.013209 -0.003968 0.005437 0.004041 0.035838
#
#
# Mechanical properties :
#
#
# Convention : Reuss Voigt Hill
#
# Bulk Modulus (GPa) = 32.80183 54.63756 43.71970
# Shear Modulus (GPa) = 28.76125 39.58947 34.17536
#
# Velocity S-wave (km/s) = 3.45974 4.05909 3.77134
# Velocity P-wave (km/s) = 5.44161 6.68635 6.09583
#
# Compressibility (1/GPa) = 0.03048610
#
# Stress axis : x y z
#
# Youngs Moduli (GPa) = 62.56176 35.72178 85.42713
#
# Poissons Ratio (x) = 0.10223 0.24143
# Poissons Ratio (y) = 0.17904 0.59040
# Poissons Ratio (z) = 0.17681 0.24688
#
# Static dielectric constant tensor:
#      x y z
#    x 1.975640 -0.108290 0.023340 
#    y -0.108290 2.011110 0.010050 
#    z 0.023340 0.010050 2.016070 
# 
# From -- ./inp_files/595923.got.cif
#   From: 2010.05.17/outbox.cif.g08.bks.cpg/sg2_298_cif.got.tgz:595923.got - 2010.06.03 11:33:40.
