data_PCOD9069315
_publ_section_title
;
Structure prediction by ZEFSAII (Michael W. Deem and Ramdas Pophale) SiO2 
 PCOD9069315
Probable space group: P -1
;
_chemical_formula_sum "Si O2"
_cell_formula_units_Z 16
_cell_length_a 15.307308
_cell_length_b 8.502035
_cell_length_c 8.298350
_cell_angle_alpha 98.498968
_cell_angle_beta 51.950482
_cell_angle_gamma 73.340763
_cell_volume 735.547143
_symmetry_space_group_name_H-M "P -1"
_symmetry_group_IT_number 2
_symmetry_cell_setting 'triclinic'
loop_
_space_group_symop_operation_xyz
x,y,z
-x,-y,-z
loop_
_atom_site_type_symbol
_atom_site_label
_atom_site_fract_x
_atom_site_fract_y
_atom_site_fract_z
Si Si1 0.749406 0.989774 0.071822
Si Si2 0.981959 0.269913 0.116378
Si Si3 0.913535 0.849943 0.354011
Si Si4 0.875764 0.582205 0.540309
Si Si5 0.230747 0.769327 0.500494
Si Si6 0.303528 0.352357 0.976594
Si Si7 0.448919 0.662948 0.450262
Si Si8 0.829572 0.228956 0.806919
O O1 0.644849 0.148177 0.325935
O O2 0.715649 0.822905 0.069262
O O3 0.763265 0.114704 0.932277
O O4 0.891599 0.877372 0.962225
O O5 0.917710 0.454132 0.318906
O O6 0.874583 0.211865 0.247880
O O7 0.019169 0.279427 0.893798
O O8 0.859680 0.771917 0.535312
O O9 0.024476 0.874026 0.316855
O O10 0.793902 0.026820 0.450015
O O11 0.000000 0.500000 0.500000
O O12 0.748574 0.614209 0.775953
O O13 0.365929 0.634480 0.400628
O O14 0.194115 0.745851 0.355574
O O15 0.441020 0.314964 0.760924
O O16 0.220367 0.563411 0.037783
O O17 0.500000 0.500000 0.500000
#
# Coordination Sequence:
#
# PCOD9069315 Si02
#       8
#     2   2   2   2   2   2   2   2
#     4  12  24  48  77 109 145 194 244 306 368 430
#     4  12  23  41  73 111 146 180 245 310 369 429
#     4  12  23  41  70 110 150 184 240 304 378 430
#     4  12  23  42  68 108 150 190 237 307 367 429
#     4  12  25  43  75 108 144 190 252 296 366 443
#     4  12  26  47  74 103 153 194 246 292 360 446
#     4  12  28  52  75 102 147 204 245 297 364 438
#     4  12  24  44  77 108 146 195 233 308 374 430
#
# _framework density 21.752514000000001
#
# number of rings (size 3 to 8) (size 9 to 14) (size 15 to 20)
#    0.000    0.000    7.500    3.000    0.000    0.500 
#    0.000    2.500    0.000    0.000    0.000    0.000 
#    0.000    0.000    0.000    0.000    0.000    0.000 
#
# Total GULP energy -89156.542085 kJ/mol
# GULP energy per Si atom -5572.283880 kJ/mol
# Density = 2.170300 g / cm^3
# Si number density = 21.752514 Si / 1000 Ang^3
#
#
#
# Elastic Constant Matrix: (Units=GPa)
#
#
# Indices 1 2 3 4 5 6 
#
# 1 81.9274 43.7465 36.5532 -0.3912 -3.2637 -8.9568
# 2 43.7465 137.1075 52.4625 -12.6589 -16.3662 8.3137
# 3 36.5532 52.4625 122.7323 -14.9681 -7.0905 6.5356
# 4 -0.3912 -12.6589 -14.9681 49.2803 11.4517 1.5837
# 5 -3.2637 -16.3662 -7.0905 11.4517 37.1739 4.0703
# 6 -8.9568 8.3137 6.5356 1.5837 4.0703 29.3519
#
#
#
# Elastic Compliance Matrix: (Units=1/GPa)
#
#
# Indices 1 2 3 4 5 6 
#
# 1 0.017337 -0.004932 -0.003831 -0.002181 -0.001571 0.007876
# 2 -0.004932 0.010671 -0.002477 0.001184 0.003930 -0.004585
# 3 -0.003831 -0.002477 0.010847 0.002692 0.000147 -0.003048
# 4 -0.002181 0.001184 0.002692 0.022850 -0.005976 -0.002004
# 5 -0.001571 0.003930 0.000147 -0.005976 0.030975 -0.005598
# 6 0.007876 -0.004585 -0.003048 -0.002004 -0.005598 0.039334
#
#
# Mechanical properties :
#
#
# Convention : Reuss Voigt Hill
#
# Bulk Modulus (GPa) = 61.07153 67.47684 64.27419
# Shear Modulus (GPa) = 31.25911 37.09489 34.17700
#
# Velocity S-wave (km/s) = 3.79494 4.13403 3.96810
# Velocity P-wave (km/s) = 6.88031 7.33992 7.11383
#
# Compressibility (1/GPa) = 0.01637424
#
# Stress axis : x y z
#
# Youngs Moduli (GPa) = 57.68014 93.70784 92.19300
#
# Poissons Ratio (x) = 0.46217 0.35323
# Poissons Ratio (y) = 0.28448 0.22837
# Poissons Ratio (z) = 0.22099 0.23212
#
# Static dielectric constant tensor:
#      x y z
#    x 1.831790 0.073990 0.076060 
#    y 0.073990 1.846940 0.025810 
#    z 0.076060 0.025810 1.812130 
# 
# From -- ./inp_files/298698.got.cif
#   From: 2010.05.17/outbox.cif.g08.bks.cpg/sg2_150_cif.got.tgz:298698.got - 2010.06.03 11:33:40.
