data_PCOD9069683
_publ_section_title
;
Structure prediction by ZEFSAII (Michael W. Deem and Ramdas Pophale) SiO2 
 PCOD9069683
Probable space group: P -1
;
_chemical_formula_sum "Si O2"
_cell_formula_units_Z 16
_cell_length_a 9.009471
_cell_length_b 9.396591
_cell_length_c 14.414337
_cell_angle_alpha 109.628811
_cell_angle_beta 47.845589
_cell_angle_gamma 79.540737
_cell_volume 692.377943
_symmetry_space_group_name_H-M "P -1"
_symmetry_group_IT_number 2
_symmetry_cell_setting 'triclinic'
loop_
_space_group_symop_operation_xyz
x,y,z
-x,-y,-z
loop_
_atom_site_type_symbol
_atom_site_label
_atom_site_fract_x
_atom_site_fract_y
_atom_site_fract_z
Si Si1 0.877943 0.917513 0.979059
Si Si2 0.851475 0.489061 0.143719
Si Si3 0.420341 0.496194 0.221038
Si Si4 0.833409 0.429738 0.466461
Si Si5 0.331363 0.247033 0.540889
Si Si6 0.029262 0.868627 0.374699
Si Si7 0.583587 0.832162 0.859556
Si Si8 0.853109 0.106599 0.323537
O O1 0.977403 0.712303 0.923258
O O2 0.977915 0.912415 0.834269
O O3 0.583840 0.062762 0.137453
O O4 0.000000 0.000000 0.000000
O O5 0.634884 0.491442 0.182740
O O6 0.763548 0.644483 0.295509
O O7 0.000000 0.500000 0.000000
O O8 0.236610 0.524999 0.387178
O O9 0.488473 0.305029 0.106753
O O10 0.275894 0.666294 0.248169
O O11 0.731817 0.601574 0.478499
O O12 0.721627 0.317850 0.459110
O O13 0.126172 0.287460 0.302413
O O14 0.188738 0.158635 0.551178
O O15 0.626974 0.097709 0.388897
O O16 0.013830 0.968021 0.308132
O O17 0.000000 0.000000 0.500000
O O18 0.500000 0.000000 0.000000
#
# Coordination Sequence:
#
# PCOD9069683 Si02
#       8
#     2   2   2   2   2   2   2   2
#     4  12  27  48  74 110 151 197 254 309 376 451
#     4  12  27  50  75 109 151 197 249 311 384 447
#     4  12  26  49  76 113 150 200 253 312 375 447
#     4  12  23  46  81 109 146 191 260 312 372 441
#     4  12  25  47  78 110 145 196 255 315 376 442
#     4  12  27  46  70 114 156 192 247 311 381 440
#     4  12  25  45  74 113 152 195 250 305 376 450
#     4  12  25  47  77 110 150 195 258 313 367 457
#
# _framework density 23.108765999999999
#
# number of rings (size 3 to 8) (size 9 to 14) (size 15 to 20)
#    0.000    0.000    7.500    1.875    1.750    1.000 
#    4.500    1.250    0.000    0.000    0.000    0.000 
#    0.000    0.000    0.000    0.000    0.000    0.000 
#
# Total GULP energy -89562.953180 kJ/mol
# GULP energy per Si atom -5597.684574 kJ/mol
# Density = 2.305617 g / cm^3
# Si number density = 23.108766 Si / 1000 Ang^3
#
#
#
# Elastic Constant Matrix: (Units=GPa)
#
#
# Indices 1 2 3 4 5 6 
#
# 1 148.8270 59.7457 41.8475 9.4996 -9.1242 5.0604
# 2 59.7457 173.1125 54.0189 -4.4957 13.7172 -23.0372
# 3 41.8475 54.0189 87.9499 -2.6195 -2.5100 -10.2381
# 4 9.4996 -4.4957 -2.6195 33.1976 -2.3138 8.0046
# 5 -9.1242 13.7172 -2.5100 -2.3138 38.5278 11.1446
# 6 5.0604 -23.0372 -10.2381 8.0046 11.1446 59.1839
#
#
#
# Elastic Compliance Matrix: (Units=1/GPa)
#
#
# Indices 1 2 3 4 5 6 
#
# 1 0.009204 -0.003038 -0.002806 -0.002317 0.003764 -0.002851
# 2 -0.003038 0.008955 -0.003722 0.000446 -0.005291 0.004038
# 3 -0.002806 -0.003722 0.015185 0.001367 0.001455 0.000959
# 4 -0.002317 0.000446 0.001367 0.032147 0.002532 -0.004216
# 5 0.003764 -0.005291 0.001455 0.002532 0.031403 -0.008386
# 6 -0.002851 0.004038 0.000959 -0.004216 -0.008386 0.021027
#
#
# Mechanical properties :
#
#
# Convention : Reuss Voigt Hill
#
# Bulk Modulus (GPa) = 70.37244 80.12376 75.24810
# Shear Modulus (GPa) = 35.26299 43.13369 39.19834
#
# Velocity S-wave (km/s) = 3.91059 4.32505 4.12303
# Velocity P-wave (km/s) = 7.13506 7.72587 7.43634
#
# Compressibility (1/GPa) = 0.01421011
#
# Stress axis : x y z
#
# Youngs Moduli (GPa) = 108.65234 111.67079 65.85271
#
# Poissons Ratio (x) = 0.33931 0.18481
# Poissons Ratio (y) = 0.33014 0.24511
# Poissons Ratio (z) = 0.30492 0.41565
#
# Static dielectric constant tensor:
#      x y z
#    x 1.901420 0.035010 0.001960 
#    y 0.035010 1.848740 0.022770 
#    z 0.001960 0.022770 1.912550 
# 
# From -- ./inp_files/495395.got.cif
#   From: 2010.05.17/outbox.cif.g08.bks.cpg/sg2_248_cif.got.tgz:495395.got - 2010.06.03 11:33:40.
