data_PCOD9069887
_publ_section_title
;
Structure prediction by ZEFSAII (Michael W. Deem and Ramdas Pophale) SiO2 
 PCOD9069887
Probable space group: P -1
;
_chemical_formula_sum "Si O2"
_cell_formula_units_Z 14
_cell_length_a 11.621485
_cell_length_b 9.382959
_cell_length_c 9.812522
_cell_angle_alpha 133.987040
_cell_angle_beta 128.638804
_cell_angle_gamma 60.477328
_cell_volume 597.998533
_symmetry_space_group_name_H-M "P -1"
_symmetry_group_IT_number 2
_symmetry_cell_setting 'triclinic'
loop_
_space_group_symop_operation_xyz
x,y,z
-x,-y,-z
loop_
_atom_site_type_symbol
_atom_site_label
_atom_site_fract_x
_atom_site_fract_y
_atom_site_fract_z
Si Si1 0.380833 0.548090 0.762673
Si Si2 0.295935 0.595803 0.177620
Si Si3 0.122305 0.451256 0.709700
Si Si4 0.497279 0.962370 0.135727
Si Si5 0.897059 0.823096 0.802104
Si Si6 0.686687 0.642472 0.690302
Si Si7 0.769273 0.945176 0.521706
O O1 0.545943 0.427181 0.801366
O O2 0.264696 0.478357 0.737752
O O3 0.320448 0.509696 0.540785
O O4 0.399263 0.779000 0.957449
O O5 0.322357 0.465015 0.245565
O O6 0.233133 0.818658 0.320440
O O7 0.175378 0.507025 0.935682
O O8 0.094901 0.218621 0.529149
O O9 0.992264 0.621275 0.690570
O O10 0.645092 0.900952 0.291036
O O11 0.442371 0.178384 0.297931
O O12 0.500000 0.000000 0.000000
O O13 0.830050 0.760708 0.853475
O O14 0.763539 0.893007 0.644970
O O15 0.000000 0.000000 0.000000
#
# Coordination Sequence:
#
# PCOD9069887 Si02
#       7
#     2   2   2   2   2   2   2
#     4  12  24  42  74 107 143 183 234 299 359 426
#     4  12  25  45  72 109 142 185 236 299 370 417
#     4  12  26  46  70 101 145 191 246 288 347 422
#     4  12  24  43  73 110 145 177 232 299 370 423
#     4  12  27  50  72 101 144 198 246 288 343 429
#     4  12  26  46  74 105 150 184 231 303 364 416
#     4  12  25  44  74 102 141 190 240 291 352 424
#
# _framework density 23.411429999999999
#
# number of rings (size 3 to 8) (size 9 to 14) (size 15 to 20)
#    0.000    0.000    7.143    3.000    0.000    1.714 
#    0.000    0.714    0.000    0.000    0.000    0.000 
#    0.000    0.000    0.000    0.000    0.000    0.000 
#
# Total GULP energy -78216.395563 kJ/mol
# GULP energy per Si atom -5586.885397 kJ/mol
# Density = 2.335814 g / cm^3
# Si number density = 23.411430 Si / 1000 Ang^3
#
#
#
# Elastic Constant Matrix: (Units=GPa)
#
#
# Indices 1 2 3 4 5 6 
#
# 1 55.4835 29.1813 0.8874 -3.7847 -0.4833 1.7432
# 2 29.1813 164.1848 42.2037 16.3316 -0.2942 -14.3907
# 3 0.8874 42.2037 93.3490 4.3952 -8.5065 7.8850
# 4 -3.7847 16.3316 4.3952 57.6379 3.3989 1.3241
# 5 -0.4833 -0.2942 -8.5065 3.3989 20.1662 3.9025
# 6 1.7432 -14.3907 7.8850 1.3241 3.9025 21.6730
#
#
#
# Elastic Compliance Matrix: (Units=1/GPa)
#
#
# Indices 1 2 3 4 5 6 
#
# 1 0.021250 -0.005412 0.002943 0.002714 0.002569 -0.007002
# 2 -0.005412 0.009483 -0.005235 -0.002649 -0.003581 0.009443
# 3 0.002943 -0.005235 0.014671 0.000318 0.008169 -0.010541
# 4 0.002714 -0.002649 0.000318 0.018460 -0.002411 -0.002787
# 5 0.002569 -0.003581 0.008169 -0.002411 0.056464 -0.015576
# 6 -0.007002 0.009443 -0.010541 -0.002787 -0.015576 0.059783
#
#
# Mechanical properties :
#
#
# Convention : Reuss Voigt Hill
#
# Bulk Modulus (GPa) = 33.33878 50.84023 42.08951
# Shear Modulus (GPa) = 24.32850 35.94509 30.13680
#
# Velocity S-wave (km/s) = 3.22712 3.92262 3.59174
# Velocity P-wave (km/s) = 5.30632 6.50224 5.93448
#
# Compressibility (1/GPa) = 0.02999510
#
# Stress axis : x y z
#
# Youngs Moduli (GPa) = 47.05778 105.45013 68.16104
#
# Poissons Ratio (x) = 0.57075 -0.20058
# Poissons Ratio (y) = 0.25470 0.35683
# Poissons Ratio (z) = -0.13848 0.55205
#
# Static dielectric constant tensor:
#      x y z
#    x 1.904090 -0.042700 0.008440 
#    y -0.042700 1.899380 -0.003260 
#    z 0.008440 -0.003260 1.937500 
# 
# From -- ./inp_files/242297.got.cif
#   From: 2010.05.17/outbox.cif.g08.bks.cpg/sg2_122_cif.got.tgz:242297.got - 2010.06.03 11:33:40.
