data_PCOD9069558
_publ_section_title
;
Structure prediction by ZEFSAII (Michael W. Deem and Ramdas Pophale) SiO2 
 PCOD9069558
Probable space group: P -1
;
_chemical_formula_sum "Si O2"
_cell_formula_units_Z 14
_cell_length_a 9.024657
_cell_length_b 17.498495
_cell_length_c 8.849501
_cell_angle_alpha 119.243113
_cell_angle_beta 31.761869
_cell_angle_gamma 107.397287
_cell_volume 620.934700
_symmetry_space_group_name_H-M "P -1"
_symmetry_group_IT_number 2
_symmetry_cell_setting 'triclinic'
loop_
_space_group_symop_operation_xyz
x,y,z
-x,-y,-z
loop_
_atom_site_type_symbol
_atom_site_label
_atom_site_fract_x
_atom_site_fract_y
_atom_site_fract_z
Si Si1 0.798393 0.500926 0.821752
Si Si2 0.250354 0.944695 0.127661
Si Si3 0.823437 0.246489 0.314823
Si Si4 0.836356 0.946192 0.191839
Si Si5 0.400449 0.253624 0.267691
Si Si6 0.782724 0.685180 0.185333
Si Si7 0.813762 0.311673 0.722092
O O1 0.878245 0.410483 0.766179
O O2 0.000000 0.500000 0.500000
O O3 0.500000 0.500000 0.000000
O O4 0.771380 0.589017 0.032774
O O5 0.042099 0.940265 0.157780
O O6 0.391238 0.841334 0.953669
O O7 0.000000 0.000000 0.500000
O O8 0.500000 0.000000 0.000000
O O9 0.502640 0.237149 0.543692
O O10 0.760620 0.298952 0.578691
O O11 0.082184 0.157890 0.030217
O O12 0.935122 0.294925 0.121169
O O13 0.500000 0.000000 0.500000
O O14 0.000000 0.000000 0.000000
O O15 0.261309 0.310545 0.592490
O O16 0.110896 0.237484 0.427828
O O17 0.569252 0.299870 0.041784
#
# Coordination Sequence:
#
# PCOD9069558 Si02
#       7
#     2   2   2   2   2   2   2
#     4  12  23  45  72 107 141 184 244 300 364 427
#     4  12  28  49  73 104 152 199 238 307 382 440
#     4  12  25  46  74 102 143 192 245 294 363 434
#     4  12  28  47  75 111 142 190 258 309 358 441
#     4  12  28  46  70 106 149 188 241 295 378 438
#     4  12  24  47  75 100 143 197 233 299 366 443
#     4  12  26  44  73 108 141 189 244 300 359 442
#
# _framework density 22.546654
#
# number of rings (size 3 to 8) (size 9 to 14) (size 15 to 20)
#    0.000    0.000    4.286    5.143    8.000    1.143 
#    0.000    0.000    0.000    0.000    0.000    0.000 
#    0.000    0.000    0.000    0.000    0.000    0.000 
#
# Total GULP energy -77958.524779 kJ/mol
# GULP energy per Si atom -5568.466056 kJ/mol
# Density = 2.249534 g / cm^3
# Si number density = 22.546654 Si / 1000 Ang^3
#
#
#
# Elastic Constant Matrix: (Units=GPa)
#
#
# Indices 1 2 3 4 5 6 
#
# 1 103.8667 16.9126 59.2552 -1.4575 4.6040 -10.4777
# 2 16.9126 88.8502 48.1253 -10.5344 25.5600 -5.8767
# 3 59.2552 48.1253 153.4732 -35.6654 17.0718 -5.6025
# 4 -1.4575 -10.5344 -35.6654 54.2185 2.2723 -2.9011
# 5 4.6040 25.5600 17.0718 2.2723 60.6929 0.8284
# 6 -10.4777 -5.8767 -5.6025 -2.9011 0.8284 31.2679
#
#
#
# Elastic Compliance Matrix: (Units=1/GPa)
#
#
# Indices 1 2 3 4 5 6 
#
# 1 0.013195 0.000334 -0.005931 -0.003341 0.000609 0.003096
# 2 0.000334 0.015154 -0.004050 0.000643 -0.005325 0.002435
# 3 -0.005931 -0.004050 0.011842 0.006906 -0.001435 0.000052
# 4 -0.003341 0.000643 0.006906 0.023274 -0.002865 0.002474
# 5 0.000609 -0.005325 -0.001435 -0.002865 0.019209 -0.001828
# 6 0.003096 0.002435 0.000052 0.002474 -0.001828 0.033764
#
#
# Mechanical properties :
#
#
# Convention : Reuss Voigt Hill
#
# Bulk Modulus (GPa) = 47.85277 66.08624 56.96951
# Shear Modulus (GPa) = 35.03893 44.02900 39.53396
#
# Velocity S-wave (km/s) = 3.94644 4.42384 4.19194
# Velocity P-wave (km/s) = 6.48350 7.44771 6.98227
#
# Compressibility (1/GPa) = 0.02089743
#
# Stress axis : x y z
#
# Youngs Moduli (GPa) = 75.78600 65.98725 84.44479
#
# Poissons Ratio (x) = -0.02203 0.50080
# Poissons Ratio (y) = -0.02530 0.34203
# Poissons Ratio (z) = 0.44945 0.26727
#
# Static dielectric constant tensor:
#      x y z
#    x 1.340540 -0.405370 -0.304980 
#    y -0.405370 1.562920 -0.206290 
#    z -0.304980 -0.206290 1.608620 
# 
# From -- ./inp_files/216891.got.cif
#   From: 2010.05.17/outbox.cif.g08.bks.cpg/sg2_109_cif.got.tgz:216891.got - 2010.06.03 11:33:40.
