data_PCOD9069722
_publ_section_title
;
Structure prediction by ZEFSAII (Michael W. Deem and Ramdas Pophale) SiO2 
 PCOD9069722
Probable space group: P -1
;
_chemical_formula_sum "Si O2"
_cell_formula_units_Z 12
_cell_length_a 10.348285
_cell_length_b 8.443743
_cell_length_c 8.465012
_cell_angle_alpha 123.471401
_cell_angle_beta 65.309745
_cell_angle_gamma 113.714929
_cell_volume 545.994061
_symmetry_space_group_name_H-M "P -1"
_symmetry_group_IT_number 2
_symmetry_cell_setting 'triclinic'
loop_
_space_group_symop_operation_xyz
x,y,z
-x,-y,-z
loop_
_atom_site_type_symbol
_atom_site_label
_atom_site_fract_x
_atom_site_fract_y
_atom_site_fract_z
Si Si1 0.070604 0.974921 0.620651
Si Si2 0.352589 0.859787 0.556916
Si Si3 0.652197 0.991027 0.996685
Si Si4 0.629486 0.539863 0.826905
Si Si5 0.946321 0.646988 0.721584
Si Si6 0.945045 0.283284 0.971109
O O1 0.218129 0.900779 0.539076
O O2 0.951537 0.831531 0.710307
O O3 0.000000 0.000000 0.500000
O O4 0.078080 0.182370 0.808282
O O5 0.341682 0.931819 0.782501
O O6 0.374131 0.638583 0.393392
O O7 0.500000 0.000000 0.500000
O O8 0.790002 0.141008 0.923706
O O9 0.500000 0.000000 0.000000
O O10 0.643279 0.757698 0.871603
O O11 0.790511 0.558535 0.828128
O O12 0.500000 0.500000 0.000000
O O13 0.000000 0.500000 0.500000
O O14 0.061471 0.702740 0.830562
O O15 0.000000 0.500000 0.000000
#
# Coordination Sequence:
#
# PCOD9069722 Si02
#       6
#     2   2   2   2   2   2
#     4  12  26  45  74 109 147 196 257 318 378 454
#     4  12  27  47  76 111 154 200 252 315 393 463
#     4  12  28  49  75 113 155 198 256 318 388 463
#     4  12  26  45  80 109 150 204 251 317 395 457
#     4  12  23  47  76 104 148 195 253 318 385 451
#     4  12  27  45  74 110 151 199 259 317 378 458
#
# _framework density 21.978259000000001
#
# number of rings (size 3 to 8) (size 9 to 14) (size 15 to 20)
#    0.000    0.000    6.667    2.500    4.667    0.667 
#    0.000    0.000    0.000    0.000    0.000    0.000 
#    0.000    0.000    0.000    0.000    0.000    0.000 
#
# Total GULP energy -66862.909496 kJ/mol
# GULP energy per Si atom -5571.909125 kJ/mol
# Density = 2.192824 g / cm^3
# Si number density = 21.978259 Si / 1000 Ang^3
#
#
#
# Elastic Constant Matrix: (Units=GPa)
#
#
# Indices 1 2 3 4 5 6 
#
# 1 155.3671 68.7402 48.2743 0.4176 -6.5712 15.6511
# 2 68.7402 170.1010 51.6579 23.0657 -11.8112 5.4114
# 3 48.2743 51.6579 126.4473 36.1199 -0.1360 -18.3728
# 4 0.4176 23.0657 36.1199 53.1641 -4.8215 -9.1352
# 5 -6.5712 -11.8112 -0.1360 -4.8215 45.3198 -7.3050
# 6 15.6511 5.4114 -18.3728 -9.1352 -7.3050 46.3546
#
#
#
# Elastic Compliance Matrix: (Units=1/GPa)
#
#
# Indices 1 2 3 4 5 6 
#
# 1 0.009256 -0.002882 -0.003783 0.003157 0.000333 -0.003614
# 2 -0.002882 0.007967 -0.001598 -0.002382 0.001261 -0.000861
# 3 -0.003783 -0.001598 0.012780 -0.007186 -0.000890 0.004973
# 4 0.003157 -0.002382 -0.007186 0.025259 0.002790 0.001782
# 5 0.000333 0.001261 -0.000890 0.002790 0.023319 0.003612
# 6 -0.003614 -0.000861 0.004973 0.001782 0.003612 0.025785
#
#
# Mechanical properties :
#
#
# Convention : Reuss Voigt Hill
#
# Bulk Modulus (GPa) = 74.19856 87.69559 80.94707
# Shear Modulus (GPa) = 39.87756 47.85059 43.86407
#
# Velocity S-wave (km/s) = 4.26421 4.67109 4.47228
# Velocity P-wave (km/s) = 7.62089 8.31142 7.97363
#
# Compressibility (1/GPa) = 0.01347735
#
# Stress axis : x y z
#
# Youngs Moduli (GPa) = 108.03255 125.52400 78.24884
#
# Poissons Ratio (x) = 0.36173 0.29603
# Poissons Ratio (y) = 0.31133 0.12503
# Poissons Ratio (z) = 0.40870 0.20057
#
# Static dielectric constant tensor:
#      x y z
#    x 1.890550 -0.027650 -0.126300 
#    y -0.027650 1.899340 0.071300 
#    z -0.126300 0.071300 2.020660 
# 
# From -- ./inp_files/160303.got.cif
#   From: 2010.05.17/outbox.cif.g08.bks.cpg/sg2_81_cif.got.tgz:160303.got - 2010.06.03 11:33:40.
