data_PCOD9069099
_publ_section_title
;
Structure prediction by ZEFSAII (Michael W. Deem and Ramdas Pophale) SiO2 
 PCOD9069099
Probable space group: P -1
;
_chemical_formula_sum "Si O2"
_cell_formula_units_Z 14
_cell_length_a 23.145292
_cell_length_b 13.857330
_cell_length_c 6.814525
_cell_angle_alpha 102.100027
_cell_angle_beta 67.490228
_cell_angle_gamma 159.776203
_cell_volume 616.641129
_symmetry_space_group_name_H-M "P -1"
_symmetry_group_IT_number 2
_symmetry_cell_setting 'triclinic'
loop_
_space_group_symop_operation_xyz
x,y,z
-x,-y,-z
loop_
_atom_site_type_symbol
_atom_site_label
_atom_site_fract_x
_atom_site_fract_y
_atom_site_fract_z
Si Si1 0.184292 0.746605 0.005871
Si Si2 0.598940 0.427179 0.560118
Si Si3 0.245416 0.192026 0.156435
Si Si4 0.551016 0.672028 0.627640
Si Si5 0.089931 0.233391 0.883777
Si Si6 0.071161 0.748103 0.415944
Si Si7 0.272877 0.682374 0.089285
O O1 0.390147 0.095943 0.797564
O O2 0.119881 0.712006 0.265002
O O3 0.237500 0.714258 0.983299
O O4 0.000000 0.500000 0.000000
O O5 0.723328 0.692559 0.642431
O O6 0.545102 0.384318 0.394041
O O7 0.730469 0.528134 0.393875
O O8 0.166875 0.967985 0.229982
O O9 0.450347 0.506953 0.900102
O O10 0.082834 0.984302 0.122970
O O11 0.500000 0.500000 0.500000
O O12 0.789553 0.034237 0.480990
O O13 0.169360 0.428799 0.027651
O O14 0.000000 0.000000 0.000000
O O15 0.851720 0.458139 0.626442
O O16 0.500000 0.000000 0.000000
#
# Coordination Sequence:
#
# PCOD9069099 Si02
#       7
#     2   2   2   2   2   2   2
#     4  12  28  50  76 108 153 207 258 309 384 454
#     4  12  26  44  79 110 151 201 252 312 377 456
#     4  12  24  46  75 119 147 194 256 314 382 446
#     4  12  22  42  73 115 153 187 250 318 376 442
#     4  12  27  49  77 109 156 199 250 315 384 450
#     4  12  25  48  79 109 152 197 253 317 377 454
#     4  12  31  50  76 114 156 203 256 313 382 460
#
# _framework density 22.703641000000001
#
# number of rings (size 3 to 8) (size 9 to 14) (size 15 to 20)
#    0.000    0.000    4.286    5.571    8.000    0.571 
#    0.000    0.000    0.000    0.000    0.000    0.000 
#    0.000    0.000    0.000    0.000    0.000    0.000 
#
# Total GULP energy -78288.325648 kJ/mol
# GULP energy per Si atom -5592.023261 kJ/mol
# Density = 2.265197 g / cm^3
# Si number density = 22.703641 Si / 1000 Ang^3
#
#
#
# Elastic Constant Matrix: (Units=GPa)
#
#
# Indices 1 2 3 4 5 6 
#
# 1 120.6913 58.3971 15.2217 -5.9709 -1.6786 12.1593
# 2 58.3971 124.4624 17.8192 -12.1905 -10.6491 21.2148
# 3 15.2217 17.8192 101.4010 -21.5217 -16.6953 3.4520
# 4 -5.9709 -12.1905 -21.5217 37.7863 7.5866 -12.6827
# 5 -1.6786 -10.6491 -16.6953 7.5866 46.6554 -0.3203
# 6 12.1593 21.2148 3.4520 -12.6827 -0.3203 48.9034
#
#
#
# Elastic Compliance Matrix: (Units=1/GPa)
#
#
# Indices 1 2 3 4 5 6 
#
# 1 0.010842 -0.004976 -0.000999 -0.000452 -0.001034 -0.000591
# 2 -0.004976 0.011293 -0.000581 0.000999 0.002005 -0.003348
# 3 -0.000999 -0.000581 0.011904 0.006253 0.003083 0.001302
# 4 -0.000452 0.000999 0.006253 0.033525 -0.002948 0.007912
# 5 -0.001034 0.002005 0.003083 -0.002948 0.023427 -0.001441
# 6 -0.000591 -0.003348 0.001302 0.007912 -0.001441 0.023998
#
#
# Mechanical properties :
#
#
# Convention : Reuss Voigt Hill
#
# Bulk Modulus (GPa) = 47.78656 58.82561 53.30609
# Shear Modulus (GPa) = 37.01575 43.67680 40.34627
#
# Velocity S-wave (km/s) = 4.04219 4.39085 4.22012
# Velocity P-wave (km/s) = 6.54823 7.18836 6.87575
#
# Compressibility (1/GPa) = 0.02092638
#
# Stress axis : x y z
#
# Youngs Moduli (GPa) = 92.23351 88.55308 84.00212
#
# Poissons Ratio (x) = 0.44064 0.08393
# Poissons Ratio (y) = 0.45896 0.04883
# Poissons Ratio (z) = 0.09215 0.05147
#
# Static dielectric constant tensor:
#      x y z
#    x 2.038700 0.078660 0.030600 
#    y 0.078660 1.879340 0.001760 
#    z 0.030600 0.001760 1.903860 
# 
# From -- ./inp_files/124295.got.cif
#   From: 2010.05.17/outbox.cif.g08.bks.cpg/sg2_63_cif.got.tgz:124295.got - 2010.06.03 11:33:40.
