data_PCOD9069561
_publ_section_title
;
Structure prediction by ZEFSAII (Michael W. Deem and Ramdas Pophale) SiO2 
 PCOD9069561
Probable space group: P -1
;
_chemical_formula_sum "Si O2"
_cell_formula_units_Z 16
_cell_length_a 20.100542
_cell_length_b 16.923991
_cell_length_c 11.793128
_cell_angle_alpha 149.490112
_cell_angle_beta 150.444573
_cell_angle_gamma 21.300807
_cell_volume 689.021570
_symmetry_space_group_name_H-M "P -1"
_symmetry_group_IT_number 2
_symmetry_cell_setting 'triclinic'
loop_
_space_group_symop_operation_xyz
x,y,z
-x,-y,-z
loop_
_atom_site_type_symbol
_atom_site_label
_atom_site_fract_x
_atom_site_fract_y
_atom_site_fract_z
Si Si1 0.627326 0.646688 0.404127
Si Si2 0.995002 0.818535 0.528804
Si Si3 0.294678 0.941058 0.441397
Si Si4 0.023948 0.134569 0.070601
Si Si5 0.252464 0.130532 0.217689
Si Si6 0.009027 0.806080 0.282770
Si Si7 0.419414 0.377208 0.932109
Si Si8 0.451483 0.478546 0.528516
O O1 0.780692 0.418967 0.420315
O O2 0.470694 0.847886 0.508117
O O3 0.739238 0.692697 0.564557
O O4 0.547200 0.611834 0.137519
O O5 0.929874 0.838823 0.330970
O O6 0.863701 0.831621 0.439637
O O7 0.991411 0.004731 0.788302
O O8 0.397365 0.758019 0.470029
O O9 0.150080 0.987305 0.188438
O O10 0.156663 0.143732 0.206745
O O11 0.810197 0.392930 0.097823
O O12 0.474340 0.879107 0.218631
O O13 0.116293 0.174539 0.972395
O O14 0.239922 0.575231 0.328840
O O15 0.000000 0.000000 0.500000
O O16 0.545588 0.375555 0.203227
O O17 0.500000 0.500000 0.500000
#
# Coordination Sequence:
#
# PCOD9069561 Si02
#       8
#     2   2   2   2   2   2   2   2
#     4  12  28  47  69 105 149 193 230 291 365 427
#     4  12  24  45  72 104 141 185 240 296 355 416
#     4  12  25  43  71 106 146 178 238 296 353 415
#     4  12  24  43  76 109 138 183 242 301 351 413
#     4  12  28  47  71 103 150 190 238 288 354 435
#     4  12  23  45  73 102 137 189 241 294 351 414
#     4  12  24  44  75 106 140 188 237 292 359 414
#     4  12  24  43  73 110 141 179 238 300 354 417
#
# _framework density 23.221333000000001
#
# number of rings (size 3 to 8) (size 9 to 14) (size 15 to 20)
#    0.000    0.000    7.500    3.000    0.000    3.000 
#    0.000    0.625    0.000    0.000    0.000    0.000 
#    0.000    0.000    0.000    0.000    0.000    0.000 
#
# Total GULP energy -89336.659420 kJ/mol
# GULP energy per Si atom -5583.541214 kJ/mol
# Density = 2.316848 g / cm^3
# Si number density = 23.221333 Si / 1000 Ang^3
#
#
#
# Elastic Constant Matrix: (Units=GPa)
#
#
# Indices 1 2 3 4 5 6 
#
# 1 149.9672 32.7320 42.0896 -17.2988 -22.2275 -6.5815
# 2 32.7320 133.6888 26.0606 -16.4355 5.9598 -4.8001
# 3 42.0896 26.0606 61.9579 -19.3935 -16.9251 8.9457
# 4 -17.2988 -16.4355 -19.3935 31.4677 9.4257 -6.3012
# 5 -22.2275 5.9598 -16.9251 9.4257 39.7404 -11.4277
# 6 -6.5815 -4.8001 8.9457 -6.3012 -11.4277 38.5551
#
#
#
# Elastic Compliance Matrix: (Units=1/GPa)
#
#
# Indices 1 2 3 4 5 6 
#
# 1 0.009203 -0.001231 -0.004864 0.000959 0.004165 0.003938
# 2 -0.001231 0.009023 -0.003070 0.003517 -0.003882 0.001050
# 3 -0.004864 -0.003070 0.025630 0.009105 0.005318 -0.004095
# 4 0.000959 0.003517 0.009105 0.042018 -0.004962 0.003885
# 5 0.004165 -0.003882 0.005318 -0.004962 0.033882 0.008226
# 6 0.003938 0.001050 -0.004095 0.003885 0.008226 0.030763
#
#
# Mechanical properties :
#
#
# Convention : Reuss Voigt Hill
#
# Bulk Modulus (GPa) = 39.17826 60.81980 49.99903
# Shear Modulus (GPa) = 28.19152 38.26809 33.22981
#
# Velocity S-wave (km/s) = 3.48808 4.06393 3.78696
# Velocity P-wave (km/s) = 5.75592 6.94758 6.37963
#
# Compressibility (1/GPa) = 0.02552436
#
# Stress axis : x y z
#
# Youngs Moduli (GPa) = 108.66171 110.82747 39.01726
#
# Poissons Ratio (x) = 0.13647 0.18979
# Poissons Ratio (y) = 0.13380 0.11978
# Poissons Ratio (z) = 0.52857 0.34023
#
# Static dielectric constant tensor:
#      x y z
#    x 1.911890 -0.016980 0.015760 
#    y -0.016980 1.951270 0.003000 
#    z 0.015760 0.003000 1.827990 
# 
# From -- ./inp_files/427740.got.cif
#   From: 2010.05.17/outbox.cif.g08.bks.cpg/sg2_214_cif.got.tgz:427740.got - 2010.06.03 11:33:40.
