data_PCOD9069675
_publ_section_title
;
Structure prediction by ZEFSAII (Michael W. Deem and Ramdas Pophale) SiO2 
 PCOD9069675
Probable space group: P -1
;
_chemical_formula_sum "Si O2"
_cell_formula_units_Z 16
_cell_length_a 28.010139
_cell_length_b 7.746247
_cell_length_c 13.342051
_cell_angle_alpha 51.414353
_cell_angle_beta 20.054223
_cell_angle_gamma 41.666166
_cell_volume 620.033268
_symmetry_space_group_name_H-M "P -1"
_symmetry_group_IT_number 2
_symmetry_cell_setting 'triclinic'
loop_
_space_group_symop_operation_xyz
x,y,z
-x,-y,-z
loop_
_atom_site_type_symbol
_atom_site_label
_atom_site_fract_x
_atom_site_fract_y
_atom_site_fract_z
Si Si1 0.973064 0.057262 0.358698
Si Si2 0.061133 0.058263 0.960106
Si Si3 0.640231 0.208074 0.276468
Si Si4 0.405671 0.124599 0.037927
Si Si5 0.454007 0.528276 0.353291
Si Si6 0.847729 0.723831 0.795638
Si Si7 0.531314 0.866557 0.681802
Si Si8 0.960444 0.546280 0.286840
O O1 0.921935 0.334643 0.408267
O O2 0.866234 0.968762 0.655493
O O3 0.967325 0.081151 0.240142
O O4 0.177116 0.841484 0.061619
O O5 0.263692 0.794468 0.666510
O O6 0.031015 0.334280 0.879025
O O7 0.000000 0.000000 0.000000
O O8 0.500000 0.500000 0.500000
O O9 0.553458 0.254067 0.323577
O O10 0.664993 0.939433 0.370231
O O11 0.211402 0.218754 0.398101
O O12 0.427352 0.368283 0.897195
O O13 0.500000 0.000000 0.000000
O O14 0.505840 0.891334 0.841267
O O15 0.432016 0.409103 0.337189
O O16 0.000000 0.500000 0.500000
O O17 0.890066 0.595795 0.870492
O O18 0.654656 0.856592 0.090488
#
# Coordination Sequence:
#
# PCOD9069675 Si02
#       8
#     2   2   2   2   2   2   2   2
#     4  12  26  47  76 104 141 194 237 298 363 426
#     4  12  28  45  69 103 149 188 234 297 354 434
#     4  12  23  46  78 104 143 183 240 303 359 420
#     4  12  25  47  70 103 146 188 236 293 353 426
#     4  12  26  48  73 107 144 186 241 296 360 429
#     4  12  24  46  76 105 145 182 241 304 357 420
#     4  12  27  45  78 108 139 191 240 297 362 424
#     4  12  26  46  72 105 144 186 239 293 363 427
#
# _framework density 25.805066
#
# number of rings (size 3 to 8) (size 9 to 14) (size 15 to 20)
#    0.000    0.000    5.000    4.875    3.500    1.500 
#    0.000    0.000    0.000    0.000    0.000    0.000 
#    0.000    0.000    0.000    0.000    0.000    0.000 
#
# Total GULP energy -89548.579283 kJ/mol
# GULP energy per Si atom -5596.786205 kJ/mol
# Density = 2.574633 g / cm^3
# Si number density = 25.805066 Si / 1000 Ang^3
#
#
#
# Elastic Constant Matrix: (Units=GPa)
#
#
# Indices 1 2 3 4 5 6 
#
# 1 142.4936 10.1023 3.3394 3.9395 16.7096 -9.9322
# 2 10.1023 78.7280 -1.6798 -7.8702 8.3937 0.6656
# 3 3.3394 -1.6798 74.7161 -1.7225 -0.5990 -12.1941
# 4 3.9395 -7.8702 -1.7225 28.9525 6.6696 -3.9078
# 5 16.7096 8.3937 -0.5990 6.6696 38.4445 5.4127
# 6 -9.9322 0.6656 -12.1941 -3.9078 5.4127 59.1751
#
#
#
# Elastic Compliance Matrix: (Units=1/GPa)
#
#
# Indices 1 2 3 4 5 6 
#
# 1 0.007571 -0.000657 -0.000134 -0.000244 -0.003324 0.001538
# 2 -0.000657 0.013645 0.000494 0.004715 -0.003571 0.000476
# 3 -0.000134 0.000494 0.013919 0.001502 -0.000514 0.002986
# 4 -0.000244 0.004715 0.001502 0.038262 -0.008028 0.003477
# 5 -0.003324 -0.003571 -0.000514 -0.008028 0.030171 -0.003913
# 6 0.001538 0.000476 0.002986 0.003477 -0.003913 0.018355
#
#
# Mechanical properties :
#
#
# Convention : Reuss Voigt Hill
#
# Bulk Modulus (GPa) = 28.95243 35.49571 32.22407
# Shear Modulus (GPa) = 37.30444 44.25947 40.78196
#
# Velocity S-wave (km/s) = 3.80626 4.14593 3.97972
# Velocity P-wave (km/s) = 5.52819 6.05834 5.79932
#
# Compressibility (1/GPa) = 0.03453941
#
# Stress axis : x y z
#
# Youngs Moduli (GPa) = 132.07694 73.28779 71.84429
#
# Poissons Ratio (x) = 0.04818 0.00965
# Poissons Ratio (y) = 0.08683 -0.03548
# Poissons Ratio (z) = 0.01775 -0.03620
#
# Static dielectric constant tensor:
#      x y z
#    x 2.072900 -0.061030 0.062790 
#    y -0.061030 1.198120 0.580700 
#    z 0.062790 0.580700 1.658770 
# 
# From -- ./inp_files/544812.got.cif
#   From: 2010.05.17/outbox.cif.g08.bks.cpg/sg2_273_cif.got.tgz:544812.got - 2010.06.03 11:33:40.
