data_PCOD9069168
_publ_section_title
;
Structure prediction by ZEFSAII (Michael W. Deem and Ramdas Pophale) SiO2 
 PCOD9069168
Probable space group: P -1
;
_chemical_formula_sum "Si O2"
_cell_formula_units_Z 15
_cell_length_a 14.078703
_cell_length_b 8.697761
_cell_length_c 8.223456
_cell_angle_alpha 116.313288
_cell_angle_beta 104.392922
_cell_angle_gamma 123.323467
_cell_volume 568.614025
_symmetry_space_group_name_H-M "P -1"
_symmetry_group_IT_number 2
_symmetry_cell_setting 'triclinic'
loop_
_space_group_symop_operation_xyz
x,y,z
-x,-y,-z
loop_
_atom_site_type_symbol
_atom_site_label
_atom_site_fract_x
_atom_site_fract_y
_atom_site_fract_z
Si Si1 0.778630 0.709378 0.968600
Si Si2 0.516169 0.482398 0.187593
Si Si3 0.756795 0.020902 0.679715
Si Si4 0.851662 0.469850 0.342560
Si Si5 0.569456 0.952050 0.856596
Si Si6 0.967416 0.261452 0.153794
Si Si7 0.000000 0.000000 0.500000
Si Si8 0.654161 0.205508 0.551872
O O1 0.609270 0.556353 0.810242
O O2 0.765338 0.498158 0.804269
O O3 0.852067 0.808637 0.223514
O O4 0.881067 0.970804 0.026082
O O5 0.681973 0.747758 0.452085
O O6 0.464970 0.228014 0.100872
O O7 0.500000 0.500000 0.000000
O O8 0.651194 0.949612 0.747646
O O9 0.735948 0.132174 0.580238
O O10 0.921112 0.221655 0.925059
O O11 0.895215 0.333269 0.245230
O O12 0.952268 0.742962 0.421832
O O13 0.880742 0.539950 0.579714
O O14 0.683887 0.251313 0.099157
O O15 0.421554 0.839672 0.668087
O O16 0.500000 0.000000 0.500000
#
# Coordination Sequence:
#
# PCOD9069168 Si02
#       8
#     2   2   2   2   2   2   1   2
#     4  11  18  33  50  83 110 139 180 229 274 312
#     4  12  23  34  52  80 117 152 180 214 270 335
#     4  10  18  33  55  79 107 138 185 231 271 315
#     4   9  17  28  48  83 106 133 168 230 283 305
#     4  10  18  34  54  79 109 140 184 230 269 314
#     4   9  17  29  52  79 105 134 174 232 269 314
#     4  10  20  28  52  80 112 134 176 236 278 308
#     4  10  18  28  56  80 105 133 177 238 271 306
#
# _framework density 26.379933999999999
#
# number of rings (size 3 to 8) (size 9 to 14) (size 15 to 20)
#    0.000    1.867    5.333    3.600    0.000    0.000 
#    0.000    0.667    0.000    0.800    0.000    2.800 
#    0.000    0.000    0.000    0.000    0.000    0.000 
#
# Total GULP energy -83703.982202 kJ/mol
# GULP energy per Si atom -5580.265480 kJ/mol
# Density = 2.631989 g / cm^3
# Si number density = 26.379934 Si / 1000 Ang^3
#
#
#
# Elastic Constant Matrix: (Units=GPa)
#
#
# Indices 1 2 3 4 5 6 
#
# 1 57.3490 5.6879 18.0547 8.9334 9.9985 -0.7817
# 2 5.6879 122.1388 40.1073 11.5127 -6.9501 -22.9224
# 3 18.0547 40.1073 242.1280 21.7400 26.8561 -4.5787
# 4 8.9334 11.5127 21.7400 51.7735 -17.5245 -8.8360
# 5 9.9985 -6.9501 26.8561 -17.5245 47.2995 -9.6506
# 6 -0.7817 -22.9224 -4.5787 -8.8360 -9.6506 20.6751
#
#
#
# Elastic Compliance Matrix: (Units=1/GPa)
#
#
# Indices 1 2 3 4 5 6 
#
# 1 0.020598 -0.003108 0.000746 -0.008746 -0.010774 -0.011268
# 2 -0.003108 0.013858 -0.003584 0.006952 0.012002 0.023026
# 3 0.000746 -0.003584 0.005960 -0.006163 -0.008206 -0.009090
# 4 -0.008746 0.006952 -0.006163 0.036900 0.027063 0.034414
# 5 -0.010774 0.012002 -0.008206 0.027063 0.049173 0.045600
# 6 -0.011268 0.023026 -0.009090 0.034414 0.045600 0.107450
#
#
# Mechanical properties :
#
#
# Convention : Reuss Voigt Hill
#
# Bulk Modulus (GPa) = 35.05709 61.03507 48.04608
# Shear Modulus (GPa) = 19.58199 47.80069 33.69134
#
# Velocity S-wave (km/s) = 2.72749 4.26139 3.57761
# Velocity P-wave (km/s) = 4.82048 6.88475 5.94293
#
# Compressibility (1/GPa) = 0.02852490
#
# Stress axis : x y z
#
# Youngs Moduli (GPa) = 48.54932 72.16019 167.79189
#
# Poissons Ratio (x) = 0.22425 -0.12519
# Poissons Ratio (y) = 0.15087 0.60132
# Poissons Ratio (z) = -0.03622 0.25860
#
# Static dielectric constant tensor:
#      x y z
#    x 2.235210 0.174320 0.002440 
#    y 0.174320 2.100250 -0.039180 
#    z 0.002440 -0.039180 2.004810 
# 
# From -- ./inp_files/343678.got.cif
#   From: 2010.05.17/outbox.cif.g08.bks.cpg/sg2_172_cif.got.tgz:343678.got - 2010.06.03 11:33:40.
