data_PCOD9069801
_publ_section_title
;
Structure prediction by ZEFSAII (Michael W. Deem and Ramdas Pophale) SiO2 
 PCOD9069801
Probable space group: P -1
;
_chemical_formula_sum "Si O2"
_cell_formula_units_Z 13
_cell_length_a 8.958737
_cell_length_b 12.107650
_cell_length_c 8.245472
_cell_angle_alpha 48.986951
_cell_angle_beta 121.109952
_cell_angle_gamma 92.139314
_cell_volume 510.910481
_symmetry_space_group_name_H-M "P -1"
_symmetry_group_IT_number 2
_symmetry_cell_setting 'triclinic'
loop_
_space_group_symop_operation_xyz
x,y,z
-x,-y,-z
loop_
_atom_site_type_symbol
_atom_site_label
_atom_site_fract_x
_atom_site_fract_y
_atom_site_fract_z
Si Si1 0.292311 0.277411 0.758709
Si Si2 0.971182 0.891334 0.227638
Si Si3 0.037586 0.580489 0.107418
Si Si4 0.361510 0.691103 0.103741
Si Si5 0.391457 0.195447 0.257875
Si Si6 0.000000 0.000000 0.500000
Si Si7 0.601808 0.383116 0.320867
O O1 0.216512 0.141654 0.851810
O O2 0.114898 0.441812 0.423957
O O3 0.487115 0.248968 0.794566
O O4 0.355027 0.279631 0.978328
O O5 0.165589 0.714697 0.480690
O O6 0.955589 0.976707 0.308756
O O7 0.000000 0.000000 0.000000
O O8 0.193053 0.651101 0.118691
O O9 0.000000 0.500000 0.000000
O O10 0.828790 0.738609 0.864966
O O11 0.516052 0.507851 0.301579
O O12 0.224555 0.837946 0.762827
O O13 0.513317 0.255026 0.384956
O O14 0.500000 0.000000 0.500000
O O15 0.500000 0.500000 0.000000
#
# Coordination Sequence:
#
# PCOD9069801 Si02
#       7
#     2   2   2   2   2   1   2
#     4  12  28  51  78 118 159 216 276 342 412 510
#     4  12  29  51  84 121 164 215 282 345 423 499
#     4  12  27  50  78 117 159 217 276 338 413 499
#     4  12  28  48  83 115 168 214 282 342 430 491
#     4  12  27  49  81 116 158 215 277 342 418 492
#     4  12  28  56  78 120 170 216 268 366 412 500
#     4  12  23  51  78 113 160 221 265 338 420 494
#
# _framework density 25.444772
#
# number of rings (size 3 to 8) (size 9 to 14) (size 15 to 20)
#    0.000    0.000    4.615    3.692    8.615    1.846 
#    2.769    0.000    0.000    0.000    0.000    0.000 
#    0.000    0.000    0.000    0.000    0.000    0.000 
#
# Total GULP energy -72508.065167 kJ/mol
# GULP energy per Si atom -5577.543474 kJ/mol
# Density = 2.538686 g / cm^3
# Si number density = 25.444772 Si / 1000 Ang^3
#
#
#
# Elastic Constant Matrix: (Units=GPa)
#
#
# Indices 1 2 3 4 5 6 
#
# 1 162.6145 89.3633 45.6427 3.8480 28.4947 33.9176
# 2 89.3633 145.6710 60.7525 2.8570 6.1317 15.8127
# 3 45.6427 60.7525 129.6259 -8.7424 26.3528 9.4882
# 4 3.8480 2.8570 -8.7424 44.3282 -12.0129 1.9260
# 5 28.4947 6.1317 26.3528 -12.0129 29.4668 -6.6758
# 6 33.9176 15.8127 9.4882 1.9260 -6.6758 58.8945
#
#
#
# Elastic Compliance Matrix: (Units=1/GPa)
#
#
# Indices 1 2 3 4 5 6 
#
# 1 0.016039 -0.009168 0.003212 -0.005399 -0.020823 -0.009477
# 2 -0.009168 0.014046 -0.006190 0.002081 0.013219 0.003936
# 3 0.003212 -0.006190 0.012622 -0.001136 -0.014435 -0.003820
# 4 -0.005399 0.002081 -0.001136 0.027331 0.017821 0.003860
# 5 -0.020823 0.013219 -0.014435 0.017821 0.075750 0.018772
# 6 -0.009477 0.003936 -0.003820 0.003860 0.018772 0.023998
#
#
# Mechanical properties :
#
#
# Convention : Reuss Voigt Hill
#
# Bulk Modulus (GPa) = 54.30112 92.15870 73.22991
# Shear Modulus (GPa) = 24.97290 42.68142 33.82716
#
# Velocity S-wave (km/s) = 3.13622 4.10007 3.65010
# Velocity P-wave (km/s) = 5.87380 7.66236 6.82691
#
# Compressibility (1/GPa) = 0.01841583
#
# Stress axis : x y z
#
# Youngs Moduli (GPa) = 62.34648 71.19449 79.22505
#
# Poissons Ratio (x) = 0.65271 -0.25447
# Poissons Ratio (y) = 0.57159 0.49040
# Poissons Ratio (z) = -0.20026 0.44069
#
# Static dielectric constant tensor:
#      x y z
#    x 2.088890 0.013040 -0.018180 
#    y 0.013040 2.046520 -0.025310 
#    z -0.018180 -0.025310 1.971460 
# 
# From -- ./inp_files/167259.got.cif
#   From: 2010.05.17/outbox.cif.g08.bks.cpg/sg2_84_cif.got.tgz:167259.got - 2010.06.03 11:33:40.
