data_PCOD9069988
_publ_section_title
;
Structure prediction by ZEFSAII (Michael W. Deem and Ramdas Pophale) SiO2 
 PCOD9069988
Probable space group: P -1
;
_chemical_formula_sum "Si O2"
_cell_formula_units_Z 14
_cell_length_a 9.108803
_cell_length_b 12.034044
_cell_length_c 9.003927
_cell_angle_alpha 102.167553
_cell_angle_beta 45.858028
_cell_angle_gamma 108.318207
_cell_volume 672.328580
_symmetry_space_group_name_H-M "P -1"
_symmetry_group_IT_number 2
_symmetry_cell_setting 'triclinic'
loop_
_space_group_symop_operation_xyz
x,y,z
-x,-y,-z
loop_
_atom_site_type_symbol
_atom_site_label
_atom_site_fract_x
_atom_site_fract_y
_atom_site_fract_z
Si Si1 0.466460 0.117614 0.629730
Si Si2 0.449157 0.501396 0.210836
Si Si3 0.662436 0.947758 0.967015
Si Si4 0.083761 0.400273 0.995433
Si Si5 0.154560 0.667768 0.553280
Si Si6 0.945328 0.833310 0.216656
Si Si7 0.816823 0.750781 0.616285
O O1 0.662661 0.224568 0.487472
O O2 0.252508 0.140498 0.722571
O O3 0.500000 0.000000 0.500000
O O4 0.444125 0.104035 0.818874
O O5 0.662706 0.564690 0.162666
O O6 0.270452 0.572497 0.380892
O O7 0.363481 0.369480 0.292073
O O8 0.500000 0.500000 0.000000
O O9 0.740063 0.847645 0.794372
O O10 0.861654 0.054015 0.892242
O O11 0.500000 0.000000 0.000000
O O12 0.005305 0.279046 0.929256
O O13 0.000000 0.500000 0.000000
O O14 0.994942 0.385327 0.220320
O O15 0.015750 0.716844 0.545142
O O16 0.879843 0.800394 0.422894
#
# Coordination Sequence:
#
# PCOD9069988 Si02
#       7
#     2   2   2   2   2   2   2
#     4  12  24  44  72 100 142 182 231 296 351 409
#     4  12  26  47  73 105 143 187 237 284 352 420
#     4  12  26  47  71 104 142 187 239 288 351 423
#     4  12  28  45  73 106 144 185 231 294 352 413
#     4  12  25  48  70 105 140 186 236 284 353 421
#     4  12  26  46  69 106 140 180 238 291 351 414
#     4  12  26  44  74 100 142 189 235 289 349 421
#
# _framework density 20.823153000000001
#
# number of rings (size 3 to 8) (size 9 to 14) (size 15 to 20)
#    0.000    0.000    2.857    7.286    6.000    1.143 
#    0.000    0.000    0.000    0.000    0.000    0.000 
#    0.000    0.000    0.000    0.000    0.000    0.000 
#
# Total GULP energy -78480.822517 kJ/mol
# GULP energy per Si atom -5605.773037 kJ/mol
# Density = 2.077576 g / cm^3
# Si number density = 20.823153 Si / 1000 Ang^3
#
#
#
# Elastic Constant Matrix: (Units=GPa)
#
#
# Indices 1 2 3 4 5 6 
#
# 1 112.7499 23.2769 25.5991 3.6891 -16.2597 -22.3657
# 2 23.2769 125.0133 31.4728 28.2702 -20.9008 7.3973
# 3 25.5991 31.4728 94.4925 30.7316 -7.3822 -8.3438
# 4 3.6891 28.2702 30.7316 51.7721 12.0395 -6.1426
# 5 -16.2597 -20.9008 -7.3822 12.0395 34.6853 -5.7823
# 6 -22.3657 7.3973 -8.3438 -6.1426 -5.7823 50.6499
#
#
#
# Elastic Compliance Matrix: (Units=1/GPa)
#
#
# Indices 1 2 3 4 5 6 
#
# 1 0.011350 -0.001258 -0.001978 0.000575 0.004858 0.005494
# 2 -0.001258 0.011937 -0.000316 -0.008646 0.009144 -0.002356
# 3 -0.001978 -0.000316 0.014920 -0.009718 0.005613 0.001093
# 4 0.000575 -0.008646 -0.009718 0.034321 -0.018596 0.001955
# 5 0.004858 0.009144 0.005613 -0.018596 0.045038 0.004620
# 6 0.005494 -0.002356 0.001093 0.001955 0.004620 0.023458
#
#
# Mechanical properties :
#
#
# Convention : Reuss Voigt Hill
#
# Bulk Modulus (GPa) = 32.15350 54.77259 43.46304
# Shear Modulus (GPa) = 31.54687 44.21525 37.88106
#
# Velocity S-wave (km/s) = 3.89651 4.61300 4.26981
# Velocity P-wave (km/s) = 5.97649 7.39823 6.72504
#
# Compressibility (1/GPa) = 0.03110082
#
# Stress axis : x y z
#
# Youngs Moduli (GPa) = 88.10948 83.77642 67.02548
#
# Poissons Ratio (x) = 0.10540 0.13257
# Poissons Ratio (y) = 0.11085 0.02121
# Poissons Ratio (z) = 0.17427 0.02651
#
# Static dielectric constant tensor:
#      x y z
#    x 1.718170 0.018160 -0.011970 
#    y 0.018160 1.700700 -0.004830 
#    z -0.011970 -0.004830 1.720520 
# 
# From -- ./inp_files/26891.got.cif
#   From: 2010.05.17/outbox.cif.g08.bks.cpg/sg2_14_cif.got.tgz:26891.got - 2010.06.03 11:33:40.
