data_PCOD9069492
_publ_section_title
;
Structure prediction by ZEFSAII (Michael W. Deem and Ramdas Pophale) SiO2 
 PCOD9069492
Probable space group: P -1
;
_chemical_formula_sum "Si O2"
_cell_formula_units_Z 14
_cell_length_a 8.964878
_cell_length_b 31.830165
_cell_length_c 6.994570
_cell_angle_alpha 42.691835
_cell_angle_beta 57.815510
_cell_angle_gamma 30.172579
_cell_volume 648.528289
_symmetry_space_group_name_H-M "P -1"
_symmetry_group_IT_number 2
_symmetry_cell_setting 'triclinic'
loop_
_space_group_symop_operation_xyz
x,y,z
-x,-y,-z
loop_
_atom_site_type_symbol
_atom_site_label
_atom_site_fract_x
_atom_site_fract_y
_atom_site_fract_z
Si Si1 0.800280 0.112066 0.857500
Si Si2 0.188710 0.114581 0.731201
Si Si3 0.722862 0.380548 0.814344
Si Si4 0.651302 0.521173 0.897153
Si Si5 0.346640 0.197215 0.192877
Si Si6 0.359622 0.279208 0.261949
Si Si7 0.321301 0.698267 0.237212
O O1 0.524954 0.213303 0.565548
O O2 0.014044 0.109041 0.765881
O O3 0.647704 0.129765 0.095701
O O4 0.000000 0.000000 0.000000
O O5 0.283250 0.142569 0.431102
O O6 0.956559 0.207818 0.740467
O O7 0.500000 0.000000 0.000000
O O8 0.500000 0.500000 0.500000
O O9 0.778878 0.319284 0.803651
O O10 0.541414 0.401069 0.045657
O O11 0.044264 0.312554 0.907656
O O12 0.593527 0.586487 0.548775
O O13 0.500000 0.500000 0.000000
O O14 0.006552 0.405686 0.096389
O O15 0.357580 0.220569 0.320282
O O16 0.555680 0.275163 0.033013
#
# Coordination Sequence:
#
# PCOD9069492 Si02
#       7
#     2   2   2   2   2   2   2
#     4  12  30  50  76 112 143 193 253 303 373 438
#     4  12  28  51  78 107 147 194 248 308 367 439
#     4  12  24  41  73 107 146 196 241 295 365 437
#     4  12  23  44  70 108 148 193 246 294 364 438
#     4  12  26  48  76 106 151 192 242 304 369 436
#     4  12  26  47  74 106 152 192 243 310 363 437
#     4  12  26  46  72 110 150 192 248 302 370 436
#
# _framework density 21.587339
#
# number of rings (size 3 to 8) (size 9 to 14) (size 15 to 20)
#    0.000    0.000    5.714    3.000    6.000    2.286 
#    0.000    0.000    0.000    0.000    0.000    0.000 
#    0.000    0.000    0.000    0.000    0.000    0.000 
#
# Total GULP energy -78447.117163 kJ/mol
# GULP energy per Si atom -5603.365512 kJ/mol
# Density = 2.153821 g / cm^3
# Si number density = 21.587339 Si / 1000 Ang^3
#
#
#
# Elastic Constant Matrix: (Units=GPa)
#
#
# Indices 1 2 3 4 5 6 
#
# 1 130.5879 25.3877 30.7845 -5.0970 4.6960 8.1638
# 2 25.3877 70.4947 22.2241 -14.8386 8.4963 3.3610
# 3 30.7845 22.2241 91.7728 -2.7164 0.4593 -5.4712
# 4 -5.0970 -14.8386 -2.7164 33.0706 -7.8997 6.2273
# 5 4.6960 8.4963 0.4593 -7.8997 47.1793 1.0926
# 6 8.1638 3.3610 -5.4712 6.2273 1.0926 38.1963
#
#
#
# Elastic Compliance Matrix: (Units=1/GPa)
#
#
# Indices 1 2 3 4 5 6 
#
# 1 0.008841 -0.002123 -0.002562 0.000523 -0.000335 -0.002146
# 2 -0.002123 0.018016 -0.003586 0.007599 -0.001660 -0.002837
# 3 -0.002562 -0.003586 0.012754 -0.001389 0.000477 0.002903
# 4 0.000523 0.007599 -0.001389 0.036078 0.004796 -0.006999
# 5 -0.000335 -0.001660 0.000477 0.004796 0.022353 -0.001135
# 6 -0.002146 -0.002837 0.002903 -0.006999 -0.001135 0.028478
#
#
# Mechanical properties :
#
#
# Convention : Reuss Voigt Hill
#
# Bulk Modulus (GPa) = 43.35215 49.96090 46.65652
# Shear Modulus (GPa) = 33.16694 37.98651 35.57673
#
# Velocity S-wave (km/s) = 3.92396 4.19939 4.06401
# Velocity P-wave (km/s) = 6.37618 6.83425 6.60919
#
# Compressibility (1/GPa) = 0.02306691
#
# Stress axis : x y z
#
# Youngs Moduli (GPa) = 113.10793 55.50713 78.40677
#
# Poissons Ratio (x) = 0.11786 0.20090
# Poissons Ratio (y) = 0.24017 0.28119
# Poissons Ratio (z) = 0.28981 0.19907
#
# Static dielectric constant tensor:
#      x y z
#    x 1.767960 -0.001990 0.000600 
#    y -0.001990 1.776760 -0.005630 
#    z 0.000600 -0.005630 1.805070 
# 
# From -- ./inp_files/48908.got.cif
#   From: 2010.05.17/outbox.cif.g08.bks.cpg/sg2_25_cif.got.tgz:48908.got - 2010.06.03 11:33:40.
