data_PCOD9069366
_publ_section_title
;
Structure prediction by ZEFSAII (Michael W. Deem and Ramdas Pophale) SiO2 
 PCOD9069366
Probable space group: P -1
;
_chemical_formula_sum "Si O2"
_cell_formula_units_Z 14
_cell_length_a 8.550439
_cell_length_b 17.321498
_cell_length_c 9.739971
_cell_angle_alpha 56.944487
_cell_angle_beta 149.489977
_cell_angle_gamma 114.495021
_cell_volume 608.620306
_symmetry_space_group_name_H-M "P -1"
_symmetry_group_IT_number 2
_symmetry_cell_setting 'triclinic'
loop_
_space_group_symop_operation_xyz
x,y,z
-x,-y,-z
loop_
_atom_site_type_symbol
_atom_site_label
_atom_site_fract_x
_atom_site_fract_y
_atom_site_fract_z
Si Si1 0.282892 0.817742 0.753444
Si Si2 0.714921 0.442617 0.327928
Si Si3 0.237277 0.409415 0.232239
Si Si4 0.261683 0.018464 0.430098
Si Si5 0.729255 0.287059 0.870998
Si Si6 0.706523 0.136360 0.766722
Si Si7 0.021837 0.238766 0.678148
O O1 0.272310 0.927756 0.619747
O O2 0.018669 0.785608 0.487809
O O3 0.265403 0.779175 0.929471
O O4 0.619755 0.771795 0.997631
O O5 0.512657 0.435080 0.318528
O O6 0.845807 0.339536 0.478643
O O7 0.000000 0.500000 0.500000
O O8 0.500000 0.500000 0.000000
O O9 0.417027 0.361030 0.547457
O O10 0.000000 0.500000 0.000000
O O11 0.030251 0.340756 0.062978
O O12 0.500000 0.000000 0.500000
O O13 0.376720 0.103529 0.518308
O O14 0.924378 0.050595 0.082253
O O15 0.716194 0.223915 0.787772
O O16 0.858029 0.164169 0.712552
#
# Coordination Sequence:
#
# PCOD9069366 Si02
#       7
#     2   2   2   2   2   2   2
#     4  12  27  43  72 106 144 187 243 295 354 429
#     4  12  28  46  76 110 140 183 247 301 357 429
#     4  12  28  50  76 104 150 193 238 299 370 434
#     4  12  23  42  71 109 138 185 243 301 353 411
#     4  12  28  49  70 107 147 196 237 289 373 438
#     4  12  24  44  74  97 145 191 235 294 360 428
#     4  12  24  45  71 101 143 188 235 299 358 422
#
# _framework density 23.002846999999999
#
# number of rings (size 3 to 8) (size 9 to 14) (size 15 to 20)
#    0.000    0.000    4.286    5.143    8.000    1.143 
#    0.000    0.000    0.000    0.000    0.000    0.000 
#    0.000    0.000    0.000    0.000    0.000    0.000 
#
# Total GULP energy -78475.994191 kJ/mol
# GULP energy per Si atom -5605.428157 kJ/mol
# Density = 2.295049 g / cm^3
# Si number density = 23.002847 Si / 1000 Ang^3
#
#
#
# Elastic Constant Matrix: (Units=GPa)
#
#
# Indices 1 2 3 4 5 6 
#
# 1 64.2159 41.7164 17.4461 2.3793 -13.4782 22.4568
# 2 41.7164 117.3703 38.5064 10.4847 0.1527 17.1593
# 3 17.4461 38.5064 140.8285 -6.1407 -9.8172 17.9964
# 4 2.3793 10.4847 -6.1407 47.8903 2.5584 -0.7122
# 5 -13.4782 0.1527 -9.8172 2.5584 42.4922 -3.2056
# 6 22.4568 17.1593 17.9964 -0.7122 -3.2056 33.4672
#
#
#
# Elastic Compliance Matrix: (Units=1/GPa)
#
#
# Indices 1 2 3 4 5 6 
#
# 1 0.026877 -0.007905 0.001141 -0.000080 0.007777 -0.013852
# 2 -0.007905 0.012455 -0.002755 -0.002524 -0.003032 0.000056
# 3 0.001141 -0.002755 0.008377 0.001463 0.001944 -0.003640
# 4 -0.000080 -0.002524 0.001463 0.021688 -0.000914 0.000935
# 5 0.007777 -0.003032 0.001944 -0.000914 0.026349 -0.002205
# 6 -0.013852 0.000056 -0.003640 0.000935 -0.002205 0.040913
#
#
# Mechanical properties :
#
#
# Convention : Reuss Voigt Hill
#
# Bulk Modulus (GPa) = 34.87821 57.52805 46.20313
# Shear Modulus (GPa) = 30.25635 39.75297 35.00466
#
# Velocity S-wave (km/s) = 3.63068 4.16164 3.90520
# Velocity P-wave (km/s) = 5.72462 6.93944 6.36109
#
# Compressibility (1/GPa) = 0.02867120
#
# Stress axis : x y z
#
# Youngs Moduli (GPa) = 37.20606 80.29062 119.37043
#
# Poissons Ratio (x) = 0.63469 -0.13616
# Poissons Ratio (y) = 0.29411 0.32884
# Poissons Ratio (z) = -0.04244 0.22118
#
# Static dielectric constant tensor:
#      x y z
#    x 1.849840 -0.023810 -0.013900 
#    y -0.023810 1.985210 -0.034700 
#    z -0.013900 -0.034700 1.812350 
# 
# From -- ./inp_files/126528.got.cif
#   From: 2010.05.17/outbox.cif.g08.bks.cpg/sg2_64_cif.got.tgz:126528.got - 2010.06.03 11:33:40.
