data_PCOD9069480
_publ_section_title
;
Structure prediction by ZEFSAII (Michael W. Deem and Ramdas Pophale) SiO2 
 PCOD9069480
Probable space group: P -1
;
_chemical_formula_sum "Si O2"
_cell_formula_units_Z 14
_cell_length_a 9.092144
_cell_length_b 18.573852
_cell_length_c 12.324811
_cell_angle_alpha 130.690891
_cell_angle_beta 71.374047
_cell_angle_gamma 148.763838
_cell_volume 651.316019
_symmetry_space_group_name_H-M "P -1"
_symmetry_group_IT_number 2
_symmetry_cell_setting 'triclinic'
loop_
_space_group_symop_operation_xyz
x,y,z
-x,-y,-z
loop_
_atom_site_type_symbol
_atom_site_label
_atom_site_fract_x
_atom_site_fract_y
_atom_site_fract_z
Si Si1 0.449936 0.482511 0.277604
Si Si2 0.276211 0.083458 0.457618
Si Si3 0.761782 0.308847 0.953722
Si Si4 0.299656 0.987116 0.558000
Si Si5 0.686755 0.403335 0.480926
Si Si6 0.886681 0.694428 0.050770
Si Si7 0.587940 0.748473 0.844730
O O1 0.269980 0.460303 0.377980
O O2 0.465840 0.387484 0.232264
O O3 0.869148 0.739522 0.406294
O O4 0.197270 0.344963 0.095831
O O5 0.476930 0.257005 0.494211
O O6 0.463258 0.143827 0.578845
O O7 0.000000 0.000000 0.500000
O O8 0.125370 0.910830 0.255863
O O9 0.958812 0.322052 0.963112
O O10 0.414955 0.087400 0.747129
O O11 0.638702 0.305654 0.079408
O O12 0.000000 0.500000 0.000000
O O13 0.500000 0.000000 0.500000
O O14 0.507864 0.294421 0.300164
O O15 0.000000 0.500000 0.500000
O O16 0.500000 0.500000 0.000000
O O17 0.000000 0.000000 0.000000
#
# Coordination Sequence:
#
# PCOD9069480 Si02
#       7
#     2   2   2   2   2   2   2
#     4  12  26  47  74 104 145 191 241 296 357 430
#     4  12  26  45  76 103 146 188 243 292 359 424
#     4  12  28  44  76 107 146 189 244 296 356 425
#     4  12  24  45  74 111 141 187 244 302 350 416
#     4  12  28  48  72 107 143 191 237 295 362 430
#     4  12  23  44  68 110 141 182 239 301 354 415
#     4  12  28  50  72 105 148 191 236 296 366 431
#
# _framework density 21.494944
#
# number of rings (size 3 to 8) (size 9 to 14) (size 15 to 20)
#    0.000    0.000    4.286    4.714   10.000    1.143 
#    0.000    2.857    0.000    0.000    0.000    0.000 
#    0.000    0.000    0.000    0.000    0.000    0.000 
#
# Total GULP energy -78269.666188 kJ/mol
# GULP energy per Si atom -5590.690442 kJ/mol
# Density = 2.144602 g / cm^3
# Si number density = 21.494944 Si / 1000 Ang^3
#
#
#
# Elastic Constant Matrix: (Units=GPa)
#
#
# Indices 1 2 3 4 5 6 
#
# 1 195.4192 54.3961 58.9003 -15.8906 -3.6965 2.7570
# 2 54.3961 107.4144 24.4407 -19.8117 -1.4003 5.7684
# 3 58.9003 24.4407 78.6401 -19.9431 15.2376 12.8066
# 4 -15.8906 -19.8117 -19.9431 39.9161 -7.5362 -7.4753
# 5 -3.6965 -1.4003 15.2376 -7.5362 47.4733 -16.8432
# 6 2.7570 5.7684 12.8066 -7.4753 -16.8432 41.3175
#
#
#
# Elastic Compliance Matrix: (Units=1/GPa)
#
#
# Indices 1 2 3 4 5 6 
#
# 1 0.007756 -0.002640 -0.006247 -0.000031 0.003692 0.003287
# 2 -0.002640 0.011669 -0.000705 0.004609 0.001116 0.000054
# 3 -0.006247 -0.000705 0.022404 0.004525 -0.010487 -0.009885
# 4 -0.000031 0.004609 0.004525 0.031853 0.005912 0.006129
# 5 0.003692 0.001116 -0.010487 0.005912 0.031658 0.016824
# 6 0.003287 0.000054 -0.009885 0.006129 0.016824 0.035007
#
#
# Mechanical properties :
#
#
# Convention : Reuss Voigt Hill
#
# Bulk Modulus (GPa) = 44.16341 72.99421 58.57881
# Shear Modulus (GPa) = 29.92562 41.99049 35.95805
#
# Velocity S-wave (km/s) = 3.73529 4.42464 4.09450
# Velocity P-wave (km/s) = 6.26049 7.75473 7.04732
#
# Compressibility (1/GPa) = 0.02264318
#
# Stress axis : x y z
#
# Youngs Moduli (GPa) = 128.93108 85.69626 44.63496
#
# Poissons Ratio (x) = 0.22628 0.27885
# Poissons Ratio (y) = 0.34044 0.03148
# Poissons Ratio (z) = 0.80547 0.06043
#
# Static dielectric constant tensor:
#      x y z
#    x 1.716790 -0.009340 0.026000 
#    y -0.009340 1.784610 -0.000310 
#    z 0.026000 -0.000310 1.833680 
# 
# From -- ./inp_files/278673.got.cif
#   From: 2010.05.17/outbox.cif.g08.bks.cpg/sg2_140_cif.got.tgz:278673.got - 2010.06.03 11:33:40.
