data_PCOD9069940
_publ_section_title
;
Structure prediction by ZEFSAII (Michael W. Deem and Ramdas Pophale) SiO2 
 PCOD9069940
Probable space group: P -1
;
_chemical_formula_sum "Si O2"
_cell_formula_units_Z 14
_cell_length_a 8.077245
_cell_length_b 8.366844
_cell_length_c 11.737799
_cell_angle_alpha 93.705298
_cell_angle_beta 66.646239
_cell_angle_gamma 124.641605
_cell_volume 585.441929
_symmetry_space_group_name_H-M "P -1"
_symmetry_group_IT_number 2
_symmetry_cell_setting 'triclinic'
loop_
_space_group_symop_operation_xyz
x,y,z
-x,-y,-z
loop_
_atom_site_type_symbol
_atom_site_label
_atom_site_fract_x
_atom_site_fract_y
_atom_site_fract_z
Si Si1 0.206446 0.218222 0.492792
Si Si2 0.441590 0.881753 0.203495
Si Si3 0.939642 0.530124 0.346558
Si Si4 0.149245 0.001351 0.056816
Si Si5 0.138033 0.461670 0.876932
Si Si6 0.461860 0.811403 0.445349
Si Si7 0.383166 0.238533 0.211691
O O1 0.110375 0.318834 0.587993
O O2 0.387527 0.234532 0.528409
O O3 0.319418 0.305668 0.343755
O O4 0.000000 0.000000 0.500000
O O5 0.533584 0.866112 0.297960
O O6 0.202657 0.665360 0.253889
O O7 0.408715 0.058840 0.222628
O O8 0.613645 0.929226 0.058699
O O9 0.822013 0.436779 0.252427
O O10 0.803521 0.357262 0.469547
O O11 0.204039 0.144425 0.154799
O O12 0.006944 0.771345 0.120618
O O13 0.000000 0.000000 0.000000
O O14 0.375843 0.564385 0.877149
O O15 0.000000 0.500000 0.000000
O O16 0.500000 0.000000 0.500000
#
# Coordination Sequence:
#
# PCOD9069940 Si02
#       7
#     2   2   2   2   2   2   2
#     4  12  24  43  74 105 148 193 239 301 365 435
#     4  12  24  45  73 104 147 188 241 301 361 432
#     4  12  25  46  74 108 144 199 241 299 371 436
#     4  12  29  49  75 109 146 187 249 314 354 433
#     4  12  24  45  78 102 143 200 245 289 369 437
#     4  12  25  44  68 111 145 186 246 296 364 431
#     4  12  24  48  74 107 146 198 241 291 375 437
#
# _framework density 23.913557999999998
#
# number of rings (size 3 to 8) (size 9 to 14) (size 15 to 20)
#    0.000    0.000    7.143    2.143    4.000    0.571 
#    0.000    1.429    0.000    0.000    0.000    0.000 
#    0.000    0.000    0.000    0.000    0.000    0.000 
#
# Total GULP energy -78366.653246 kJ/mol
# GULP energy per Si atom -5597.618089 kJ/mol
# Density = 2.385913 g / cm^3
# Si number density = 23.913558 Si / 1000 Ang^3
#
#
#
# Elastic Constant Matrix: (Units=GPa)
#
#
# Indices 1 2 3 4 5 6 
#
# 1 76.3460 10.8582 25.6112 4.9139 9.8841 28.9325
# 2 10.8582 90.1678 12.7270 -9.8687 -5.8057 31.1599
# 3 25.6112 12.7270 90.1381 1.5090 10.1553 1.7007
# 4 4.9139 -9.8687 1.5090 48.7465 16.1306 -2.2684
# 5 9.8841 -5.8057 10.1553 16.1306 42.9241 1.4493
# 6 28.9325 31.1599 1.7007 -2.2684 1.4493 34.8589
#
#
#
# Elastic Compliance Matrix: (Units=1/GPa)
#
#
# Indices 1 2 3 4 5 6 
#
# 1 0.024983 0.006962 -0.007376 -0.001602 -0.001565 -0.026638
# 2 0.006962 0.018977 -0.004509 0.001494 0.002229 -0.022517
# 3 -0.007376 -0.004509 0.013951 0.000785 -0.002832 0.009640
# 4 -0.001602 0.001494 0.000785 0.023907 -0.008662 0.001872
# 5 -0.001565 0.002229 -0.002832 -0.008662 0.027961 -0.002282
# 6 -0.026638 -0.022517 0.009640 0.001872 -0.002282 0.070671
#
#
# Mechanical properties :
#
#
# Convention : Reuss Voigt Hill
#
# Bulk Modulus (GPa) = 20.80508 39.44940 30.12724
# Shear Modulus (GPa) = 24.23459 39.13628 31.68543
#
# Velocity S-wave (km/s) = 3.18689 4.04985 3.64400
# Velocity P-wave (km/s) = 4.71812 6.19684 5.50734
#
# Compressibility (1/GPa) = 0.04806519
#
# Stress axis : x y z
#
# Youngs Moduli (GPa) = 40.02704 52.69555 71.68200
#
# Poissons Ratio (x) = -0.36687 0.52871
# Poissons Ratio (y) = -0.27867 0.32321
# Poissons Ratio (z) = 0.29523 0.23760
#
# Static dielectric constant tensor:
#      x y z
#    x 0.880760 -0.594900 -0.770500 
#    y -0.594900 1.561680 -0.508300 
#    z -0.770500 -0.508300 1.397520 
# 
# From -- ./inp_files/175746.got.cif
#   From: 2010.05.17/outbox.cif.g08.bks.cpg/sg2_88_cif.got.tgz:175746.got - 2010.06.03 11:33:40.
