data_PCOD9069312
_publ_section_title
;
Structure prediction by ZEFSAII (Michael W. Deem and Ramdas Pophale) SiO2 
 PCOD9069312
Probable space group: P -1
;
_chemical_formula_sum "Si O2"
_cell_formula_units_Z 12
_cell_length_a 12.055865
_cell_length_b 9.511898
_cell_length_c 9.372470
_cell_angle_alpha 135.854387
_cell_angle_beta 111.425534
_cell_angle_gamma 45.427670
_cell_volume 512.115596
_symmetry_space_group_name_H-M "P -1"
_symmetry_group_IT_number 2
_symmetry_cell_setting 'triclinic'
loop_
_space_group_symop_operation_xyz
x,y,z
-x,-y,-z
loop_
_atom_site_type_symbol
_atom_site_label
_atom_site_fract_x
_atom_site_fract_y
_atom_site_fract_z
Si Si1 0.192665 0.260272 0.388577
Si Si2 0.173748 0.869039 0.935194
Si Si3 0.637013 0.508183 0.024771
Si Si4 0.818688 0.145619 0.568501
Si Si5 0.650688 0.954053 0.382429
Si Si6 0.328256 0.500978 0.500837
O O1 0.306707 0.114306 0.477730
O O2 0.236102 0.400298 0.414780
O O3 0.000000 0.500000 0.500000
O O4 0.216242 0.032635 0.141587
O O5 0.223784 0.797108 0.743884
O O6 0.276619 0.575655 0.843718
O O7 0.000000 0.000000 0.000000
O O8 0.761005 0.269096 0.792828
O O9 0.500000 0.500000 0.000000
O O10 0.613717 0.772346 0.170465
O O11 0.686767 0.420415 0.612398
O O12 0.799813 0.924933 0.381059
O O13 0.000000 0.000000 0.500000
O O14 0.501123 0.263954 0.483152
#
# Coordination Sequence:
#
# PCOD9069312 Si02
#       6
#     2   2   2   2   2   2
#     4  12  23  42  72 105 143 194 252 302 367 447
#     4  12  23  41  70 103 141 192 246 297 362 442
#     4  12  26  47  79 107 145 198 253 301 368 450
#     4  12  28  48  73 109 157 195 244 316 378 434
#     4  12  26  46  74 106 149 197 251 305 371 446
#     4  12  26  43  71 110 148 190 247 314 370 432
#
# _framework density 23.432212
#
# number of rings (size 3 to 8) (size 9 to 14) (size 15 to 20)
#    0.000    0.000    5.000    5.000    0.000    2.667 
#    0.000    0.000    0.000    0.000    0.000    0.000 
#    0.000    0.000    0.000    0.000    0.000    0.000 
#
# Total GULP energy -66912.975944 kJ/mol
# GULP energy per Si atom -5576.081329 kJ/mol
# Density = 2.337888 g / cm^3
# Si number density = 23.432212 Si / 1000 Ang^3
#
#
#
# Elastic Constant Matrix: (Units=GPa)
#
#
# Indices 1 2 3 4 5 6 
#
# 1 196.9213 20.1073 58.4636 14.5557 18.3957 9.2925
# 2 20.1073 72.1932 -0.4174 0.6828 12.0831 6.7714
# 3 58.4636 -0.4174 108.5643 8.1522 21.8249 3.9705
# 4 14.5557 0.6828 8.1522 30.9754 4.4479 -2.9906
# 5 18.3957 12.0831 21.8249 4.4479 42.1419 7.8961
# 6 9.2925 6.7714 3.9705 -2.9906 7.8961 40.6634
#
#
#
# Elastic Compliance Matrix: (Units=1/GPa)
#
#
# Indices 1 2 3 4 5 6 
#
# 1 0.006436 -0.001656 -0.003221 -0.002201 -0.000248 -0.000994
# 2 -0.001656 0.015186 0.001847 0.000444 -0.004363 -0.001451
# 3 -0.003221 0.001847 0.012085 -0.000922 -0.005325 0.000215
# 4 -0.002201 0.000444 -0.000922 0.034330 -0.002991 0.003625
# 5 -0.000248 -0.004363 -0.005325 -0.002991 0.029015 -0.004551
# 6 -0.000994 -0.001451 0.000215 0.003625 -0.004551 0.026190
#
#
# Mechanical properties :
#
#
# Convention : Reuss Voigt Hill
#
# Bulk Modulus (GPa) = 36.17027 59.33176 47.75101
# Shear Modulus (GPa) = 36.09665 42.72449 39.41057
#
# Velocity S-wave (km/s) = 3.92914 4.27467 4.10554
# Velocity P-wave (km/s) = 6.00449 7.05261 6.54955
#
# Compressibility (1/GPa) = 0.02764702
#
# Stress axis : x y z
#
# Youngs Moduli (GPa) = 155.37040 65.85173 82.74984
#
# Poissons Ratio (x) = 0.10903 0.26653
# Poissons Ratio (y) = 0.25724 -0.15282
# Poissons Ratio (z) = 0.50043 -0.12161
#
# Static dielectric constant tensor:
#      x y z
#    x 0.730900 -0.662800 -0.686730 
#    y -0.662800 1.635250 -0.323890 
#    z -0.686730 -0.323890 1.432080 
# 
# From -- ./inp_files/246022.got.cif
#   From: 2010.05.17/outbox.cif.g08.bks.cpg/sg2_124_cif.got.tgz:246022.got - 2010.06.03 11:33:40.
