data_PCOD9069578
_publ_section_title
;
Structure prediction by ZEFSAII (Michael W. Deem and Ramdas Pophale) SiO2 
 PCOD9069578
Probable space group: P -1
;
_chemical_formula_sum "Si O2"
_cell_formula_units_Z 16
_cell_length_a 10.764820
_cell_length_b 23.399678
_cell_length_c 8.632378
_cell_angle_alpha 30.077242
_cell_angle_beta 45.922561
_cell_angle_gamma 35.617456
_cell_volume 634.413801
_symmetry_space_group_name_H-M "P -1"
_symmetry_group_IT_number 2
_symmetry_cell_setting 'triclinic'
loop_
_space_group_symop_operation_xyz
x,y,z
-x,-y,-z
loop_
_atom_site_type_symbol
_atom_site_label
_atom_site_fract_x
_atom_site_fract_y
_atom_site_fract_z
Si Si1 0.587098 0.076697 0.335175
Si Si2 0.629822 0.707147 0.712486
Si Si3 0.734766 0.463165 0.395234
Si Si4 0.026104 0.227439 0.222861
Si Si5 0.077150 0.228989 0.825734
Si Si6 0.668822 0.223342 0.655314
Si Si7 0.220107 0.934056 0.376748
Si Si8 0.194169 0.406850 0.667947
O O1 0.423143 0.187827 0.344037
O O2 0.500000 0.000000 0.500000
O O3 0.648087 0.160977 0.977639
O O4 0.805638 0.941140 0.531110
O O5 0.781233 0.713374 0.448311
O O6 0.398418 0.788029 0.646437
O O7 0.740612 0.549499 0.045742
O O8 0.500000 0.500000 0.500000
O O9 0.777843 0.525920 0.361893
O O10 0.910790 0.298079 0.664759
O O11 0.821972 0.273927 0.395132
O O12 0.964566 0.267737 0.000517
O O13 0.152200 0.290889 0.020080
O O14 0.242754 0.061076 0.066272
O O15 0.774340 0.100856 0.724461
O O16 0.423821 0.337810 0.550705
O O17 0.000000 0.000000 0.500000
O O18 0.000000 0.500000 0.500000
#
# Coordination Sequence:
#
# PCOD9069578 Si02
#       8
#     2   2   2   2   2   2   2   2
#     4  12  23  45  74 114 156 200 261 327 401 467
#     4  12  25  45  75 109 155 205 259 326 397 468
#     4  12  28  53  75 111 159 207 269 328 394 478
#     4  12  25  47  77 114 155 203 268 323 397 475
#     4  12  25  47  76 114 152 211 262 327 391 476
#     4  12  26  48  80 116 158 207 260 339 395 471
#     4  12  24  44  76 116 155 201 266 321 393 471
#     4  12  27  52  78 113 157 210 267 323 401 477
#
# _framework density 25.220130999999999
#
# number of rings (size 3 to 8) (size 9 to 14) (size 15 to 20)
#    0.000    0.000    6.250    3.375    0.000    0.500 
#    9.000    0.000    0.000    0.000    0.000    0.000 
#    0.000    0.000    0.000    0.000    0.000    0.000 
#
# Total GULP energy -89539.987134 kJ/mol
# GULP energy per Si atom -5596.249196 kJ/mol
# Density = 2.516273 g / cm^3
# Si number density = 25.220131 Si / 1000 Ang^3
#
#
#
# Elastic Constant Matrix: (Units=GPa)
#
#
# Indices 1 2 3 4 5 6 
#
# 1 96.5498 26.6799 21.5658 -3.0234 -3.9363 -11.8667
# 2 26.6799 103.2574 31.6257 10.8615 1.0160 -22.9166
# 3 21.5658 31.6257 118.0342 3.1789 18.0748 -15.9085
# 4 -3.0234 10.8615 3.1789 42.3820 -15.6884 2.8484
# 5 -3.9363 1.0160 18.0748 -15.6884 38.2157 -9.1933
# 6 -11.8667 -22.9166 -15.9085 2.8484 -9.1933 53.7990
#
#
#
# Elastic Compliance Matrix: (Units=1/GPa)
#
#
# Indices 1 2 3 4 5 6 
#
# 1 0.011914 -0.002495 -0.001969 0.002939 0.003786 0.001475
# 2 -0.002495 0.012298 -0.002186 -0.003428 0.000061 0.004234
# 3 -0.001969 -0.002186 0.010524 -0.002650 -0.006003 0.000861
# 4 0.002939 -0.003428 -0.002650 0.030038 0.013778 -0.000831
# 5 0.003786 0.000061 -0.006003 0.013778 0.036141 0.004533
# 6 0.001475 0.004234 0.000861 -0.000831 0.004533 0.021790
#
#
# Mechanical properties :
#
#
# Convention : Reuss Voigt Hill
#
# Bulk Modulus (GPa) = 46.64528 53.06491 49.85509
# Shear Modulus (GPa) = 34.92858 42.74400 38.83629
#
# Velocity S-wave (km/s) = 3.72553 4.12131 3.92840
# Velocity P-wave (km/s) = 6.08617 6.61311 6.35511
#
# Compressibility (1/GPa) = 0.02143840
#
# Stress axis : x y z
#
# Youngs Moduli (GPa) = 83.93473 81.31296 95.02016
#
# Poissons Ratio (x) = 0.20284 0.18705
# Poissons Ratio (y) = 0.20938 0.20769
# Poissons Ratio (z) = 0.16523 0.17773
#
# Static dielectric constant tensor:
#      x y z
#    x 2.050810 -0.009650 -0.027600 
#    y -0.009650 2.011710 -0.087430 
#    z -0.027600 -0.087430 2.076580 
# 
# From -- ./inp_files/285765.got.cif
#   From: 2010.05.17/outbox.cif.g08.bks.cpg/sg2_143_cif.got.tgz:285765.got - 2010.06.03 11:33:40.
