data_PCOD9069060
_publ_section_title
;
Structure prediction by ZEFSAII (Michael W. Deem and Ramdas Pophale) SiO2 
 PCOD9069060
Probable space group: P -1
;
_chemical_formula_sum "Si O2"
_cell_formula_units_Z 14
_cell_length_a 5.954888
_cell_length_b 12.235044
_cell_length_c 12.892180
_cell_angle_alpha 126.253052
_cell_angle_beta 76.067299
_cell_angle_gamma 77.446120
_cell_volume 652.922662
_symmetry_space_group_name_H-M "P -1"
_symmetry_group_IT_number 2
_symmetry_cell_setting 'triclinic'
loop_
_space_group_symop_operation_xyz
x,y,z
-x,-y,-z
loop_
_atom_site_type_symbol
_atom_site_label
_atom_site_fract_x
_atom_site_fract_y
_atom_site_fract_z
Si Si1 0.829723 0.425574 0.918230
Si Si2 0.231491 0.560634 0.625673
Si Si3 0.593409 0.286869 0.159898
Si Si4 0.075936 0.583250 0.340360
Si Si5 0.564689 0.027270 0.126616
Si Si6 0.018818 0.171834 0.357763
Si Si7 0.987428 0.128060 0.864973
O O1 0.910597 0.413130 0.782028
O O2 0.945331 0.256446 0.859057
O O3 0.500000 0.500000 0.000000
O O4 0.000000 0.500000 0.000000
O O5 0.500000 0.500000 0.500000
O O6 0.253315 0.621296 0.770213
O O7 0.164003 0.423859 0.578248
O O8 0.044838 0.706072 0.660015
O O9 0.303473 0.417328 0.252981
O O10 0.625268 0.169377 0.180857
O O11 0.709761 0.193165 0.990711
O O12 0.095653 0.724726 0.470207
O O13 0.329513 0.076367 0.260303
O O14 0.811836 0.891379 0.075615
O O15 0.500000 0.000000 0.000000
O O16 0.927386 0.041761 0.281490
#
# Coordination Sequence:
#
# PCOD9069060 Si02
#       7
#     2   2   2   2   2   2   2
#     4  12  30  55  81 110 150 207 269 321 373 464
#     4  12  23  41  70 110 151 192 244 311 388 457
#     4  12  22  41  70 105 145 189 249 307 380 451
#     4  12  27  45  74 108 147 201 252 312 378 459
#     4  12  24  40  69 110 152 190 244 314 392 456
#     4  12  25  42  68 109 151 186 245 316 392 448
#     4  12  27  45  73 107 147 199 252 315 382 458
#
# _framework density 21.442049999999998
#
# number of rings (size 3 to 8) (size 9 to 14) (size 15 to 20)
#    0.000    0.000    7.143    3.429    4.000    0.571 
#    0.000    0.714    0.000    0.000    0.000    0.000 
#    0.000    0.000    0.000    0.000    0.000    0.000 
#
# Total GULP energy -78098.321636 kJ/mol
# GULP energy per Si atom -5578.451545 kJ/mol
# Density = 2.139325 g / cm^3
# Si number density = 21.442050 Si / 1000 Ang^3
#
#
#
# Elastic Constant Matrix: (Units=GPa)
#
#
# Indices 1 2 3 4 5 6 
#
# 1 75.1914 40.2345 36.9594 -0.2458 4.9609 4.7102
# 2 40.2345 150.2735 46.4003 -6.2960 7.6562 3.2150
# 3 36.9594 46.4003 120.3693 -0.8756 6.9017 -2.9574
# 4 -0.2458 -6.2960 -0.8756 31.2727 -0.8233 -1.5656
# 5 4.9609 7.6562 6.9017 -0.8233 40.6616 4.2839
# 6 4.7102 3.2150 -2.9574 -1.5656 4.2839 21.2657
#
#
#
# Elastic Compliance Matrix: (Units=1/GPa)
#
#
# Indices 1 2 3 4 5 6 
#
# 1 0.017370 -0.003304 -0.004139 -0.000851 -0.000400 -0.003905
# 2 -0.003304 0.008317 -0.002154 0.001541 -0.000706 -0.000569
# 3 -0.004139 -0.002154 0.010549 -0.000055 -0.001191 0.002945
# 4 -0.000851 0.001541 -0.000055 0.032399 0.000238 0.002285
# 5 -0.000400 -0.000706 -0.001191 0.000238 0.025519 -0.005093
# 6 -0.003905 -0.000569 0.002945 0.002285 -0.005093 0.049579
#
#
# Mechanical properties :
#
#
# Convention : Reuss Voigt Hill
#
# Bulk Modulus (GPa) = 58.67776 65.89138 62.28457
# Shear Modulus (GPa) = 29.65447 33.45601 31.55524
#
# Velocity S-wave (km/s) = 3.72291 3.95435 3.84037
# Velocity P-wave (km/s) = 6.77534 7.18650 6.98395
#
# Compressibility (1/GPa) = 0.01704223
#
# Stress axis : x y z
#
# Youngs Moduli (GPa) = 57.56950 120.23562 94.79460
#
# Poissons Ratio (x) = 0.39731 0.39235
# Poissons Ratio (y) = 0.19024 0.20416
# Poissons Ratio (z) = 0.23828 0.25895
#
# Static dielectric constant tensor:
#      x y z
#    x 2.052940 -0.010230 -0.056390 
#    y -0.010230 1.758430 0.060980 
#    z -0.056390 0.060980 1.884360 
# 
# From -- ./inp_files/40424.got.cif
#   From: 2010.05.17/outbox.cif.g08.bks.cpg/sg2_21_cif.got.tgz:40424.got - 2010.06.03 11:33:40.
