data_PCOD9069381
_publ_section_title
;
Structure prediction by ZEFSAII (Michael W. Deem and Ramdas Pophale) SiO2 
 PCOD9069381
Probable space group: P -1
;
_chemical_formula_sum "Si O2"
_cell_formula_units_Z 15
_cell_length_a 8.099811
_cell_length_b 11.426140
_cell_length_c 15.250903
_cell_angle_alpha 152.813426
_cell_angle_beta 107.532316
_cell_angle_gamma 78.571907
_cell_volume 606.977402
_symmetry_space_group_name_H-M "P -1"
_symmetry_group_IT_number 2
_symmetry_cell_setting 'triclinic'
loop_
_space_group_symop_operation_xyz
x,y,z
-x,-y,-z
loop_
_atom_site_type_symbol
_atom_site_label
_atom_site_fract_x
_atom_site_fract_y
_atom_site_fract_z
Si Si1 0.681603 0.705636 0.678641
Si Si2 0.742449 0.129711 0.481113
Si Si3 0.557870 0.908881 0.134573
Si Si4 0.901972 0.764859 0.485874
Si Si5 0.000000 0.500000 0.500000
Si Si6 0.352816 0.416811 0.815228
Si Si7 0.767899 0.699240 0.891091
Si Si8 0.088824 0.692676 0.066893
O O1 0.500000 0.500000 0.500000
O O2 0.758114 0.729457 0.805504
O O3 0.825316 0.626905 0.584626
O O4 0.621804 0.980903 0.831095
O O5 0.696936 0.393632 0.689101
O O6 0.951986 0.165633 0.521851
O O7 0.668545 0.083244 0.340420
O O8 0.659693 0.879111 0.355151
O O9 0.531885 0.614984 0.970030
O O10 0.658297 0.898717 0.052617
O O11 0.735503 0.593464 0.301258
O O12 0.984432 0.609179 0.469931
O O13 0.854419 0.031286 0.693798
O O14 0.236536 0.555044 0.955460
O O15 0.951875 0.739429 0.999077
O O16 0.000000 0.500000 0.000000
#
# Coordination Sequence:
#
# PCOD9069381 Si02
#       8
#     2   2   2   2   1   2   2   2
#     4  12  26  50  78 107 155 201 250 314 380 454
#     4  12  23  48  72 104 151 198 245 304 376 453
#     4  12  27  46  72 112 148 192 249 310 377 451
#     4  12  24  44  72 105 146 191 251 308 366 449
#     4  12  26  46  78 108 142 196 252 310 374 438
#     4  12  26  43  72 110 146 189 253 308 371 446
#     4  12  25  45  76 105 145 203 247 298 385 446
#     4  12  23  42  73 105 139 195 247 303 366 444
#
# _framework density 24.712616000000001
#
# number of rings (size 3 to 8) (size 9 to 14) (size 15 to 20)
#    0.000    0.000    6.667    2.800    1.867    2.667 
#    0.000    2.667    0.000    0.000    0.000    0.000 
#    0.000    0.000    0.000    0.000    0.000    0.000 
#
# Total GULP energy -83805.554609 kJ/mol
# GULP energy per Si atom -5587.036974 kJ/mol
# Density = 2.465637 g / cm^3
# Si number density = 24.712616 Si / 1000 Ang^3
#
#
#
# Elastic Constant Matrix: (Units=GPa)
#
#
# Indices 1 2 3 4 5 6 
#
# 1 71.4904 22.2687 26.1326 -17.1051 -23.3137 -10.2478
# 2 22.2687 97.7299 10.8083 -7.2748 1.9483 -5.8994
# 3 26.1326 10.8083 134.6370 -6.3233 -13.1554 -14.2185
# 4 -17.1051 -7.2748 -6.3233 37.5458 -5.2832 -6.4775
# 5 -23.3137 1.9483 -13.1554 -5.2832 40.6973 -1.4820
# 6 -10.2478 -5.8994 -14.2185 -6.4775 -1.4820 24.7863
#
#
#
# Elastic Compliance Matrix: (Units=1/GPa)
#
#
# Indices 1 2 3 4 5 6 
#
# 1 0.028256 -0.004490 -0.000791 0.017265 0.018963 0.015806
# 2 -0.004490 0.011358 -0.000330 -0.000290 -0.003246 0.000388
# 3 -0.000791 -0.000330 0.008549 0.002322 0.002820 0.005274
# 4 0.017265 -0.000290 0.002322 0.040632 0.016658 0.020015
# 5 0.018963 -0.003246 0.002820 0.016658 0.039224 0.015383
# 6 0.015806 0.000388 0.005274 0.020015 0.015383 0.056148
#
#
# Mechanical properties :
#
#
# Convention : Reuss Voigt Hill
#
# Bulk Modulus (GPa) = 27.07001 46.91960 36.99481
# Shear Modulus (GPa) = 24.07292 36.91575 30.49434
#
# Velocity S-wave (km/s) = 3.12447 3.86917 3.51659
# Velocity P-wave (km/s) = 4.89838 6.24403 5.61168
#
# Compressibility (1/GPa) = 0.03694125
#
# Stress axis : x y z
#
# Youngs Moduli (GPa) = 35.39073 88.04097 116.97385
#
# Poissons Ratio (x) = 0.39527 0.09254
# Poissons Ratio (y) = 0.15889 0.03863
# Poissons Ratio (z) = 0.02800 0.02907
#
# Static dielectric constant tensor:
#      x y z
#    x 1.955300 0.027510 0.038420 
#    y 0.027510 2.003880 0.035840 
#    z 0.038420 0.035840 1.911950 
# 
# From -- ./inp_files/498636.got.cif
#   From: 2010.05.17/outbox.cif.g08.bks.cpg/sg2_250_cif.got.tgz:498636.got - 2010.06.03 11:33:40.
