data_PCOD9069383
_publ_section_title
;
Structure prediction by ZEFSAII (Michael W. Deem and Ramdas Pophale) SiO2 
 PCOD9069383
Probable space group: P -1
;
_chemical_formula_sum "Si O2"
_cell_formula_units_Z 16
_cell_length_a 14.591077
_cell_length_b 12.803301
_cell_length_c 9.882084
_cell_angle_alpha 32.813302
_cell_angle_beta 137.216436
_cell_angle_gamma 135.325261
_cell_volume 656.838322
_symmetry_space_group_name_H-M "P -1"
_symmetry_group_IT_number 2
_symmetry_cell_setting 'triclinic'
loop_
_space_group_symop_operation_xyz
x,y,z
-x,-y,-z
loop_
_atom_site_type_symbol
_atom_site_label
_atom_site_fract_x
_atom_site_fract_y
_atom_site_fract_z
Si Si1 0.243147 0.618787 0.560806
Si Si2 0.886333 0.143540 0.027724
Si Si3 0.770240 0.709618 0.296460
Si Si4 0.451392 0.203509 0.229411
Si Si5 0.663269 0.760227 0.652706
Si Si6 0.203289 0.833585 0.788957
Si Si7 0.140190 0.514188 0.846751
Si Si8 0.405215 0.610337 0.361744
O O1 0.234503 0.793197 0.258086
O O2 0.181443 0.414588 0.634960
O O3 0.403363 0.636185 0.755021
O O4 0.160344 0.621471 0.606586
O O5 0.019656 0.311153 0.941109
O O6 0.868126 0.162329 0.147821
O O7 0.875536 0.915652 0.227167
O O8 0.725233 0.557277 0.537657
O O9 0.627011 0.754150 0.035958
O O10 0.344025 0.192471 0.248690
O O11 0.500000 0.000000 0.500000
O O12 0.505896 0.716587 0.475003
O O13 0.757812 0.949956 0.471391
O O14 0.722286 0.569090 0.896449
O O15 0.123884 0.664183 0.783625
O O16 0.346730 0.770385 0.043683
O O17 0.500000 0.500000 0.500000
#
# Coordination Sequence:
#
# PCOD9069383 Si02
#       8
#     2   2   2   2   2   2   2   2
#     4  12  24  48  73 105 141 182 235 294 355 416
#     4  12  28  48  71 102 140 195 241 287 342 415
#     4  12  25  44  72 103 146 183 231 292 356 416
#     4  12  23  42  73 106 143 176 224 292 362 419
#     4  12  25  45  70 108 140 180 230 288 361 421
#     4  12  27  47  72 104 143 185 239 291 354 415
#     4  12  28  48  72 102 142 190 242 288 345 418
#     4  12  24  43  71 104 140 179 229 289 355 423
#
# _framework density 24.359114999999999
#
# number of rings (size 3 to 8) (size 9 to 14) (size 15 to 20)
#    0.000    0.000    6.250    3.750    1.750    2.000 
#    0.000    0.000    0.000    0.000    0.000    0.000 
#    0.000    0.000    0.000    0.000    0.000    0.000 
#
# Total GULP energy -89691.515863 kJ/mol
# GULP energy per Si atom -5605.719741 kJ/mol
# Density = 2.430367 g / cm^3
# Si number density = 24.359115 Si / 1000 Ang^3
#
#
#
# Elastic Constant Matrix: (Units=GPa)
#
#
# Indices 1 2 3 4 5 6 
#
# 1 78.2360 22.1230 14.8978 3.9021 -27.8970 -12.0528
# 2 22.1230 124.7320 14.3163 -15.5306 -15.9645 -14.6495
# 3 14.8978 14.3163 93.5099 -13.2615 -14.2858 -14.6518
# 4 3.9021 -15.5306 -13.2615 32.3254 3.5175 4.9700
# 5 -27.8970 -15.9645 -14.2858 3.5175 45.9955 -2.3887
# 6 -12.0528 -14.6495 -14.6518 4.9700 -2.3887 41.2774
#
#
#
# Elastic Compliance Matrix: (Units=1/GPa)
#
#
# Indices 1 2 3 4 5 6 
#
# 1 0.018583 -0.001786 -0.000871 -0.005558 0.011107 0.005795
# 2 -0.001786 0.009389 0.000137 0.004182 0.002027 0.002473
# 3 -0.000871 0.000137 0.012545 0.004359 0.003286 0.003913
# 4 -0.005558 0.004182 0.004359 0.036271 -0.003504 -0.003162
# 5 0.011107 0.002027 0.003286 -0.003504 0.030851 0.007336
# 6 0.005795 0.002473 0.003913 -0.003162 0.007336 0.028990
#
#
# Mechanical properties :
#
#
# Convention : Reuss Voigt Hill
#
# Bulk Modulus (GPa) = 28.18614 44.35022 36.26818
# Shear Modulus (GPa) = 32.57483 40.26240 36.41861
#
# Velocity S-wave (km/s) = 3.66084 4.06996 3.87081
# Velocity P-wave (km/s) = 5.42819 6.35078 5.90752
#
# Compressibility (1/GPa) = 0.03547843
#
# Stress axis : x y z
#
# Youngs Moduli (GPa) = 53.81277 106.51040 79.71341
#
# Poissons Ratio (x) = 0.19021 0.06940
# Poissons Ratio (y) = 0.09610 -0.01095
# Poissons Ratio (z) = 0.04685 -0.01463
#
# Static dielectric constant tensor:
#      x y z
#    x 1.907890 0.015630 0.034990 
#    y 0.015630 1.962330 0.036240 
#    z 0.034990 0.036240 1.949050 
# 
# From -- ./inp_files/306369.got.cif
#   From: 2010.05.17/outbox.cif.g08.bks.cpg/sg2_154_cif.got.tgz:306369.got - 2010.06.03 11:33:40.
