data_PCOD9069173
_publ_section_title
;
Structure prediction by ZEFSAII (Michael W. Deem and Ramdas Pophale) SiO2 
 PCOD9069173
Probable space group: P -1
;
_chemical_formula_sum "Si O2"
_cell_formula_units_Z 13
_cell_length_a 10.056601
_cell_length_b 13.336612
_cell_length_c 22.421806
_cell_angle_alpha 155.209928
_cell_angle_beta 150.796619
_cell_angle_gamma 36.502222
_cell_volume 614.263735
_symmetry_space_group_name_H-M "P -1"
_symmetry_group_IT_number 2
_symmetry_cell_setting 'triclinic'
loop_
_space_group_symop_operation_xyz
x,y,z
-x,-y,-z
loop_
_atom_site_type_symbol
_atom_site_label
_atom_site_fract_x
_atom_site_fract_y
_atom_site_fract_z
Si Si1 0.405677 0.273240 0.950410
Si Si2 0.578133 0.125139 0.158291
Si Si3 0.687295 0.973734 0.790296
Si Si4 0.000000 0.500000 0.500000
Si Si5 0.993241 0.599897 0.897891
Si Si6 0.139236 0.753770 0.445220
Si Si7 0.075103 0.534322 0.693984
O O1 0.539347 0.130271 0.868955
O O2 0.126261 0.413917 0.897170
O O3 0.378311 0.072051 0.880475
O O4 0.614006 0.461150 0.159302
O O5 0.319768 0.309511 0.168664
O O6 0.844618 0.264327 0.327262
O O7 0.500000 0.000000 0.000000
O O8 0.457588 0.797078 0.582356
O O9 0.934776 0.784338 0.799811
O O10 0.817866 0.173115 0.907922
O O11 0.053626 0.539463 0.617092
O O12 0.988272 0.454568 0.755604
O O13 0.075533 0.681161 0.449025
O O14 0.000000 0.000000 0.500000
#
# Coordination Sequence:
#
# PCOD9069173 Si02
#       7
#     2   2   2   1   2   2   2
#     4  12  23  44  73 104 142 183 230 296 358 418
#     4  12  26  49  70  98 141 189 242 288 348 421
#     4  12  22  44  71 105 144 181 231 297 356 418
#     4  12  26  48  70  98 140 192 242 286 340 432
#     4  12  25  44  74 107 144 181 234 298 360 419
#     4  12  24  41  68 110 144 180 233 296 356 422
#     4  12  24  44  73 102 142 195 239 285 357 417
#
# _framework density 21.163549
#
# number of rings (size 3 to 8) (size 9 to 14) (size 15 to 20)
#    0.000    0.000    6.154    5.077    0.000    0.615 
#    0.000    0.769    0.000    0.000    0.000    0.000 
#    0.000    0.000    0.000    0.000    0.000    0.000 
#
# Total GULP energy -72378.671829 kJ/mol
# GULP energy per Si atom -5567.590141 kJ/mol
# Density = 2.111538 g / cm^3
# Si number density = 21.163549 Si / 1000 Ang^3
#
#
#
# Elastic Constant Matrix: (Units=GPa)
#
#
# Indices 1 2 3 4 5 6 
#
# 1 -50.1479 -31.0779 -82.6598 17.1380 -83.7791 -41.2763
# 2 -31.0779 86.8626 -45.8680 11.9351 -47.2048 -10.6833
# 3 -82.6598 -45.8680 35.9168 3.2283 -60.3276 -47.2519
# 4 17.1380 11.9351 3.2283 21.2096 0.6855 -9.4063
# 5 -83.7791 -47.2048 -60.3276 0.6855 -40.1701 -56.7351
# 6 -41.2763 -10.6833 -47.2519 -9.4063 -56.7351 -41.2283
#
#
#
# Elastic Compliance Matrix: (Units=1/GPa)
#
#
# Indices 1 2 3 4 5 6 
#
# 1 0.000140 -0.008012 -0.004537 0.014068 -0.011267 0.019431
# 2 -0.008012 0.008699 -0.000511 0.003797 0.000456 0.004860
# 3 -0.004537 -0.000511 0.008872 0.003712 -0.006101 0.002056
# 4 0.014068 0.003797 0.003712 0.018709 0.006081 -0.031960
# 5 -0.011267 0.000456 -0.006101 0.006081 0.017323 -0.007070
# 6 0.019431 0.004860 0.002056 -0.031960 -0.007070 -0.030304
#
#
# Mechanical properties :
#
#
# Convention : Reuss Voigt Hill
#
# Bulk Modulus (GPa) = -118.91829 -27.39776 -73.15803
# Shear Modulus (GPa) = 106.94050 3.44473 55.19262
#
# Velocity S-wave (km/s) = 7.11619 1.27719 5.11231
# Velocity P-wave (km/s) = 3.34786 3.28617 0.45236
#
# Compressibility (1/GPa) = -0.00840914
#
# Stress axis : x y z
#
# Youngs Moduli (GPa) = 7164.96033 114.94994 112.72024
#
# Poissons Ratio (x) = 0.92097 0.51136
# Poissons Ratio (y) = 57.40484 0.05765
# Poissons Ratio (z) = 32.50393 0.05879
#
# Static dielectric constant tensor:
#      x y z
#    x 1.734170 0.005830 -0.032120 
#    y 0.005830 1.765280 -0.027270 
#    z -0.032120 -0.027270 1.804060 
# 
# From -- ./inp_files/271681.got.cif
#   From: 2010.05.17/outbox.cif.g08.bks.cpg/sg2_136_cif.got.tgz:271681.got - 2010.06.03 11:33:40.
