data_PCOD9069532
_publ_section_title
;
Structure prediction by ZEFSAII (Michael W. Deem and Ramdas Pophale) SiO2 
 PCOD9069532
Probable space group: P -1
;
_chemical_formula_sum "Si O2"
_cell_formula_units_Z 16
_cell_length_a 27.107367
_cell_length_b 8.941551
_cell_length_c 12.444671
_cell_angle_alpha 144.168559
_cell_angle_beta 29.601578
_cell_angle_gamma 151.609451
_cell_volume 694.832383
_symmetry_space_group_name_H-M "P -1"
_symmetry_group_IT_number 2
_symmetry_cell_setting 'triclinic'
loop_
_space_group_symop_operation_xyz
x,y,z
-x,-y,-z
loop_
_atom_site_type_symbol
_atom_site_label
_atom_site_fract_x
_atom_site_fract_y
_atom_site_fract_z
Si Si1 0.385993 0.430614 0.410201
Si Si2 0.936641 0.671862 0.747525
Si Si3 0.777176 0.417077 0.112737
Si Si4 0.497185 0.200899 0.799070
Si Si5 0.588350 0.614499 0.296601
Si Si6 0.909647 0.587701 0.178665
Si Si7 0.303454 0.743586 0.185716
Si Si8 0.286544 0.757246 0.479594
O O1 0.264552 0.354566 0.654381
O O2 0.415091 0.660127 0.391108
O O3 0.510590 0.636874 0.365486
O O4 0.361223 0.097006 0.238581
O O5 0.820139 0.507757 0.792316
O O6 0.000000 0.500000 0.500000
O O7 0.882293 0.572151 0.912972
O O8 0.018784 0.050443 0.790191
O O9 0.826391 0.376729 0.108764
O O10 0.645541 0.096502 0.130717
O O11 0.577830 0.159774 0.705222
O O12 0.500000 0.500000 0.000000
O O13 0.500000 0.500000 0.500000
O O14 0.709045 0.953196 0.306607
O O15 0.610435 0.366928 0.066528
O O16 0.822719 0.539730 0.416312
O O17 0.000000 0.500000 0.000000
O O18 0.273985 0.734171 0.362184
#
# Coordination Sequence:
#
# PCOD9069532 Si02
#       8
#     2   2   2   2   2   2   2   2
#     4  12  23  44  76 112 154 196 251 308 392 472
#     4  12  30  53  76 110 152 213 275 320 379 458
#     4  12  26  51  81 110 156 207 260 323 391 469
#     4  12  26  44  74 117 154 194 246 319 395 467
#     4  12  24  44  72 113 156 196 246 307 392 472
#     4  12  29  51  79 109 151 209 269 324 383 452
#     4  12  28  46  76 112 155 206 255 314 385 464
#     4  12  27  49  75 115 157 196 253 320 397 463
#
# _framework density 23.027135000000001
#
# number of rings (size 3 to 8) (size 9 to 14) (size 15 to 20)
#    0.000    0.000    3.750    5.625    7.000    1.500 
#    0.000    0.000    0.000    0.000    0.000    0.000 
#    0.000    0.000    0.000    0.000    0.000    0.000 
#
# Total GULP energy -89534.945864 kJ/mol
# GULP energy per Si atom -5595.934116 kJ/mol
# Density = 2.297472 g / cm^3
# Si number density = 23.027135 Si / 1000 Ang^3
#
#
#
# Elastic Constant Matrix: (Units=GPa)
#
#
# Indices 1 2 3 4 5 6 
#
# 1 122.3085 19.0405 29.4491 -3.2808 -2.2184 -1.0045
# 2 19.0405 93.3832 34.2909 -3.3648 9.6310 -11.4054
# 3 29.4491 34.2909 138.7795 5.0558 -6.4343 -18.6216
# 4 -3.2808 -3.3648 5.0558 43.5350 -7.9872 4.5086
# 5 -2.2184 9.6310 -6.4343 -7.9872 41.6024 -2.6065
# 6 -1.0045 -11.4054 -18.6216 4.5086 -2.6065 35.5034
#
#
#
# Elastic Compliance Matrix: (Units=1/GPa)
#
#
# Indices 1 2 3 4 5 6 
#
# 1 0.008824 -0.001345 -0.001702 0.000995 0.000637 -0.001155
# 2 -0.001345 0.012590 -0.002674 0.000357 -0.003186 0.002325
# 3 -0.001702 -0.002674 0.008917 -0.001448 0.001886 0.004092
# 4 0.000995 0.000357 -0.001448 0.024366 0.004211 -0.003402
# 5 0.000637 -0.003186 0.001886 0.004211 0.025994 0.001357
# 6 -0.001155 0.002325 0.004092 -0.003402 0.001357 0.031558
#
#
# Mechanical properties :
#
#
# Convention : Reuss Voigt Hill
#
# Bulk Modulus (GPa) = 52.94168 57.78136 55.36152
# Shear Modulus (GPa) = 38.46529 42.24087 40.35308
#
# Velocity S-wave (km/s) = 4.09153 4.28763 4.19073
# Velocity P-wave (km/s) = 6.73511 7.04691 6.89277
#
# Compressibility (1/GPa) = 0.01888871
#
# Stress axis : x y z
#
# Youngs Moduli (GPa) = 113.32773 79.42689 112.14768
#
# Poissons Ratio (x) = 0.10685 0.19084
# Poissons Ratio (y) = 0.15245 0.29991
# Poissons Ratio (z) = 0.19285 0.21241
#
# Static dielectric constant tensor:
#      x y z
#    x 1.844170 -0.031650 0.008430 
#    y -0.031650 1.914640 0.016550 
#    z 0.008430 0.016550 1.934850 
# 
# From -- ./inp_files/476405.got.cif
#   From: 2010.05.17/outbox.cif.g08.bks.cpg/sg2_239_cif.got.tgz:476405.got - 2010.06.03 11:33:40.
