data_PCOD9069921
_publ_section_title
;
Structure prediction by ZEFSAII (Michael W. Deem and Ramdas Pophale) SiO2 
 PCOD9069921
Probable space group: P -1
;
_chemical_formula_sum "Si O2"
_cell_formula_units_Z 16
_cell_length_a 15.305555
_cell_length_b 20.582925
_cell_length_c 26.581138
_cell_angle_alpha 12.173235
_cell_angle_beta 22.128527
_cell_angle_gamma 22.703161
_cell_volume 649.729000
_symmetry_space_group_name_H-M "P -1"
_symmetry_group_IT_number 2
_symmetry_cell_setting 'triclinic'
loop_
_space_group_symop_operation_xyz
x,y,z
-x,-y,-z
loop_
_atom_site_type_symbol
_atom_site_label
_atom_site_fract_x
_atom_site_fract_y
_atom_site_fract_z
Si Si1 0.906893 0.777424 0.471070
Si Si2 0.874597 0.063895 0.863530
Si Si3 0.627791 0.628704 0.210380
Si Si4 0.336785 0.789155 0.990408
Si Si5 0.750520 0.633581 0.328964
Si Si6 0.818358 0.470598 0.014345
Si Si7 0.378935 0.864906 0.797473
Si Si8 0.580550 0.440784 0.261634
O O1 0.765372 0.526783 0.714830
O O2 0.101916 0.823951 0.290796
O O3 0.037920 0.642653 0.554792
O O4 0.763113 0.129010 0.289970
O O5 0.679666 0.353423 0.770532
O O6 0.146431 0.981883 0.799233
O O7 0.774553 0.755686 0.167124
O O8 0.488188 0.457881 0.454435
O O9 0.613684 0.510344 0.249752
O O10 0.910109 0.552759 0.127223
O O11 0.500000 0.000000 0.000000
O O12 0.619265 0.711631 0.908095
O O13 0.292740 0.913357 0.863841
O O14 0.224941 0.062776 0.880899
O O15 0.767799 0.535390 0.051519
O O16 0.567707 0.083594 0.527849
O O17 0.500000 0.500000 0.000000
#
# Coordination Sequence:
#
# PCOD9069921 Si02
#       8
#     2   2   2   2   2   2   2   2
#     4  12  24  47  76 106 155 192 237 307 372 441
#     4  12  25  45  74 113 147 198 244 300 376 445
#     4  12  26  52  76  99 146 205 254 304 359 437
#     4  12  24  43  71 111 149 189 237 308 377 429
#     4  12  25  45  75 105 142 192 252 296 366 432
#     4  12  26  47  72 106 148 197 243 302 371 433
#     4  12  25  41  72 115 154 190 241 304 372 449
#     4  12  25  46  73 109 146 196 248 305 375 432
#
# _framework density 24.625651999999999
#
# number of rings (size 3 to 8) (size 9 to 14) (size 15 to 20)
#    0.000    0.000    6.250    3.750    1.750    0.500 
#    0.000    2.500    0.000    0.000    0.000    0.000 
#    0.000    0.000    0.000    0.000    0.000    0.000 
#
# Total GULP energy -89537.283749 kJ/mol
# GULP energy per Si atom -5596.080234 kJ/mol
# Density = 2.456960 g / cm^3
# Si number density = 24.625652 Si / 1000 Ang^3
#
#
#
# Elastic Constant Matrix: (Units=GPa)
#
#
# Indices 1 2 3 4 5 6 
#
# 1 54.6183 11.9548 24.8401 12.9637 -10.1266 -7.8295
# 2 11.9548 110.6813 17.6611 12.1433 -8.8108 -20.3307
# 3 24.8401 17.6611 97.3339 24.6049 7.0694 -3.7256
# 4 12.9637 12.1433 24.6049 54.9903 2.7067 7.3502
# 5 -10.1266 -8.8108 7.0694 2.7067 34.1953 5.8172
# 6 -7.8295 -20.3307 -3.7256 7.3502 5.8172 43.1607
#
#
#
# Elastic Compliance Matrix: (Units=1/GPa)
#
#
# Indices 1 2 3 4 5 6 
#
# 1 0.023703 0.000014 -0.005485 -0.003986 0.007886 0.003449
# 2 0.000014 0.010626 -0.001260 -0.002573 0.002352 0.005020
# 3 -0.005485 -0.001260 0.013353 -0.004302 -0.004523 0.000906
# 4 -0.003986 -0.002573 -0.004302 0.022492 -0.001730 -0.005903
# 5 0.007886 0.002352 -0.004523 -0.001730 0.033612 -0.002088
# 6 0.003449 0.005020 0.000906 -0.005903 -0.002088 0.027525
#
#
# Mechanical properties :
#
#
# Convention : Reuss Voigt Hill
#
# Bulk Modulus (GPa) = 29.22282 41.28285 35.25284
# Shear Modulus (GPa) = 32.01454 40.34778 36.18116
#
# Velocity S-wave (km/s) = 3.60953 4.05216 3.83723
# Velocity P-wave (km/s) = 5.40964 6.22044 5.82916
#
# Compressibility (1/GPa) = 0.03421983
#
# Stress axis : x y z
#
# Youngs Moduli (GPa) = 42.18925 94.10719 74.89005
#
# Poissons Ratio (x) = -0.00127 0.41075
# Poissons Ratio (y) = -0.00057 0.09435
# Poissons Ratio (z) = 0.23139 0.11856
#
# Static dielectric constant tensor:
#      x y z
#    x 2.032230 0.025320 0.009560 
#    y 0.025320 1.916760 0.043610 
#    z 0.009560 0.043610 1.991080 
# 
# From -- ./inp_files/623935.got.cif
#   From: 2010.05.17/outbox.cif.g08.bks.cpg/sg2_312_cif.got.tgz:623935.got - 2010.06.03 11:33:40.
