data_PCOD9069306
_publ_section_title
;
Structure prediction by ZEFSAII (Michael W. Deem and Ramdas Pophale) SiO2 
 PCOD9069306
Probable space group: P -1
;
_chemical_formula_sum "Si O2"
_cell_formula_units_Z 16
_cell_length_a 12.545884
_cell_length_b 12.307351
_cell_length_c 14.353200
_cell_angle_alpha 20.880998
_cell_angle_beta 95.632080
_cell_angle_gamma 96.283697
_cell_volume 785.127397
_symmetry_space_group_name_H-M "P -1"
_symmetry_group_IT_number 2
_symmetry_cell_setting 'triclinic'
loop_
_space_group_symop_operation_xyz
x,y,z
-x,-y,-z
loop_
_atom_site_type_symbol
_atom_site_label
_atom_site_fract_x
_atom_site_fract_y
_atom_site_fract_z
Si Si1 0.024660 0.196622 0.936335
Si Si2 0.622973 0.128392 0.605645
Si Si3 0.384510 0.914841 0.011188
Si Si4 0.278245 0.188268 0.954047
Si Si5 0.381066 0.188108 0.585994
Si Si6 0.210072 0.141746 0.288137
Si Si7 0.002628 0.102114 0.632486
Si Si8 0.811636 0.135905 0.285907
O O1 0.153641 0.224313 0.934345
O O2 0.982201 0.533788 0.655291
O O3 0.978336 0.033487 0.155400
O O4 0.000000 0.000000 0.000000
O O5 0.661661 0.479506 0.311114
O O6 0.495299 0.105221 0.619922
O O7 0.675843 0.931433 0.687585
O O8 0.670148 0.011545 0.800908
O O9 0.296734 0.027273 0.985807
O O10 0.378307 0.084906 0.776108
O O11 0.372839 0.552142 0.287463
O O12 0.500000 0.000000 0.000000
O O13 0.285524 0.015773 0.660592
O O14 0.118654 0.988952 0.336008
O O15 0.195307 0.993854 0.506554
O O16 0.195110 0.500906 0.003583
O O17 0.079907 0.958214 0.679233
#
# Coordination Sequence:
#
# PCOD9069306 Si02
#       8
#     2   2   2   2   2   2   2   2
#     4  12  26  43  68 106 136 172 211 271 338 386
#     4  12  23  43  70  96 133 171 225 270 319 395
#     4  12  23  41  68  94 136 177 216 254 324 404
#     4  12  23  41  67  99 132 177 215 266 322 399
#     4  12  26  43  64 104 135 171 219 273 328 391
#     4  12  24  47  70  93 127 179 230 272 329 384
#     4  12  25  47  70  98 134 174 223 270 322 408
#     4  12  28  44  69  98 133 173 221 284 334 369
#
# _framework density 20.378857
#
# number of rings (size 3 to 8) (size 9 to 14) (size 15 to 20)
#    0.000    0.000    5.000    5.250    3.500    1.000 
#    0.000    0.000    0.000    0.000    0.000    0.000 
#    0.000    0.000    0.000    0.000    0.000    0.000 
#
# Total GULP energy -89648.388925 kJ/mol
# GULP energy per Si atom -5603.024308 kJ/mol
# Density = 2.033247 g / cm^3
# Si number density = 20.378857 Si / 1000 Ang^3
#
#
#
# Elastic Constant Matrix: (Units=GPa)
#
#
# Indices 1 2 3 4 5 6 
#
# 1 55.1452 -1.7195 3.1282 6.3155 13.6184 -32.2668
# 2 -1.7195 78.1068 21.0207 8.4601 -5.7199 -21.1184
# 3 3.1282 21.0207 55.2369 14.8827 38.1807 -9.9294
# 4 6.3155 8.4601 14.8827 32.0047 -29.9704 -5.5220
# 5 13.6184 -5.7199 38.1807 -29.9704 -5.8224 -18.1142
# 6 -32.2668 -21.1184 -9.9294 -5.5220 -18.1142 53.6276
#
#
#
# Elastic Compliance Matrix: (Units=1/GPa)
#
#
# Indices 1 2 3 4 5 6 
#
# 1 0.030841 0.007164 -0.001174 -0.002167 0.001663 0.021499
# 2 0.007164 0.016161 -0.001298 -0.006254 -0.002876 0.008819
# 3 -0.001174 -0.001298 0.009986 0.007191 0.011082 0.005115
# 4 -0.002167 -0.006254 0.007191 0.015582 -0.014332 -0.005671
# 5 0.001663 -0.002876 0.011082 -0.014332 -0.009739 -0.002845
# 6 0.021499 0.008819 0.005115 -0.005671 -0.002845 0.034458
#
#
# Mechanical properties :
#
#
# Convention : Reuss Voigt Hill
#
# Bulk Modulus (GPa) = 15.06633 25.92751 20.49692
# Shear Modulus (GPa) = 45.44237 27.03261 36.23749
#
# Velocity S-wave (km/s) = 4.72728 3.64607 4.22143
# Velocity P-wave (km/s) = 6.09962 5.52046 5.81725
#
# Compressibility (1/GPa) = 0.06637315
#
# Stress axis : x y z
#
# Youngs Moduli (GPa) = 32.42433 61.87627 100.13980
#
# Poissons Ratio (x) = -0.44331 0.11759
# Poissons Ratio (y) = -0.23230 0.12995
# Poissons Ratio (z) = 0.03808 0.08030
#
# Static dielectric constant tensor:
#      x y z
#    x 1.711460 -0.009860 0.005780 
#    y -0.009860 1.688400 0.000800 
#    z 0.005780 0.000800 1.681490 
# 
# From -- ./inp_files/452278.got.cif
#   From: 2010.05.17/outbox.cif.g08.bks.cpg/sg2_227_cif.got.tgz:452278.got - 2010.06.03 11:33:40.
