data_PCOD9069984
_publ_section_title
;
Structure prediction by ZEFSAII (Michael W. Deem and Ramdas Pophale) SiO2 
 PCOD9069984
Probable space group: P -1
;
_chemical_formula_sum "Si O2"
_cell_formula_units_Z 12
_cell_length_a 9.690762
_cell_length_b 9.857377
_cell_length_c 15.880085
_cell_angle_alpha 43.536159
_cell_angle_beta 135.260077
_cell_angle_gamma 151.093564
_cell_volume 491.858989
_symmetry_space_group_name_H-M "P -1"
_symmetry_group_IT_number 2
_symmetry_cell_setting 'triclinic'
loop_
_space_group_symop_operation_xyz
x,y,z
-x,-y,-z
loop_
_atom_site_type_symbol
_atom_site_label
_atom_site_fract_x
_atom_site_fract_y
_atom_site_fract_z
Si Si1 0.812519 0.721148 0.750174
Si Si2 0.610949 0.865212 0.087283
Si Si3 0.183517 0.334111 0.412428
Si Si4 0.398555 0.195793 0.080131
Si Si5 0.060642 0.445213 0.753444
Si Si6 0.675111 0.327267 0.411033
O O1 0.679106 0.479896 0.870891
O O2 0.840035 0.638565 0.709241
O O3 0.554298 0.688716 0.641853
O O4 0.131483 0.017260 0.791017
O O5 0.707007 0.917773 0.009105
O O6 0.500000 0.000000 0.000000
O O7 0.500000 0.500000 0.500000
O O8 0.110623 0.477647 0.367678
O O9 0.000000 0.000000 0.500000
O O10 0.710860 0.330576 0.174358
O O11 0.500000 0.500000 0.000000
O O12 0.154615 0.898902 0.164551
O O13 0.266416 0.560038 0.710382
O O14 0.000000 0.500000 0.500000
O O15 0.500000 0.000000 0.500000
#
# Coordination Sequence:
#
# PCOD9069984 Si02
#       6
#     2   2   2   2   2   2
#     4  12  25  44  70 102 138 183 232 288 354 424
#     4  12  25  46  71 102 140 185 235 294 355 422
#     4  12  24  44  71 104 139 183 236 294 355 425
#     4  12  26  45  70 103 141 188 240 294 355 426
#     4  12  25  45  70 102 141 186 234 295 357 424
#     4  12  25  44  67  99 138 181 227 285 352 421
#
# _framework density 24.397234999999998
#
# number of rings (size 3 to 8) (size 9 to 14) (size 15 to 20)
#    0.000    0.000    0.000   11.000    0.000    2.667 
#    0.000    0.000    0.000    0.000    0.000    0.000 
#    0.000    0.000    0.000    0.000    0.000    0.000 
#
# Total GULP energy -67068.584833 kJ/mol
# GULP energy per Si atom -5589.048736 kJ/mol
# Density = 2.434171 g / cm^3
# Si number density = 24.397235 Si / 1000 Ang^3
#
#
#
# Elastic Constant Matrix: (Units=GPa)
#
#
# Indices 1 2 3 4 5 6 
#
# 1 127.5843 25.9017 23.4557 -3.6016 11.2135 3.2584
# 2 25.9017 169.5540 29.2596 -7.3667 -1.9263 27.8422
# 3 23.4557 29.2596 67.7318 -0.0375 -2.5676 7.2464
# 4 -3.6016 -7.3667 -0.0375 76.2447 8.9522 -1.2882
# 5 11.2135 -1.9263 -2.5676 8.9522 48.8822 2.3907
# 6 3.2584 27.8422 7.2464 -1.2882 2.3907 32.7383
#
#
#
# Elastic Compliance Matrix: (Units=1/GPa)
#
#
# Indices 1 2 3 4 5 6 
#
# 1 0.008751 -0.000986 -0.002776 0.000605 -0.002341 0.000776
# 2 -0.000986 0.007401 -0.002220 0.000501 0.000589 -0.005728
# 3 -0.002776 -0.002220 0.016930 -0.000557 0.001625 -0.001723
# 4 0.000605 0.000501 -0.000557 0.013508 -0.002640 0.000361
# 5 -0.002341 0.000589 0.001625 -0.002640 0.021700 -0.002316
# 6 0.000776 -0.005728 -0.001723 0.000361 -0.002316 0.035904
#
#
# Mechanical properties :
#
#
# Convention : Reuss Voigt Hill
#
# Bulk Modulus (GPa) = 47.35315 58.01157 52.68236
# Shear Modulus (GPa) = 40.58502 50.65658 45.62080
#
# Velocity S-wave (km/s) = 4.08304 4.56161 4.32894
# Velocity P-wave (km/s) = 6.45598 7.18150 6.82838
#
# Compressibility (1/GPa) = 0.02111792
#
# Stress axis : x y z
#
# Youngs Moduli (GPa) = 114.26661 135.12542 59.06542
#
# Poissons Ratio (x) = 0.13318 0.16399
# Poissons Ratio (y) = 0.11262 0.13114
# Poissons Ratio (z) = 0.31724 0.30001
#
# Static dielectric constant tensor:
#      x y z
#    x 1.931370 0.056710 -0.086520 
#    y 0.056710 1.860790 0.039640 
#    z -0.086520 0.039640 2.073410 
# 
# From -- ./inp_files/297203.got.cif
#   From: 2010.05.17/outbox.cif.g08.bks.cpg/sg2_149_cif.got.tgz:297203.got - 2010.06.03 11:33:40.
