data_PCOD9069305
_publ_section_title
;
Structure prediction by ZEFSAII (Michael W. Deem and Ramdas Pophale) SiO2 
 PCOD9069305
Probable space group: P -1
;
_chemical_formula_sum "Si O2"
_cell_formula_units_Z 16
_cell_length_a 11.743662
_cell_length_b 29.643435
_cell_length_c 5.156740
_cell_angle_alpha 91.410852
_cell_angle_beta 91.508196
_cell_angle_gamma 25.493006
_cell_volume 772.376654
_symmetry_space_group_name_H-M "P -1"
_symmetry_group_IT_number 2
_symmetry_cell_setting 'triclinic'
loop_
_space_group_symop_operation_xyz
x,y,z
-x,-y,-z
loop_
_atom_site_type_symbol
_atom_site_label
_atom_site_fract_x
_atom_site_fract_y
_atom_site_fract_z
Si Si1 0.836525 0.542446 0.746437
Si Si2 0.671952 0.427298 0.749480
Si Si3 0.908948 0.791249 0.210393
Si Si4 0.941405 0.629865 0.190691
Si Si5 0.725604 0.207152 0.219147
Si Si6 0.599197 0.867762 0.705462
Si Si7 0.949271 0.883709 0.273274
Si Si8 0.599269 0.760398 0.683394
O O1 0.546749 0.667427 0.749724
O O2 0.000000 0.500000 0.500000
O O3 0.845007 0.485299 0.756735
O O4 0.000000 0.500000 0.000000
O O5 0.500000 0.500000 0.500000
O O6 0.794366 0.333664 0.747267
O O7 0.923359 0.370512 0.760021
O O8 0.500000 0.500000 0.000000
O O9 0.726702 0.837702 0.437973
O O10 0.903627 0.846997 0.220921
O O11 0.799195 0.810832 0.937106
O O12 0.710695 0.707517 0.400330
O O13 0.820556 0.670178 0.902201
O O14 0.928580 0.151292 0.441440
O O15 0.648711 0.182487 0.258376
O O16 0.847904 0.171272 0.939704
O O17 0.554506 0.829938 0.700294
O O18 0.325146 0.991616 0.749586
#
# Coordination Sequence:
#
# PCOD9069305 Si02
#       8
#     2   2   2   2   2   2   2   2
#     4  12  23  41  67  94 129 178 216 255 320 402
#     4  12  26  41  64 101 134 169 210 275 338 381
#     4  12  25  47  70  98 133 175 228 272 332 413
#     4  12  23  43  65  98 134 178 223 265 326 404
#     4  12  26  44  64 104 138 169 222 276 337 394
#     4  12  24  48  73  95 125 181 233 275 332 398
#     4  12  28  44  69  99 135 174 219 292 340 377
#     4  12  23  44  70  97 134 178 227 270 323 403
#
# _framework density 20.715284
#
# number of rings (size 3 to 8) (size 9 to 14) (size 15 to 20)
#    0.000    0.000    5.000    5.250    3.500    1.000 
#    0.000    0.000    0.000    0.000    0.000    0.000 
#    0.000    0.000    0.000    0.000    0.000    0.000 
#
# Total GULP energy -89612.948191 kJ/mol
# GULP energy per Si atom -5600.809262 kJ/mol
# Density = 2.066814 g / cm^3
# Si number density = 20.715284 Si / 1000 Ang^3
#
#
#
# Elastic Constant Matrix: (Units=GPa)
#
#
# Indices 1 2 3 4 5 6 
#
# 1 109.2724 3.9977 -16.9884 8.7603 -12.2352 28.0029
# 2 3.9977 113.3929 -0.4632 5.7991 -14.4165 19.5308
# 3 -16.9884 -0.4632 77.9824 5.7847 -13.8057 -0.7890
# 4 8.7603 5.7991 5.7847 34.9171 -10.9812 1.3401
# 5 -12.2352 -14.4165 -13.8057 -10.9812 35.2982 -4.1075
# 6 28.0029 19.5308 -0.7890 1.3401 -4.1075 28.1354
#
#
#
# Elastic Compliance Matrix: (Units=1/GPa)
#
#
# Indices 1 2 3 4 5 6 
#
# 1 0.014422 0.002958 0.004119 -0.002556 0.005230 -0.015407
# 2 0.002958 0.011063 0.001512 -0.000979 0.004684 -0.009851
# 3 0.004119 0.001512 0.015049 -0.001415 0.007069 -0.003628
# 4 -0.002556 -0.000979 -0.001415 0.032249 0.008530 0.002893
# 5 0.005230 0.004684 0.007069 0.008530 0.037097 -0.003250
# 6 -0.015407 -0.009851 -0.003628 0.002893 -0.003250 0.057001
#
#
# Mechanical properties :
#
#
# Convention : Reuss Voigt Hill
#
# Bulk Modulus (GPa) = 17.32704 30.41555 23.87130
# Shear Modulus (GPa) = 29.59614 40.61025 35.10320
#
# Velocity S-wave (km/s) = 3.78393 4.43244 4.12096
# Velocity P-wave (km/s) = 5.24150 6.39609 5.84736
#
# Compressibility (1/GPa) = 0.05771326
#
# Stress axis : x y z
#
# Youngs Moduli (GPa) = 69.33645 90.39092 66.44741
#
# Poissons Ratio (x) = -0.26735 -0.27371
# Poissons Ratio (y) = -0.20508 -0.10049
# Poissons Ratio (z) = -0.28561 -0.13670
#
# Static dielectric constant tensor:
#      x y z
#    x 1.742860 0.025880 -0.001040 
#    y 0.025880 1.725270 0.011570 
#    z -0.001040 0.011570 1.711400 
# 
# From -- ./inp_files/85405.got.cif
#   From: 2010.05.17/outbox.cif.g08.bks.cpg/sg2_43_cif.got.tgz:85405.got - 2010.06.03 11:33:40.
