data_PCOD9069302
_publ_section_title
;
Structure prediction by ZEFSAII (Michael W. Deem and Ramdas Pophale) SiO2 
 PCOD9069302
Probable space group: P -1
;
_chemical_formula_sum "Si O2"
_cell_formula_units_Z 16
_cell_length_a 8.865364
_cell_length_b 14.239062
_cell_length_c 12.385696
_cell_angle_alpha 68.624085
_cell_angle_beta 77.532172
_cell_angle_gamma 29.957496
_cell_volume 710.062676
_symmetry_space_group_name_H-M "P -1"
_symmetry_group_IT_number 2
_symmetry_cell_setting 'triclinic'
loop_
_space_group_symop_operation_xyz
x,y,z
-x,-y,-z
loop_
_atom_site_type_symbol
_atom_site_label
_atom_site_fract_x
_atom_site_fract_y
_atom_site_fract_z
Si Si1 0.365987 0.657278 0.702004
Si Si2 0.744899 0.510797 0.902065
Si Si3 0.220762 0.532534 0.844668
Si Si4 0.507307 0.869666 0.823085
Si Si5 0.677018 0.083985 0.699611
Si Si6 0.453121 0.177866 0.923675
Si Si7 0.398672 0.441836 0.520898
Si Si8 0.312413 0.136570 0.578588
O O1 0.611523 0.531271 0.811500
O O2 0.313469 0.567392 0.734543
O O3 0.482811 0.645543 0.582563
O O4 0.033019 0.885033 0.694923
O O5 0.560191 0.721862 0.852049
O O6 0.106948 0.329597 0.906166
O O7 0.713110 0.475678 0.037633
O O8 0.396911 0.329151 0.882555
O O9 0.853736 0.719177 0.817952
O O10 0.295593 0.049193 0.697399
O O11 0.410099 0.936379 0.935384
O O12 0.635983 0.058127 0.835400
O O13 0.547038 0.270741 0.641740
O O14 0.484222 0.126410 0.625173
O O15 0.500000 0.500000 0.500000
O O16 0.030274 0.639497 0.496837
O O17 0.500000 0.000000 0.500000
#
# Coordination Sequence:
#
# PCOD9069302 Si02
#       8
#     2   2   2   2   2   2   2   2
#     4  12  23  41  64  96 135 169 215 268 323 386
#     4   9  20  36  68  96 129 168 211 267 324 379
#     4   9  18  41  65  95 130 174 209 262 326 383
#     4   9  20  41  68  98 124 172 216 263 323 383
#     4  12  26  44  67  98 129 177 219 267 322 387
#     4   9  20  42  70  93 131 168 219 265 317 390
#     4  12  29  46  65  94 131 174 219 275 327 379
#     4  12  27  45  72  94 129 173 223 269 321 392
#
# _framework density 22.533221999999999
#
# number of rings (size 3 to 8) (size 9 to 14) (size 15 to 20)
#    0.000    1.500    1.250    4.875    7.000    0.500 
#    4.500    1.250    0.000    0.000    0.000    0.000 
#    0.000    0.000    0.000    0.000    0.000    0.000 
#
# Total GULP energy -89551.226236 kJ/mol
# GULP energy per Si atom -5596.951640 kJ/mol
# Density = 2.248194 g / cm^3
# Si number density = 22.533222 Si / 1000 Ang^3
#
#
#
# Elastic Constant Matrix: (Units=GPa)
#
#
# Indices 1 2 3 4 5 6 
#
# 1 29.6659 3.1469 15.5689 12.4699 -9.8205 9.0022
# 2 3.1469 100.0380 35.3122 16.2597 -4.3997 -0.8986
# 3 15.5689 35.3122 90.5355 19.5757 -16.1187 -0.8670
# 4 12.4699 16.2597 19.5757 44.4259 8.8408 -8.8472
# 5 -9.8205 -4.3997 -16.1187 8.8408 34.9907 -3.6135
# 6 9.0022 -0.8986 -0.8670 -8.8472 -3.6135 26.0457
#
#
#
# Elastic Compliance Matrix: (Units=1/GPa)
#
#
# Indices 1 2 3 4 5 6 
#
# 1 0.061143 0.004137 -0.002976 -0.026854 0.020265 -0.027399
# 2 0.004137 0.012138 -0.004182 -0.004585 0.001664 -0.002477
# 3 -0.002976 -0.004182 0.015827 -0.006018 0.007493 0.000406
# 4 -0.026854 -0.004585 -0.006018 0.042354 -0.019459 0.020610
# 5 0.020265 0.001664 0.007493 -0.019459 0.042072 -0.007470
# 6 -0.027399 -0.002477 0.000406 0.020610 -0.007470 0.053757
#
#
# Mechanical properties :
#
#
# Convention : Reuss Voigt Hill
#
# Bulk Modulus (GPa) = 12.03853 36.47728 24.25790
# Shear Modulus (GPa) = 19.15547 32.17321 25.66434
#
# Velocity S-wave (km/s) = 2.91881 3.78274 3.37850
# Velocity P-wave (km/s) = 4.08821 5.94156 5.09979
#
# Compressibility (1/GPa) = 0.08306663
#
# Stress axis : x y z
#
# Youngs Moduli (GPa) = 16.35521 82.38288 63.18160
#
# Poissons Ratio (x) = -0.34081 0.18803
# Poissons Ratio (y) = -0.06766 0.26422
# Poissons Ratio (z) = 0.04867 0.34452
#
# Static dielectric constant tensor:
#      x y z
#    x 1.839760 0.048180 -0.000390 
#    y 0.048180 1.803450 0.015370 
#    z -0.000390 0.015370 1.813160 
# 
# From -- ./inp_files/207589.got.cif
#   From: 2010.05.17/outbox.cif.g08.bks.cpg/sg2_104_cif.got.tgz:207589.got - 2010.06.03 11:33:40.
