data_PCOD9069687
_publ_section_title
;
Structure prediction by ZEFSAII (Michael W. Deem and Ramdas Pophale) SiO2 
 PCOD9069687
Probable space group: P -1
;
_chemical_formula_sum "Si O2"
_cell_formula_units_Z 16
_cell_length_a 10.685739
_cell_length_b 14.246221
_cell_length_c 11.537133
_cell_angle_alpha 147.688292
_cell_angle_beta 96.486029
_cell_angle_gamma 63.635582
_cell_volume 703.715745
_symmetry_space_group_name_H-M "P -1"
_symmetry_group_IT_number 2
_symmetry_cell_setting 'triclinic'
loop_
_space_group_symop_operation_xyz
x,y,z
-x,-y,-z
loop_
_atom_site_type_symbol
_atom_site_label
_atom_site_fract_x
_atom_site_fract_y
_atom_site_fract_z
Si Si1 0.128814 0.195615 0.514667
Si Si2 0.814887 0.241434 0.263200
Si Si3 0.656536 0.749534 0.805577
Si Si4 0.406875 0.770818 0.952193
Si Si5 0.096362 0.928053 0.644004
Si Si6 0.680799 0.797443 0.252362
Si Si7 0.128911 0.278865 0.032300
Si Si8 0.397165 0.534755 0.135895
O O1 0.190867 0.237673 0.679220
O O2 0.044997 0.083626 0.411013
O O3 0.990479 0.446314 0.706412
O O4 0.279064 0.022728 0.261423
O O5 0.764731 0.491090 0.490394
O O6 0.683808 0.247586 0.181009
O O7 0.815974 0.208316 0.367562
O O8 0.000000 0.000000 0.000000
O O9 0.566336 0.726924 0.875974
O O10 0.780882 0.783083 0.900524
O O11 0.500000 0.000000 0.000000
O O12 0.474039 0.587021 0.870378
O O13 0.239604 0.795918 0.424604
O O14 0.032904 0.183906 0.915194
O O15 0.732376 0.831779 0.170206
O O16 0.500000 0.000000 0.500000
O O17 0.679948 0.588636 0.019335
O O18 0.500000 0.500000 0.000000
#
# Coordination Sequence:
#
# PCOD9069687 Si02
#       8
#     2   2   2   2   2   2   2   2
#     4  12  25  47  71 105 153 195 241 314 372 444
#     4  12  24  48  75 106 155 195 243 315 378 445
#     4  12  25  46  75 111 149 195 251 314 378 447
#     4  12  24  46  75 104 148 196 248 306 376 443
#     4  12  26  47  75 107 150 195 249 303 378 453
#     4  12  23  47  70 101 149 193 247 314 365 438
#     4  12  25  46  72 105 148 193 245 307 377 445
#     4  12  26  47  75 110 146 195 253 306 369 449
#
# _framework density 22.736453000000001
#
# number of rings (size 3 to 8) (size 9 to 14) (size 15 to 20)
#    0.000    0.000    7.500    2.250    1.750    2.500 
#    0.000    2.500    0.000    0.000    0.000    0.000 
#    0.000    0.000    0.000    0.000    0.000    0.000 
#
# Total GULP energy -89476.285628 kJ/mol
# GULP energy per Si atom -5592.267852 kJ/mol
# Density = 2.268470 g / cm^3
# Si number density = 22.736453 Si / 1000 Ang^3
#
#
#
# Elastic Constant Matrix: (Units=GPa)
#
#
# Indices 1 2 3 4 5 6 
#
# 1 96.3514 17.8790 30.1010 0.9588 24.1141 -15.5796
# 2 17.8790 55.4996 -11.7681 -9.7449 6.7633 -14.1524
# 3 30.1010 -11.7681 120.7003 11.1170 -5.0538 1.7618
# 4 0.9588 -9.7449 11.1170 33.0018 -3.1510 10.3152
# 5 24.1141 6.7633 -5.0538 -3.1510 49.4018 -8.2760
# 6 -15.5796 -14.1524 1.7618 10.3152 -8.2760 43.2060
#
#
#
# Elastic Compliance Matrix: (Units=1/GPa)
#
#
# Indices 1 2 3 4 5 6 
#
# 1 0.014702 -0.004341 -0.004236 -0.001927 -0.006594 0.003249
# 2 -0.004341 0.021859 0.002773 0.004268 0.000444 0.004548
# 3 -0.004236 0.002773 0.009917 -0.002148 0.002562 -0.000020
# 4 -0.001927 0.004268 -0.002148 0.034726 0.001132 -0.007283
# 5 -0.006594 0.000444 0.002562 0.001132 0.024070 0.002004
# 6 0.003249 0.004548 -0.000020 -0.007283 0.002004 0.027930
#
#
# Mechanical properties :
#
#
# Convention : Reuss Voigt Hill
#
# Bulk Modulus (GPa) = 28.67650 38.33055 33.50353
# Shear Modulus (GPa) = 31.96202 40.87788 36.41995
#
# Velocity S-wave (km/s) = 3.75342 4.24477 4.00663
# Velocity P-wave (km/s) = 5.60572 6.39682 6.01429
#
# Compressibility (1/GPa) = 0.03487176
#
# Stress axis : x y z
#
# Youngs Moduli (GPa) = 68.01612 45.74686 100.83592
#
# Poissons Ratio (x) = 0.19857 0.42712
# Poissons Ratio (y) = 0.29524 -0.27961
# Poissons Ratio (z) = 0.28810 -0.12685
#
# Static dielectric constant tensor:
#      x y z
#    x 1.833050 -0.021010 0.011160 
#    y -0.021010 1.890490 -0.012460 
#    z 0.011160 -0.012460 1.904750 
# 
# From -- ./inp_files/434378.got.cif
#   From: 2010.05.17/outbox.cif.g08.bks.cpg/sg2_218_cif.got.tgz:434378.got - 2010.06.03 11:33:40.
