data_PCOD9069377
_publ_section_title
;
Structure prediction by ZEFSAII (Michael W. Deem and Ramdas Pophale) SiO2 
 PCOD9069377
Probable space group: P -1
;
_chemical_formula_sum "Si O2"
_cell_formula_units_Z 12
_cell_length_a 13.580149
_cell_length_b 6.900881
_cell_length_c 8.818205
_cell_angle_alpha 123.604688
_cell_angle_beta 118.523655
_cell_angle_gamma 97.345286
_cell_volume 510.585830
_symmetry_space_group_name_H-M "P -1"
_symmetry_group_IT_number 2
_symmetry_cell_setting 'triclinic'
loop_
_space_group_symop_operation_xyz
x,y,z
-x,-y,-z
loop_
_atom_site_type_symbol
_atom_site_label
_atom_site_fract_x
_atom_site_fract_y
_atom_site_fract_z
Si Si1 0.074391 0.291402 0.763787
Si Si2 0.141308 0.202420 0.109494
Si Si3 0.617295 0.697774 0.285120
Si Si4 0.397311 0.190992 0.343603
Si Si5 0.711507 0.303691 0.140726
Si Si6 0.815931 0.260939 0.505691
O O1 0.196954 0.513975 0.851913
O O2 0.965630 0.373823 0.717403
O O3 0.114372 0.233724 0.929111
O O4 0.000000 0.000000 0.500000
O O5 0.245739 0.112078 0.173422
O O6 0.210710 0.511866 0.356125
O O7 0.000000 0.000000 0.000000
O O8 0.582813 0.801080 0.457098
O O9 0.670822 0.499182 0.276311
O O10 0.724206 0.966758 0.388447
O O11 0.500000 0.500000 0.000000
O O12 0.500000 0.500000 0.500000
O O13 0.404974 0.974973 0.145736
O O14 0.789663 0.240409 0.297143
#
# Coordination Sequence:
#
# PCOD9069377 Si02
#       6
#     2   2   2   2   2   2
#     4  12  23  42  72 108 143 186 242 293 360 430
#     4  12  25  46  75 108 148 192 243 298 361 430
#     4  12  28  48  74 106 143 192 242 295 363 429
#     4  12  28  48  75 109 145 193 244 295 363 432
#     4  12  26  48  75 106 148 186 240 302 357 429
#     4  12  24  47  74 103 148 189 238 301 361 426
#
# _framework density 23.502412
#
# number of rings (size 3 to 8) (size 9 to 14) (size 15 to 20)
#    0.000    0.000    3.333    7.000    4.667    2.000 
#    0.000    0.000    0.000    0.000    0.000    0.000 
#    0.000    0.000    0.000    0.000    0.000    0.000 
#
# Total GULP energy -67189.499547 kJ/mol
# GULP energy per Si atom -5599.124962 kJ/mol
# Density = 2.344892 g / cm^3
# Si number density = 23.502412 Si / 1000 Ang^3
#
#
#
# Elastic Constant Matrix: (Units=GPa)
#
#
# Indices 1 2 3 4 5 6 
#
# 1 19.7202 0.4519 1.1753 -0.1943 -3.5656 1.2866
# 2 0.4519 95.6229 51.2891 -12.1200 -11.2713 16.4233
# 3 1.1753 51.2891 144.2670 -3.9977 -21.0830 15.8850
# 4 -0.1943 -12.1200 -3.9977 69.4360 0.4779 -3.3656
# 5 -3.5656 -11.2713 -21.0830 0.4779 42.8981 4.7768
# 6 1.2866 16.4233 15.8850 -3.3656 4.7768 47.4547
#
#
#
# Elastic Compliance Matrix: (Units=1/GPa)
#
#
# Indices 1 2 3 4 5 6 
#
# 1 0.051696 0.000534 0.000341 0.000118 0.004846 -0.002180
# 2 0.000534 0.013771 -0.004179 0.001984 0.001970 -0.003439
# 3 0.000341 -0.004179 0.009163 -0.000324 0.003663 -0.002022
# 4 0.000118 0.001984 -0.000324 0.014750 0.000158 0.000449
# 5 0.004846 0.001970 0.003663 0.000158 0.026553 -0.004701
# 6 -0.002180 -0.003439 -0.002022 0.000449 -0.004701 0.023504
#
#
# Mechanical properties :
#
#
# Convention : Reuss Voigt Hill
#
# Bulk Modulus (GPa) = 14.70120 40.60474 27.65297
# Shear Modulus (GPa) = 29.63477 45.73734 37.68606
#
# Velocity S-wave (km/s) = 3.55480 4.41621 4.00871
# Velocity P-wave (km/s) = 4.80808 6.58166 5.76350
#
# Compressibility (1/GPa) = 0.06802166
#
# Stress axis : x y z
#
# Youngs Moduli (GPa) = 19.34374 72.61711 109.13114
#
# Poissons Ratio (x) = -0.03874 -0.03717
# Poissons Ratio (y) = -0.01032 0.45601
# Poissons Ratio (z) = -0.00659 0.30344
#
# Static dielectric constant tensor:
#      x y z
#    x 2.044100 -0.098980 0.012690 
#    y -0.098980 2.046310 0.006390 
#    z 0.012690 0.006390 1.930710 
# 
# From -- ./inp_files/21201.got.cif
#   From: 2010.05.17/outbox.cif.g08.bks.cpg/sg2_11_cif.got.tgz:21201.got - 2010.06.03 11:33:40.
