data_PCOD9069320
_publ_section_title
;
Structure prediction by ZEFSAII (Michael W. Deem and Ramdas Pophale) SiO2 
 PCOD9069320
Probable space group: P -1
;
_chemical_formula_sum "Si O2"
_cell_formula_units_Z 16
_cell_length_a 6.808454
_cell_length_b 13.930088
_cell_length_c 11.845263
_cell_angle_alpha 86.779445
_cell_angle_beta 115.807555
_cell_angle_gamma 129.342325
_cell_volume 742.170816
_symmetry_space_group_name_H-M "P -1"
_symmetry_group_IT_number 2
_symmetry_cell_setting 'triclinic'
loop_
_space_group_symop_operation_xyz
x,y,z
-x,-y,-z
loop_
_atom_site_type_symbol
_atom_site_label
_atom_site_fract_x
_atom_site_fract_y
_atom_site_fract_z
Si Si1 0.158587 0.001060 0.151531
Si Si2 0.613506 0.792906 0.181937
Si Si3 0.397103 0.745533 0.608497
Si Si4 0.729743 0.127437 0.971404
Si Si5 0.345404 0.416468 0.853374
Si Si6 0.187337 0.453610 0.390285
Si Si7 0.309424 0.711295 0.341151
Si Si8 0.723366 0.656473 0.766132
O O1 0.921165 0.921336 0.197883
O O2 0.432948 0.140918 0.262927
O O3 0.260977 0.927095 0.139766
O O4 0.000000 0.000000 0.000000
O O5 0.580718 0.672816 0.144284
O O6 0.560609 0.785965 0.303047
O O7 0.372698 0.793673 0.069899
O O8 0.405983 0.785217 0.479989
O O9 0.558426 0.690593 0.654800
O O10 0.058195 0.630266 0.569397
O O11 0.054674 0.225847 0.099892
O O12 0.500000 0.000000 0.000000
O O13 0.484014 0.521274 0.780824
O O14 0.993463 0.329449 0.773912
O O15 0.500000 0.500000 0.000000
O O16 0.500000 0.500000 0.500000
O O17 0.225918 0.574949 0.354626
O O18 0.092139 0.359421 0.266612
#
# Coordination Sequence:
#
# PCOD9069320 Si02
#       8
#     2   2   2   2   2   2   2   2
#     4  12  25  48  74 104 141 187 242 302 353 420
#     4  12  27  47  71 103 148 187 240 299 355 428
#     4  12  26  45  76 106 144 194 240 292 359 428
#     4  12  25  46  73 103 142 185 243 300 354 424
#     4  12  27  44  70 107 148 191 236 297 367 423
#     4  12  24  42  71 107 143 184 238 293 357 428
#     4  12  26  46  69 105 152 189 233 296 360 433
#     4  12  23  41  71 108 141 188 236 292 365 426
#
# _framework density 21.55838
#
# number of rings (size 3 to 8) (size 9 to 14) (size 15 to 20)
#    0.000    0.000    6.250    4.125    1.750    1.500 
#    0.000    2.500    0.000    0.000    0.000    0.000 
#    0.000    0.000    0.000    0.000    0.000    0.000 
#
# Total GULP energy -89543.209217 kJ/mol
# GULP energy per Si atom -5596.450576 kJ/mol
# Density = 2.150931 g / cm^3
# Si number density = 21.558380 Si / 1000 Ang^3
#
#
#
# Elastic Constant Matrix: (Units=GPa)
#
#
# Indices 1 2 3 4 5 6 
#
# 1 122.0339 33.1319 43.9051 0.1513 -1.8541 1.2476
# 2 33.1319 95.7416 37.5113 -5.1510 -1.5198 17.1589
# 3 43.9051 37.5113 107.0504 3.3474 -5.1410 -4.9124
# 4 0.1513 -5.1510 3.3474 30.7478 2.2444 -9.8733
# 5 -1.8541 -1.5198 -5.1410 2.2444 38.8398 -8.4722
# 6 1.2476 17.1589 -4.9124 -9.8733 -8.4722 51.3724
#
#
#
# Elastic Compliance Matrix: (Units=1/GPa)
#
#
# Indices 1 2 3 4 5 6 
#
# 1 0.009980 -0.002182 -0.003321 0.000001 -0.000012 0.000167
# 2 -0.002182 0.013806 -0.004271 0.001300 -0.001279 -0.004928
# 3 -0.003321 -0.004271 0.012465 -0.001310 0.002006 0.002778
# 4 0.000001 0.001300 -0.001310 0.034872 -0.000828 0.006006
# 5 -0.000012 -0.001279 0.002006 -0.000828 0.027084 0.004927
# 6 0.000167 -0.004928 0.002778 0.006006 0.004927 0.023340
#
#
# Mechanical properties :
#
#
# Convention : Reuss Voigt Hill
#
# Bulk Modulus (GPa) = 59.87405 61.54696 60.71050
# Shear Modulus (GPa) = 34.09146 38.21051 36.15098
#
# Velocity S-wave (km/s) = 3.98094 4.21458 4.09942
# Velocity P-wave (km/s) = 6.99741 7.23150 7.11542
#
# Compressibility (1/GPa) = 0.01670173
#
# Stress axis : x y z
#
# Youngs Moduli (GPa) = 100.20016 72.43136 80.22491
#
# Poissons Ratio (x) = 0.15808 0.26646
# Poissons Ratio (y) = 0.21868 0.34263
# Poissons Ratio (z) = 0.33280 0.30935
#
# Static dielectric constant tensor:
#      x y z
#    x 1.792990 -0.002110 -0.023220 
#    y -0.002110 1.774060 -0.012350 
#    z -0.023220 -0.012350 1.813430 
# 
# From -- ./inp_files/367785.got.cif
#   From: 2010.05.17/outbox.cif.g08.bks.cpg/sg2_184_cif.got.tgz:367785.got - 2010.06.03 11:33:40.
