data_PCOD9069584
_publ_section_title
;
Structure prediction by ZEFSAII (Michael W. Deem and Ramdas Pophale) SiO2 
 PCOD9069584
Probable space group: P -1
;
_chemical_formula_sum "Si O2"
_cell_formula_units_Z 16
_cell_length_a 11.870778
_cell_length_b 8.821798
_cell_length_c 15.460431
_cell_angle_alpha 106.503812
_cell_angle_beta 66.253506
_cell_angle_gamma 50.770331
_cell_volume 746.298698
_symmetry_space_group_name_H-M "P -1"
_symmetry_group_IT_number 2
_symmetry_cell_setting 'triclinic'
loop_
_space_group_symop_operation_xyz
x,y,z
-x,-y,-z
loop_
_atom_site_type_symbol
_atom_site_label
_atom_site_fract_x
_atom_site_fract_y
_atom_site_fract_z
Si Si1 0.078378 0.658244 0.648093
Si Si2 0.213367 0.657962 0.915254
Si Si3 0.401346 0.431042 0.640665
Si Si4 0.859472 0.749285 0.350293
Si Si5 0.128017 0.729703 0.355709
Si Si6 0.365902 0.694373 0.157747
Si Si7 0.956633 0.686370 0.112326
Si Si8 0.444328 0.375872 0.350180
O O1 0.169467 0.687482 0.694778
O O2 0.124576 0.440571 0.643690
O O3 0.242542 0.517755 0.493329
O O4 0.809177 0.970073 0.753837
O O5 0.318125 0.461155 0.764960
O O6 0.439850 0.494562 0.859336
O O7 0.116494 0.652562 0.019941
O O8 0.000000 0.000000 0.000000
O O9 0.517688 0.477620 0.620890
O O10 0.593057 0.105905 0.486438
O O11 0.977276 0.625064 0.198212
O O12 0.980546 0.738799 0.378005
O O13 0.192214 0.747072 0.250781
O O14 0.362691 0.433710 0.287307
O O15 0.000000 0.000000 0.500000
O O16 0.500000 0.500000 0.000000
O O17 0.689829 0.030664 0.238827
O O18 0.000000 0.500000 0.000000
#
# Coordination Sequence:
#
# PCOD9069584 Si02
#       8
#     2   2   2   2   2   2   2   2
#     4  12  27  43  71 111 144 191 242 297 368 427
#     4  12  24  45  73 106 141 188 243 298 359 434
#     4  12  23  45  75 106 142 190 249 299 359 435
#     4  12  27  46  73 107 151 191 242 302 362 439
#     4  12  23  47  71 108 142 185 243 302 361 432
#     4  12  25  44  72 105 144 189 241 297 361 431
#     4  12  28  48  70 107 149 195 241 300 368 431
#     4  12  25  45  77 105 144 191 245 303 358 434
#
# _framework density 21.439138
#
# number of rings (size 3 to 8) (size 9 to 14) (size 15 to 20)
#    0.000    0.000    6.250    3.000    3.500    2.500 
#    0.000    1.875    0.000    0.000    0.000    0.000 
#    0.000    0.000    0.000    0.000    0.000    0.000 
#
# Total GULP energy -89444.665558 kJ/mol
# GULP energy per Si atom -5590.291597 kJ/mol
# Density = 2.139034 g / cm^3
# Si number density = 21.439138 Si / 1000 Ang^3
#
#
#
# Elastic Constant Matrix: (Units=GPa)
#
#
# Indices 1 2 3 4 5 6 
#
# 1 100.2419 39.8234 20.2666 2.9152 -6.3624 -2.6706
# 2 39.8234 112.6668 39.4007 -8.4358 -6.4079 6.9058
# 3 20.2666 39.4007 127.0764 -21.9207 -3.9476 18.0398
# 4 2.9152 -8.4358 -21.9207 43.3099 -6.6745 -3.7494
# 5 -6.3624 -6.4079 -3.9476 -6.6745 29.4703 -3.3684
# 6 -2.6706 6.9058 18.0398 -3.7494 -3.3684 38.1264
#
#
#
# Elastic Compliance Matrix: (Units=1/GPa)
#
#
# Indices 1 2 3 4 5 6 
#
# 1 0.012012 -0.003996 -0.001246 -0.001823 0.001384 0.002098
# 2 -0.003996 0.011401 -0.002484 0.001384 0.001494 -0.000901
# 3 -0.001246 -0.002484 0.010227 0.004615 0.001158 -0.003920
# 4 -0.001823 0.001384 0.004615 0.026908 0.006697 0.000676
# 5 0.001384 0.001494 0.001158 0.006697 0.036590 0.003170
# 6 0.002098 -0.000901 -0.003920 0.000676 0.003170 0.028740
#
#
# Mechanical properties :
#
#
# Convention : Reuss Voigt Hill
#
# Bulk Modulus (GPa) = 54.98523 59.88515 57.43519
# Shear Modulus (GPa) = 33.92259 38.21429 36.06844
#
# Velocity S-wave (km/s) = 3.98210 4.22649 4.10611
# Velocity P-wave (km/s) = 6.84438 7.19798 7.02341
#
# Compressibility (1/GPa) = 0.01818670
#
# Stress axis : x y z
#
# Youngs Moduli (GPa) = 83.24871 87.71141 97.78181
#
# Poissons Ratio (x) = 0.35054 0.12182
# Poissons Ratio (y) = 0.33270 0.24293
# Poissons Ratio (z) = 0.10371 0.21791
#
# Static dielectric constant tensor:
#      x y z
#    x 1.793430 -0.013090 0.022000 
#    y -0.013090 1.680270 0.072140 
#    z 0.022000 0.072140 1.749730 
# 
# From -- ./inp_files/306600.got.cif
#   From: 2010.05.17/outbox.cif.g08.bks.cpg/sg2_154_cif.got.tgz:306600.got - 2010.06.03 11:33:40.
