data_PCOD9069910
_publ_section_title
;
Structure prediction by ZEFSAII (Michael W. Deem and Ramdas Pophale) SiO2 
 PCOD9069910
Probable space group: P -1
;
_chemical_formula_sum "Si O2"
_cell_formula_units_Z 16
_cell_length_a 5.767125
_cell_length_b 22.925410
_cell_length_c 17.029676
_cell_angle_alpha 21.952019
_cell_angle_beta 79.575836
_cell_angle_gamma 68.999949
_cell_volume 707.946968
_symmetry_space_group_name_H-M "P -1"
_symmetry_group_IT_number 2
_symmetry_cell_setting 'triclinic'
loop_
_space_group_symop_operation_xyz
x,y,z
-x,-y,-z
loop_
_atom_site_type_symbol
_atom_site_label
_atom_site_fract_x
_atom_site_fract_y
_atom_site_fract_z
Si Si1 0.934871 0.342077 0.009393
Si Si2 0.809148 0.410867 0.635784
Si Si3 0.988867 0.359442 0.430720
Si Si4 0.244053 0.701638 0.768714
Si Si5 0.636575 0.318350 0.916711
Si Si6 0.165331 0.102009 0.887175
Si Si7 0.572919 0.029642 0.545494
Si Si8 0.887738 0.891959 0.409421
O O1 0.725370 0.309104 0.013329
O O2 0.865895 0.539487 0.740978
O O3 0.944366 0.325006 0.123994
O O4 0.227011 0.170019 0.181413
O O5 0.500000 0.500000 0.500000
O O6 0.764134 0.397448 0.747820
O O7 0.000000 0.500000 0.500000
O O8 0.008097 0.208436 0.842433
O O9 0.683880 0.528942 0.254360
O O10 0.098643 0.254261 0.635845
O O11 0.027221 0.209853 0.551144
O O12 0.289593 0.850616 0.621660
O O13 0.146443 0.786434 0.583297
O O14 0.500000 0.500000 0.000000
O O15 0.754661 0.109964 0.142355
O O16 0.500000 0.000000 0.000000
O O17 0.000000 0.000000 0.000000
O O18 0.332005 0.131321 0.496750
O O19 0.500000 0.000000 0.500000
#
# Coordination Sequence:
#
# PCOD9069910 Si02
#       8
#     2   2   2   2   2   2   2   2
#     4  12  25  44  72 103 145 196 248 317 376 452
#     4  12  26  50  83 113 154 207 256 317 408 481
#     4  12  28  47  77 111 148 197 255 320 387 462
#     4  12  26  44  66 100 148 198 247 304 380 451
#     4  12  26  48  76 108 149 191 256 321 382 466
#     4  12  28  53  80 117 162 203 258 326 402 485
#     4  12  24  43  70 101 144 199 253 306 377 449
#     4  12  26  46  72 107 147 195 257 308 378 456
#
# _framework density 22.600563000000001
#
# number of rings (size 3 to 8) (size 9 to 14) (size 15 to 20)
#    0.000    0.000    5.000    4.875    3.500    2.000 
#    2.250    0.000    0.000    0.000    0.000    0.000 
#    0.000    0.000    0.000    0.000    0.000    0.000 
#
# Total GULP energy -89280.511763 kJ/mol
# GULP energy per Si atom -5580.031985 kJ/mol
# Density = 2.254912 g / cm^3
# Si number density = 22.600563 Si / 1000 Ang^3
#
#
#
# Elastic Constant Matrix: (Units=GPa)
#
#
# Indices 1 2 3 4 5 6 
#
# 1 71.7442 3.9369 40.4126 -10.4411 16.7594 -9.1485
# 2 3.9369 88.1223 25.3170 -4.5906 10.9694 -10.0164
# 3 40.4126 25.3170 135.6565 -11.1860 15.4393 -1.4899
# 4 -10.4411 -4.5906 -11.1860 51.5673 -3.6777 -0.3092
# 5 16.7594 10.9694 15.4393 -3.6777 49.6495 2.6751
# 6 -9.1485 -10.0164 -1.4899 -0.3092 2.6751 32.2292
#
#
#
# Elastic Compliance Matrix: (Units=1/GPa)
#
#
# Indices 1 2 3 4 5 6 
#
# 1 0.019242 0.002189 -0.005230 0.002602 -0.005504 0.006382
# 2 0.002189 0.012959 -0.002608 0.000847 -0.002986 0.004784
# 3 -0.005230 -0.002608 0.009509 0.000728 -0.000464 -0.001810
# 4 0.002602 0.000847 0.000728 0.020169 0.000137 0.001218
# 5 -0.005504 -0.002986 -0.000464 0.000137 0.023052 -0.004424
# 6 0.006382 0.004784 -0.001810 0.001218 -0.004424 0.034621
#
#
# Mechanical properties :
#
#
# Convention : Reuss Voigt Hill
#
# Bulk Modulus (GPa) = 32.88149 48.31734 40.59942
# Shear Modulus (GPa) = 35.46373 41.74628 38.60501
#
# Velocity S-wave (km/s) = 3.96555 4.30249 4.13745
# Velocity P-wave (km/s) = 5.96222 6.79023 6.38965
#
# Compressibility (1/GPa) = 0.03041225
#
# Stress axis : x y z
#
# Youngs Moduli (GPa) = 51.96838 77.16616 105.16042
#
# Poissons Ratio (x) = -0.16891 0.54997
# Poissons Ratio (y) = -0.11376 0.27430
# Poissons Ratio (z) = 0.27179 0.20128
#
# Static dielectric constant tensor:
#      x y z
#    x 2.317920 -0.184610 0.284100 
#    y -0.184610 1.909320 -0.234300 
#    z 0.284100 -0.234300 2.062190 
# 
# From -- ./inp_files/107710.got.cif
#   From: 2010.05.17/outbox.cif.g08.bks.cpg/sg2_54_cif.got.tgz:107710.got - 2010.06.03 11:33:40.
