data_PCOD9069883
_publ_section_title
;
Structure prediction by ZEFSAII (Michael W. Deem and Ramdas Pophale) SiO2 
 PCOD9069883
Probable space group: P -1
;
_chemical_formula_sum "Si O2"
_cell_formula_units_Z 14
_cell_length_a 9.128514
_cell_length_b 12.051258
_cell_length_c 11.316436
_cell_angle_alpha 46.611449
_cell_angle_beta 54.359434
_cell_angle_gamma 84.894042
_cell_volume 624.822211
_symmetry_space_group_name_H-M "P -1"
_symmetry_group_IT_number 2
_symmetry_cell_setting 'triclinic'
loop_
_space_group_symop_operation_xyz
x,y,z
-x,-y,-z
loop_
_atom_site_type_symbol
_atom_site_label
_atom_site_fract_x
_atom_site_fract_y
_atom_site_fract_z
Si Si1 0.866935 0.889767 0.893513
Si Si2 0.178581 0.850818 0.921637
Si Si3 0.099239 0.378675 0.562045
Si Si4 0.439384 0.519949 0.707591
Si Si5 0.164512 0.539454 0.000880
Si Si6 0.518787 0.845310 0.273580
Si Si7 0.925598 0.199998 0.529363
O O1 0.084466 0.943533 0.817303
O O2 0.892859 0.003796 0.681264
O O3 0.757192 0.678855 0.075444
O O4 0.701008 0.901470 0.049807
O O5 0.197386 0.703783 0.945650
O O6 0.005848 0.741554 0.185241
O O7 0.386910 0.002667 0.779997
O O8 0.350503 0.487180 0.378781
O O9 0.000000 0.500000 0.500000
O O10 0.039381 0.263921 0.555550
O O11 0.466770 0.657814 0.492064
O O12 0.383997 0.585864 0.804610
O O13 0.062834 0.356045 0.257713
O O14 0.000000 0.500000 0.000000
O O15 0.303588 0.821107 0.343448
#
# Coordination Sequence:
#
# PCOD9069883 Si02
#       7
#     2   2   2   2   2   2   2
#     4  12  24  42  73 111 140 186 244 304 354 418
#     4  12  25  46  76 105 146 184 242 297 362 423
#     4  12  25  46  75 110 139 186 245 309 348 420
#     4  12  27  46  75 101 151 194 234 288 371 425
#     4  12  26  52  69 105 149 199 231 289 359 444
#     4  12  24  44  75 110 137 191 243 301 358 418
#     4  12  26  44  73 106 149 181 245 298 353 423
#
# _framework density 22.406374
#
# number of rings (size 3 to 8) (size 9 to 14) (size 15 to 20)
#    0.000    0.000    7.143    3.000    2.000    1.714 
#    0.000    0.000    0.000    0.000    0.000    0.000 
#    0.000    0.000    0.000    0.000    0.000    0.000 
#
# Total GULP energy -78398.069295 kJ/mol
# GULP energy per Si atom -5599.862093 kJ/mol
# Density = 2.235538 g / cm^3
# Si number density = 22.406374 Si / 1000 Ang^3
#
#
#
# Elastic Constant Matrix: (Units=GPa)
#
#
# Indices 1 2 3 4 5 6 
#
# 1 88.9648 31.5108 23.1747 -4.8967 16.8908 -15.6014
# 2 31.5108 67.8776 33.3328 -4.8516 13.9687 7.3016
# 3 23.1747 33.3328 69.6587 -6.6252 37.4116 -20.6231
# 4 -4.8967 -4.8516 -6.6252 35.7729 -3.5783 0.3788
# 5 16.8908 13.9687 37.4116 -3.5783 39.4110 -10.2760
# 6 -15.6014 7.3016 -20.6231 0.3788 -10.2760 36.2369
#
#
#
# Elastic Compliance Matrix: (Units=1/GPa)
#
#
# Indices 1 2 3 4 5 6 
#
# 1 0.016567 -0.010633 0.006439 0.001257 -0.006435 0.011102
# 2 -0.010633 0.031139 -0.022823 -0.000270 0.009660 -0.021099
# 3 0.006439 -0.022823 0.049877 0.003250 -0.034995 0.025799
# 4 0.001257 -0.000270 0.003250 0.028630 -0.000398 0.002033
# 5 -0.006435 0.009660 -0.034995 -0.000398 0.055579 -0.008868
# 6 0.011102 -0.021099 0.025799 0.002033 -0.008868 0.048774
#
#
# Mechanical properties :
#
#
# Convention : Reuss Voigt Hill
#
# Bulk Modulus (GPa) = 22.96354 44.72642 33.84498
# Shear Modulus (GPa) = 16.71593 31.51634 24.11614
#
# Velocity S-wave (km/s) = 2.73433 3.75451 3.28427
# Velocity P-wave (km/s) = 4.49885 6.22896 5.43321
#
# Compressibility (1/GPa) = 0.04354730
#
# Stress axis : x y z
#
# Youngs Moduli (GPa) = 60.36080 32.11428 20.04950
#
# Poissons Ratio (x) = 0.34147 -0.12909
# Poissons Ratio (y) = 0.64181 0.45760
# Poissons Ratio (z) = -0.38864 0.73295
#
# Static dielectric constant tensor:
#      x y z
#    x 1.779110 0.020500 0.013460 
#    y 0.020500 1.928790 -0.053110 
#    z 0.013460 -0.053110 1.833950 
# 
# From -- ./inp_files/388957.got.cif
#   From: 2010.05.17/outbox.cif.g08.bks.cpg/sg2_195_cif.got.tgz:388957.got - 2010.06.03 11:33:40.
