data_PCOD9069938
_publ_section_title
;
Structure prediction by ZEFSAII (Michael W. Deem and Ramdas Pophale) SiO2 
 PCOD9069938
Probable space group: P -1
;
_chemical_formula_sum "Si O2"
_cell_formula_units_Z 16
_cell_length_a 9.457088
_cell_length_b 15.424799
_cell_length_c 17.331062
_cell_angle_alpha 148.363272
_cell_angle_beta 142.216068
_cell_angle_gamma 38.357682
_cell_volume 762.220164
_symmetry_space_group_name_H-M "P -1"
_symmetry_group_IT_number 2
_symmetry_cell_setting 'triclinic'
loop_
_space_group_symop_operation_xyz
x,y,z
-x,-y,-z
loop_
_atom_site_type_symbol
_atom_site_label
_atom_site_fract_x
_atom_site_fract_y
_atom_site_fract_z
Si Si1 0.473888 0.882850 0.200620
Si Si2 0.313427 0.127086 0.455430
Si Si3 0.963764 0.269129 0.091049
Si Si4 0.013214 0.399524 0.739704
Si Si5 0.508915 0.015930 0.892986
Si Si6 0.449571 0.383626 0.214152
Si Si7 0.199435 0.775468 0.620760
Si Si8 0.179960 0.518615 0.659151
O O1 0.736373 0.746057 0.235348
O O2 0.482493 0.931754 0.152636
O O3 0.401052 0.054077 0.353250
O O4 0.265911 0.796860 0.060974
O O5 0.295128 0.329120 0.606040
O O6 0.040117 0.130194 0.358782
O O7 0.500000 0.000000 0.500000
O O8 0.938500 0.431251 0.146541
O O9 0.965396 0.341152 0.233491
O O10 0.217500 0.112759 0.065490
O O11 0.814897 0.470702 0.776113
O O12 0.892138 0.317284 0.558316
O O13 0.323351 0.910915 0.745981
O O14 0.434828 0.192924 0.045267
O O15 0.603227 0.363606 0.344661
O O16 0.606969 0.427461 0.247566
O O17 0.000000 0.500000 0.500000
#
# Coordination Sequence:
#
# PCOD9069938 Si02
#       8
#     2   2   2   2   2   2   2   2
#     4  12  27  47  70 106 145 182 233 292 353 422
#     4  12  25  46  72 105 139 181 233 284 354 414
#     4  12  24  48  71 103 140 185 237 289 351 415
#     4  12  27  46  71 103 142 187 232 288 358 416
#     4  12  28  45  73 105 142 188 231 295 351 415
#     4  12  26  47  70 105 140 187 240 285 351 418
#     4  12  25  46  72 103 140 185 236 292 347 418
#     4  12  24  43  74 103 136 181 237 293 338 412
#
# _framework density 20.991311
#
# number of rings (size 3 to 8) (size 9 to 14) (size 15 to 20)
#    0.000    0.000    6.250    3.000    5.250    2.000 
#    0.000    0.000    0.000    0.000    0.000    0.000 
#    0.000    0.000    0.000    0.000    0.000    0.000 
#
# Total GULP energy -89643.512995 kJ/mol
# GULP energy per Si atom -5602.719562 kJ/mol
# Density = 2.094353 g / cm^3
# Si number density = 20.991311 Si / 1000 Ang^3
#
#
#
# Elastic Constant Matrix: (Units=GPa)
#
#
# Indices 1 2 3 4 5 6 
#
# 1 98.9522 24.7227 14.6177 10.1496 16.8995 -16.3622
# 2 24.7227 93.9968 28.2177 7.0431 8.4264 -16.7976
# 3 14.6177 28.2177 69.2114 10.0046 10.7198 -8.0463
# 4 10.1496 7.0431 10.0046 19.2466 -1.6496 -2.5164
# 5 16.8995 8.4264 10.7198 -1.6496 52.6223 9.8154
# 6 -16.3622 -16.7976 -8.0463 -2.5164 9.8154 38.8122
#
#
#
# Elastic Compliance Matrix: (Units=1/GPa)
#
#
# Indices 1 2 3 4 5 6 
#
# 1 0.012917 -0.001518 0.000249 -0.006079 -0.005222 0.005767
# 2 -0.001518 0.013366 -0.004106 -0.001499 -0.001728 0.004633
# 3 0.000249 -0.004106 0.018122 -0.008047 -0.003839 0.002534
# 4 -0.006079 -0.001499 -0.008047 0.060091 0.006191 -0.002549
# 5 -0.005222 -0.001728 -0.003839 0.006191 0.023674 -0.009331
# 6 0.005767 0.004633 0.002534 -0.002549 -0.009331 0.032921
#
#
# Mechanical properties :
#
#
# Convention : Reuss Voigt Hill
#
# Bulk Modulus (GPa) = 29.71309 44.14184 36.92747
# Shear Modulus (GPa) = 27.31349 35.10971 31.21160
#
# Velocity S-wave (km/s) = 3.61110 4.09416 3.86019
# Velocity P-wave (km/s) = 5.61893 6.58967 6.12357
#
# Compressibility (1/GPa) = 0.03365520
#
# Stress axis : x y z
#
# Youngs Moduli (GPa) = 77.41501 74.81920 55.18078
#
# Poissons Ratio (x) = 0.11357 -0.01372
# Poissons Ratio (y) = 0.11751 0.22656
# Poissons Ratio (z) = -0.01925 0.30719
#
# Static dielectric constant tensor:
#      x y z
#    x 1.743910 0.004110 -0.013300 
#    y 0.004110 1.716940 -0.000120 
#    z -0.013300 -0.000120 1.741420 
# 
# From -- ./inp_files/561450.got.cif
#   From: 2010.05.17/outbox.cif.g08.bks.cpg/sg2_281_cif.got.tgz:561450.got - 2010.06.03 11:33:40.
