data_PCOD9069978
_publ_section_title
;
Structure prediction by ZEFSAII (Michael W. Deem and Ramdas Pophale) SiO2 
 PCOD9069978
Probable space group: P -1
;
_chemical_formula_sum "Si O2"
_cell_formula_units_Z 14
_cell_length_a 8.444252
_cell_length_b 17.711884
_cell_length_c 8.197029
_cell_angle_alpha 123.300187
_cell_angle_beta 56.098535
_cell_angle_gamma 143.618568
_cell_volume 590.997126
_symmetry_space_group_name_H-M "P -1"
_symmetry_group_IT_number 2
_symmetry_cell_setting 'triclinic'
loop_
_space_group_symop_operation_xyz
x,y,z
-x,-y,-z
loop_
_atom_site_type_symbol
_atom_site_label
_atom_site_fract_x
_atom_site_fract_y
_atom_site_fract_z
Si Si1 0.687900 0.871609 0.483140
Si Si2 0.571059 0.232909 0.808375
Si Si3 0.038268 0.498790 0.670926
Si Si4 0.917132 0.866504 0.852890
Si Si5 0.720713 0.131591 0.128496
Si Si6 0.013818 0.681233 0.079731
Si Si7 0.656316 0.689155 0.480759
O O1 0.623131 0.879666 0.346395
O O2 0.455733 0.842385 0.685751
O O3 0.643959 0.751568 0.405186
O O4 0.000000 0.000000 0.500000
O O5 0.702659 0.220225 0.862692
O O6 0.825293 0.356732 0.703844
O O7 0.374715 0.240494 0.011288
O O8 0.354566 0.576758 0.595291
O O9 0.000000 0.500000 0.500000
O O10 0.989259 0.573399 0.891221
O O11 0.847022 0.807414 0.641898
O O12 0.143601 0.879313 0.818605
O O13 0.000000 0.000000 0.000000
O O14 0.954908 0.242735 0.001864
O O15 0.500000 0.000000 0.000000
O O16 0.783026 0.639550 0.283910
#
# Coordination Sequence:
#
# PCOD9069978 Si02
#       7
#     2   2   2   2   2   2   2
#     4  12  24  45  71 105 148 191 243 305 369 435
#     4  12  24  47  73 106 145 196 240 303 367 432
#     4  12  26  50  74 104 153 190 248 308 361 443
#     4  12  26  46  76 109 152 190 242 307 367 438
#     4  12  24  44  70 107 146 191 244 300 362 439
#     4  12  26  46  75 109 146 193 248 298 373 434
#     4  12  25  47  71 109 146 193 245 300 369 432
#
# _framework density 23.688779
#
# number of rings (size 3 to 8) (size 9 to 14) (size 15 to 20)
#    0.000    0.000    4.286    6.429    0.000    1.143 
#    2.571    4.286    0.000    0.000    0.000    0.000 
#    0.000    0.000    0.000    0.000    0.000    0.000 
#
# Total GULP energy -78341.195231 kJ/mol
# GULP energy per Si atom -5595.799659 kJ/mol
# Density = 2.363486 g / cm^3
# Si number density = 23.688779 Si / 1000 Ang^3
#
#
#
# Elastic Constant Matrix: (Units=GPa)
#
#
# Indices 1 2 3 4 5 6 
#
# 1 115.8212 25.5417 35.0721 2.9255 0.4588 25.5509
# 2 25.5417 105.6859 38.1792 -15.6955 -8.7760 15.9630
# 3 35.0721 38.1792 165.8064 -8.4049 -16.5917 20.0277
# 4 2.9255 -15.6955 -8.4049 31.0130 14.4341 8.5572
# 5 0.4588 -8.7760 -16.5917 14.4341 48.2357 -6.9899
# 6 25.5509 15.9630 20.0277 8.5572 -6.9899 30.7336
#
#
#
# Elastic Compliance Matrix: (Units=1/GPa)
#
#
# Indices 1 2 3 4 5 6 
#
# 1 0.011174 -0.000788 -0.001229 0.001966 -0.002596 -0.009217
# 2 -0.000788 0.012595 -0.001519 0.009225 -0.002136 -0.007951
# 3 -0.001229 -0.001519 0.007214 0.001515 0.001327 -0.003010
# 4 0.001966 0.009225 0.001515 0.052297 -0.017220 -0.025890
# 5 -0.002596 -0.002136 0.001327 -0.017220 0.027941 0.013553
# 6 -0.009217 -0.007951 -0.003010 -0.025890 0.013553 0.056583
#
#
# Mechanical properties :
#
#
# Convention : Reuss Voigt Hill
#
# Bulk Modulus (GPa) = 41.82237 64.98884 53.40560
# Shear Modulus (GPa) = 27.34540 41.23115 34.28828
#
# Velocity S-wave (km/s) = 3.40127 4.17650 3.80866
# Velocity P-wave (km/s) = 5.75484 7.12401 6.47571
#
# Compressibility (1/GPa) = 0.02391065
#
# Stress axis : x y z
#
# Youngs Moduli (GPa) = 89.49391 79.39808 138.61698
#
# Poissons Ratio (x) = 0.06256 0.17035
# Poissons Ratio (y) = 0.07052 0.21059
# Poissons Ratio (z) = 0.10998 0.12062
#
# Static dielectric constant tensor:
#      x y z
#    x 1.889560 -0.007630 0.043440 
#    y -0.007630 1.933750 0.000310 
#    z 0.043440 0.000310 1.878960 
# 
# From -- ./inp_files/199927.got.cif
#   From: 2010.05.17/outbox.cif.g08.bks.cpg/sg2_100_cif.got.tgz:199927.got - 2010.06.03 11:33:40.
