data_PCOD9069699
_publ_section_title
;
Structure prediction by ZEFSAII (Michael W. Deem and Ramdas Pophale) SiO2 
 PCOD9069699
Probable space group: P -1
;
_chemical_formula_sum "Si O2"
_cell_formula_units_Z 14
_cell_length_a 9.015115
_cell_length_b 11.124789
_cell_length_c 20.206293
_cell_angle_alpha 145.469074
_cell_angle_beta 139.835177
_cell_angle_gamma 64.792863
_cell_volume 615.316664
_symmetry_space_group_name_H-M "P -1"
_symmetry_group_IT_number 2
_symmetry_cell_setting 'triclinic'
loop_
_space_group_symop_operation_xyz
x,y,z
-x,-y,-z
loop_
_atom_site_type_symbol
_atom_site_label
_atom_site_fract_x
_atom_site_fract_y
_atom_site_fract_z
Si Si1 0.193442 0.373372 0.144792
Si Si2 0.278493 0.813900 0.459459
Si Si3 0.766959 0.729546 0.160083
Si Si4 0.755002 0.097089 0.081809
Si Si5 0.396371 0.907781 0.113988
Si Si6 0.692102 0.423230 0.865741
Si Si7 0.693539 0.415928 0.500691
O O1 0.339135 0.617934 0.355177
O O2 0.349785 0.510082 0.191567
O O3 0.861821 0.250664 0.994124
O O4 0.195264 0.119084 0.023473
O O5 0.239872 0.717698 0.478175
O O6 0.031118 0.787490 0.318118
O O7 0.497306 0.120522 0.675574
O O8 0.687693 0.933442 0.231166
O O9 0.500000 0.500000 0.000000
O O10 0.726644 0.619751 0.022683
O O11 0.027534 0.333560 0.315552
O O12 0.715962 0.201191 0.046383
O O13 0.500000 0.000000 0.000000
O O14 0.499956 0.200350 0.284739
O O15 0.000000 0.500000 0.000000
O O16 0.500000 0.500000 0.500000
#
# Coordination Sequence:
#
# PCOD9069699 Si02
#       7
#     2   2   2   2   2   2   2
#     4  12  23  47  73 104 148 190 241 303 361 434
#     4  12  26  45  75 107 141 196 243 293 371 433
#     4  12  24  44  69 102 149 186 239 300 358 435
#     4  12  27  49  75 110 147 187 247 308 360 435
#     4  12  25  48  73 109 144 194 243 297 366 438
#     4  12  26  45  69 106 147 189 243 303 365 431
#     4  12  25  46  79 106 142 199 245 296 369 437
#
# _framework density 22.752511999999999
#
# number of rings (size 3 to 8) (size 9 to 14) (size 15 to 20)
#    0.000    0.000    5.714    4.286    0.000    5.143 
#    0.000    0.000    0.000    0.000    0.000    0.000 
#    0.000    0.000    0.000    0.000    0.000    0.000 
#
# Total GULP energy -77980.843380 kJ/mol
# GULP energy per Si atom -5570.060241 kJ/mol
# Density = 2.270073 g / cm^3
# Si number density = 22.752512 Si / 1000 Ang^3
#
#
#
# Elastic Constant Matrix: (Units=GPa)
#
#
# Indices 1 2 3 4 5 6 
#
# 1 143.4115 23.3023 44.0092 1.6684 -5.1049 -8.8725
# 2 23.3023 58.2759 21.8023 19.0047 4.0326 -8.3036
# 3 44.0092 21.8023 146.7701 14.0057 9.0718 -5.3576
# 4 1.6684 19.0047 14.0057 24.5130 4.5963 -7.8563
# 5 -5.1049 4.0326 9.0718 4.5963 44.5740 2.9443
# 6 -8.8725 -8.3036 -5.3576 -7.8563 2.9443 39.9553
#
#
#
# Elastic Compliance Matrix: (Units=1/GPa)
#
#
# Indices 1 2 3 4 5 6 
#
# 1 0.008371 -0.003577 -0.002366 0.003779 0.001278 0.001447
# 2 -0.003577 0.025028 -0.000828 -0.018324 -0.000665 0.000742
# 3 -0.002366 -0.000828 0.008072 -0.003606 -0.001453 -0.000217
# 4 0.003779 -0.018324 -0.003606 0.060339 -0.003972 0.008705
# 5 0.001278 -0.000665 -0.001453 -0.003972 0.023516 -0.002563
# 6 0.001447 0.000742 -0.000217 0.008705 -0.002563 0.027375
#
#
# Mechanical properties :
#
#
# Convention : Reuss Voigt Hill
#
# Bulk Modulus (GPa) = 35.80575 58.52059 47.16317
# Shear Modulus (GPa) = 28.48166 39.09803 33.78984
#
# Velocity S-wave (km/s) = 3.54192 4.14986 3.85789
# Velocity P-wave (km/s) = 5.70072 6.98127 6.37324
#
# Compressibility (1/GPa) = 0.02792847
#
# Stress axis : x y z
#
# Youngs Moduli (GPa) = 119.45765 39.95591 123.88958
#
# Poissons Ratio (x) = 0.14292 0.29307
# Poissons Ratio (y) = 0.42730 0.10263
# Poissons Ratio (z) = 0.28259 0.03310
#
# Static dielectric constant tensor:
#      x y z
#    x 1.733050 0.025660 0.018220 
#    y 0.025660 1.744480 -0.106100 
#    z 0.018220 -0.106100 1.865500 
# 
# From -- ./inp_files/573500.got.cif
#   From: 2010.05.17/outbox.cif.g08.bks.cpg/sg2_287_cif.got.tgz:573500.got - 2010.06.03 11:33:40.
