data_PCOD9069034
_publ_section_title
;
Structure prediction by ZEFSAII (Michael W. Deem and Ramdas Pophale) SiO2 
 PCOD9069034
Probable space group: P -1
;
_chemical_formula_sum "Si O2"
_cell_formula_units_Z 15
_cell_length_a 9.067515
_cell_length_b 13.662561
_cell_length_c 8.181894
_cell_angle_alpha 127.558897
_cell_angle_beta 49.825291
_cell_angle_gamma 108.652514
_cell_volume 609.428725
_symmetry_space_group_name_H-M "P -1"
_symmetry_group_IT_number 2
_symmetry_cell_setting 'triclinic'
loop_
_space_group_symop_operation_xyz
x,y,z
-x,-y,-z
loop_
_atom_site_type_symbol
_atom_site_label
_atom_site_fract_x
_atom_site_fract_y
_atom_site_fract_z
Si Si1 0.236112 0.276138 0.311332
Si Si2 0.002973 0.192129 0.937638
Si Si3 0.406053 0.112245 0.288526
Si Si4 0.412660 0.140831 0.747351
Si Si5 0.090184 0.624438 0.118715
Si Si6 0.666139 0.251417 0.474335
Si Si7 0.478619 0.484712 0.303661
Si Si8 0.000000 0.000000 0.500000
O O1 0.362151 0.237449 0.342381
O O2 0.307504 0.399225 0.310873
O O3 0.024175 0.308381 0.576292
O O4 0.309876 0.165319 0.021565
O O5 0.929706 0.283422 0.931048
O O6 0.951289 0.058009 0.778447
O O7 0.229124 0.194001 0.819727
O O8 0.883346 0.232368 0.229332
O O9 0.555724 0.150532 0.352717
O O10 0.199657 0.066819 0.433657
O O11 0.500000 0.000000 0.000000
O O12 0.596910 0.217874 0.670386
O O13 0.500000 0.000000 0.500000
O O14 0.311100 0.581712 0.962644
O O15 0.000000 0.500000 0.000000
O O16 0.574393 0.387640 0.624187
O O17 0.500000 0.500000 0.500000
#
# Coordination Sequence:
#
# PCOD9069034 Si02
#       8
#     2   2   2   2   2   2   2   1
#     4  12  26  44  69 106 142 190 235 292 362 423
#     4  12  25  43  72 104 137 188 243 295 359 416
#     4  12  22  40  70 102 134 179 243 302 352 407
#     4  12  30  49  67 100 156 198 234 287 358 438
#     4  12  22  43  75 108 138 176 241 306 347 412
#     4  12  24  48  72 102 145 185 237 305 348 423
#     4  12  23  43  79 109 135 179 239 299 361 414
#     4  12  24  38  72 104 128 184 244 296 356 410
#
# _framework density 24.613212999999998
#
# number of rings (size 3 to 8) (size 9 to 14) (size 15 to 20)
#    0.000    0.000    8.000    1.600    0.000    2.133 
#    0.000    4.667    0.000    0.000    0.000    0.000 
#    0.000    0.000    0.000    0.000    0.000    0.000 
#
# Total GULP energy -83579.831715 kJ/mol
# GULP energy per Si atom -5571.988781 kJ/mol
# Density = 2.455719 g / cm^3
# Si number density = 24.613213 Si / 1000 Ang^3
#
#
#
# Elastic Constant Matrix: (Units=GPa)
#
#
# Indices 1 2 3 4 5 6 
#
# 1 17.4660 12.1496 24.8090 0.2588 -11.3509 14.7908
# 2 12.1496 108.7570 45.3096 -12.4141 -20.7732 3.2033
# 3 24.8090 45.3096 198.0524 -18.3441 -24.1025 -0.5134
# 4 0.2588 -12.4141 -18.3441 35.2220 6.0632 -1.6966
# 5 -11.3509 -20.7732 -24.1025 6.0632 44.5989 2.3102
# 6 14.7908 3.2033 -0.5134 -1.6966 2.3102 32.0352
#
#
#
# Elastic Compliance Matrix: (Units=1/GPa)
#
#
# Indices 1 2 3 4 5 6 
#
# 1 0.210674 -0.005282 -0.022180 -0.028192 0.048292 -0.102072
# 2 -0.005282 0.011126 -0.001286 0.002889 0.002685 0.001265
# 3 -0.022180 -0.001286 0.008249 0.005059 -0.003044 0.010989
# 4 -0.028192 0.002889 0.005059 0.034462 -0.008570 0.015251
# 5 0.048292 0.002685 -0.003044 -0.008570 0.036816 -0.025723
# 6 -0.102072 0.001265 0.010989 0.015251 -0.025723 0.081055
#
#
# Mechanical properties :
#
#
# Convention : Reuss Voigt Hill
#
# Bulk Modulus (GPa) = 5.79538 54.31241 30.05389
# Shear Modulus (GPa) = 10.05238 38.50504 24.27871
#
# Velocity S-wave (km/s) = 2.02312 3.95955 3.14412
# Velocity P-wave (km/s) = 2.79590 6.55883 5.04159
#
# Compressibility (1/GPa) = 0.17255128
#
# Stress axis : x y z
#
# Youngs Moduli (GPa) = 4.74668 89.87974 121.23400
#
# Poissons Ratio (x) = 0.47473 2.68903
# Poissons Ratio (y) = 0.02507 0.15592
# Poissons Ratio (z) = 0.10528 0.11560
#
# Static dielectric constant tensor:
#      x y z
#    x 1.958790 -0.036630 0.045380 
#    y -0.036630 1.953320 -0.051940 
#    z 0.045380 -0.051940 2.103890 
# 
# From -- ./inp_files/203951.got.cif
#   From: 2010.05.17/outbox.cif.g08.bks.cpg/sg2_102_cif.got.tgz:203951.got - 2010.06.03 11:33:40.
