data_PCOD9069814
_publ_section_title
;
Structure prediction by ZEFSAII (Michael W. Deem and Ramdas Pophale) SiO2 
 PCOD9069814
Probable space group: P -1
;
_chemical_formula_sum "Si O2"
_cell_formula_units_Z 14
_cell_length_a 10.035008
_cell_length_b 20.511166
_cell_length_c 12.262195
_cell_angle_alpha 142.426209
_cell_angle_beta 24.177753
_cell_angle_gamma 139.074210
_cell_volume 624.980111
_symmetry_space_group_name_H-M "P -1"
_symmetry_group_IT_number 2
_symmetry_cell_setting 'triclinic'
loop_
_space_group_symop_operation_xyz
x,y,z
-x,-y,-z
loop_
_atom_site_type_symbol
_atom_site_label
_atom_site_fract_x
_atom_site_fract_y
_atom_site_fract_z
Si Si1 0.501918 0.789278 0.363136
Si Si2 0.612835 0.494854 0.779657
Si Si3 0.297534 0.818659 0.164339
Si Si4 0.251639 0.996323 0.581546
Si Si5 0.267770 0.283916 0.132058
Si Si6 0.260840 0.268414 0.682929
Si Si7 0.463213 0.961097 0.850469
O O1 0.532892 0.915395 0.539023
O O2 0.769483 0.742774 0.177882
O O3 0.130840 0.732473 0.584335
O O4 0.614111 0.781093 0.145064
O O5 0.570420 0.597054 0.869239
O O6 0.467138 0.385834 0.681506
O O7 0.000000 0.500000 0.500000
O O8 0.500000 0.500000 0.000000
O O9 0.054186 0.738511 0.167499
O O10 0.153741 0.875049 0.451779
O O11 0.365885 0.927923 0.187026
O O12 0.590278 0.762090 0.923881
O O13 0.500000 0.000000 0.500000
O O14 0.915150 0.044013 0.908019
O O15 0.421495 0.159015 0.391450
O O16 0.500000 0.000000 0.000000
#
# Coordination Sequence:
#
# PCOD9069814 Si02
#       7
#     2   2   2   2   2   2   2
#     4  12  24  43  74 104 142 191 244 300 358 435
#     4  12  26  49  78 108 139 192 254 305 358 438
#     4  12  27  42  69 109 149 189 237 308 372 432
#     4  12  24  40  67 105 146 191 239 297 368 436
#     4  12  26  48  72 110 145 188 250 306 363 430
#     4  12  25  46  73 105 144 195 246 300 369 429
#     4  12  25  45  70 106 153 194 245 296 368 447
#
# _framework density 22.400711999999999
#
# number of rings (size 3 to 8) (size 9 to 14) (size 15 to 20)
#    0.000    0.000    7.143    3.000    0.000    2.857 
#    0.000    0.000    0.000    4.286    0.000    0.000 
#    0.000    0.000    0.000    0.000    0.000    0.000 
#
# Total GULP energy -77974.942576 kJ/mol
# GULP energy per Si atom -5569.638755 kJ/mol
# Density = 2.234973 g / cm^3
# Si number density = 22.400712 Si / 1000 Ang^3
#
#
#
# Elastic Constant Matrix: (Units=GPa)
#
#
# Indices 1 2 3 4 5 6 
#
# 1 84.0385 24.7606 30.6042 -9.5235 -7.1833 41.5438
# 2 24.7606 156.1805 22.0853 8.8948 9.9149 34.4103
# 3 30.6042 22.0853 79.1853 -12.0096 -0.1134 12.9754
# 4 -9.5235 8.8948 -12.0096 37.0991 -2.0767 -5.7025
# 5 -7.1833 9.9149 -0.1134 -2.0767 20.6493 -7.6394
# 6 41.5438 34.4103 12.9754 -5.7025 -7.6394 34.4197
#
#
#
# Elastic Compliance Matrix: (Units=1/GPa)
#
#
# Indices 1 2 3 4 5 6 
#
# 1 0.037495 0.007789 -0.008596 -0.003735 -0.010648 -0.052784
# 2 0.007789 0.012148 -0.003439 -0.006450 -0.012723 -0.024143
# 3 -0.008596 -0.003439 0.016232 0.005437 0.002698 0.009194
# 4 -0.003735 -0.006450 0.005437 0.032519 0.011315 0.016805
# 5 -0.010648 -0.012723 0.002698 0.011315 0.067288 0.041362
# 6 -0.052784 -0.024143 0.009194 0.016805 0.041362 0.125397
#
#
# Mechanical properties :
#
#
# Convention : Reuss Voigt Hill
#
# Bulk Modulus (GPa) = 17.42661 52.70049 35.06355
# Shear Modulus (GPa) = 15.68881 34.56390 25.12635
#
# Velocity S-wave (km/s) = 2.64932 3.93234 3.35278
# Velocity P-wave (km/s) = 4.14185 6.64794 5.53850
#
# Compressibility (1/GPa) = 0.05738350
#
# Stress axis : x y z
#
# Youngs Moduli (GPa) = 26.67036 82.31484 61.60676
#
# Poissons Ratio (x) = -0.64119 0.52958
# Poissons Ratio (y) = -0.20775 0.21187
# Poissons Ratio (z) = 0.22926 0.28309
#
# Static dielectric constant tensor:
#      x y z
#    x 1.910310 -0.081490 0.049060 
#    y -0.081490 1.994400 0.019840 
#    z 0.049060 0.019840 1.863210 
# 
# From -- ./inp_files/36817.got.cif
#   From: 2010.05.17/outbox.cif.g08.bks.cpg/sg2_19_cif.got.tgz:36817.got - 2010.06.03 11:33:40.
