data_PCOD9069015
_publ_section_title
;
Structure prediction by ZEFSAII (Michael W. Deem and Ramdas Pophale) SiO2 
 PCOD9069015
Probable space group: P -1
;
_chemical_formula_sum "Si O2"
_cell_formula_units_Z 16
_cell_length_a 11.714828
_cell_length_b 11.706680
_cell_length_c 8.855991
_cell_angle_alpha 125.903246
_cell_angle_beta 106.282214
_cell_angle_gamma 50.431781
_cell_volume 749.869188
_symmetry_space_group_name_H-M "P -1"
_symmetry_group_IT_number 2
_symmetry_cell_setting 'triclinic'
loop_
_space_group_symop_operation_xyz
x,y,z
-x,-y,-z
loop_
_atom_site_type_symbol
_atom_site_label
_atom_site_fract_x
_atom_site_fract_y
_atom_site_fract_z
Si Si1 0.265582 0.908365 0.269345
Si Si2 0.881185 0.285921 0.933702
Si Si3 0.819618 0.879102 0.910231
Si Si4 0.987822 0.745807 0.369432
Si Si5 0.850294 0.543496 0.560267
Si Si6 0.564515 0.764794 0.439325
Si Si7 0.759627 0.678244 0.192636
Si Si8 0.610020 0.977346 0.146776
O O1 0.211907 0.787576 0.133998
O O2 0.434609 0.789640 0.306264
O O3 0.241522 0.007567 0.178259
O O4 0.146951 0.064772 0.463929
O O5 0.951969 0.237285 0.752527
O O6 0.779474 0.498375 0.066647
O O7 0.010078 0.208579 0.049044
O O8 0.800419 0.723735 0.764967
O O9 0.725824 0.991068 0.110052
O O10 0.917166 0.642236 0.234041
O O11 0.107392 0.618462 0.443256
O O12 0.714893 0.591577 0.438592
O O13 0.000000 0.500000 0.500000
O O14 0.651409 0.805987 0.387679
O O15 0.474099 0.888345 0.643579
O O16 0.690983 0.784177 0.097182
O O17 0.500000 0.000000 0.000000
#
# Coordination Sequence:
#
# PCOD9069015 Si02
#       8
#     2   2   2   2   2   2   2   2
#     4  12  27  45  70  98 145 192 221 276 345 423
#     4  12  26  45  68 104 142 182 233 276 343 413
#     4  12  22  42  68 102 139 177 233 283 340 402
#     4  12  23  44  73 101 131 178 237 288 339 395
#     4  12  22  39  71 104 130 171 230 292 338 393
#     4  12  25  43  69 101 141 179 226 280 351 410
#     4  12  23  42  73  99 138 175 228 294 339 393
#     4  12  24  38  69 109 134 169 230 296 342 394
#
# _framework density 21.337053999999998
#
# number of rings (size 3 to 8) (size 9 to 14) (size 15 to 20)
#    0.000    0.000    7.500    3.000    0.000    0.500 
#    0.000    0.625    0.000    0.000    0.000    0.000 
#    0.000    0.000    0.000    0.000    0.000    0.000 
#
# Total GULP energy -89343.131512 kJ/mol
# GULP energy per Si atom -5583.945720 kJ/mol
# Density = 2.128849 g / cm^3
# Si number density = 21.337054 Si / 1000 Ang^3
#
#
#
# Elastic Constant Matrix: (Units=GPa)
#
#
# Indices 1 2 3 4 5 6 
#
# 1 73.3570 44.4677 24.2430 -6.9442 0.9356 -20.2426
# 2 44.4677 141.0495 41.8350 -35.2240 5.2551 -30.3328
# 3 24.2430 41.8350 67.1577 -14.4318 -17.9889 -7.8613
# 4 -6.9442 -35.2240 -14.4318 41.0936 -3.1234 9.5817
# 5 0.9356 5.2551 -17.9889 -3.1234 38.0596 -3.4576
# 6 -20.2426 -30.3328 -7.8613 9.5817 -3.4576 32.3958
#
#
#
# Elastic Compliance Matrix: (Units=1/GPa)
#
#
# Indices 1 2 3 4 5 6 
#
# 1 0.019555 -0.003720 -0.005081 -0.003776 -0.001914 0.008416
# 2 -0.003720 0.013057 -0.005404 0.006985 -0.003130 0.006190
# 3 -0.005081 -0.005404 0.024097 0.004471 0.012411 -0.002385
# 4 -0.003776 0.006985 0.004471 0.032445 0.003545 -0.003953
# 5 -0.001914 -0.003130 0.012411 0.003545 0.033034 0.001362
# 6 0.008416 0.006190 -0.002385 -0.003953 0.001362 0.042658
#
#
# Mechanical properties :
#
#
# Convention : Reuss Voigt Hill
#
# Bulk Modulus (GPa) = 35.33591 55.85061 45.59326
# Shear Modulus (GPa) = 24.66819 33.71105 29.18962
#
# Velocity S-wave (km/s) = 3.40387 3.97915 3.70269
# Velocity P-wave (km/s) = 5.66085 6.88068 6.30035
#
# Compressibility (1/GPa) = 0.02829982
#
# Stress axis : x y z
#
# Youngs Moduli (GPa) = 51.13698 76.58525 41.49925
#
# Poissons Ratio (x) = 0.28490 0.21086
# Poissons Ratio (y) = 0.19023 0.22426
# Poissons Ratio (z) = 0.25982 0.41386
#
# Static dielectric constant tensor:
#      x y z
#    x 1.768990 -0.076500 -0.018600 
#    y -0.076500 1.782940 0.059440 
#    z -0.018600 0.059440 1.798950 
# 
# From -- ./inp_files/263093.got.cif
#   From: 2010.05.17/outbox.cif.g08.bks.cpg/sg2_132_cif.got.tgz:263093.got - 2010.06.03 11:33:40.
