data_PCOD9069466
_publ_section_title
;
Structure prediction by ZEFSAII (Michael W. Deem and Ramdas Pophale) SiO2 
 PCOD9069466
Probable space group: P -1
;
_chemical_formula_sum "Si O2"
_cell_formula_units_Z 15
_cell_length_a 8.601975
_cell_length_b 8.731466
_cell_length_c 15.132251
_cell_angle_alpha 140.199655
_cell_angle_beta 63.755385
_cell_angle_gamma 98.172843
_cell_volume 612.669442
_symmetry_space_group_name_H-M "P -1"
_symmetry_group_IT_number 2
_symmetry_cell_setting 'triclinic'
loop_
_space_group_symop_operation_xyz
x,y,z
-x,-y,-z
loop_
_atom_site_type_symbol
_atom_site_label
_atom_site_fract_x
_atom_site_fract_y
_atom_site_fract_z
Si Si1 0.477865 0.050607 0.423663
Si Si2 0.000000 0.500000 0.500000
Si Si3 0.970240 0.245293 0.861215
Si Si4 0.390856 0.529681 0.875707
Si Si5 0.213462 0.838907 0.896748
Si Si6 0.243741 0.333806 0.185709
Si Si7 0.938420 0.783741 0.374717
Si Si8 0.756374 0.253784 0.349938
O O1 0.557854 0.762974 0.238453
O O2 0.500000 0.000000 0.500000
O O3 0.261453 0.177064 0.519619
O O4 0.593604 0.214469 0.430297
O O5 0.848323 0.604859 0.667444
O O6 0.837208 0.457496 0.459748
O O7 0.058644 0.172997 0.711236
O O8 0.751436 0.297959 0.940008
O O9 0.072482 0.011438 0.794775
O O10 0.000000 0.500000 0.000000
O O11 0.267782 0.607578 0.851001
O O12 0.577989 0.583155 0.834269
O O13 0.293787 0.736151 0.735545
O O14 0.289204 0.044529 0.014620
O O15 0.000000 0.000000 0.000000
O O16 0.085655 0.510799 0.238730
O O17 0.000000 0.000000 0.500000
#
# Coordination Sequence:
#
# PCOD9069466 Si02
#       8
#     2   1   2   2   2   2   2   2
#     4  12  25  46  76 114 152 197 253 312 387 451
#     4  12  26  48  72 106 158 204 244 314 390 454
#     4  12  23  43  77 108 148 195 245 312 379 443
#     4  12  26  47  78 113 152 199 254 319 377 458
#     4  12  26  47  75 111 147 203 256 307 374 460
#     4  12  27  48  76 109 157 200 256 313 380 455
#     4  12  26  46  75 115 155 194 247 318 383 450
#     4  12  25  46  77 112 150 204 256 311 386 454
#
# _framework density 24.483021999999998
#
# number of rings (size 3 to 8) (size 9 to 14) (size 15 to 20)
#    0.000    0.000    6.667    2.800    1.867    2.667 
#    0.000    2.000    0.000    0.000    0.000    0.000 
#    0.000    0.000    0.000    0.000    0.000    0.000 
#
# Total GULP energy -83824.091819 kJ/mol
# GULP energy per Si atom -5588.272788 kJ/mol
# Density = 2.442730 g / cm^3
# Si number density = 24.483022 Si / 1000 Ang^3
#
#
#
# Elastic Constant Matrix: (Units=GPa)
#
#
# Indices 1 2 3 4 5 6 
#
# 1 125.8497 41.1789 46.0303 -15.8455 -25.3440 28.8028
# 2 41.1789 94.7959 44.1034 -15.6876 -3.2115 2.8034
# 3 46.0303 44.1034 90.1185 -15.9982 -7.5369 7.3178
# 4 -15.8455 -15.6876 -15.9982 51.2605 -3.9829 -17.8281
# 5 -25.3440 -3.2115 -7.5369 -3.9829 63.5745 -8.3977
# 6 28.8028 2.8034 7.3178 -17.8281 -8.3977 51.8276
#
#
#
# Elastic Compliance Matrix: (Units=1/GPa)
#
#
# Indices 1 2 3 4 5 6 
#
# 1 0.012499 -0.003277 -0.004037 -0.000084 0.003587 -0.005647
# 2 -0.003277 0.014815 -0.005366 0.002695 -0.000683 0.002594
# 3 -0.004037 -0.005366 0.016180 0.002606 0.000360 0.001204
# 4 -0.000084 0.002695 0.002606 0.024269 0.003038 0.008373
# 5 0.003587 -0.000683 0.000360 0.003038 0.017608 0.001891
# 6 -0.005647 0.002594 0.001204 0.008373 0.001891 0.025309
#
#
# Mechanical properties :
#
#
# Convention : Reuss Voigt Hill
#
# Bulk Modulus (GPa) = 55.14397 63.70993 59.42695
# Shear Modulus (GPa) = 35.19066 45.29596 40.24331
#
# Velocity S-wave (km/s) = 3.79535 4.30594 4.05868
# Velocity P-wave (km/s) = 6.46363 7.12742 6.80362
#
# Compressibility (1/GPa) = 0.01813435
#
# Stress axis : x y z
#
# Youngs Moduli (GPa) = 80.00750 67.49885 61.80657
#
# Poissons Ratio (x) = 0.22117 0.24951
# Poissons Ratio (y) = 0.26216 0.33165
# Poissons Ratio (z) = 0.32298 0.36219
#
# Static dielectric constant tensor:
#      x y z
#    x 1.930280 0.021070 -0.025700 
#    y 0.021070 1.970250 0.032770 
#    z -0.025700 0.032770 1.936320 
# 
# From -- ./inp_files/495780.got.cif
#   From: 2010.05.17/outbox.cif.g08.bks.cpg/sg2_248_cif.got.tgz:495780.got - 2010.06.03 11:33:40.
