data_PCOD9069274
_publ_section_title
;
Structure prediction by ZEFSAII (Michael W. Deem and Ramdas Pophale) SiO2 
 PCOD9069274
Probable space group: P -1
;
_chemical_formula_sum "Si O2"
_cell_formula_units_Z 13
_cell_length_a 8.533242
_cell_length_b 9.080595
_cell_length_c 15.244674
_cell_angle_alpha 114.415033
_cell_angle_beta 63.092902
_cell_angle_gamma 149.454425
_cell_volume 534.626702
_symmetry_space_group_name_H-M "P -1"
_symmetry_group_IT_number 2
_symmetry_cell_setting 'triclinic'
loop_
_space_group_symop_operation_xyz
x,y,z
-x,-y,-z
loop_
_atom_site_type_symbol
_atom_site_label
_atom_site_fract_x
_atom_site_fract_y
_atom_site_fract_z
Si Si1 0.159902 0.296458 0.881506
Si Si2 0.785510 0.228220 0.742274
Si Si3 0.341465 0.437149 0.319001
Si Si4 0.913751 0.874412 0.394800
Si Si5 0.122825 0.809608 0.772054
Si Si6 0.000000 0.000000 0.000000
Si Si7 0.495232 0.139420 0.103378
O O1 0.390174 0.387143 0.778609
O O2 0.204187 0.516948 0.896516
O O3 0.209203 0.299399 0.970953
O O4 0.793853 0.969724 0.883955
O O5 0.028552 0.274967 0.661430
O O6 0.967826 0.533251 0.787993
O O7 0.485459 0.046918 0.714182
O O8 0.606318 0.014367 0.817990
O O9 0.565408 0.663560 0.399209
O O10 0.069948 0.314447 0.300547
O O11 0.168282 0.149216 0.332742
O O12 0.000000 0.000000 0.500000
O O13 0.103465 0.945144 0.879190
O O14 0.500000 0.000000 0.000000
#
# Coordination Sequence:
#
# PCOD9069274 Si02
#       7
#     2   2   2   2   2   1   2
#     4  12  23  41  65  97 141 196 239 292 340 446
#     4  12  24  47  70 111 145 194 249 314 375 422
#     4  12  24  49  72 108 144 199 237 312 386 440
#     4  12  26  50  82 107 141 192 256 314 388 460
#     4  12  27  44  74 104 159 196 245 306 361 444
#     4  12  26  44  66 110 152 210 250 274 372 446
#     4  12  23  39  65  98 145 188 245 294 355 420
#
# _framework density 24.316030999999999
#
# number of rings (size 3 to 8) (size 9 to 14) (size 15 to 20)
#    0.000    0.000    3.077    8.308    0.000    4.308 
#    0.000    4.615    0.000    0.000    0.000    0.000 
#    0.000    0.000    0.000    0.000    0.000    0.000 
#
# Total GULP energy -72399.098002 kJ/mol
# GULP energy per Si atom -5569.161385 kJ/mol
# Density = 2.426069 g / cm^3
# Si number density = 24.316031 Si / 1000 Ang^3
#
#
#
# Elastic Constant Matrix: (Units=GPa)
#
#
# Indices 1 2 3 4 5 6 
#
# 1 99.6571 29.9592 26.9253 6.5201 10.0700 6.1909
# 2 29.9592 109.2615 4.9129 6.4450 4.4279 -4.6684
# 3 26.9253 4.9129 73.8846 11.7141 7.8494 -10.8041
# 4 6.5201 6.4450 11.7141 31.9916 4.9171 6.8390
# 5 10.0700 4.4279 7.8494 4.9171 20.2485 8.8975
# 6 6.1909 -4.6684 -10.8041 6.8390 8.8975 61.3278
#
#
#
# Elastic Compliance Matrix: (Units=1/GPa)
#
#
# Indices 1 2 3 4 5 6 
#
# 1 0.012601 -0.003245 -0.004414 0.000594 -0.003153 -0.001905
# 2 -0.003245 0.010236 0.001222 -0.002010 -0.001378 0.001746
# 3 -0.004414 0.001222 0.017333 -0.005918 -0.005578 0.005061
# 4 0.000594 -0.002010 -0.005918 0.035325 -0.004120 -0.004597
# 5 -0.003153 -0.001378 -0.005578 -0.004120 0.058269 -0.008764
# 6 -0.001905 0.001746 0.005061 -0.004597 -0.008764 0.019307
#
#
# Mechanical properties :
#
#
# Convention : Reuss Voigt Hill
#
# Bulk Modulus (GPa) = 36.63554 45.15535 40.89544
# Shear Modulus (GPa) = 28.56431 37.44731 33.00581
#
# Velocity S-wave (km/s) = 3.43112 3.92857 3.68824
# Velocity P-wave (km/s) = 5.54941 6.26009 5.91543
#
# Compressibility (1/GPa) = 0.02729590
#
# Stress axis : x y z
#
# Youngs Moduli (GPa) = 79.36079 97.69228 57.69362
#
# Poissons Ratio (x) = 0.31704 0.25466
# Poissons Ratio (y) = 0.25755 -0.07052
# Poissons Ratio (z) = 0.35030 -0.11941
#
# Static dielectric constant tensor:
#      x y z
#    x 2.105850 -0.021540 0.016740 
#    y -0.021540 1.866340 0.002850 
#    z 0.016740 0.002850 1.874910 
# 
# From -- ./inp_files/493382.got.cif
#   From: 2010.05.17/outbox.cif.g08.bks.cpg/sg2_247_cif.got.tgz:493382.got - 2010.06.03 11:33:40.
