data_PCOD9069463
_publ_section_title
;
Structure prediction by ZEFSAII (Michael W. Deem and Ramdas Pophale) SiO2 
 PCOD9069463
Probable space group: P -1
;
_chemical_formula_sum "Si O2"
_cell_formula_units_Z 9
_cell_length_a 8.579644
_cell_length_b 6.214807
_cell_length_c 7.232288
_cell_angle_alpha 68.893146
_cell_angle_beta 104.634538
_cell_angle_gamma 113.106166
_cell_volume 328.102479
_symmetry_space_group_name_H-M "P -1"
_symmetry_group_IT_number 2
_symmetry_cell_setting 'triclinic'
loop_
_space_group_symop_operation_xyz
x,y,z
-x,-y,-z
loop_
_atom_site_type_symbol
_atom_site_label
_atom_site_fract_x
_atom_site_fract_y
_atom_site_fract_z
Si Si1 0.186187 0.104609 0.691221
Si Si2 0.000000 0.500000 0.500000
Si Si3 0.849825 0.221195 0.908872
Si Si4 0.549897 0.399859 0.855841
Si Si5 0.662890 0.920685 0.605806
O O1 0.383360 0.194453 0.790694
O O2 0.191591 0.969231 0.539402
O O3 0.134593 0.344667 0.579138
O O4 0.077491 0.915848 0.871083
O O5 0.965025 0.418050 0.739900
O O6 0.715701 0.320712 0.943934
O O7 0.737245 0.017158 0.795769
O O8 0.604522 0.632230 0.666079
O O9 0.500000 0.500000 0.000000
O O10 0.500000 0.000000 0.500000
#
# Coordination Sequence:
#
# PCOD9069463 Si02
#       5
#     2   1   2   2   2
#     4  12  25  48  74 109 148 188 244 296 366 430
#     4  12  28  48  72 104 154 200 234 290 360 450
#     4  12  26  49  72 109 147 189 247 296 362 429
#     4  12  23  46  77 111 141 183 244 311 356 415
#     4  12  23  43  76 110 144 183 238 307 362 418
#
# _framework density 27.430454999999998
#
# number of rings (size 3 to 8) (size 9 to 14) (size 15 to 20)
#    0.000    0.000    6.667    4.667    0.000    0.889 
#    0.000    5.556    0.000    0.000    0.000    0.000 
#    0.000    0.000    0.000    0.000    0.000    0.000 
#
# Total GULP energy -50293.751916 kJ/mol
# GULP energy per Si atom -5588.194657 kJ/mol
# Density = 2.736802 g / cm^3
# Si number density = 27.430455 Si / 1000 Ang^3
#
#
#
# Elastic Constant Matrix: (Units=GPa)
#
#
# Indices 1 2 3 4 5 6 
#
# 1 124.5216 26.0152 37.8042 -1.5647 -21.5891 -42.1547
# 2 26.0152 61.4769 37.3079 -13.7503 -3.8875 -7.7073
# 3 37.8042 37.3079 193.9626 -17.8289 -31.8300 -27.4799
# 4 -1.5647 -13.7503 -17.8289 74.4194 -10.1856 1.6840
# 5 -21.5891 -3.8875 -31.8300 -10.1856 57.2592 3.5929
# 6 -42.1547 -7.7073 -27.4799 1.6840 3.5929 68.9042
#
#
#
# Elastic Compliance Matrix: (Units=1/GPa)
#
#
# Indices 1 2 3 4 5 6 
#
# 1 0.011704 -0.003924 -0.000003 -0.000119 0.003714 0.006530
# 2 -0.003924 0.020278 -0.003317 0.002715 -0.001373 -0.001450
# 3 -0.000003 -0.003317 0.006840 0.001485 0.003707 0.002126
# 4 -0.000119 0.002715 0.001485 0.014775 0.003576 0.000275
# 5 0.003714 -0.001373 0.003707 0.003576 0.021318 0.002398
# 6 0.006530 -0.001450 0.002126 0.000275 0.002398 0.019062
#
#
# Mechanical properties :
#
#
# Convention : Reuss Voigt Hill
#
# Bulk Modulus (GPa) = 41.09301 64.69062 52.89181
# Shear Modulus (GPa) = 42.88992 58.70549 50.79771
#
# Velocity S-wave (km/s) = 3.95851 4.63120 4.30801
# Velocity P-wave (km/s) = 5.99220 7.22718 6.63847
#
# Compressibility (1/GPa) = 0.02433504
#
# Stress axis : x y z
#
# Youngs Moduli (GPa) = 85.43725 49.31367 146.19613
#
# Poissons Ratio (x) = 0.19353 0.00040
# Poissons Ratio (y) = 0.33530 0.48490
# Poissons Ratio (z) = 0.00023 0.16356
#
# Static dielectric constant tensor:
#      x y z
#    x 2.135050 0.081960 -0.075770 
#    y 0.081960 2.256040 -0.064380 
#    z -0.075770 -0.064380 2.216740 
# 
# From -- ./inp_files/15333.got.cif
#   From: 2010.05.17/outbox.cif.g08.bks.cpg/sg2_8_cif.got.tgz:15333.got - 2010.06.03 11:33:40.
