data_PCOD9069521
_publ_section_title
;
Structure prediction by ZEFSAII (Michael W. Deem and Ramdas Pophale) SiO2 
 PCOD9069521
Probable space group: P -1
;
_chemical_formula_sum "Si O2"
_cell_formula_units_Z 16
_cell_length_a 18.223653
_cell_length_b 8.490413
_cell_length_c 19.379759
_cell_angle_alpha 39.740745
_cell_angle_beta 22.104608
_cell_angle_gamma 42.359634
_cell_volume 716.982388
_symmetry_space_group_name_H-M "P -1"
_symmetry_group_IT_number 2
_symmetry_cell_setting 'triclinic'
loop_
_space_group_symop_operation_xyz
x,y,z
-x,-y,-z
loop_
_atom_site_type_symbol
_atom_site_label
_atom_site_fract_x
_atom_site_fract_y
_atom_site_fract_z
Si Si1 0.969693 0.710948 0.634719
Si Si2 0.858382 0.301754 0.164555
Si Si3 0.772369 0.505815 0.398226
Si Si4 0.787511 0.915282 0.135578
Si Si5 0.623018 0.113741 0.561644
Si Si6 0.183136 0.450563 0.408265
Si Si7 0.462605 0.284605 0.957025
Si Si8 0.403215 0.632378 0.759931
O O1 0.046316 0.618687 0.673974
O O2 0.096794 0.542923 0.526036
O O3 0.742597 0.675158 0.838132
O O4 0.000000 0.000000 0.500000
O O5 0.717090 0.225586 0.373629
O O6 0.731699 0.409043 0.173948
O O7 0.009487 0.067286 0.086734
O O8 0.000000 0.500000 0.000000
O O9 0.827894 0.679616 0.229903
O O10 0.668585 0.284126 0.528556
O O11 0.614437 0.663647 0.531799
O O12 0.608598 0.881091 0.251517
O O13 0.705058 0.138145 0.181303
O O14 0.724185 0.834308 0.576876
O O15 0.362090 0.616854 0.185840
O O16 0.000000 0.500000 0.500000
O O17 0.442207 0.425291 0.854058
O O18 0.500000 0.000000 0.000000
#
# Coordination Sequence:
#
# PCOD9069521 Si02
#       8
#     2   2   2   2   2   2   2   2
#     4  12  25  48  75 105 142 193 244 299 364 433
#     4  12  26  43  68 107 147 194 235 293 367 435
#     4  12  23  44  75 101 145 197 231 301 363 434
#     4  12  24  45  69 104 144 188 242 292 363 431
#     4  12  26  45  69 104 151 186 242 298 369 434
#     4  12  28  49  75 110 144 187 246 311 368 433
#     4  12  26  48  76 107 140 191 248 298 365 440
#     4  12  25  44  72 107 142 185 247 298 356 437
#
# _framework density 22.315750000000001
#
# number of rings (size 3 to 8) (size 9 to 14) (size 15 to 20)
#    0.000    0.000    6.250    3.375    3.500    0.500 
#    0.000    1.250    0.000    0.000    0.000    0.000 
#    0.000    0.000    0.000    0.000    0.000    0.000 
#
# Total GULP energy -89640.323945 kJ/mol
# GULP energy per Si atom -5602.520247 kJ/mol
# Density = 2.226496 g / cm^3
# Si number density = 22.315750 Si / 1000 Ang^3
#
#
#
# Elastic Constant Matrix: (Units=GPa)
#
#
# Indices 1 2 3 4 5 6 
#
# 1 85.3182 34.2375 22.9941 -3.0293 -36.3632 -10.9785
# 2 34.2375 109.1939 5.0631 6.4861 -10.8907 -8.4758
# 3 22.9941 5.0631 114.8441 24.7773 -21.8337 -5.9927
# 4 -3.0293 6.4861 24.7773 37.6887 6.5619 4.4616
# 5 -36.3632 -10.8907 -21.8337 6.5619 43.3408 11.6901
# 6 -10.9785 -8.4758 -5.9927 4.4616 11.6901 42.8814
#
#
#
# Elastic Compliance Matrix: (Units=1/GPa)
#
#
# Indices 1 2 3 4 5 6 
#
# 1 0.020554 -0.004898 -0.001092 0.000544 0.015413 -0.000117
# 2 -0.004898 0.010866 0.001084 -0.003024 -0.000801 0.001578
# 3 -0.001092 0.001084 0.012288 -0.009630 0.006788 0.000803
# 4 0.000544 -0.003024 -0.009630 0.035463 -0.009760 -0.002833
# 5 0.015413 -0.000801 0.006788 -0.009760 0.042256 -0.005768
# 6 -0.000117 0.001578 0.000803 -0.002833 -0.005768 0.025582
#
#
# Mechanical properties :
#
#
# Convention : Reuss Voigt Hill
#
# Bulk Modulus (GPa) = 29.50252 48.21619 38.85935
# Shear Modulus (GPa) = 29.74046 41.25294 35.49670
#
# Velocity S-wave (km/s) = 3.65459 4.30420 3.99263
# Velocity P-wave (km/s) = 5.57290 6.80844 6.22142
#
# Compressibility (1/GPa) = 0.03389541
#
# Stress axis : x y z
#
# Youngs Moduli (GPa) = 48.65135 92.03193 81.37771
#
# Poissons Ratio (x) = 0.45079 0.08890
# Poissons Ratio (y) = 0.23830 -0.08822
# Poissons Ratio (z) = 0.05315 -0.09977
#
# Static dielectric constant tensor:
#      x y z
#    x 1.828080 0.020060 0.003870 
#    y 0.020060 1.833560 0.009220 
#    z 0.003870 0.009220 1.852040 
# 
# From -- ./inp_files/278735.got.cif
#   From: 2010.05.17/outbox.cif.g08.bks.cpg/sg2_140_cif.got.tgz:278735.got - 2010.06.03 11:33:40.
