data_PCOD9069493
_publ_section_title
;
Structure prediction by ZEFSAII (Michael W. Deem and Ramdas Pophale) SiO2 
 PCOD9069493
Probable space group: P -1
;
_chemical_formula_sum "Si O2"
_cell_formula_units_Z 16
_cell_length_a 5.550790
_cell_length_b 20.169670
_cell_length_c 11.829363
_cell_angle_alpha 148.173905
_cell_angle_beta 83.716038
_cell_angle_gamma 95.217057
_cell_volume 694.204342
_symmetry_space_group_name_H-M "P -1"
_symmetry_group_IT_number 2
_symmetry_cell_setting 'triclinic'
loop_
_space_group_symop_operation_xyz
x,y,z
-x,-y,-z
loop_
_atom_site_type_symbol
_atom_site_label
_atom_site_fract_x
_atom_site_fract_y
_atom_site_fract_z
Si Si1 0.731573 0.014203 0.588467
Si Si2 0.650229 0.236669 0.072682
Si Si3 0.130693 0.256125 0.218151
Si Si4 0.560845 0.337437 0.570524
Si Si5 0.284613 0.494936 0.643423
Si Si6 0.803852 0.790705 0.423974
Si Si7 0.047689 0.865935 0.743932
Si Si8 0.931040 0.545479 0.944442
O O1 0.697799 0.911171 0.540316
O O2 0.500000 0.000000 0.500000
O O3 0.000000 0.000000 0.500000
O O4 0.716045 0.152072 0.840488
O O5 0.378886 0.201212 0.075092
O O6 0.634161 0.380609 0.242451
O O7 0.879678 0.216120 0.114853
O O8 0.139026 0.406384 0.437382
O O9 0.129870 0.220297 0.298231
O O10 0.490909 0.403669 0.552082
O O11 0.363956 0.295970 0.613218
O O12 0.699859 0.205501 0.352329
O O13 0.721419 0.448112 0.778748
O O14 0.129481 0.529851 0.813383
O O15 0.993321 0.849528 0.590256
O O16 0.883026 0.693459 0.180910
O O17 0.000000 0.000000 0.000000
O O18 0.000000 0.500000 0.000000
#
# Coordination Sequence:
#
# PCOD9069493 Si02
#       8
#     2   2   2   2   2   2   2   2
#     4  12  30  54  76 111 151 201 257 307 377 455
#     4  12  29  47  78 107 153 207 251 309 377 451
#     4  12  25  50  71 114 148 198 257 307 378 453
#     4  12  24  43  73 108 145 188 252 305 385 433
#     4  12  26  44  73 109 149 196 246 316 374 448
#     4  12  27  46  76 108 147 198 245 315 375 447
#     4  12  27  46  75 106 153 194 249 314 377 449
#     4  12  23  44  70 111 148 186 252 312 384 439
#
# _framework density 23.047972000000001
#
# number of rings (size 3 to 8) (size 9 to 14) (size 15 to 20)
#    0.000    0.000    5.000    4.125    7.000    0.500 
#    0.000    0.000    0.000    0.000    0.000    0.000 
#    0.000    0.000    0.000    0.000    0.000    0.000 
#
# Total GULP energy -89376.812204 kJ/mol
# GULP energy per Si atom -5586.050763 kJ/mol
# Density = 2.299551 g / cm^3
# Si number density = 23.047972 Si / 1000 Ang^3
#
#
#
# Elastic Constant Matrix: (Units=GPa)
#
#
# Indices 1 2 3 4 5 6 
#
# 1 115.8794 33.2415 26.9890 -20.7142 -8.8756 -16.1519
# 2 33.2415 71.2834 -11.4218 1.9122 2.9665 -10.1342
# 3 26.9890 -11.4218 129.6045 -0.2968 -16.6541 -13.8109
# 4 -20.7142 1.9122 -0.2968 43.4194 0.6451 -11.0242
# 5 -8.8756 2.9665 -16.6541 0.6451 42.3557 -15.3155
# 6 -16.1519 -10.1342 -13.8109 -11.0242 -15.3155 38.7469
#
#
#
# Elastic Compliance Matrix: (Units=1/GPa)
#
#
# Indices 1 2 3 4 5 6 
#
# 1 0.013990 -0.006107 -0.001839 0.008956 0.005501 0.008301
# 2 -0.006107 0.017750 0.002972 -0.003150 -0.000571 0.002034
# 3 -0.001839 0.002972 0.009632 0.000408 0.005221 0.005623
# 4 0.008956 -0.003150 0.000408 0.031073 0.007101 0.014703
# 5 0.005501 -0.000571 0.005221 0.007101 0.033749 0.019365
# 6 0.008301 0.002034 0.005623 0.014703 0.019365 0.043643
#
#
# Mechanical properties :
#
#
# Convention : Reuss Voigt Hill
#
# Bulk Modulus (GPa) = 31.82425 46.04274 38.93350
# Shear Modulus (GPa) = 29.36679 42.76829 36.06754
#
# Velocity S-wave (km/s) = 3.57341 4.31236 3.96016
# Velocity P-wave (km/s) = 5.55549 6.69445 6.15139
#
# Compressibility (1/GPa) = 0.03142258
#
# Stress axis : x y z
#
# Youngs Moduli (GPa) = 71.48196 56.33701 103.82281
#
# Poissons Ratio (x) = 0.34408 0.19097
# Poissons Ratio (y) = 0.43657 -0.30860
# Poissons Ratio (z) = 0.13148 -0.16745
#
# Static dielectric constant tensor:
#      x y z
#    x 1.623940 0.125210 -0.295890 
#    y 0.125210 1.796100 0.107830 
#    z -0.295890 0.107830 1.803820 
# 
# From -- ./inp_files/370518.got.cif
#   From: 2010.05.17/outbox.cif.g08.bks.cpg/sg2_186_cif.got.tgz:370518.got - 2010.06.03 11:33:40.
