data_PCOD9069794
_publ_section_title
;
Structure prediction by ZEFSAII (Michael W. Deem and Ramdas Pophale) SiO2 
 PCOD9069794
Probable space group: P -1
;
_chemical_formula_sum "Si O2"
_cell_formula_units_Z 16
_cell_length_a 5.390053
_cell_length_b 26.785244
_cell_length_c 9.526718
_cell_angle_alpha 37.432584
_cell_angle_beta 56.176430
_cell_angle_gamma 70.875962
_cell_volume 676.464560
_symmetry_space_group_name_H-M "P -1"
_symmetry_group_IT_number 2
_symmetry_cell_setting 'triclinic'
loop_
_space_group_symop_operation_xyz
x,y,z
-x,-y,-z
loop_
_atom_site_type_symbol
_atom_site_label
_atom_site_fract_x
_atom_site_fract_y
_atom_site_fract_z
Si Si1 0.854294 0.537111 0.332847
Si Si2 0.354987 0.015192 0.162170
Si Si3 0.041881 0.854571 0.305330
Si Si4 0.390270 0.326197 0.499073
Si Si5 0.425363 0.854384 0.628443
Si Si6 0.808674 0.281959 0.223400
Si Si7 0.913258 0.427899 0.303443
Si Si8 0.993990 0.157779 0.967444
O O1 0.500000 0.500000 0.500000
O O2 0.000000 0.500000 0.500000
O O3 0.979422 0.492026 0.268299
O O4 0.929575 0.638029 0.081901
O O5 0.254380 0.925144 0.467716
O O6 0.095834 0.068740 0.128535
O O7 0.657283 0.077436 0.989154
O O8 0.500000 0.000000 0.000000
O O9 0.775687 0.890234 0.385983
O O10 0.952063 0.811744 0.279293
O O11 0.105576 0.789366 0.545946
O O12 0.606242 0.322407 0.304955
O O13 0.120042 0.364509 0.431083
O O14 0.240052 0.230360 0.808248
O O15 0.589792 0.374546 0.458645
O O16 0.334557 0.767740 0.760789
O O17 0.324173 0.845347 0.842993
O O18 0.000000 0.500000 0.000000
#
# Coordination Sequence:
#
# PCOD9069794 Si02
#       8
#     2   2   2   2   2   2   2   2
#     4  12  31  50  75 116 158 203 259 329 398 469
#     4  12  23  50  73 110 155 206 258 323 398 472
#     4  12  24  49  77 108 150 211 254 330 388 478
#     4  12  25  49  77 112 150 203 265 324 392 471
#     4  12  28  46  75 112 156 202 262 326 395 470
#     4  12  27  49  78 103 158 202 255 321 402 467
#     4  12  27  46  79 108 148 200 260 319 393 474
#     4  12  28  44  77 113 153 201 267 322 393 471
#
# _framework density 23.652384000000001
#
# number of rings (size 3 to 8) (size 9 to 14) (size 15 to 20)
#    0.000    0.000    6.250    2.625    7.000    1.500 
#    0.000    0.000    0.000    0.000    0.000    0.000 
#    0.000    0.000    0.000    0.000    0.000    0.000 
#
# Total GULP energy -89216.718455 kJ/mol
# GULP energy per Si atom -5576.044903 kJ/mol
# Density = 2.359855 g / cm^3
# Si number density = 23.652384 Si / 1000 Ang^3
#
#
#
# Elastic Constant Matrix: (Units=GPa)
#
#
# Indices 1 2 3 4 5 6 
#
# 1 83.2895 14.7756 8.0310 3.0073 9.4093 11.3989
# 2 14.7756 101.7094 22.0436 13.3191 14.6267 3.3732
# 3 8.0310 22.0436 63.4241 -0.0051 2.0646 3.4596
# 4 3.0073 13.3191 -0.0051 58.3387 6.7195 -0.3868
# 5 9.4093 14.6267 2.0646 6.7195 24.4675 -0.2556
# 6 11.3989 3.3732 3.4596 -0.3868 -0.2556 34.2561
#
#
#
# Elastic Compliance Matrix: (Units=1/GPa)
#
#
# Indices 1 2 3 4 5 6 
#
# 1 0.013367 -0.000934 -0.000986 0.000020 -0.004549 -0.004290
# 2 -0.000934 0.011920 -0.003803 -0.001997 -0.005903 -0.000545
# 3 -0.000986 -0.003803 0.017238 0.000802 0.000967 -0.001022
# 4 0.000020 -0.001997 0.000802 0.018040 -0.003833 0.000284
# 5 -0.004549 -0.005903 0.000967 -0.003833 0.047144 0.002306
# 6 -0.004290 -0.000545 -0.001022 0.000284 0.002306 0.030797
#
#
# Mechanical properties :
#
#
# Convention : Reuss Voigt Hill
#
# Bulk Modulus (GPa) = 32.17564 37.56929 34.87247
# Shear Modulus (GPa) = 31.18915 36.98398 34.08657
#
# Velocity S-wave (km/s) = 3.63526 3.95859 3.80036
# Velocity P-wave (km/s) = 5.59046 6.06731 5.83376
#
# Compressibility (1/GPa) = 0.03107941
#
# Stress axis : x y z
#
# Youngs Moduli (GPa) = 74.80836 83.88953 58.01205
#
# Poissons Ratio (x) = 0.07838 0.05719
# Poissons Ratio (y) = 0.06990 0.22062
# Poissons Ratio (z) = 0.07375 0.31903
#
# Static dielectric constant tensor:
#      x y z
#    x 1.842980 -0.149700 0.114380 
#    y -0.149700 1.591850 0.313660 
#    z 0.114380 0.313660 1.584000 
# 
# From -- ./inp_files/143065.got.cif
#   From: 2010.05.17/outbox.cif.g08.bks.cpg/sg2_72_cif.got.tgz:143065.got - 2010.06.03 11:33:40.
