data_PCOD9069177
_publ_section_title
;
Structure prediction by ZEFSAII (Michael W. Deem and Ramdas Pophale) SiO2 
 PCOD9069177
Probable space group: P -1
;
_chemical_formula_sum "Si O2"
_cell_formula_units_Z 16
_cell_length_a 15.745280
_cell_length_b 9.066780
_cell_length_c 9.254478
_cell_angle_alpha 113.889585
_cell_angle_beta 35.809031
_cell_angle_gamma 104.326443
_cell_volume 698.623424
_symmetry_space_group_name_H-M "P -1"
_symmetry_group_IT_number 2
_symmetry_cell_setting 'triclinic'
loop_
_space_group_symop_operation_xyz
x,y,z
-x,-y,-z
loop_
_atom_site_type_symbol
_atom_site_label
_atom_site_fract_x
_atom_site_fract_y
_atom_site_fract_z
Si Si1 0.236866 0.773274 0.796328
Si Si2 0.169641 0.003775 0.704083
Si Si3 0.013446 0.839150 0.594123
Si Si4 0.748223 0.062360 0.885519
Si Si5 0.649239 0.853391 0.701646
Si Si6 0.380830 0.434383 0.541754
Si Si7 0.106854 0.350322 0.074111
Si Si8 0.964236 0.636700 0.226469
O O1 0.210917 0.882065 0.732775
O O2 0.312003 0.587658 0.597908
O O3 0.320896 0.855951 0.839887
O O4 0.083771 0.753490 0.078523
O O5 0.071866 0.937551 0.688349
O O6 0.316769 0.032594 0.431694
O O7 0.096617 0.184627 0.929516
O O8 0.165259 0.816856 0.282419
O O9 0.930670 0.706745 0.737199
O O10 0.884323 0.930749 0.706663
O O11 0.639433 0.971660 0.901223
O O12 0.560663 0.718194 0.703219
O O13 0.804224 0.735569 0.474682
O O14 0.500000 0.500000 0.500000
O O15 0.258823 0.391731 0.810035
O O16 0.996170 0.518487 0.271425
O O17 0.000000 0.500000 0.000000
#
# Coordination Sequence:
#
# PCOD9069177 Si02
#       8
#     2   2   2   2   2   2   2   2
#     4  11  20  34  60  85 112 144 186 231 279 334
#     4  10  18  28  56  83 113 148 183 224 269 330
#     4  10  18  29  51  86 126 146 169 215 275 350
#     4  10  21  32  52  88 123 148 170 223 290 339
#     4  10  21  37  54  81 118 148 184 230 279 334
#     4  10  23  41  60  78 104 150 199 238 273 323
#     4  10  19  30  54  83 113 146 186 227 261 328
#     4  11  17  28  49  82 114 147 175 211 279 329
#
# _framework density 22.902179
#
# number of rings (size 3 to 8) (size 9 to 14) (size 15 to 20)
#    0.000    1.750    5.000    3.375    0.000    0.000 
#    0.000    8.750    0.000    0.750    0.000    0.000 
#    0.000    0.000    0.000    0.000    0.000    0.000 
#
# Total GULP energy -89107.018039 kJ/mol
# GULP energy per Si atom -5569.188627 kJ/mol
# Density = 2.285005 g / cm^3
# Si number density = 22.902179 Si / 1000 Ang^3
#
#
#
# Elastic Constant Matrix: (Units=GPa)
#
#
# Indices 1 2 3 4 5 6 
#
# 1 99.6183 60.1948 30.5098 -3.5736 37.7864 16.3742
# 2 60.1948 134.9753 37.3488 -6.2406 18.7226 -21.6463
# 3 30.5098 37.3488 65.4339 9.5080 15.4029 -0.9495
# 4 -3.5736 -6.2406 9.5080 33.3446 1.6856 9.9718
# 5 37.7864 18.7226 15.4029 1.6856 37.3045 4.2608
# 6 16.3742 -21.6463 -0.9495 9.9718 4.2608 47.8611
#
#
#
# Elastic Compliance Matrix: (Units=1/GPa)
#
#
# Indices 1 2 3 4 5 6 
#
# 1 0.027513 -0.010467 -0.003398 0.007131 -0.019944 -0.013924
# 2 -0.010467 0.014125 -0.003934 -0.000439 0.004058 0.009621
# 3 -0.003398 -0.003934 0.020935 -0.007397 -0.003078 0.001614
# 4 0.007131 -0.000439 -0.007397 0.035961 -0.004445 -0.009882
# 5 -0.019944 0.004058 -0.003078 -0.004445 0.045822 0.005444
# 6 -0.013924 0.009621 0.001614 -0.009882 0.005444 0.031615
#
#
# Mechanical properties :
#
#
# Convention : Reuss Voigt Hill
#
# Bulk Modulus (GPa) = 37.06905 61.79268 49.43086
# Shear Modulus (GPa) = 22.66964 35.16700 28.91832
#
# Velocity S-wave (km/s) = 3.14960 3.92284 3.55729
# Velocity P-wave (km/s) = 5.42656 6.89622 6.20506
#
# Compressibility (1/GPa) = 0.02697669
#
# Stress axis : x y z
#
# Youngs Moduli (GPa) = 36.34639 70.79683 47.76673
#
# Poissons Ratio (x) = 0.74101 0.16229
# Poissons Ratio (y) = 0.38043 0.18791
# Poissons Ratio (z) = 0.12349 0.27851
#
# Static dielectric constant tensor:
#      x y z
#    x 1.971570 0.028080 0.009540 
#    y 0.028080 1.912960 0.045430 
#    z 0.009540 0.045430 1.966790 
# 
# From -- ./inp_files/299109.got.cif
#   From: 2010.05.17/outbox.cif.g08.bks.cpg/sg2_150_cif.got.tgz:299109.got - 2010.06.03 11:33:40.
