data_PCOD9069392
_publ_section_title
;
Structure prediction by ZEFSAII (Michael W. Deem and Ramdas Pophale) SiO2 
 PCOD9069392
Probable space group: P -1
;
_chemical_formula_sum "Si O2"
_cell_formula_units_Z 15
_cell_length_a 13.701679
_cell_length_b 6.034762
_cell_length_c 22.005162
_cell_angle_alpha 108.199090
_cell_angle_beta 160.100856
_cell_angle_gamma 70.577332
_cell_volume 584.059978
_symmetry_space_group_name_H-M "P -1"
_symmetry_group_IT_number 2
_symmetry_cell_setting 'triclinic'
loop_
_space_group_symop_operation_xyz
x,y,z
-x,-y,-z
loop_
_atom_site_type_symbol
_atom_site_label
_atom_site_fract_x
_atom_site_fract_y
_atom_site_fract_z
Si Si1 0.455936 0.251016 0.424401
Si Si2 0.393977 0.381273 0.063544
Si Si3 0.138515 0.732242 0.575186
Si Si4 0.033911 0.680141 0.089328
Si Si5 0.987046 0.878075 0.716614
Si Si6 0.801144 0.139420 0.037072
Si Si7 0.500000 0.000000 0.000000
Si Si8 0.647204 0.484765 0.444248
O O1 0.500000 0.500000 0.500000
O O2 0.525491 0.290302 0.398182
O O3 0.129489 0.204775 0.241921
O O4 0.705027 0.057668 0.578158
O O5 0.615997 0.247146 0.228808
O O6 0.431896 0.654038 0.102319
O O7 0.091274 0.392664 0.925145
O O8 0.391062 0.271565 0.986320
O O9 0.271925 0.628119 0.581798
O O10 0.000000 0.500000 0.500000
O O11 0.000000 0.000000 0.500000
O O12 0.374082 0.687088 0.294448
O O13 0.854409 0.935726 0.001022
O O14 0.000000 0.500000 0.000000
O O15 0.898231 0.622001 0.630929
O O16 0.246467 0.901656 0.921227
O O17 0.168571 0.971946 0.776670
#
# Coordination Sequence:
#
# PCOD9069392 Si02
#       8
#     2   2   2   2   2   2   1   2
#     4  12  23  42  75 115 154 193 254 334 410 487
#     4  12  28  50  76 114 154 208 268 339 405 491
#     4  12  32  55  80 115 165 220 279 331 404 503
#     4  12  25  49  74 113 155 203 263 340 413 481
#     4  12  26  45  72 112 155 205 264 330 404 493
#     4  12  25  45  79 113 158 201 264 342 420 482
#     4  12  28  48  74 104 158 206 270 318 404 488
#     4  12  26  47  82 112 156 212 264 339 421 481
#
# _framework density 25.682295
#
# number of rings (size 3 to 8) (size 9 to 14) (size 15 to 20)
#    0.000    0.000    6.667    2.800    5.600    1.067 
#    0.000    0.000    0.000    0.000    0.000    0.000 
#    0.000    0.000    0.000    0.000    0.000    0.000 
#
# Total GULP energy -83571.981562 kJ/mol
# GULP energy per Si atom -5571.465437 kJ/mol
# Density = 2.562384 g / cm^3
# Si number density = 25.682295 Si / 1000 Ang^3
#
#
#
# Elastic Constant Matrix: (Units=GPa)
#
#
# Indices 1 2 3 4 5 6 
#
# 1 103.6886 39.8576 0.9592 -6.6422 -23.4587 -36.5927
# 2 39.8576 156.2660 21.0212 -21.0774 -23.5226 -23.2882
# 3 0.9592 21.0212 77.7003 -0.7589 -1.5438 -1.8781
# 4 -6.6422 -21.0774 -0.7589 50.8019 5.2338 -10.6069
# 5 -23.4587 -23.5226 -1.5438 5.2338 33.4435 6.6943
# 6 -36.5927 -23.2882 -1.8781 -10.6069 6.6943 52.3033
#
#
#
# Elastic Compliance Matrix: (Units=1/GPa)
#
#
# Indices 1 2 3 4 5 6 
#
# 1 0.015488 -0.000961 0.000494 0.002929 0.007745 0.010028
# 2 -0.000961 0.008505 -0.002095 0.003643 0.003987 0.003268
# 3 0.000494 -0.002095 0.013413 -0.000603 -0.000378 -0.000180
# 4 0.002929 0.003643 -0.000603 0.023425 -0.000778 0.008500
# 5 0.007745 0.003987 -0.000378 -0.000778 0.037805 0.002184
# 6 0.010028 0.003268 -0.000180 0.008500 0.002184 0.029028
#
#
# Mechanical properties :
#
#
# Convention : Reuss Voigt Hill
#
# Bulk Modulus (GPa) = 30.97864 51.25900 41.11882
# Shear Modulus (GPa) = 34.83113 45.69754 40.26433
#
# Velocity S-wave (km/s) = 3.68670 4.22280 3.96382
# Velocity P-wave (km/s) = 5.49643 6.61651 6.08231
#
# Compressibility (1/GPa) = 0.03228031
#
# Stress axis : x y z
#
# Youngs Moduli (GPa) = 64.56506 117.57954 74.55457
#
# Poissons Ratio (x) = 0.11304 -0.03681
# Poissons Ratio (y) = 0.06207 0.15621
# Poissons Ratio (z) = -0.03188 0.24636
#
# Static dielectric constant tensor:
#      x y z
#    x 1.269270 0.066780 -0.041470 
#    y 0.066780 2.178100 0.037850 
#    z -0.041470 0.037850 2.105130 
# 
# From -- ./inp_files/611350.got.cif
#   From: 2010.05.17/outbox.cif.g08.bks.cpg/sg2_306_cif.got.tgz:611350.got - 2010.06.03 11:33:40.
