data_PCOD9069073
_publ_section_title
;
Structure prediction by ZEFSAII (Michael W. Deem and Ramdas Pophale) SiO2 
 PCOD9069073
Probable space group: P -1
;
_chemical_formula_sum "Si O2"
_cell_formula_units_Z 16
_cell_length_a 7.792758
_cell_length_b 15.369136
_cell_length_c 15.090165
_cell_angle_alpha 144.178858
_cell_angle_beta 31.110736
_cell_angle_gamma 133.953780
_cell_volume 546.530442
_symmetry_space_group_name_H-M "P -1"
_symmetry_group_IT_number 2
_symmetry_cell_setting 'triclinic'
loop_
_space_group_symop_operation_xyz
x,y,z
-x,-y,-z
loop_
_atom_site_type_symbol
_atom_site_label
_atom_site_fract_x
_atom_site_fract_y
_atom_site_fract_z
Si Si1 0.856867 0.626383 0.913017
Si Si2 0.678102 0.178866 0.759753
Si Si3 0.441467 0.776066 0.682885
Si Si4 0.576354 0.272532 0.063004
Si Si5 0.062564 0.602707 0.471943
Si Si6 0.151979 0.436573 0.773887
Si Si7 0.388593 0.887548 0.606898
Si Si8 0.148884 0.004570 0.208225
O O1 0.153764 0.740197 0.850116
O O2 0.878289 0.500659 0.723330
O O3 0.911641 0.539978 0.907814
O O4 0.522347 0.721426 0.138781
O O5 0.997803 0.274586 0.725833
O O6 0.679683 0.010269 0.587318
O O7 0.458813 0.195809 0.960892
O O8 0.304447 0.861890 0.727500
O O9 0.560671 0.614296 0.463439
O O10 0.760990 0.865061 0.653220
O O11 0.275889 0.296892 0.286095
O O12 0.703840 0.439212 0.121715
O O13 0.855870 0.158058 0.878928
O O14 0.000000 0.500000 0.500000
O O15 0.369200 0.716940 0.442276
O O16 0.141379 0.962298 0.705474
O O17 0.500000 0.000000 0.000000
#
# Coordination Sequence:
#
# PCOD9069073 Si02
#       8
#     2   2   2   2   2   2   2   2
#     4  12  25  45  76 106 141 188 250 304 360 423
#     4  12  27  47  72 102 152 203 233 293 365 443
#     4  12  25  47  76 108 146 188 242 309 362 423
#     4  12  23  45  70 104 148 187 246 296 359 426
#     4  12  22  41  73 110 137 183 240 309 361 418
#     4  12  27  47  70 108 149 193 244 293 365 436
#     4  12  25  46  71 105 149 186 237 298 365 431
#     4  12  25  41  73 112 144 183 241 303 365 426
#
# _framework density 29.275587999999999
#
# number of rings (size 3 to 8) (size 9 to 14) (size 15 to 20)
#    0.000    0.000    6.250    4.125    0.000    2.000 
#    0.000    2.500    0.000    0.000    0.000    0.000 
#    0.000    0.000    0.000    0.000    0.000    0.000 
#
# Total GULP energy -89612.311958 kJ/mol
# GULP energy per Si atom -5600.769497 kJ/mol
# Density = 2.920895 g / cm^3
# Si number density = 29.275588 Si / 1000 Ang^3
#
#
#
# Elastic Constant Matrix: (Units=GPa)
#
#
# Indices 1 2 3 4 5 6 
#
# 1 158.3912 48.9781 22.8220 27.0936 -4.2745 2.1865
# 2 48.9781 229.0100 45.6661 39.3461 0.2436 34.9345
# 3 22.8220 45.6661 110.3079 44.1192 11.0778 9.5785
# 4 27.0936 39.3461 44.1192 62.0330 5.1312 0.1476
# 5 -4.2745 0.2436 11.0778 5.1312 48.9291 20.0846
# 6 2.1865 34.9345 9.5785 0.1476 20.0846 59.9418
#
#
#
# Elastic Compliance Matrix: (Units=1/GPa)
#
#
# Indices 1 2 3 4 5 6 
#
# 1 0.007103 -0.001101 -0.000169 -0.002355 0.000859 0.000128
# 2 -0.001101 0.005845 -0.000981 -0.002682 0.001963 -0.003861
# 3 -0.000169 -0.000981 0.013170 -0.008526 -0.001715 -0.000931
# 4 -0.002355 -0.002682 -0.008526 0.025107 -0.002442 0.003768
# 5 0.000859 0.001963 -0.001715 -0.002442 0.024946 -0.009254
# 6 0.000128 -0.003861 -0.000931 0.003768 -0.009254 0.022168
#
#
# Mechanical properties :
#
#
# Convention : Reuss Voigt Hill
#
# Bulk Modulus (GPa) = 46.26411 81.40460 63.83436
# Shear Modulus (GPa) = 45.43470 59.53032 52.48251
#
# Velocity S-wave (km/s) = 3.94377 4.51427 4.23863
# Velocity P-wave (km/s) = 6.04773 7.41877 6.76806
#
# Compressibility (1/GPa) = 0.02161503
#
# Stress axis : x y z
#
# Youngs Moduli (GPa) = 140.79464 171.07274 75.92917
#
# Poissons Ratio (x) = 0.18837 0.01284
# Poissons Ratio (y) = 0.15503 0.07451
# Poissons Ratio (z) = 0.02381 0.16788
#
# Static dielectric constant tensor:
#      x y z
#    x 2.360610 -0.021870 0.042250 
#    y -0.021870 2.357070 -0.151510 
#    z 0.042250 -0.151510 2.392080 
# 
# From -- ./inp_files/562084.got.cif
#   From: 2010.05.17/outbox.cif.g08.bks.cpg/sg2_282_cif.got.tgz:562084.got - 2010.06.03 11:33:40.
