data_PCOD9069303
_publ_section_title
;
Structure prediction by ZEFSAII (Michael W. Deem and Ramdas Pophale) SiO2 
 PCOD9069303
Probable space group: P -1
;
_chemical_formula_sum "Si O2"
_cell_formula_units_Z 16
_cell_length_a 21.062795
_cell_length_b 8.538944
_cell_length_c 5.978623
_cell_angle_alpha 61.453127
_cell_angle_beta 127.044722
_cell_angle_gamma 130.616040
_cell_volume 644.938990
_symmetry_space_group_name_H-M "P -1"
_symmetry_group_IT_number 2
_symmetry_cell_setting 'triclinic'
loop_
_space_group_symop_operation_xyz
x,y,z
-x,-y,-z
loop_
_atom_site_type_symbol
_atom_site_label
_atom_site_fract_x
_atom_site_fract_y
_atom_site_fract_z
Si Si1 0.125174 0.018407 0.544157
Si Si2 0.256725 0.898071 0.138448
Si Si3 0.976707 0.565517 0.650406
Si Si4 0.737621 0.859687 0.623790
Si Si5 0.574902 0.040406 0.816686
Si Si6 0.654420 0.463944 0.958605
Si Si7 0.192073 0.485547 0.456529
Si Si8 0.470559 0.362774 0.810492
O O1 0.166080 0.015631 0.389040
O O2 0.138225 0.244692 0.437198
O O3 0.030941 0.816402 0.561109
O O4 0.198758 0.998005 0.865760
O O5 0.347425 0.982943 0.129201
O O6 0.201353 0.649196 0.177664
O O7 0.278060 0.977279 0.383083
O O8 0.868183 0.487946 0.496962
O O9 0.000000 0.500000 0.500000
O O10 0.000000 0.500000 0.000000
O O11 0.737879 0.678077 0.889119
O O12 0.638452 0.716685 0.389098
O O13 0.622088 0.267133 0.867275
O O14 0.500000 0.000000 0.500000
O O15 0.529581 0.852741 0.023436
O O16 0.565284 0.491614 0.776232
O O17 0.702495 0.441768 0.298625
O O18 0.500000 0.500000 0.000000
#
# Coordination Sequence:
#
# PCOD9069303 Si02
#       8
#     2   2   2   2   2   2   2   2
#     4  12  26  50  75 113 147 196 253 313 386 462
#     4  12  24  46  73 102 151 191 249 309 383 447
#     4  12  29  53  86 117 159 206 257 324 402 473
#     4  12  24  45  73 103 148 197 248 313 379 459
#     4  12  24  41  64 102 148 197 257 314 377 460
#     4  12  25  42  70 108 145 198 257 309 384 458
#     4  12  26  49  77 112 150 196 255 321 383 471
#     4  12  23  41  65 100 146 194 250 308 376 453
#
# _framework density 24.808548999999999
#
# number of rings (size 3 to 8) (size 9 to 14) (size 15 to 20)
#    0.000    0.000    3.750    7.125    1.750    1.000 
#    0.000    1.875    0.000    0.000    0.000    0.000 
#    0.000    0.000    0.000    0.000    0.000    0.000 
#
# Total GULP energy -89303.087434 kJ/mol
# GULP energy per Si atom -5581.442965 kJ/mol
# Density = 2.475208 g / cm^3
# Si number density = 24.808549 Si / 1000 Ang^3
#
#
#
# Elastic Constant Matrix: (Units=GPa)
#
#
# Indices 1 2 3 4 5 6 
#
# 1 107.4077 13.7797 2.1209 3.8645 -9.9439 10.6994
# 2 13.7797 130.2060 11.5898 -29.4791 -17.1505 -13.3373
# 3 2.1209 11.5898 28.8240 -18.6228 -5.0202 -5.0946
# 4 3.8645 -29.4791 -18.6228 40.0365 8.1591 -6.1730
# 5 -9.9439 -17.1505 -5.0202 8.1591 30.0920 -3.7387
# 6 10.6994 -13.3373 -5.0946 -6.1730 -3.7387 49.6508
#
#
#
# Elastic Compliance Matrix: (Units=1/GPa)
#
#
# Indices 1 2 3 4 5 6 
#
# 1 0.010426 -0.001978 -0.003484 -0.005185 0.002698 -0.003577
# 2 -0.001978 0.010897 0.003880 0.009991 0.004155 0.005307
# 3 -0.003484 0.003880 0.055441 0.030019 0.003597 0.011485
# 4 -0.005185 0.009991 0.030019 0.049342 -0.002799 0.012805
# 5 0.002698 0.004155 0.003597 -0.002799 0.038277 0.003438
# 6 -0.003577 0.005307 0.011485 0.012805 0.003438 0.025366
#
#
# Mechanical properties :
#
#
# Convention : Reuss Voigt Hill
#
# Bulk Modulus (GPa) = 13.58686 35.71317 24.65002
# Shear Modulus (GPa) = 22.99441 39.88568 31.44004
#
# Velocity S-wave (km/s) = 3.04776 4.01401 3.56379
# Velocity P-wave (km/s) = 4.22773 5.99248 5.18573
#
# Compressibility (1/GPa) = 0.07360051
#
# Stress axis : x y z
#
# Youngs Moduli (GPa) = 95.91862 91.76987 18.03728
#
# Poissons Ratio (x) = 0.18153 0.06284
# Poissons Ratio (y) = 0.18973 -0.06999
# Poissons Ratio (z) = 0.33415 -0.35611
#
# Static dielectric constant tensor:
#      x y z
#    x 1.957100 0.023000 -0.045890 
#    y 0.023000 1.985630 0.037300 
#    z -0.045890 0.037300 2.166580 
# 
# From -- ./inp_files/107548.got.cif
#   From: 2010.05.17/outbox.cif.g08.bks.cpg/sg2_54_cif.got.tgz:107548.got - 2010.06.03 11:33:40.
