data_PCOD9069545
_publ_section_title
;
Structure prediction by ZEFSAII (Michael W. Deem and Ramdas Pophale) SiO2 
 PCOD9069545
Probable space group: P -1
;
_chemical_formula_sum "Si O2"
_cell_formula_units_Z 16
_cell_length_a 25.842224
_cell_length_b 8.690133
_cell_length_c 25.802314
_cell_angle_alpha 136.857718
_cell_angle_beta 11.595579
_cell_angle_gamma 136.817893
_cell_volume 792.047066
_symmetry_space_group_name_H-M "P -1"
_symmetry_group_IT_number 2
_symmetry_cell_setting 'triclinic'
loop_
_space_group_symop_operation_xyz
x,y,z
-x,-y,-z
loop_
_atom_site_type_symbol
_atom_site_label
_atom_site_fract_x
_atom_site_fract_y
_atom_site_fract_z
Si Si1 0.229345 0.839392 0.227821
Si Si2 0.132503 0.399312 0.144186
Si Si3 0.740669 0.363996 0.740483
Si Si4 0.601558 0.440642 0.618607
Si Si5 0.646313 0.928785 0.655498
Si Si6 0.473174 0.730127 0.467712
Si Si7 0.029229 0.489948 0.030887
Si Si8 0.884388 0.042593 0.878207
O O1 0.182148 0.652884 0.182403
O O2 0.237190 0.690325 0.234740
O O3 0.000000 0.000000 0.500000
O O4 0.500000 0.000000 0.000000
O O5 0.869349 0.379947 0.364703
O O6 0.109269 0.201422 0.161248
O O7 0.367231 0.355395 0.865162
O O8 0.000000 0.500000 0.500000
O O9 0.697777 0.138512 0.694066
O O10 0.500000 0.500000 0.000000
O O11 0.610372 0.709672 0.672662
O O12 0.561348 0.363861 0.579956
O O13 0.888689 0.919181 0.377305
O O14 0.390309 0.946907 0.877431
O O15 0.225658 0.636502 0.722253
O O16 0.500000 0.000000 0.500000
O O17 0.726137 0.639599 0.223204
O O18 0.073449 0.747588 0.071879
O O19 0.000000 0.500000 0.000000
#
# Coordination Sequence:
#
# PCOD9069545 Si02
#       8
#     2   2   2   2   2   2   2   2
#     4  12  25  45  65  98 137 178 230 285 344 401
#     4  12  26  42  69  99 137 182 226 284 336 400
#     4  12  25  42  68  98 132 177 231 282 343 400
#     4  12  25  45  68 100 134 181 230 267 340 399
#     4  12  23  45  69  94 136 182 223 285 335 403
#     4  12  27  48  73 105 141 178 224 277 330 409
#     4  12  26  48  74 105 140 181 218 277 341 403
#     4  12  25  45  68 101 139 175 230 275 339 407
#
# _framework density 20.200818999999999
#
# number of rings (size 3 to 8) (size 9 to 14) (size 15 to 20)
#    0.000    0.000    2.500    8.250    3.500    0.000 
#    0.000    0.000    0.000    0.000    0.000    0.000 
#    0.000    0.000    0.000    0.000    0.000    0.000 
#
# Total GULP energy -89591.571858 kJ/mol
# GULP energy per Si atom -5599.473241 kJ/mol
# Density = 2.015484 g / cm^3
# Si number density = 20.200819 Si / 1000 Ang^3
#
#
#
# Elastic Constant Matrix: (Units=GPa)
#
#
# Indices 1 2 3 4 5 6 
#
# 1 91.6884 -4.3256 51.9636 -12.9391 3.5093 -0.8219
# 2 -4.3256 93.2732 23.4227 1.7134 -0.3414 0.2228
# 3 51.9636 23.4227 137.5094 -13.9464 -20.4214 7.4184
# 4 -12.9391 1.7134 -13.9464 33.0495 0.4862 5.0009
# 5 3.5093 -0.3414 -20.4214 0.4862 37.3134 9.9195
# 6 -0.8219 0.2228 7.4184 5.0009 9.9195 42.2681
#
#
#
# Elastic Compliance Matrix: (Units=1/GPa)
#
#
# Indices 1 2 3 4 5 6 
#
# 1 0.015695 0.002437 -0.007119 0.002702 -0.006090 0.002651
# 2 0.002437 0.011716 -0.003464 -0.001277 -0.002346 0.001295
# 3 -0.007119 -0.003464 0.012417 0.003217 0.008643 -0.004708
# 4 0.002702 -0.001277 0.003217 0.033465 0.002395 -0.005027
# 5 -0.006090 -0.002346 0.008643 0.002395 0.034724 -0.010055
# 6 0.002651 0.001295 -0.004708 -0.005027 -0.010055 0.027484
#
#
# Mechanical properties :
#
#
# Convention : Reuss Voigt Hill
#
# Bulk Modulus (GPa) = 42.49128 51.62137 47.05632
# Shear Modulus (GPa) = 31.32098 39.28690 35.30394
#
# Velocity S-wave (km/s) = 3.94189 4.41479 4.18502
# Velocity P-wave (km/s) = 6.46514 7.18309 6.83355
#
# Compressibility (1/GPa) = 0.02353424
#
# Stress axis : x y z
#
# Youngs Moduli (GPa) = 63.71622 85.35342 80.53717
#
# Poissons Ratio (x) = -0.20804 0.57338
# Poissons Ratio (y) = -0.15530 0.27902
# Poissons Ratio (z) = 0.45362 0.29570
#
# Static dielectric constant tensor:
#      x y z
#    x 1.622430 -0.077330 0.049180 
#    y -0.077330 1.516960 0.103030 
#    z 0.049180 0.103030 1.631060 
# 
# From -- ./inp_files/617709.got.cif
#   From: 2010.05.17/outbox.cif.g08.bks.cpg/sg2_309_cif.got.tgz:617709.got - 2010.06.03 11:33:40.
