data_PCOD9069800
_publ_section_title
;
Structure prediction by ZEFSAII (Michael W. Deem and Ramdas Pophale) SiO2 
 PCOD9069800
Probable space group: P -1
;
_chemical_formula_sum "Si O2"
_cell_formula_units_Z 14
_cell_length_a 11.409748
_cell_length_b 8.951436
_cell_length_c 9.426412
_cell_angle_alpha 106.692877
_cell_angle_beta 114.130022
_cell_angle_gamma 118.021282
_cell_volume 623.431967
_symmetry_space_group_name_H-M "P -1"
_symmetry_group_IT_number 2
_symmetry_cell_setting 'triclinic'
loop_
_space_group_symop_operation_xyz
x,y,z
-x,-y,-z
loop_
_atom_site_type_symbol
_atom_site_label
_atom_site_fract_x
_atom_site_fract_y
_atom_site_fract_z
Si Si1 0.175525 0.002704 0.169336
Si Si2 0.405016 0.900152 0.277036
Si Si3 0.330036 0.095559 0.752858
Si Si4 0.308749 0.342022 0.568965
Si Si5 0.860278 0.575423 0.048556
Si Si6 0.039718 0.369824 0.561273
Si Si7 0.670326 0.724779 0.924237
O O1 0.332136 0.007566 0.227134
O O2 0.019605 0.770651 0.088484
O O3 0.224612 0.172672 0.355881
O O4 0.168660 0.080313 0.034923
O O5 0.540581 0.930636 0.246601
O O6 0.500000 0.000000 0.500000
O O7 0.243799 0.649071 0.137700
O O8 0.324747 0.235910 0.680129
O O9 0.383777 0.198454 0.961604
O O10 0.135574 0.873060 0.601003
O O11 0.190888 0.392803 0.567428
O O12 0.506368 0.554583 0.697635
O O13 0.915561 0.573714 0.234322
O O14 0.730636 0.616714 0.002217
O O15 0.000000 0.500000 0.500000
#
# Coordination Sequence:
#
# PCOD9069800 Si02
#       7
#     2   2   2   2   2   2   2
#     4  12  27  45  72 109 150 195 237 299 357 441
#     4  12  25  46  74 105 147 193 242 298 368 427
#     4  12  24  48  74 102 147 193 244 297 363 431
#     4  12  23  51  75 103 148 194 244 299 364 429
#     4  12  24  50  73 106 149 191 241 301 369 427
#     4  12  28  46  78 110 141 190 248 307 362 431
#     4  12  26  45  77 109 141 197 247 294 363 436
#
# _framework density 22.456340000000001
#
# number of rings (size 3 to 8) (size 9 to 14) (size 15 to 20)
#    0.000    0.000    5.714    3.857    4.000    0.571 
#    2.571    0.000    0.000    0.000    0.000    0.000 
#    0.000    0.000    0.000    0.000    0.000    0.000 
#
# Total GULP energy -78418.638003 kJ/mol
# GULP energy per Si atom -5601.331286 kJ/mol
# Density = 2.240523 g / cm^3
# Si number density = 22.456340 Si / 1000 Ang^3
#
#
#
# Elastic Constant Matrix: (Units=GPa)
#
#
# Indices 1 2 3 4 5 6 
#
# 1 120.9750 31.2128 20.1174 -5.0735 0.5637 -11.4054
# 2 31.2128 110.4378 41.5568 -8.7436 1.1179 -2.9968
# 3 20.1174 41.5568 123.0879 10.7791 -12.1348 -1.4980
# 4 -5.0735 -8.7436 10.7791 31.9469 3.7757 7.3067
# 5 0.5637 1.1179 -12.1348 3.7757 41.5961 -0.4531
# 6 -11.4054 -2.9968 -1.4980 7.3067 -0.4531 33.7176
#
#
#
# Elastic Compliance Matrix: (Units=1/GPa)
#
#
# Indices 1 2 3 4 5 6 
#
# 1 0.009253 -0.002183 -0.000822 0.000553 -0.000326 0.002775
# 2 -0.002183 0.011607 -0.004174 0.004680 -0.001935 -0.000933
# 3 -0.000822 -0.004174 0.010528 -0.005506 0.003706 0.001062
# 4 0.000553 0.004680 -0.005506 0.036903 -0.005173 -0.007708
# 5 -0.000326 -0.001935 0.003706 -0.005173 0.025663 0.001348
# 6 0.002775 -0.000933 0.001062 -0.007708 0.001348 0.032250
#
#
# Mechanical properties :
#
#
# Convention : Reuss Voigt Hill
#
# Bulk Modulus (GPa) = 58.72117 60.03053 59.37585
# Shear Modulus (GPa) = 34.19072 38.89304 36.54188
#
# Velocity S-wave (km/s) = 3.90621 4.16617 4.03828
# Velocity P-wave (km/s) = 6.82279 7.06632 6.94562
#
# Compressibility (1/GPa) = 0.01702963
#
# Stress axis : x y z
#
# Youngs Moduli (GPa) = 108.07871 86.15157 94.98190
#
# Poissons Ratio (x) = 0.18810 0.07807
# Poissons Ratio (y) = 0.23597 0.39646
# Poissons Ratio (z) = 0.08883 0.35960
#
# Static dielectric constant tensor:
#      x y z
#    x 2.145260 -0.176850 0.030850 
#    y -0.176850 1.975440 -0.003530 
#    z 0.030850 -0.003530 1.803060 
# 
# From -- ./inp_files/159979.got.cif
#   From: 2010.05.17/outbox.cif.g08.bks.cpg/sg2_80_cif.got.tgz:159979.got - 2010.06.03 11:33:40.
