data_PCOD9069709
_publ_section_title
;
Structure prediction by ZEFSAII (Michael W. Deem and Ramdas Pophale) SiO2 
 PCOD9069709
Probable space group: P -1
;
_chemical_formula_sum "Si O2"
_cell_formula_units_Z 16
_cell_length_a 9.463057
_cell_length_b 9.471321
_cell_length_c 26.421922
_cell_angle_alpha 133.317505
_cell_angle_beta 152.955776
_cell_angle_gamma 55.644983
_cell_volume 775.547864
_symmetry_space_group_name_H-M "P -1"
_symmetry_group_IT_number 2
_symmetry_cell_setting 'triclinic'
loop_
_space_group_symop_operation_xyz
x,y,z
-x,-y,-z
loop_
_atom_site_type_symbol
_atom_site_label
_atom_site_fract_x
_atom_site_fract_y
_atom_site_fract_z
Si Si1 0.782144 0.595408 0.736806
Si Si2 0.133360 0.933603 0.868327
Si Si3 0.832724 0.134589 0.630292
Si Si4 0.893666 0.825957 0.383433
Si Si5 0.137326 0.871537 0.737497
Si Si6 0.823004 0.789532 0.905514
Si Si7 0.171821 0.713104 0.092410
Si Si8 0.266952 0.523504 0.478367
O O1 0.818706 0.366131 0.690552
O O2 0.759763 0.664287 0.803828
O O3 0.474422 0.631233 0.615706
O O4 0.050939 0.735860 0.826389
O O5 0.042854 0.907660 0.774232
O O6 0.978776 0.107067 0.887164
O O7 0.500000 0.000000 0.000000
O O8 0.928950 0.116383 0.598253
O O9 0.500000 0.000000 0.500000
O O10 0.075299 0.047805 0.724204
O O11 0.532260 0.761789 0.236406
O O12 0.008609 0.639189 0.400567
O O13 0.000000 0.000000 0.500000
O O14 0.491389 0.819386 0.833015
O O15 0.897770 0.678355 0.600190
O O16 0.078690 0.710900 0.003390
O O17 0.000000 0.000000 0.000000
O O18 0.000000 0.500000 0.000000
O O19 0.500000 0.500000 0.500000
#
# Coordination Sequence:
#
# PCOD9069709 Si02
#       8
#     2   2   2   2   2   2   2   2
#     4  12  26  47  77 103 152 193 242 306 369 439
#     4  12  25  48  76 102 139 204 245 292 373 445
#     4  12  27  46  69 115 149 189 250 305 369 441
#     4  12  28  47  78 108 149 196 246 311 374 442
#     4  12  25  45  73 105 145 188 247 299 368 443
#     4  12  26  50  69 105 148 196 242 305 367 439
#     4  12  28  47  74 111 151 186 257 311 368 441
#     4  12  23  47  75 104 144 190 242 296 369 441
#
# _framework density 20.630578
#
# number of rings (size 3 to 8) (size 9 to 14) (size 15 to 20)
#    0.000    0.000    6.250    2.250    7.000    1.500 
#    0.000    1.875    0.000    0.000    0.000    0.000 
#    0.000    0.000    0.000    0.000    0.000    0.000 
#
# Total GULP energy -89425.057516 kJ/mol
# GULP energy per Si atom -5589.066095 kJ/mol
# Density = 2.058362 g / cm^3
# Si number density = 20.630578 Si / 1000 Ang^3
#
#
#
# Elastic Constant Matrix: (Units=GPa)
#
#
# Indices 1 2 3 4 5 6 
#
# 1 111.7430 50.4802 61.4885 7.0328 -19.2450 2.4798
# 2 50.4802 139.2734 54.3161 -1.3048 3.4547 19.6412
# 3 61.4885 54.3161 153.1518 -10.1149 2.6201 -1.5039
# 4 7.0328 -1.3048 -10.1149 49.0665 9.2298 1.1941
# 5 -19.2450 3.4547 2.6201 9.2298 53.5414 1.6457
# 6 2.4798 19.6412 -1.5039 1.1941 1.6457 35.6016
#
#
#
# Elastic Compliance Matrix: (Units=1/GPa)
#
#
# Indices 1 2 3 4 5 6 
#
# 1 0.014782 -0.003692 -0.005028 -0.004502 0.006554 0.000643
# 2 -0.003692 0.010140 -0.002079 0.000851 -0.001861 -0.005367
# 3 -0.005028 -0.002079 0.009556 0.003103 -0.002735 0.001923
# 4 -0.004502 0.000851 0.003103 0.022780 -0.005736 -0.000524
# 5 0.006554 -0.001861 -0.002735 -0.005736 0.022287 -0.000383
# 6 0.000643 -0.005367 0.001923 -0.000524 -0.000383 0.031122
#
#
# Mechanical properties :
#
#
# Convention : Reuss Voigt Hill
#
# Bulk Modulus (GPa) = 77.64071 81.85976 79.75023
# Shear Modulus (GPa) = 36.61448 43.50078 40.05763
#
# Velocity S-wave (km/s) = 4.21737 4.59689 4.41121
# Velocity P-wave (km/s) = 7.83776 8.24258 8.04272
#
# Compressibility (1/GPa) = 0.01287984
#
# Stress axis : x y z
#
# Youngs Moduli (GPa) = 67.65074 98.61899 104.64507
#
# Poissons Ratio (x) = 0.36411 0.52620
# Poissons Ratio (y) = 0.24977 0.21751
# Poissons Ratio (z) = 0.34018 0.20498
#
# Static dielectric constant tensor:
#      x y z
#    x 1.722850 -0.032580 -0.008610 
#    y -0.032580 1.751250 -0.024280 
#    z -0.008610 -0.024280 1.810140 
# 
# From -- ./inp_files/185362.got.cif
#   From: 2010.05.17/outbox.cif.g08.bks.cpg/sg2_93_cif.got.tgz:185362.got - 2010.06.03 11:33:40.
