data_PCOD9069538
_publ_section_title
;
Structure prediction by ZEFSAII (Michael W. Deem and Ramdas Pophale) SiO2 
 PCOD9069538
Probable space group: P -1
;
_chemical_formula_sum "Si O2"
_cell_formula_units_Z 16
_cell_length_a 18.961370
_cell_length_b 18.195591
_cell_length_c 9.228911
_cell_angle_alpha 36.406147
_cell_angle_beta 150.905781
_cell_angle_gamma 153.215328
_cell_volume 693.235164
_symmetry_space_group_name_H-M "P -1"
_symmetry_group_IT_number 2
_symmetry_cell_setting 'triclinic'
loop_
_space_group_symop_operation_xyz
x,y,z
-x,-y,-z
loop_
_atom_site_type_symbol
_atom_site_label
_atom_site_fract_x
_atom_site_fract_y
_atom_site_fract_z
Si Si1 0.205525 0.183547 0.572604
Si Si2 0.912637 0.340311 0.689796
Si Si3 0.048175 0.319197 0.258705
Si Si4 0.480909 0.783788 0.739120
Si Si5 0.163560 0.914741 0.252769
Si Si6 0.706464 0.051508 0.270491
Si Si7 0.692212 0.543831 0.217764
Si Si8 0.800756 0.826116 0.752729
O O1 0.170577 0.280225 0.460697
O O2 0.259887 0.240291 0.414115
O O3 0.370945 0.188825 0.923190
O O4 0.000000 0.000000 0.500000
O O5 0.683399 0.224604 0.475171
O O6 0.934036 0.224021 0.825357
O O7 0.000000 0.500000 0.500000
O O8 0.005041 0.387813 0.940107
O O9 0.172883 0.421468 0.461437
O O10 0.838675 0.160930 0.196319
O O11 0.366906 0.608444 0.737879
O O12 0.619327 0.930048 0.643391
O O13 0.174830 0.850361 0.526766
O O14 0.034640 0.967066 0.947844
O O15 0.700390 0.897789 0.502234
O O16 0.500000 0.000000 0.000000
O O17 0.500000 0.500000 0.000000
O O18 0.772290 0.696020 0.015417
#
# Coordination Sequence:
#
# PCOD9069538 Si02
#       8
#     2   2   2   2   2   2   2   2
#     4  12  23  44  79 110 140 196 260 313 368 445
#     4  12  29  50  75 110 155 201 246 317 384 452
#     4  12  25  49  76 106 152 197 258 310 382 454
#     4  12  26  46  77 110 151 201 256 310 381 449
#     4  12  24  49  76 105 149 198 256 310 375 447
#     4  12  27  44  75 117 151 198 251 308 385 452
#     4  12  27  47  74 114 153 198 254 314 376 452
#     4  12  25  46  79 107 153 199 251 315 366 445
#
# _framework density 23.080190000000002
#
# number of rings (size 3 to 8) (size 9 to 14) (size 15 to 20)
#    0.000    0.000    6.250    3.000    1.750    2.000 
#    2.250    0.000    0.000    0.000    0.000    0.000 
#    0.000    0.000    0.000    0.000    0.000    0.000 
#
# Total GULP energy -89537.059669 kJ/mol
# GULP energy per Si atom -5596.066229 kJ/mol
# Density = 2.302766 g / cm^3
# Si number density = 23.080190 Si / 1000 Ang^3
#
#
#
# Elastic Constant Matrix: (Units=GPa)
#
#
# Indices 1 2 3 4 5 6 
#
# 1 113.7031 25.3036 65.9184 2.8178 -9.5574 7.7351
# 2 25.3036 73.6806 29.0530 -7.2719 -16.9202 -2.4293
# 3 65.9184 29.0530 160.7332 14.4845 -14.8635 5.1781
# 4 2.8178 -7.2719 14.4845 33.9532 3.6054 -4.9248
# 5 -9.5574 -16.9202 -14.8635 3.6054 65.0728 -3.3898
# 6 7.7351 -2.4293 5.1781 -4.9248 -3.3898 40.0011
#
#
#
# Elastic Compliance Matrix: (Units=1/GPa)
#
#
# Indices 1 2 3 4 5 6 
#
# 1 0.012040 -0.002430 -0.004445 0.000101 0.000017 -0.001886
# 2 -0.002430 0.016594 -0.002205 0.004724 0.003329 0.002627
# 3 -0.004445 -0.002205 0.008937 -0.004146 0.001000 -0.000857
# 4 0.000101 0.004724 -0.004146 0.033052 -0.001287 0.004764
# 5 0.000017 0.003329 0.001000 -0.001287 0.016604 0.001318
# 6 -0.001886 0.002627 -0.000857 0.004764 0.001318 0.026333
#
#
# Mechanical properties :
#
#
# Convention : Reuss Voigt Hill
#
# Bulk Modulus (GPa) = 51.52195 65.40744 58.46470
# Shear Modulus (GPa) = 36.18198 42.99488 39.58843
#
# Velocity S-wave (km/s) = 3.96367 4.32075 4.14606
# Velocity P-wave (km/s) = 6.58172 7.30018 6.95024
#
# Compressibility (1/GPa) = 0.01940920
#
# Stress axis : x y z
#
# Youngs Moduli (GPa) = 83.05633 60.26435 111.89635
#
# Poissons Ratio (x) = 0.14646 0.49740
# Poissons Ratio (y) = 0.20185 0.24674
# Poissons Ratio (z) = 0.36920 0.13289
#
# Static dielectric constant tensor:
#      x y z
#    x 2.051610 -0.072540 0.058350 
#    y -0.072540 1.982620 -0.065670 
#    z 0.058350 -0.065670 1.904670 
# 
# From -- ./inp_files/336696.got.cif
#   From: 2010.05.17/outbox.cif.g08.bks.cpg/sg2_169_cif.got.tgz:336696.got - 2010.06.03 11:33:40.
