data_PCOD9069688
_publ_section_title
;
Structure prediction by ZEFSAII (Michael W. Deem and Ramdas Pophale) SiO2 
 PCOD9069688
Probable space group: P -1
;
_chemical_formula_sum "Si O2"
_cell_formula_units_Z 16
_cell_length_a 8.755614
_cell_length_b 15.353767
_cell_length_c 9.650236
_cell_angle_alpha 143.923921
_cell_angle_beta 59.208521
_cell_angle_gamma 115.261094
_cell_volume 656.022594
_symmetry_space_group_name_H-M "P -1"
_symmetry_group_IT_number 2
_symmetry_cell_setting 'triclinic'
loop_
_space_group_symop_operation_xyz
x,y,z
-x,-y,-z
loop_
_atom_site_type_symbol
_atom_site_label
_atom_site_fract_x
_atom_site_fract_y
_atom_site_fract_z
Si Si1 0.382387 0.123111 0.044632
Si Si2 0.363206 0.119702 0.464918
Si Si3 0.028231 0.455062 0.271414
Si Si4 0.875095 0.379193 0.827256
Si Si5 0.231632 0.167385 0.872266
Si Si6 0.371209 0.614490 0.634002
Si Si7 0.543512 0.545637 0.194388
Si Si8 0.064549 0.076906 0.349335
O O1 0.536220 0.227875 0.173579
O O2 0.212193 0.117274 0.216002
O O3 0.321349 0.181199 0.997697
O O4 0.467082 0.963191 0.778474
O O5 0.360598 0.109453 0.618403
O O6 0.362706 0.291685 0.643034
O O7 0.183736 0.046861 0.390638
O O8 0.831230 0.401505 0.244590
O O9 0.000000 0.500000 0.500000
O O10 0.100247 0.581610 0.297076
O O11 0.159822 0.319801 0.041750
O O12 0.940713 0.216226 0.612991
O O13 0.676961 0.418715 0.015879
O O14 0.000000 0.500000 0.000000
O O15 0.060711 0.056975 0.815912
O O16 0.500000 0.500000 0.500000
O O17 0.387285 0.570636 0.407958
O O18 0.500000 0.500000 0.000000
#
# Coordination Sequence:
#
# PCOD9069688 Si02
#       8
#     2   2   2   2   2   2   2   2
#     4  12  27  47  71 105 146 182 239 293 356 421
#     4  12  26  48  70 104 146 186 235 297 353 422
#     4  12  25  45  72 102 142 183 236 291 346 422
#     4  12  23  47  70 103 140 181 233 290 348 424
#     4  12  27  46  71 107 140 191 240 290 353 422
#     4  12  26  45  73 105 141 189 232 292 357 420
#     4  12  27  44  73 103 144 184 234 290 361 416
#     4  12  25  47  74 103 140 190 239 289 356 418
#
# _framework density 24.389403999999999
#
# number of rings (size 3 to 8) (size 9 to 14) (size 15 to 20)
#    0.000    0.000    3.750    6.000    5.250    2.000 
#    0.000    0.000    0.000    0.000    0.000    0.000 
#    0.000    0.000    0.000    0.000    0.000    0.000 
#
# Total GULP energy -89719.411122 kJ/mol
# GULP energy per Si atom -5607.463195 kJ/mol
# Density = 2.433389 g / cm^3
# Si number density = 24.389404 Si / 1000 Ang^3
#
#
#
# Elastic Constant Matrix: (Units=GPa)
#
#
# Indices 1 2 3 4 5 6 
#
# 1 84.3023 5.2490 28.4546 2.7376 -2.7556 -5.9006
# 2 5.2490 56.4233 14.3581 -9.9554 -0.9538 -1.7668
# 3 28.4546 14.3581 111.2734 -7.0048 -11.1962 -3.8027
# 4 2.7376 -9.9554 -7.0048 41.7047 -9.6108 1.8231
# 5 -2.7556 -0.9538 -11.1962 -9.6108 47.4622 -0.5799
# 6 -5.9006 -1.7668 -3.8027 1.8231 -0.5799 47.3250
#
#
#
# Elastic Compliance Matrix: (Units=1/GPa)
#
#
# Indices 1 2 3 4 5 6 
#
# 1 0.013188 -0.000633 -0.003390 -0.001736 -0.000381 0.001411
# 2 -0.000633 0.019080 -0.001930 0.004441 0.000795 0.000317
# 3 -0.003390 -0.001930 0.010517 0.002133 0.002681 0.000301
# 4 -0.001736 0.004441 0.002133 0.026914 0.005931 -0.000843
# 5 -0.000381 0.000795 0.002681 0.005931 0.022900 0.000250
# 6 0.001411 0.000317 0.000301 -0.000843 0.000250 0.021378
#
#
# Mechanical properties :
#
#
# Convention : Reuss Voigt Hill
#
# Bulk Modulus (GPa) = 32.38329 38.68028 35.53178
# Shear Modulus (GPa) = 36.71705 40.89421 38.80563
#
# Velocity S-wave (km/s) = 3.88422 4.09922 3.99317
# Velocity P-wave (km/s) = 5.78124 6.18859 5.98838
#
# Compressibility (1/GPa) = 0.03088012
#
# Stress axis : x y z
#
# Youngs Moduli (GPa) = 75.82410 52.41062 95.08275
#
# Poissons Ratio (x) = 0.03316 0.32236
# Poissons Ratio (y) = 0.04797 0.18349
# Poissons Ratio (z) = 0.25706 0.10114
#
# Static dielectric constant tensor:
#      x y z
#    x 1.942290 -0.008400 0.016180 
#    y -0.008400 1.974400 -0.020520 
#    z 0.016180 -0.020520 1.932370 
# 
# From -- ./inp_files/206804.got.cif
#   From: 2010.05.17/outbox.cif.g08.bks.cpg/sg2_104_cif.got.tgz:206804.got - 2010.06.03 11:33:40.
