data_PCOD9069341
_publ_section_title
;
Structure prediction by ZEFSAII (Michael W. Deem and Ramdas Pophale) SiO2 
 PCOD9069341
Probable space group: P -1
;
_chemical_formula_sum "Si O2"
_cell_formula_units_Z 16
_cell_length_a 11.101449
_cell_length_b 14.146455
_cell_length_c 8.743215
_cell_angle_alpha 116.000432
_cell_angle_beta 116.714621
_cell_angle_gamma 115.409632
_cell_volume 689.961589
_symmetry_space_group_name_H-M "P -1"
_symmetry_group_IT_number 2
_symmetry_cell_setting 'triclinic'
loop_
_space_group_symop_operation_xyz
x,y,z
-x,-y,-z
loop_
_atom_site_type_symbol
_atom_site_label
_atom_site_fract_x
_atom_site_fract_y
_atom_site_fract_z
Si Si1 0.678553 0.087790 0.459415
Si Si2 0.199765 0.952739 0.800105
Si Si3 0.140893 0.116716 0.313297
Si Si4 0.619658 0.266398 0.369720
Si Si5 0.517437 0.495916 0.824828
Si Si6 0.960600 0.798443 0.112700
Si Si7 0.201485 0.429504 0.393805
Si Si8 0.750766 0.225960 0.117355
O O1 0.667445 0.199790 0.466053
O O2 0.851511 0.175637 0.750897
O O3 0.777776 0.067066 0.374858
O O4 0.436953 0.895255 0.202734
O O5 0.284780 0.901162 0.895990
O O6 0.370588 0.138141 0.097042
O O7 0.969719 0.848865 0.647586
O O8 0.389104 0.307466 0.577535
O O9 0.085789 0.985943 0.304126
O O10 0.000000 0.000000 0.000000
O O11 0.720020 0.437799 0.590831
O O12 0.709887 0.288311 0.267533
O O13 0.383395 0.507992 0.673784
O O14 0.500000 0.500000 0.000000
O O15 0.764629 0.660538 0.022677
O O16 0.853955 0.710439 0.825430
O O17 0.990615 0.355600 0.290800
#
# Coordination Sequence:
#
# PCOD9069341 Si02
#       8
#     2   2   2   2   2   2   2   2
#     4   9  21  41  62  98 130 173 228 282 336 409
#     4   9  17  37  64  88 125 170 225 271 333 403
#     4  12  24  44  71  99 138 190 224 282 359 404
#     4   9  20  35  68  92 127 176 219 283 340 400
#     4  12  28  46  71 105 140 181 239 289 336 419
#     4  12  27  44  68 101 146 178 230 285 349 418
#     4  12  23  42  65  98 134 180 225 286 345 405
#     4   9  18  38  64  93 125 170 227 274 332 411
#
# _framework density 23.189696000000001
#
# number of rings (size 3 to 8) (size 9 to 14) (size 15 to 20)
#    0.000    1.500    2.500    3.750    3.500    5.000 
#    2.250    0.000    0.000    0.000    0.000    0.000 
#    0.000    0.000    0.000    0.000    0.000    0.000 
#
# Total GULP energy -89143.593558 kJ/mol
# GULP energy per Si atom -5571.474597 kJ/mol
# Density = 2.313692 g / cm^3
# Si number density = 23.189696 Si / 1000 Ang^3
#
#
#
# Elastic Constant Matrix: (Units=GPa)
#
#
# Indices 1 2 3 4 5 6 
#
# 1 64.9235 22.9073 22.3551 9.1167 25.4643 9.3226
# 2 22.9073 99.6993 43.6517 17.8513 9.6642 -11.6204
# 3 22.3551 43.6517 95.8232 6.6894 13.3352 -8.9196
# 4 9.1167 17.8513 6.6894 44.8821 0.3871 -3.2391
# 5 25.4643 9.6642 13.3352 0.3871 32.6100 9.6309
# 6 9.3226 -11.6204 -8.9196 -3.2391 9.6309 32.6163
#
#
#
# Elastic Compliance Matrix: (Units=1/GPa)
#
#
# Indices 1 2 3 4 5 6 
#
# 1 0.024717 -0.002943 -0.002326 -0.003678 -0.016150 -0.004346
# 2 -0.002943 0.014219 -0.004927 -0.003987 -0.001187 0.004514
# 3 -0.002326 -0.004927 0.014043 0.000651 -0.003621 0.003884
# 4 -0.003678 -0.003987 0.000651 0.024586 0.003101 0.001334
# 5 -0.016150 -0.001187 -0.003621 0.003101 0.048242 -0.010734
# 6 -0.004346 0.004514 0.003884 0.001334 -0.010734 0.037874
#
#
# Mechanical properties :
#
#
# Convention : Reuss Voigt Hill
#
# Bulk Modulus (GPa) = 30.68747 48.69712 39.69229
# Shear Modulus (GPa) = 25.64956 33.45715 29.55336
#
# Velocity S-wave (km/s) = 3.32938 3.80249 3.57377
# Velocity P-wave (km/s) = 5.29544 6.35009 5.84659
#
# Compressibility (1/GPa) = 0.03258659
#
# Stress axis : x y z
#
# Youngs Moduli (GPa) = 40.45789 70.33023 71.21038
#
# Poissons Ratio (x) = 0.20700 0.16562
# Poissons Ratio (y) = 0.11908 0.35085
# Poissons Ratio (z) = 0.09410 0.34651
#
# Static dielectric constant tensor:
#      x y z
#    x 1.858670 0.041670 -0.027150 
#    y 0.041670 1.936560 0.070080 
#    z -0.027150 0.070080 2.025740 
# 
# From -- ./inp_files/273873.got.cif
#   From: 2010.05.17/outbox.cif.g08.bks.cpg/sg2_137_cif.got.tgz:273873.got - 2010.06.03 11:33:40.
