data_PCOD9069333
_publ_section_title
;
Structure prediction by ZEFSAII (Michael W. Deem and Ramdas Pophale) SiO2 
 PCOD9069333
Probable space group: P -1
;
_chemical_formula_sum "Si O2"
_cell_formula_units_Z 15
_cell_length_a 7.465718
_cell_length_b 13.748039
_cell_length_c 7.896529
_cell_angle_alpha 111.002262
_cell_angle_beta 59.656395
_cell_angle_gamma 77.735745
_cell_volume 569.822292
_symmetry_space_group_name_H-M "P -1"
_symmetry_group_IT_number 2
_symmetry_cell_setting 'triclinic'
loop_
_space_group_symop_operation_xyz
x,y,z
-x,-y,-z
loop_
_atom_site_type_symbol
_atom_site_label
_atom_site_fract_x
_atom_site_fract_y
_atom_site_fract_z
Si Si1 0.455201 0.273650 0.099356
Si Si2 0.775306 0.482231 0.097780
Si Si3 0.500000 0.000000 0.500000
Si Si4 0.894506 0.135198 0.578133
Si Si5 0.082200 0.240341 0.003577
Si Si6 0.600716 0.895968 0.745582
Si Si7 0.293209 0.719520 0.547083
Si Si8 0.804634 0.475254 0.674068
O O1 0.264782 0.265926 0.052482
O O2 0.433286 0.212965 0.242398
O O3 0.419335 0.405771 0.213462
O O4 0.714426 0.202719 0.854609
O O5 0.559411 0.604896 0.358126
O O6 0.888807 0.361314 0.078160
O O7 0.754475 0.474523 0.897965
O O8 0.000000 0.500000 0.000000
O O9 0.471033 0.960020 0.678043
O O10 0.740969 0.865603 0.268660
O O11 0.728443 0.183314 0.520422
O O12 0.121845 0.149091 0.440957
O O13 0.000000 0.000000 0.500000
O O14 0.899600 0.209311 0.171977
O O15 0.500000 0.000000 0.000000
O O16 0.172894 0.644627 0.480195
O O17 0.000000 0.500000 0.500000
#
# Coordination Sequence:
#
# PCOD9069333 Si02
#       8
#     2   2   1   2   2   2   2   2
#     4  12  24  46  76 109 150 203 256 313 397 463
#     4  12  25  45  73 110 157 201 255 329 389 464
#     4  12  28  46  80 110 148 202 260 318 402 456
#     4  12  23  41  78 105 145 204 253 308 385 461
#     4  12  25  46  72 109 153 201 254 326 391 463
#     4  12  24  49  75 106 153 204 250 325 386 463
#     4  12  25  47  75 111 155 205 262 316 397 475
#     4  12  24  44  73 109 145 200 258 314 388 474
#
# _framework density 26.323996000000001
#
# number of rings (size 3 to 8) (size 9 to 14) (size 15 to 20)
#    0.000    0.000    8.000    0.800    3.733    0.000 
#    0.000    0.667    5.867    0.000    0.000    0.000 
#    0.000    0.000    0.000    0.000    0.000    0.000 
#
# Total GULP energy -83602.805705 kJ/mol
# GULP energy per Si atom -5573.520380 kJ/mol
# Density = 2.626408 g / cm^3
# Si number density = 26.323996 Si / 1000 Ang^3
#
#
#
# Elastic Constant Matrix: (Units=GPa)
#
#
# Indices 1 2 3 4 5 6 
#
# 1 75.6131 8.8817 23.1564 -2.3570 -13.8836 -11.4928
# 2 8.8817 182.6004 35.4948 -2.7132 0.7688 -45.0960
# 3 23.1564 35.4948 176.4598 9.1106 -18.4416 -5.5865
# 4 -2.3570 -2.7132 9.1106 65.2366 -9.6693 -2.9866
# 5 -13.8836 0.7688 -18.4416 -9.6693 47.2872 -2.4508
# 6 -11.4928 -45.0960 -5.5865 -2.9866 -2.4508 27.4807
#
#
#
# Elastic Compliance Matrix: (Units=1/GPa)
#
#
# Indices 1 2 3 4 5 6 
#
# 1 0.016130 0.002223 -0.001815 0.002158 0.004988 0.010704
# 2 0.002223 0.009982 -0.001731 0.001682 0.001053 0.017234
# 3 -0.001815 -0.001731 0.006405 -0.000883 0.001696 -0.002242
# 4 0.002158 0.001682 -0.000883 0.016437 0.003914 0.005619
# 5 0.004988 0.001053 0.001696 0.003914 0.024407 0.006760
# 6 0.010704 0.017234 -0.002242 0.005619 0.006760 0.069905
#
#
# Mechanical properties :
#
#
# Convention : Reuss Voigt Hill
#
# Bulk Modulus (GPa) = 33.47745 63.30434 48.39090
# Shear Modulus (GPa) = 32.07811 52.47693 42.27752
#
# Velocity S-wave (km/s) = 3.49462 4.46971 4.01190
# Velocity P-wave (km/s) = 5.38778 7.12307 6.31531
#
# Compressibility (1/GPa) = 0.02987085
#
# Stress axis : x y z
#
# Youngs Moduli (GPa) = 61.99621 100.18436 156.12177
#
# Poissons Ratio (x) = -0.22269 0.28338
# Poissons Ratio (y) = -0.13781 0.27020
# Poissons Ratio (z) = 0.11253 0.17339
#
# Static dielectric constant tensor:
#      x y z
#    x 2.078750 -0.436520 0.108580 
#    y -0.436520 1.031820 -0.001630 
#    z 0.108580 -0.001630 1.904360 
# 
# From -- ./inp_files/207518.got.cif
#   From: 2010.05.17/outbox.cif.g08.bks.cpg/sg2_104_cif.got.tgz:207518.got - 2010.06.03 11:33:40.
