data_PCOD9069694
_publ_section_title
;
Structure prediction by ZEFSAII (Michael W. Deem and Ramdas Pophale) SiO2 
 PCOD9069694
Probable space group: P -1
;
_chemical_formula_sum "Si O2"
_cell_formula_units_Z 16
_cell_length_a 17.505618
_cell_length_b 26.896094
_cell_length_c 26.016659
_cell_angle_alpha 169.377983
_cell_angle_beta 160.358526
_cell_angle_gamma 19.059995
_cell_volume 720.395470
_symmetry_space_group_name_H-M "P -1"
_symmetry_group_IT_number 2
_symmetry_cell_setting 'triclinic'
loop_
_space_group_symop_operation_xyz
x,y,z
-x,-y,-z
loop_
_atom_site_type_symbol
_atom_site_label
_atom_site_fract_x
_atom_site_fract_y
_atom_site_fract_z
Si Si1 0.930947 0.958849 0.062666
Si Si2 0.890810 0.275150 0.175342
Si Si3 0.643710 0.469062 0.611912
Si Si4 0.379471 0.451233 0.985384
Si Si5 0.371300 0.424276 0.496765
Si Si6 0.970584 0.839994 0.188101
Si Si7 0.859485 0.311136 0.746702
Si Si8 0.343211 0.917496 0.360545
O O1 0.847597 0.297198 0.346067
O O2 0.111427 0.899730 0.164999
O O3 0.709665 0.852379 0.830072
O O4 0.028653 0.807014 0.916360
O O5 0.600705 0.374719 0.087896
O O6 0.000000 0.500000 0.500000
O O7 0.000000 0.000000 0.000000
O O8 0.500000 0.500000 0.500000
O O9 0.471215 0.458037 0.538238
O O10 0.869926 0.179377 0.463700
O O11 0.741725 0.735038 0.945240
O O12 0.136189 0.679550 0.083672
O O13 0.455806 0.617944 0.155981
O O14 0.319382 0.170873 0.643979
O O15 0.588262 0.408240 0.655653
O O16 0.125177 0.718973 0.213399
O O17 0.000000 0.000000 0.500000
O O18 0.000000 0.500000 0.000000
O O19 0.500000 0.000000 0.500000
#
# Coordination Sequence:
#
# PCOD9069694 Si02
#       8
#     2   2   2   2   2   2   2   2
#     4  12  28  45  77 106 143 190 241 294 363 425
#     4  12  28  50  72 107 150 186 233 299 364 430
#     4  12  27  47  70 102 151 184 234 294 357 424
#     4  12  28  47  76 107 144 191 242 296 363 428
#     4  12  26  46  72 108 141 191 240 294 359 423
#     4  12  26  47  71 106 138 193 236 290 358 422
#     4  12  23  47  72  97 141 188 241 294 345 419
#     4  12  26  50  76 102 145 189 246 302 352 425
#
# _framework density 22.210023
#
# number of rings (size 3 to 8) (size 9 to 14) (size 15 to 20)
#    0.000    0.000    3.750    5.250   10.500    0.000 
#    0.000    0.000    0.000    0.000    0.000    0.000 
#    0.000    0.000    0.000    0.000    0.000    0.000 
#
# Total GULP energy -89550.960964 kJ/mol
# GULP energy per Si atom -5596.935060 kJ/mol
# Density = 2.215947 g / cm^3
# Si number density = 22.210023 Si / 1000 Ang^3
#
#
#
# Elastic Constant Matrix: (Units=GPa)
#
#
# Indices 1 2 3 4 5 6 
#
# 1 77.5855 18.2269 9.0227 -7.2174 -9.3573 8.7936
# 2 18.2269 100.1287 19.4658 -2.7282 -4.3716 36.5726
# 3 9.0227 19.4658 119.6646 4.5076 -1.0615 15.3742
# 4 -7.2174 -2.7282 4.5076 43.1184 1.3859 -5.4944
# 5 -9.3573 -4.3716 -1.0615 1.3859 41.4766 1.1740
# 6 8.7936 36.5726 15.3742 -5.4944 1.1740 49.9522
#
#
#
# Elastic Compliance Matrix: (Units=1/GPa)
#
#
# Indices 1 2 3 4 5 6 
#
# 1 0.014060 -0.002012 -0.000708 0.002129 0.002888 -0.000618
# 2 -0.002012 0.014157 -0.000849 -0.000650 0.001317 -0.009852
# 3 -0.000708 -0.000849 0.008876 -0.001375 0.000084 -0.002139
# 4 0.002129 -0.000650 -0.001375 0.024073 -0.000518 0.003184
# 5 0.002888 0.001317 0.000084 -0.000518 0.024981 -0.002143
# 6 -0.000618 -0.009852 -0.002139 0.003184 -0.002143 0.028400
#
#
# Mechanical properties :
#
#
# Convention : Reuss Voigt Hill
#
# Bulk Modulus (GPa) = 33.38457 43.42329 38.40393
# Shear Modulus (GPa) = 37.97386 43.62034 40.79710
#
# Velocity S-wave (km/s) = 4.13941 4.43650 4.29053
# Velocity P-wave (km/s) = 6.15713 6.77031 6.47099
#
# Compressibility (1/GPa) = 0.02995396
#
# Stress axis : x y z
#
# Youngs Moduli (GPa) = 71.12166 70.63799 112.66931
#
# Poissons Ratio (x) = 0.14213 0.07977
# Poissons Ratio (y) = 0.14310 0.09569
# Poissons Ratio (z) = 0.05036 0.05999
#
# Static dielectric constant tensor:
#      x y z
#    x 1.867040 -0.045840 -0.040760 
#    y -0.045840 1.849240 -0.063340 
#    z -0.040760 -0.063340 1.825540 
# 
# From -- ./inp_files/620546.got.cif
#   From: 2010.05.17/outbox.cif.g08.bks.cpg/sg2_311_cif.got.tgz:620546.got - 2010.06.03 11:33:40.
