data_PCOD9069544
_publ_section_title
;
Structure prediction by ZEFSAII (Michael W. Deem and Ramdas Pophale) SiO2 
 PCOD9069544
Probable space group: P -1
;
_chemical_formula_sum "Si O2"
_cell_formula_units_Z 16
_cell_length_a 8.523428
_cell_length_b 27.053607
_cell_length_c 26.331474
_cell_angle_alpha 169.340165
_cell_angle_beta 139.296272
_cell_angle_gamma 41.767691
_cell_volume 732.435739
_symmetry_space_group_name_H-M "P -1"
_symmetry_group_IT_number 2
_symmetry_cell_setting 'triclinic'
loop_
_space_group_symop_operation_xyz
x,y,z
-x,-y,-z
loop_
_atom_site_type_symbol
_atom_site_label
_atom_site_fract_x
_atom_site_fract_y
_atom_site_fract_z
Si Si1 0.995851 0.490954 0.050094
Si Si2 0.643790 0.324637 0.517058
Si Si3 0.193435 0.015115 0.243490
Si Si4 0.780004 0.029407 0.588377
Si Si5 0.203747 0.401818 0.412191
Si Si6 0.965506 0.823041 0.095040
Si Si7 0.763230 0.101878 0.151684
Si Si8 0.515921 0.494211 0.228116
O O1 0.259680 0.427280 0.072861
O O2 0.903391 0.762308 0.327503
O O3 0.000000 0.500000 0.000000
O O4 0.818611 0.258764 0.788554
O O5 0.451713 0.373894 0.475677
O O6 0.528012 0.399233 0.618233
O O7 0.735727 0.020865 0.234113
O O8 0.870637 0.521403 0.763657
O O9 0.360994 0.272313 0.538712
O O10 0.941031 0.093549 0.234631
O O11 0.142210 0.907930 0.178960
O O12 0.318782 0.768497 0.996079
O O13 0.911309 0.121365 0.764881
O O14 0.500000 0.000000 0.500000
O O15 0.236374 0.612056 0.586640
O O16 0.000000 0.500000 0.500000
O O17 0.140094 0.114987 0.083940
O O18 0.500000 0.000000 0.000000
#
# Coordination Sequence:
#
# PCOD9069544 Si02
#       8
#     2   2   2   2   2   2   2   2
#     4  12  27  48  73 105 141 180 218 275 341 399
#     4  12  23  45  69  94 136 182 223 284 335 404
#     4  12  26  42  69  99 137 182 226 285 336 397
#     4  12  26  48  74 105 140 178 224 275 329 408
#     4  12  25  42  68  98 132 177 230 282 344 400
#     4  12  25  45  68 101 134 180 230 268 339 399
#     4  12  25  45  65  98 137 178 231 285 343 401
#     4  12  25  45  68 100 139 176 230 274 339 407
#
# _framework density 21.844918
#
# number of rings (size 3 to 8) (size 9 to 14) (size 15 to 20)
#    0.000    0.000    2.500    8.250    3.500    0.000 
#    0.000    0.000    0.000    0.000    0.000    0.000 
#    0.000    0.000    0.000    0.000    0.000    0.000 
#
# Total GULP energy -89722.209100 kJ/mol
# GULP energy per Si atom -5607.638069 kJ/mol
# Density = 2.179520 g / cm^3
# Si number density = 21.844918 Si / 1000 Ang^3
#
#
#
# Elastic Constant Matrix: (Units=GPa)
#
#
# Indices 1 2 3 4 5 6 
#
# 1 88.5783 23.8580 -2.4750 1.3527 23.5268 1.5803
# 2 23.8580 62.1154 -9.1197 2.1445 9.0330 12.2316
# 3 -2.4750 -9.1197 51.3585 -1.5448 13.5240 6.5190
# 4 1.3527 2.1445 -1.5448 38.9052 0.0645 -7.7405
# 5 23.5268 9.0330 13.5240 0.0645 41.8462 2.4366
# 6 1.5803 12.2316 6.5190 -7.7405 2.4366 47.3736
#
#
#
# Elastic Compliance Matrix: (Units=1/GPa)
#
#
# Indices 1 2 3 4 5 6 
#
# 1 0.014605 -0.004320 0.001931 -0.000027 -0.007947 0.000767
# 2 -0.004320 0.020163 0.004893 -0.001933 -0.003159 -0.005888
# 3 0.001931 0.004893 0.023443 -0.000206 -0.009479 -0.004100
# 4 -0.000027 -0.001933 -0.000206 0.026776 0.000173 0.004895
# 5 -0.007947 -0.003159 -0.009479 0.000173 0.032066 0.000764
# 6 0.000767 -0.005888 -0.004100 0.004895 0.000764 0.023928
#
#
# Mechanical properties :
#
#
# Convention : Reuss Voigt Hill
#
# Bulk Modulus (GPa) = 15.81817 25.17542 20.49680
# Shear Modulus (GPa) = 31.83788 38.27760 35.05774
#
# Velocity S-wave (km/s) = 3.82180 4.19052 4.01040
# Velocity P-wave (km/s) = 5.17027 5.91300 5.55407
#
# Compressibility (1/GPa) = 0.06321842
#
# Stress axis : x y z
#
# Youngs Moduli (GPa) = 68.47153 49.59693 42.65607
#
# Poissons Ratio (x) = 0.21428 -0.08238
# Poissons Ratio (y) = 0.29582 -0.20872
# Poissons Ratio (z) = -0.13223 -0.24269
#
# Static dielectric constant tensor:
#      x y z
#    x 1.777570 -0.008230 -0.006830 
#    y -0.008230 1.739820 0.003080 
#    z -0.006830 0.003080 1.751990 
# 
# From -- ./inp_files/358008.got.cif
#   From: 2010.05.17/outbox.cif.g08.bks.cpg/sg2_180_cif.got.tgz:358008.got - 2010.06.03 11:33:40.
