data_PCOD9069380
_publ_section_title
;
Structure prediction by ZEFSAII (Michael W. Deem and Ramdas Pophale) SiO2 
 PCOD9069380
Probable space group: P -1
;
_chemical_formula_sum "Si O2"
_cell_formula_units_Z 16
_cell_length_a 13.866088
_cell_length_b 11.478113
_cell_length_c 7.135332
_cell_angle_alpha 89.189005
_cell_angle_beta 117.281961
_cell_angle_gamma 125.807471
_cell_volume 766.018317
_symmetry_space_group_name_H-M "P -1"
_symmetry_group_IT_number 2
_symmetry_cell_setting 'triclinic'
loop_
_space_group_symop_operation_xyz
x,y,z
-x,-y,-z
loop_
_atom_site_type_symbol
_atom_site_label
_atom_site_fract_x
_atom_site_fract_y
_atom_site_fract_z
Si Si1 0.616951 0.091108 0.266501
Si Si2 0.282257 0.039470 0.378066
Si Si3 0.354373 0.463047 0.816914
Si Si4 0.229797 0.520646 0.051585
Si Si5 0.557776 0.290250 0.422994
Si Si6 0.105043 0.647789 0.719231
Si Si7 0.988507 0.227397 0.082025
Si Si8 0.117014 0.122394 0.450728
O O1 0.584516 0.183058 0.356981
O O2 0.770115 0.212086 0.300199
O O3 0.627332 0.987594 0.414639
O O4 0.500000 0.000000 0.000000
O O5 0.392633 0.182847 0.337873
O O6 0.198588 0.069753 0.436275
O O7 0.164331 0.891388 0.151554
O O8 0.392878 0.578584 0.682745
O O9 0.234075 0.288378 0.646502
O O10 0.500000 0.500000 0.000000
O O11 0.295234 0.495986 0.937189
O O12 0.347971 0.626068 0.310894
O O13 0.102046 0.357602 0.033799
O O14 0.172354 0.604091 0.926426
O O15 0.024189 0.691677 0.758759
O O16 0.000000 0.500000 0.500000
O O17 0.040585 0.142031 0.216979
O O18 0.000000 0.000000 0.500000
#
# Coordination Sequence:
#
# PCOD9069380 Si02
#       8
#     2   2   2   2   2   2   2   2
#     4  12  25  46  72 106 144 185 237 293 357 420
#     4  12  27  44  72 103 145 191 234 292 354 422
#     4  12  28  46  76 105 142 189 236 298 354 420
#     4  12  24  47  72 104 142 182 237 296 355 418
#     4  12  26  48  73 107 141 184 242 291 358 420
#     4  12  23  42  73 104 142 184 235 295 357 415
#     4  12  25  45  69 105 142 186 240 289 352 427
#     4  12  27  48  71 104 147 187 238 290 355 424
#
# _framework density 20.887228
#
# number of rings (size 3 to 8) (size 9 to 14) (size 15 to 20)
#    0.000    0.000    2.500    7.875    5.250    1.000 
#    0.000    0.000    0.000    0.000    0.000    0.000 
#    0.000    0.000    0.000    0.000    0.000    0.000 
#
# Total GULP energy -89698.466346 kJ/mol
# GULP energy per Si atom -5606.154147 kJ/mol
# Density = 2.083969 g / cm^3
# Si number density = 20.887228 Si / 1000 Ang^3
#
#
#
# Elastic Constant Matrix: (Units=GPa)
#
#
# Indices 1 2 3 4 5 6 
#
# 1 170.2700 -9.4432 49.4031 27.7154 -63.7379 19.0658
# 2 -9.4432 164.3915 14.5920 -15.0461 20.7232 15.7309
# 3 49.4031 14.5920 128.1315 38.6398 -26.0027 6.3700
# 4 27.7154 -15.0461 38.6398 48.4559 -15.4842 6.2510
# 5 -63.7379 20.7232 -26.0027 -15.4842 69.4943 -13.2323
# 6 19.0658 15.7309 6.3700 6.2510 -13.2323 55.8934
#
#
#
# Elastic Compliance Matrix: (Units=1/GPa)
#
#
# Indices 1 2 3 4 5 6 
#
# 1 0.009593 -0.000370 -0.001487 -0.001811 0.007767 -0.000957
# 2 -0.000370 0.007251 -0.002268 0.003652 -0.003068 -0.002791
# 3 -0.001487 -0.002268 0.011570 -0.008615 0.001961 0.001255
# 4 -0.001811 0.003652 -0.008615 0.030098 0.000210 -0.002744
# 5 0.007767 -0.003068 0.001961 0.000210 0.023899 0.003625
# 6 -0.000957 -0.002791 0.001255 -0.002744 0.003625 0.020025
#
#
# Mechanical properties :
#
#
# Convention : Reuss Voigt Hill
#
# Bulk Modulus (GPa) = 49.59365 63.54410 56.56888
# Shear Modulus (GPa) = 42.58656 61.98480 52.28568
#
# Velocity S-wave (km/s) = 4.52029 5.45347 5.00866
# Velocity P-wave (km/s) = 7.14417 8.37510 7.78401
#
# Compressibility (1/GPa) = 0.02016387
#
# Stress axis : x y z
#
# Youngs Moduli (GPa) = 104.23960 137.90900 86.43348
#
# Poissons Ratio (x) = 0.05105 0.12850
# Poissons Ratio (y) = 0.03859 0.19604
# Poissons Ratio (z) = 0.15498 0.31280
#
# Static dielectric constant tensor:
#      x y z
#    x 1.806800 -0.018150 0.050940 
#    y -0.018150 1.726530 -0.012980 
#    z 0.050940 -0.012980 1.783850 
# 
# From -- ./inp_files/94923.got.cif
#   From: 2010.05.17/outbox.cif.g08.bks.cpg/sg2_48_cif.got.tgz:94923.got - 2010.06.03 11:33:40.
