data_PCOD9069655
_publ_section_title
;
Structure prediction by ZEFSAII (Michael W. Deem and Ramdas Pophale) SiO2 
 PCOD9069655
Probable space group: P -1
;
_chemical_formula_sum "Si O2"
_cell_formula_units_Z 14
_cell_length_a 14.584668
_cell_length_b 13.657148
_cell_length_c 8.608830
_cell_angle_alpha 53.787221
_cell_angle_beta 104.937297
_cell_angle_gamma 149.530704
_cell_volume 553.420087
_symmetry_space_group_name_H-M "P -1"
_symmetry_group_IT_number 2
_symmetry_cell_setting 'triclinic'
loop_
_space_group_symop_operation_xyz
x,y,z
-x,-y,-z
loop_
_atom_site_type_symbol
_atom_site_label
_atom_site_fract_x
_atom_site_fract_y
_atom_site_fract_z
Si Si1 0.819335 0.023411 0.158915
Si Si2 0.079157 0.581199 0.139502
Si Si3 0.689796 0.778044 0.992249
Si Si4 0.125276 0.368035 0.449257
Si Si5 0.602409 0.991228 0.597574
Si Si6 0.440000 0.622484 0.604684
Si Si7 0.271680 0.448224 0.123759
O O1 0.063411 0.253964 0.107242
O O2 0.755429 0.899590 0.079365
O O3 0.630049 0.776417 0.438662
O O4 0.812362 0.162450 0.019975
O O5 0.185235 0.571787 0.219396
O O6 0.869271 0.325528 0.408005
O O7 0.000000 0.500000 0.000000
O O8 0.709594 0.656675 0.121430
O O9 0.425763 0.509645 0.098647
O O10 0.866403 0.045552 0.699047
O O11 0.284475 0.521382 0.519204
O O12 0.174863 0.333521 0.362604
O O13 0.553037 0.841353 0.574979
O O14 0.500000 0.000000 0.500000
O O15 0.470412 0.782066 0.880872
#
# Coordination Sequence:
#
# PCOD9069655 Si02
#       7
#     2   2   2   2   2   2   2
#     4  12  26  49  79 113 158 200 255 323 380 457
#     4  12  23  46  75 111 151 192 257 317 380 448
#     4  12  29  54  73 115 159 203 261 310 380 456
#     4  12  26  49  78 111 155 204 257 317 383 452
#     4  12  24  48  76 111 154 196 257 317 385 451
#     4  12  28  51  77 111 160 204 252 323 375 459
#     4  12  26  48  80 113 147 210 255 311 386 452
#
# _framework density 25.297239000000001
#
# number of rings (size 3 to 8) (size 9 to 14) (size 15 to 20)
#    0.000    0.000    7.143    1.714    0.000    3.429 
#    2.571    0.000    0.000    0.000    0.000    0.000 
#    0.000    0.000    0.000    0.000    0.000    0.000 
#
# Total GULP energy -78461.514790 kJ/mol
# GULP energy per Si atom -5604.393914 kJ/mol
# Density = 2.523966 g / cm^3
# Si number density = 25.297239 Si / 1000 Ang^3
#
#
#
# Elastic Constant Matrix: (Units=GPa)
#
#
# Indices 1 2 3 4 5 6 
#
# 1 85.6831 20.8633 38.3800 8.3456 3.8138 9.5234
# 2 20.8633 100.0570 35.1011 11.6136 -1.7629 5.3655
# 3 38.3800 35.1011 130.1417 10.8222 0.5230 0.7121
# 4 8.3456 11.6136 10.8222 28.9172 5.7896 -3.7348
# 5 3.8138 -1.7629 0.5230 5.7896 69.6778 2.6060
# 6 9.5234 5.3655 0.7121 -3.7348 2.6060 54.6960
#
#
#
# Elastic Compliance Matrix: (Units=1/GPa)
#
#
# Indices 1 2 3 4 5 6 
#
# 1 0.014125 -0.001277 -0.003604 -0.002432 -0.000485 -0.002430
# 2 -0.001277 0.011623 -0.002449 -0.003681 0.000732 -0.001172
# 3 -0.003604 -0.002449 0.009527 -0.001493 0.000164 0.000634
# 4 -0.002432 -0.003681 -0.001493 0.038439 -0.003277 0.003585
# 5 -0.000485 0.000732 0.000164 -0.003277 0.014702 -0.000914
# 6 -0.002430 -0.001172 0.000634 0.003585 -0.000914 0.019101
#
#
# Mechanical properties :
#
#
# Convention : Reuss Voigt Hill
#
# Bulk Modulus (GPa) = 48.50645 56.06342 52.28493
# Shear Modulus (GPa) = 38.74557 45.42736 42.08646
#
# Velocity S-wave (km/s) = 3.91783 4.24222 4.08325
# Velocity P-wave (km/s) = 6.29937 6.79744 6.55314
#
# Compressibility (1/GPa) = 0.02061581
#
# Stress axis : x y z
#
# Youngs Moduli (GPa) = 70.79880 86.03958 104.96347
#
# Poissons Ratio (x) = 0.10987 0.37825
# Poissons Ratio (y) = 0.09041 0.25702
# Poissons Ratio (z) = 0.25513 0.21068
#
# Static dielectric constant tensor:
#      x y z
#    x 2.045160 0.032170 -0.005530 
#    y 0.032170 1.984780 0.002370 
#    z -0.005530 0.002370 1.999250 
# 
# From -- ./inp_files/314710.got.cif
#   From: 2010.05.17/outbox.cif.g08.bks.cpg/sg2_158_cif.got.tgz:314710.got - 2010.06.03 11:33:40.
