data_PCOD9069233
_publ_section_title
;
Structure prediction by ZEFSAII (Michael W. Deem and Ramdas Pophale) SiO2 
 PCOD9069233
Probable space group: P -1
;
_chemical_formula_sum "Si O2"
_cell_formula_units_Z 14
_cell_length_a 8.252526
_cell_length_b 14.935992
_cell_length_c 12.575566
_cell_angle_alpha 150.717784
_cell_angle_beta 56.590923
_cell_angle_gamma 110.943992
_cell_volume 603.572000
_symmetry_space_group_name_H-M "P -1"
_symmetry_group_IT_number 2
_symmetry_cell_setting 'triclinic'
loop_
_space_group_symop_operation_xyz
x,y,z
-x,-y,-z
loop_
_atom_site_type_symbol
_atom_site_label
_atom_site_fract_x
_atom_site_fract_y
_atom_site_fract_z
Si Si1 0.291202 0.497626 0.014497
Si Si2 0.562587 0.784236 0.708877
Si Si3 0.205292 0.833576 0.221927
Si Si4 0.000990 0.464788 0.644589
Si Si5 0.146930 0.798780 0.959839
Si Si6 0.438421 0.131396 0.446845
Si Si7 0.103002 0.873309 0.731746
O O1 0.243151 0.655721 0.103093
O O2 0.111982 0.541455 0.210036
O O3 0.500000 0.500000 0.000000
O O4 0.319224 0.289886 0.737867
O O5 0.760445 0.650500 0.555766
O O6 0.358394 0.727844 0.746252
O O7 0.611776 0.791049 0.574319
O O8 0.500000 0.000000 0.000000
O O9 0.383272 0.934597 0.272520
O O10 0.190020 0.771677 0.041386
O O11 0.000000 0.000000 0.500000
O O12 0.995763 0.682586 0.854632
O O13 0.899044 0.344753 0.480148
O O14 0.039771 0.023195 0.207279
O O15 0.674649 0.112854 0.354853
O O16 0.000000 0.000000 0.000000
#
# Coordination Sequence:
#
# PCOD9069233 Si02
#       7
#     2   2   2   2   2   2   2
#     4  12  28  48  70 107 146 191 239 300 359 418
#     4  12  22  47  73 105 144 184 235 301 355 430
#     4  12  27  47  76 105 141 195 247 290 356 430
#     4  12  26  47  71 100 148 184 241 298 355 426
#     4  12  26  45  74 106 140 190 239 292 365 426
#     4  12  25  45  77 104 147 188 240 295 362 428
#     4  12  25  46  71 107 147 188 231 299 365 426
#
# _framework density 23.195243000000001
#
# number of rings (size 3 to 8) (size 9 to 14) (size 15 to 20)
#    0.000    0.000    5.714    3.857    2.000    2.857 
#    0.000    0.000    0.000    0.000    0.000    0.000 
#    0.000    0.000    0.000    0.000    0.000    0.000 
#
# Total GULP energy -78444.145006 kJ/mol
# GULP energy per Si atom -5603.153215 kJ/mol
# Density = 2.314245 g / cm^3
# Si number density = 23.195243 Si / 1000 Ang^3
#
#
#
# Elastic Constant Matrix: (Units=GPa)
#
#
# Indices 1 2 3 4 5 6 
#
# 1 65.3208 8.8060 5.0388 4.1731 -2.5289 18.1944
# 2 8.8060 87.0680 16.1193 7.9435 16.1057 23.2961
# 3 5.0388 16.1193 111.2008 -2.9496 21.8783 12.3796
# 4 4.1731 7.9435 -2.9496 38.7858 2.3405 5.9831
# 5 -2.5289 16.1057 21.8783 2.3405 45.0935 1.0555
# 6 18.1944 23.2961 12.3796 5.9831 1.0555 53.5080
#
#
#
# Elastic Compliance Matrix: (Units=1/GPa)
#
#
# Indices 1 2 3 4 5 6 
#
# 1 0.017032 -0.000364 -0.000431 -0.001040 0.001475 -0.005446
# 2 -0.000364 0.014134 -0.000553 -0.001755 -0.004578 -0.005615
# 3 -0.000431 -0.000553 0.010323 0.001559 -0.004867 -0.002079
# 4 -0.001040 -0.001755 0.001559 0.026806 -0.001527 -0.002210
# 5 0.001475 -0.004578 -0.004867 -0.001527 0.026282 0.002270
# 6 -0.005446 -0.005615 -0.002079 -0.002210 0.002270 0.023669
#
#
# Mechanical properties :
#
#
# Convention : Reuss Voigt Hill
#
# Bulk Modulus (GPa) = 25.77740 35.94644 30.86192
# Shear Modulus (GPa) = 37.34948 43.05248 40.20098
#
# Velocity S-wave (km/s) = 4.01711 4.31291 4.16764
# Velocity P-wave (km/s) = 5.71433 6.35079 6.04095
#
# Compressibility (1/GPa) = 0.03879367
#
# Stress axis : x y z
#
# Youngs Moduli (GPa) = 58.71360 70.75243 96.87197
#
# Poissons Ratio (x) = 0.02574 0.04171
# Poissons Ratio (y) = 0.02136 0.05358
# Poissons Ratio (z) = 0.02528 0.03913
#
# Static dielectric constant tensor:
#      x y z
#    x 1.896680 0.018040 0.044500 
#    y 0.018040 1.865380 0.023450 
#    z 0.044500 0.023450 1.858420 
# 
# From -- ./inp_files/319750.got.cif
#   From: 2010.05.17/outbox.cif.g08.bks.cpg/sg2_160_cif.got.tgz:319750.got - 2010.06.03 11:33:40.
