data_PCOD9069396
_publ_section_title
;
Structure prediction by ZEFSAII (Michael W. Deem and Ramdas Pophale) SiO2 
 PCOD9069396
Probable space group: P -1
;
_chemical_formula_sum "Si O2"
_cell_formula_units_Z 16
_cell_length_a 9.094994
_cell_length_b 14.852303
_cell_length_c 12.459363
_cell_angle_alpha 140.168751
_cell_angle_beta 50.626870
_cell_angle_gamma 110.903984
_cell_volume 803.955087
_symmetry_space_group_name_H-M "P -1"
_symmetry_group_IT_number 2
_symmetry_cell_setting 'triclinic'
loop_
_space_group_symop_operation_xyz
x,y,z
-x,-y,-z
loop_
_atom_site_type_symbol
_atom_site_label
_atom_site_fract_x
_atom_site_fract_y
_atom_site_fract_z
Si Si1 0.035099 0.134965 0.874582
Si Si2 0.966073 0.834494 0.551158
Si Si3 0.597876 0.879835 0.157002
Si Si4 0.771974 0.522247 0.147551
Si Si5 0.614076 0.360215 0.885598
Si Si6 0.763312 0.836203 0.415701
Si Si7 0.341322 0.634018 0.746902
Si Si8 0.392082 0.152553 0.130214
O O1 0.216844 0.107905 0.847093
O O2 0.105547 0.182933 0.770253
O O3 0.974826 0.988081 0.738268
O O4 0.847736 0.255596 0.119407
O O5 0.884983 0.851351 0.481233
O O6 0.807806 0.782671 0.650092
O O7 0.187271 0.731318 0.349342
O O8 0.521793 0.744477 0.113217
O O9 0.413917 0.020619 0.384894
O O10 0.645394 0.868379 0.997371
O O11 0.680339 0.695024 0.340172
O O12 0.753670 0.453467 0.205697
O O13 0.683775 0.428777 0.021003
O O14 0.000000 0.500000 0.000000
O O15 0.500000 0.500000 0.000000
O O16 0.500000 0.500000 0.500000
O O17 0.463662 0.741898 0.835203
O O18 0.500000 0.000000 0.000000
#
# Coordination Sequence:
#
# PCOD9069396 Si02
#       8
#     2   2   2   2   2   2   2   2
#     4  12  25  44  72 110 141 180 242 296 351 417
#     4  12  25  44  77 102 142 190 239 292 347 423
#     4  12  27  46  73 105 148 185 234 295 356 424
#     4  12  24  42  70 103 138 178 237 292 347 414
#     4  12  27  46  69 107 144 182 233 300 359 409
#     4  12  23  42  77 106 136 183 241 294 353 416
#     4  12  26  46  71 102 140 184 238 289 347 418
#     4  12  25  48  70 104 142 190 239 282 349 432
#
# _framework density 19.901609000000001
#
# number of rings (size 3 to 8) (size 9 to 14) (size 15 to 20)
#    0.000    0.000    7.500    2.250    1.750    0.500 
#    2.250    1.250    0.000    0.000    0.000    0.000 
#    0.000    0.000    0.000    0.000    0.000    0.000 
#
# Total GULP energy -89415.958079 kJ/mol
# GULP energy per Si atom -5588.497380 kJ/mol
# Density = 1.985631 g / cm^3
# Si number density = 19.901609 Si / 1000 Ang^3
#
#
#
# Elastic Constant Matrix: (Units=GPa)
#
#
# Indices 1 2 3 4 5 6 
#
# 1 82.7420 25.5263 58.1336 -10.2603 -9.8453 4.3262
# 2 25.5263 107.4885 28.9073 6.7062 -6.8637 2.9147
# 3 58.1336 28.9073 113.7221 10.5282 -19.8042 -18.1343
# 4 -10.2603 6.7062 10.5282 44.7621 2.5203 4.9140
# 5 -9.8453 -6.8637 -19.8042 2.5203 30.4572 8.4864
# 6 4.3262 2.9147 -18.1343 4.9140 8.4864 29.3067
#
#
#
# Elastic Compliance Matrix: (Units=1/GPa)
#
#
# Indices 1 2 3 4 5 6 
#
# 1 0.027194 -0.002149 -0.016999 0.012331 0.000869 -0.016638
# 2 -0.002149 0.010436 -0.001451 -0.001599 0.001329 -0.001735
# 3 -0.016999 -0.001451 0.022450 -0.011102 0.004967 0.016969
# 4 0.012331 -0.001599 -0.011102 0.029559 -0.002481 -0.012769
# 5 0.000869 0.001329 0.004967 -0.002481 0.039104 -0.008094
# 6 -0.016638 -0.001735 0.016969 -0.012769 -0.008094 0.051735
#
#
# Mechanical properties :
#
#
# Convention : Reuss Voigt Hill
#
# Bulk Modulus (GPa) = 52.95983 58.78745 55.87364
# Shear Modulus (GPa) = 21.93269 33.66422 27.79846
#
# Velocity S-wave (km/s) = 3.32332 4.11729 3.74143
# Velocity P-wave (km/s) = 6.43386 7.22537 6.84107
#
# Compressibility (1/GPa) = 0.01888223
#
# Stress axis : x y z
#
# Youngs Moduli (GPa) = 36.77246 95.82479 44.54288
#
# Poissons Ratio (x) = 0.20595 0.75716
# Poissons Ratio (y) = 0.07903 0.06464
# Poissons Ratio (z) = 0.62508 0.13906
#
# Static dielectric constant tensor:
#      x y z
#    x 1.667170 0.019810 -0.022650 
#    y 0.019810 1.659120 0.003660 
#    z -0.022650 0.003660 1.826490 
# 
# From -- ./inp_files/184180.got.cif
#   From: 2010.05.17/outbox.cif.g08.bks.cpg/sg2_93_cif.got.tgz:184180.got - 2010.06.03 11:33:40.
