data_PCOD9069986
_publ_section_title
;
Structure prediction by ZEFSAII (Michael W. Deem and Ramdas Pophale) SiO2 
 PCOD9069986
Probable space group: P -1
;
_chemical_formula_sum "Si O2"
_cell_formula_units_Z 14
_cell_length_a 23.492083
_cell_length_b 17.309478
_cell_length_c 14.014396
_cell_angle_alpha 23.873081
_cell_angle_beta 26.114705
_cell_angle_gamma 16.074941
_cell_volume 629.148764
_symmetry_space_group_name_H-M "P -1"
_symmetry_group_IT_number 2
_symmetry_cell_setting 'triclinic'
loop_
_space_group_symop_operation_xyz
x,y,z
-x,-y,-z
loop_
_atom_site_type_symbol
_atom_site_label
_atom_site_fract_x
_atom_site_fract_y
_atom_site_fract_z
Si Si1 0.968449 0.752707 0.729240
Si Si2 0.439343 0.359646 0.487079
Si Si3 0.204959 0.043803 0.454348
Si Si4 0.422828 0.086938 0.372332
Si Si5 0.904554 0.220556 0.984112
Si Si6 0.724280 0.066450 0.926820
Si Si7 0.103930 0.274716 0.769093
O O1 0.195147 0.587834 0.585392
O O2 0.860769 0.872518 0.652225
O O3 0.813716 0.011520 0.750783
O O4 0.000000 0.500000 0.000000
O O5 0.446115 0.573492 0.205339
O O6 0.558040 0.190067 0.600933
O O7 0.562441 0.091582 0.528099
O O8 0.055235 0.368280 0.369710
O O9 0.166252 0.870270 0.739254
O O10 0.324915 0.108703 0.589999
O O11 0.269907 0.432981 0.181249
O O12 0.641472 0.945798 0.196723
O O13 0.046326 0.202712 0.850265
O O14 0.000000 0.000000 0.000000
O O15 0.889596 0.870442 0.984557
#
# Coordination Sequence:
#
# PCOD9069986 Si02
#       7
#     2   2   2   2   2   2   2
#     4  12  26  50  73 105 148 184 247 308 344 423
#     4  12  26  47  75 103 146 192 240 294 365 422
#     4  12  25  47  77 107 142 194 237 291 367 426
#     4  12  24  44  72 108 142 186 242 293 353 438
#     4  12  24  44  71 107 148 182 239 294 352 438
#     4  12  27  49  69 104 149 188 241 303 352 424
#     4  12  25  43  75 105 145 193 230 292 372 421
#
# _framework density 22.252288
#
# number of rings (size 3 to 8) (size 9 to 14) (size 15 to 20)
#    0.000    0.000    7.143    3.000    0.000    1.714 
#    2.571    0.000    0.000    0.000    0.000    0.000 
#    0.000    0.000    0.000    0.000    0.000    0.000 
#
# Total GULP energy -78146.507335 kJ/mol
# GULP energy per Si atom -5581.893381 kJ/mol
# Density = 2.220164 g / cm^3
# Si number density = 22.252288 Si / 1000 Ang^3
#
#
#
# Elastic Constant Matrix: (Units=GPa)
#
#
# Indices 1 2 3 4 5 6 
#
# 1 150.6955 50.1023 50.7129 11.2473 -0.2192 2.8102
# 2 50.1023 79.0875 24.5978 -11.1533 -3.8543 15.6070
# 3 50.7129 24.5978 79.8395 -11.5502 5.6669 15.8685
# 4 11.2473 -11.1533 -11.5502 30.6258 2.9917 -7.2417
# 5 -0.2192 -3.8543 5.6669 2.9917 42.8824 -5.5865
# 6 2.8102 15.6070 15.8685 -7.2417 -5.5865 38.4954
#
#
#
# Elastic Compliance Matrix: (Units=1/GPa)
#
#
# Indices 1 2 3 4 5 6 
#
# 1 0.012355 -0.007400 -0.007793 -0.009435 0.001577 0.003764
# 2 -0.007400 0.019417 0.001201 0.008773 0.000134 -0.006157
# 3 -0.007793 0.001201 0.020199 0.009663 -0.004192 -0.007035
# 4 -0.009435 0.008773 0.009663 0.043490 -0.003463 0.000827
# 5 0.001577 0.000134 -0.004192 -0.003463 0.024721 0.004494
# 6 0.003764 -0.006157 -0.007035 0.000827 0.004494 0.031906
#
#
# Mechanical properties :
#
#
# Convention : Reuss Voigt Hill
#
# Bulk Modulus (GPa) = 41.68716 62.27207 51.97962
# Shear Modulus (GPa) = 26.58625 34.68138 30.63381
#
# Velocity S-wave (km/s) = 3.46029 3.95213 3.71436
# Velocity P-wave (km/s) = 5.89401 6.99079 6.46570
#
# Compressibility (1/GPa) = 0.02398820
#
# Stress axis : x y z
#
# Youngs Moduli (GPa) = 80.93927 51.50073 49.50822
#
# Poissons Ratio (x) = 0.38109 0.38581
# Poissons Ratio (y) = 0.59893 -0.05948
# Poissons Ratio (z) = 0.63075 -0.06187
#
# Static dielectric constant tensor:
#      x y z
#    x 1.996080 -0.044030 0.008080 
#    y -0.044030 1.890640 0.070240 
#    z 0.008080 0.070240 1.832290 
# 
# From -- ./inp_files/471837.got.cif
#   From: 2010.05.17/outbox.cif.g08.bks.cpg/sg2_236_cif.got.tgz:471837.got - 2010.06.03 11:33:40.
