data_PCOD9069068
_publ_section_title
;
Structure prediction by ZEFSAII (Michael W. Deem and Ramdas Pophale) SiO2 
 PCOD9069068
Probable space group: P -1
;
_chemical_formula_sum "Si O2"
_cell_formula_units_Z 16
_cell_length_a 15.115593
_cell_length_b 12.358620
_cell_length_c 9.418465
_cell_angle_alpha 114.768518
_cell_angle_beta 69.958530
_cell_angle_gamma 52.805465
_cell_volume 721.151403
_symmetry_space_group_name_H-M "P -1"
_symmetry_group_IT_number 2
_symmetry_cell_setting 'triclinic'
loop_
_space_group_symop_operation_xyz
x,y,z
-x,-y,-z
loop_
_atom_site_type_symbol
_atom_site_label
_atom_site_fract_x
_atom_site_fract_y
_atom_site_fract_z
Si Si1 0.920850 0.455147 0.734137
Si Si2 0.450699 0.455633 0.120807
Si Si3 0.342738 0.100925 0.051316
Si Si4 0.378108 0.341694 0.553973
Si Si5 0.823650 0.967667 0.800394
Si Si6 0.868446 0.233506 0.296906
Si Si7 0.828602 0.664674 0.293123
Si Si8 0.447250 0.248729 0.778232
O O1 0.813581 0.624973 0.749221
O O2 0.038819 0.203160 0.506391
O O3 0.075397 0.384228 0.648911
O O4 0.745002 0.620413 0.028238
O O5 0.255716 0.678995 0.450308
O O6 0.500000 0.500000 0.000000
O O7 0.446868 0.338261 0.962779
O O8 0.633598 0.252153 0.017532
O O9 0.254674 0.077618 0.148480
O O10 0.500000 0.000000 0.000000
O O11 0.448051 0.930391 0.759046
O O12 0.293458 0.527447 0.587413
O O13 0.210069 0.430103 0.716576
O O14 0.437513 0.320313 0.666937
O O15 0.967896 0.858276 0.779880
O O16 0.000000 0.000000 0.000000
O O17 0.635177 0.954363 0.520976
O O18 0.000000 0.500000 0.000000
#
# Coordination Sequence:
#
# PCOD9069068 Si02
#       8
#     2   2   2   2   2   2   2   2
#     4  12  22  41  72 105 148 189 236 286 365 448
#     4  12  29  52  79 105 145 198 257 317 379 444
#     4  12  23  42  74 108 156 196 236 295 375 449
#     4  12  25  45  72 109 152 191 243 308 361 441
#     4  12  25  48  76 107 144 194 247 303 376 449
#     4  12  30  52  78 109 145 196 262 318 377 443
#     4  12  23  40  68 111 151 197 234 287 371 442
#     4  12  25  46  71 110 148 191 242 306 363 446
#
# _framework density 22.186741999999999
#
# number of rings (size 3 to 8) (size 9 to 14) (size 15 to 20)
#    0.000    0.000    6.250    4.500    1.750    4.000 
#    0.000    0.000    0.000    0.000    0.000    0.000 
#    0.000    0.000    0.000    0.000    0.000    0.000 
#
# Total GULP energy -89336.432250 kJ/mol
# GULP energy per Si atom -5583.527016 kJ/mol
# Density = 2.213624 g / cm^3
# Si number density = 22.186742 Si / 1000 Ang^3
#
#
#
# Elastic Constant Matrix: (Units=GPa)
#
#
# Indices 1 2 3 4 5 6 
#
# 1 66.8325 32.7775 31.5265 0.3679 -9.7181 -10.4491
# 2 32.7775 99.4318 27.1890 -10.2378 -12.4756 -6.4173
# 3 31.5265 27.1890 142.8047 -10.5950 -5.4112 7.2422
# 4 0.3679 -10.2378 -10.5950 34.6176 -1.9162 -6.8844
# 5 -9.7181 -12.4756 -5.4112 -1.9162 36.1510 -2.6898
# 6 -10.4491 -6.4173 7.2422 -6.8844 -2.6898 42.9888
#
#
#
# Elastic Compliance Matrix: (Units=1/GPa)
#
#
# Indices 1 2 3 4 5 6 
#
# 1 0.020551 -0.005179 -0.003795 -0.001768 0.003432 0.004793
# 2 -0.005179 0.012980 -0.000985 0.004114 0.003285 0.001709
# 3 -0.003795 -0.000985 0.008268 0.001835 -0.000188 -0.002180
# 4 -0.001768 0.004114 0.001835 0.031899 0.003296 0.005190
# 5 0.003432 0.003285 -0.000188 0.003296 0.030145 0.003770
# 6 0.004793 0.001709 -0.002180 0.005190 0.003770 0.026116
#
#
# Mechanical properties :
#
#
# Convention : Reuss Voigt Hill
#
# Bulk Modulus (GPa) = 45.70307 54.67277 50.18792
# Shear Modulus (GPa) = 31.81260 37.25655 34.53457
#
# Velocity S-wave (km/s) = 3.79074 4.10228 3.94958
# Velocity P-wave (km/s) = 6.30901 6.86541 6.59308
#
# Compressibility (1/GPa) = 0.02188037
#
# Stress axis : x y z
#
# Youngs Moduli (GPa) = 48.65877 77.04319 120.95447
#
# Poissons Ratio (x) = 0.39901 0.45905
# Poissons Ratio (y) = 0.25201 0.11912
# Poissons Ratio (z) = 0.18467 0.07588
#
# Static dielectric constant tensor:
#      x y z
#    x 1.856310 -0.031540 0.052780 
#    y -0.031540 1.871800 -0.103200 
#    z 0.052780 -0.103200 1.975590 
# 
# From -- ./inp_files/307961.got.cif
#   From: 2010.05.17/outbox.cif.g08.bks.cpg/sg2_154_cif.got.tgz:307961.got - 2010.06.03 11:33:40.
