data_PCOD9069330
_publ_section_title
;
Structure prediction by ZEFSAII (Michael W. Deem and Ramdas Pophale) SiO2 
 PCOD9069330
Probable space group: P -1
;
_chemical_formula_sum "Si O2"
_cell_formula_units_Z 16
_cell_length_a 12.334418
_cell_length_b 12.255130
_cell_length_c 12.034419
_cell_angle_alpha 56.727711
_cell_angle_beta 66.002817
_cell_angle_gamma 27.105969
_cell_volume 676.874898
_symmetry_space_group_name_H-M "P -1"
_symmetry_group_IT_number 2
_symmetry_cell_setting 'triclinic'
loop_
_space_group_symop_operation_xyz
x,y,z
-x,-y,-z
loop_
_atom_site_type_symbol
_atom_site_label
_atom_site_fract_x
_atom_site_fract_y
_atom_site_fract_z
Si Si1 0.261354 0.740613 0.238930
Si Si2 0.959813 0.692432 0.908549
Si Si3 0.975288 0.136132 0.524020
Si Si4 0.466642 0.797512 0.568674
Si Si5 0.456065 0.957297 0.266628
Si Si6 0.465746 0.234173 0.191962
Si Si7 0.921222 0.873677 0.048467
Si Si8 0.643649 0.590673 0.241229
O O1 0.065051 0.899530 0.325150
O O2 0.397137 0.472129 0.322390
O O3 0.442771 0.676638 0.245746
O O4 0.132038 0.929271 0.082634
O O5 0.195726 0.549061 0.857721
O O6 0.786944 0.881401 0.767586
O O7 0.861944 0.836940 0.986628
O O8 0.000000 0.500000 0.000000
O O9 0.753358 0.427738 0.400638
O O10 0.000000 0.000000 0.500000
O O11 0.197002 0.018338 0.519704
O O12 0.555106 0.803798 0.427079
O O13 0.474420 0.853248 0.655433
O O14 0.609928 0.772764 0.195880
O O15 0.410330 0.152614 0.196779
O O16 0.210322 0.562921 0.118972
O O17 0.715976 0.045984 0.133502
#
# Coordination Sequence:
#
# PCOD9069330 Si02
#       8
#     2   2   2   2   2   2   2   2
#     4  12  26  43  75 110 150 192 252 319 387 450
#     4  12  24  43  75 111 151 192 251 319 383 447
#     4  12  23  42  72 110 151 189 252 316 387 446
#     4  12  28  49  74 110 149 206 255 314 378 456
#     4  12  25  47  76 112 147 197 257 319 382 446
#     4  12  31  52  76 107 159 212 257 306 372 467
#     4  12  28  50  76 113 152 205 255 308 383 456
#     4  12  23  41  75 117 150 190 245 328 393 444
#
# _framework density 23.638047
#
# number of rings (size 3 to 8) (size 9 to 14) (size 15 to 20)
#    0.000    0.000    6.250    3.750    3.500    2.000 
#    0.000    1.875    0.000    0.000    0.000    0.000 
#    0.000    0.000    0.000    0.000    0.000    0.000 
#
# Total GULP energy -89274.570638 kJ/mol
# GULP energy per Si atom -5579.660665 kJ/mol
# Density = 2.358425 g / cm^3
# Si number density = 23.638047 Si / 1000 Ang^3
#
#
#
# Elastic Constant Matrix: (Units=GPa)
#
#
# Indices 1 2 3 4 5 6 
#
# 1 35.6574 2.1463 10.4201 -4.0985 16.2740 7.1019
# 2 2.1463 81.9870 34.4135 4.7051 0.7161 2.6861
# 3 10.4201 34.4135 112.0552 2.6967 14.9459 -0.1222
# 4 -4.0985 4.7051 2.6967 40.9963 2.8651 -6.1923
# 5 16.2740 0.7161 14.9459 2.8651 42.0148 4.9196
# 6 7.1019 2.6861 -0.1222 -6.1923 4.9196 26.3983
#
#
#
# Elastic Compliance Matrix: (Units=1/GPa)
#
#
# Indices 1 2 3 4 5 6 
#
# 1 0.036136 -0.000118 -0.001701 0.003663 -0.012884 -0.006457
# 2 -0.000118 0.014281 -0.004575 -0.001809 0.001811 -0.002205
# 3 -0.001701 -0.004575 0.010933 0.000116 -0.003351 0.001625
# 4 0.003663 -0.001809 0.000116 0.026149 -0.003922 0.006064
# 5 -0.012884 0.001811 -0.003351 -0.003922 0.030613 -0.003359
# 6 -0.006457 -0.002205 0.001625 0.006064 -0.003359 0.041899
#
#
# Mechanical properties :
#
#
# Convention : Reuss Voigt Hill
#
# Bulk Modulus (GPa) = 20.59237 35.96215 28.27726
# Shear Modulus (GPa) = 26.45686 34.06319 30.26003
#
# Velocity S-wave (km/s) = 3.34915 3.80021 3.58179
# Velocity P-wave (km/s) = 4.86684 5.87386 5.39390
#
# Compressibility (1/GPa) = 0.04856167
#
# Stress axis : x y z
#
# Youngs Moduli (GPa) = 27.67318 70.02386 91.46309
#
# Poissons Ratio (x) = 0.00828 0.15556
# Poissons Ratio (y) = 0.00327 0.41847
# Poissons Ratio (z) = 0.04707 0.32038
#
# Static dielectric constant tensor:
#      x y z
#    x 0.416440 0.851780 1.259090 
#    y 0.851780 1.625550 -0.845530 
#    z 1.259090 -0.845530 0.798070 
# 
# From -- ./inp_files/71292.got.cif
#   From: 2010.05.17/outbox.cif.g08.bks.cpg/sg2_36_cif.got.tgz:71292.got - 2010.06.03 11:33:40.
