data_PCOD9069677
_publ_section_title
;
Structure prediction by ZEFSAII (Michael W. Deem and Ramdas Pophale) SiO2 
 PCOD9069677
Probable space group: P -1
;
_chemical_formula_sum "Si O2"
_cell_formula_units_Z 14
_cell_length_a 21.691552
_cell_length_b 10.742814
_cell_length_c 8.614634
_cell_angle_alpha 45.082385
_cell_angle_beta 31.861898
_cell_angle_gamma 36.110974
_cell_volume 623.240428
_symmetry_space_group_name_H-M "P -1"
_symmetry_group_IT_number 2
_symmetry_cell_setting 'triclinic'
loop_
_space_group_symop_operation_xyz
x,y,z
-x,-y,-z
loop_
_atom_site_type_symbol
_atom_site_label
_atom_site_fract_x
_atom_site_fract_y
_atom_site_fract_z
Si Si1 0.045136 0.978566 0.244704
Si Si2 0.713496 0.002517 0.212643
Si Si3 0.104738 0.384432 0.025827
Si Si4 0.880153 0.432413 0.691025
Si Si5 0.807975 0.346112 0.250462
Si Si6 0.596460 0.808764 0.845025
Si Si7 0.505601 0.503646 0.172344
O O1 0.130195 0.733318 0.244015
O O2 0.149893 0.053962 0.929614
O O3 0.000000 0.000000 0.500000
O O4 0.908800 0.113560 0.311147
O O5 0.615758 0.255276 0.192840
O O6 0.629409 0.910520 0.542892
O O7 0.787305 0.864246 0.021801
O O8 0.014694 0.414448 0.344850
O O9 0.187021 0.496515 0.777439
O O10 0.000000 0.500000 0.000000
O O11 0.742178 0.659374 0.755721
O O12 0.877362 0.360956 0.932677
O O13 0.649446 0.416299 0.504048
O O14 0.544459 0.662405 0.021244
O O15 0.500000 0.000000 0.000000
O O16 0.500000 0.500000 0.000000
#
# Coordination Sequence:
#
# PCOD9069677 Si02
#       7
#     2   2   2   2   2   2   2
#     4  12  23  46  78 106 145 201 251 306 375 454
#     4  12  25  47  80 104 145 200 257 299 374 454
#     4  12  23  46  78 108 143 197 256 306 375 455
#     4  12  25  45  74 111 154 188 255 314 381 445
#     4  12  27  45  72 114 153 194 249 321 378 439
#     4  12  28  48  77 107 151 209 248 306 387 454
#     4  12  29  50  75 109 156 197 258 313 373 453
#
# _framework density 22.463239000000002
#
# number of rings (size 3 to 8) (size 9 to 14) (size 15 to 20)
#    0.000    0.000    5.714    3.429    2.000    4.571 
#    2.571    0.000    0.000    0.000    0.000    0.000 
#    0.000    0.000    0.000    0.000    0.000    0.000 
#
# Total GULP energy -78290.384729 kJ/mol
# GULP energy per Si atom -5592.170338 kJ/mol
# Density = 2.241211 g / cm^3
# Si number density = 22.463239 Si / 1000 Ang^3
#
#
#
# Elastic Constant Matrix: (Units=GPa)
#
#
# Indices 1 2 3 4 5 6 
#
# 1 50.8082 27.9649 47.3896 1.7264 3.8031 0.8078
# 2 27.9649 171.2450 61.7320 16.2573 1.1287 3.4640
# 3 47.3896 61.7320 148.5237 4.3602 -0.9786 1.2968
# 4 1.7264 16.2573 4.3602 40.4543 5.6140 0.6475
# 5 3.8031 1.1287 -0.9786 5.6140 48.9322 -7.4226
# 6 0.8078 3.4640 1.2968 0.6475 -7.4226 35.7420
#
#
#
# Elastic Compliance Matrix: (Units=1/GPa)
#
#
# Indices 1 2 3 4 5 6 
#
# 1 0.028702 -0.001660 -0.008500 0.000725 -0.002555 -0.000723
# 2 -0.001660 0.007228 -0.002393 -0.002587 0.000135 -0.000501
# 3 -0.008500 -0.002393 0.010442 0.000063 0.000954 0.000242
# 4 0.000725 -0.002587 0.000063 0.026170 -0.003133 -0.000893
# 5 -0.002555 0.000135 0.000954 -0.003133 0.021704 0.004574
# 6 -0.000723 -0.000501 0.000242 -0.000893 0.004574 0.029001
#
#
# Mechanical properties :
#
#
# Convention : Reuss Voigt Hill
#
# Bulk Modulus (GPa) = 47.02498 71.63889 59.33193
# Shear Modulus (GPa) = 32.16633 40.59171 36.37902
#
# Velocity S-wave (km/s) = 3.78822 4.25553 4.02866
# Velocity P-wave (km/s) = 6.33355 7.49045 6.93616
#
# Compressibility (1/GPa) = 0.02126530
#
# Stress axis : x y z
#
# Youngs Moduli (GPa) = 34.84132 138.34418 95.76719
#
# Poissons Ratio (x) = 0.22971 0.81397
# Poissons Ratio (y) = 0.05785 0.22921
# Poissons Ratio (z) = 0.29613 0.33111
#
# Static dielectric constant tensor:
#      x y z
#    x 1.871900 0.035780 -0.010530 
#    y 0.035780 1.847490 0.000240 
#    z -0.010530 0.000240 1.853340 
# 
# From -- ./inp_files/353773.got.cif
#   From: 2010.05.17/outbox.cif.g08.bks.cpg/sg2_177_cif.got.tgz:353773.got - 2010.06.03 11:33:40.
