data_PCOD9069616
_publ_section_title
;
Structure prediction by ZEFSAII (Michael W. Deem and Ramdas Pophale) SiO2 
 PCOD9069616
Probable space group: P -1
;
_chemical_formula_sum "Si O2"
_cell_formula_units_Z 12
_cell_length_a 15.477619
_cell_length_b 8.217671
_cell_length_c 9.370058
_cell_angle_alpha 148.446613
_cell_angle_beta 81.509904
_cell_angle_gamma 111.820680
_cell_volume 542.754204
_symmetry_space_group_name_H-M "P -1"
_symmetry_group_IT_number 2
_symmetry_cell_setting 'triclinic'
loop_
_space_group_symop_operation_xyz
x,y,z
-x,-y,-z
loop_
_atom_site_type_symbol
_atom_site_label
_atom_site_fract_x
_atom_site_fract_y
_atom_site_fract_z
Si Si1 0.544785 0.865877 0.175574
Si Si2 0.933010 0.193079 0.181954
Si Si3 0.463783 0.390757 0.586241
Si Si4 0.746855 0.922536 0.230716
Si Si5 0.067316 0.420586 0.819202
Si Si6 0.744241 0.228248 0.760718
O O1 0.662843 0.012827 0.261511
O O2 0.514904 0.156046 0.451415
O O3 0.500000 0.500000 0.000000
O O4 0.500332 0.733430 0.931189
O O5 0.917071 0.359484 0.165296
O O6 0.000000 0.500000 0.500000
O O7 0.831186 0.993644 0.146528
O O8 0.000000 0.000000 0.000000
O O9 0.500000 0.500000 0.500000
O O10 0.345816 0.139629 0.439704
O O11 0.781619 0.134330 0.532077
O O12 0.701869 0.503503 0.953365
O O13 0.170485 0.568591 0.991024
O O14 0.000000 0.000000 0.500000
O O15 0.000000 0.500000 0.000000
#
# Coordination Sequence:
#
# PCOD9069616 Si02
#       6
#     2   2   2   2   2   2
#     4  12  23  46  70 102 140 187 233 277 341 409
#     4  12  26  47  71 101 133 176 232 288 340 409
#     4  12  26  44  69 103 148 183 229 286 340 411
#     4  12  25  43  74 101 138 184 235 283 338 413
#     4  12  26  46  71  99 136 178 224 286 351 411
#     4  12  24  45  69 102 140 185 228 282 351 407
#
# _framework density 22.109452999999998
#
# number of rings (size 3 to 8) (size 9 to 14) (size 15 to 20)
#    0.000    0.000    3.333    8.000    2.333    0.000 
#    3.000    0.000    0.000    0.000    0.000    0.000 
#    0.000    0.000    0.000    0.000    0.000    0.000 
#
# Total GULP energy -67108.009002 kJ/mol
# GULP energy per Si atom -5592.334084 kJ/mol
# Density = 2.205913 g / cm^3
# Si number density = 22.109453 Si / 1000 Ang^3
#
#
#
# Elastic Constant Matrix: (Units=GPa)
#
#
# Indices 1 2 3 4 5 6 
#
# 1 124.4301 40.0224 40.7675 4.1782 9.2269 19.5566
# 2 40.0224 132.3107 35.6237 -19.4100 11.4131 2.4786
# 3 40.7675 35.6237 156.0663 -13.3050 -1.3300 -2.4390
# 4 4.1782 -19.4100 -13.3050 29.6233 -1.3676 -0.7599
# 5 9.2269 11.4131 -1.3300 -1.3676 50.3369 0.5138
# 6 19.5566 2.4786 -2.4390 -0.7599 0.5138 35.4460
#
#
#
# Elastic Compliance Matrix: (Units=1/GPa)
#
#
# Indices 1 2 3 4 5 6 
#
# 1 0.011219 -0.003157 -0.002757 -0.005118 -0.001489 -0.006247
# 2 -0.003157 0.009796 -0.000857 0.006439 -0.001502 0.001158
# 3 -0.002757 -0.000857 0.007652 0.003364 0.000971 0.002166
# 4 -0.005118 0.006439 0.003364 0.040327 0.000627 0.003460
# 5 -0.001489 -0.001502 0.000971 0.000627 0.020515 0.000709
# 6 -0.006247 0.001158 0.002166 0.003460 0.000709 0.031791
#
#
# Mechanical properties :
#
#
# Convention : Reuss Voigt Hill
#
# Bulk Modulus (GPa) = 66.11047 71.73718 68.92382
# Shear Modulus (GPa) = 35.74381 42.84081 39.29231
#
# Velocity S-wave (km/s) = 4.02515 4.40667 4.22023
# Velocity P-wave (km/s) = 7.18114 7.64255 7.41543
#
# Compressibility (1/GPa) = 0.01512620
#
# Stress axis : x y z
#
# Youngs Moduli (GPa) = 89.13163 102.08053 130.68023
#
# Poissons Ratio (x) = 0.32225 0.36026
# Poissons Ratio (y) = 0.28137 0.11202
# Poissons Ratio (z) = 0.24572 0.08750
#
# Static dielectric constant tensor:
#      x y z
#    x 1.807020 0.023410 -0.000210 
#    y 0.023410 1.788560 0.025400 
#    z -0.000210 0.025400 1.733540 
# 
# From -- ./inp_files/206112.got.cif
#   From: 2010.05.17/outbox.cif.g08.bks.cpg/sg2_104_cif.got.tgz:206112.got - 2010.06.03 11:33:40.
