data_PCOD9069531
_publ_section_title
;
Structure prediction by ZEFSAII (Michael W. Deem and Ramdas Pophale) SiO2 
 PCOD9069531
Probable space group: P -1
;
_chemical_formula_sum "Si O2"
_cell_formula_units_Z 16
_cell_length_a 9.197540
_cell_length_b 25.876692
_cell_length_c 8.898014
_cell_angle_alpha 30.938914
_cell_angle_beta 55.737869
_cell_angle_gamma 43.375799
_cell_volume 736.710003
_symmetry_space_group_name_H-M "P -1"
_symmetry_group_IT_number 2
_symmetry_cell_setting 'triclinic'
loop_
_space_group_symop_operation_xyz
x,y,z
-x,-y,-z
loop_
_atom_site_type_symbol
_atom_site_label
_atom_site_fract_x
_atom_site_fract_y
_atom_site_fract_z
Si Si1 0.467244 0.777019 0.376723
Si Si2 0.719265 0.378925 0.737519
Si Si3 0.479119 0.885244 0.789792
Si Si4 0.705731 0.379071 0.108355
Si Si5 0.717210 0.972141 0.016716
Si Si6 0.909718 0.626771 0.651761
Si Si7 0.840972 0.763326 0.655348
Si Si8 0.875440 0.118750 0.171749
O O1 0.325041 0.726380 0.563931
O O2 0.696178 0.670315 0.575923
O O3 0.335556 0.893887 0.269533
O O4 0.512970 0.826339 0.079235
O O5 0.500000 0.500000 0.500000
O O6 0.914712 0.376235 0.549780
O O7 0.717780 0.386617 0.901424
O O8 0.742282 0.252999 0.992792
O O9 0.661582 0.785856 0.817886
O O10 0.263724 0.906201 0.795322
O O11 0.500000 0.000000 0.500000
O O12 0.929316 0.336610 0.159222
O O13 0.500000 0.500000 0.000000
O O14 0.929412 0.889060 0.003931
O O15 0.779403 0.899918 0.318341
O O16 0.500000 0.000000 0.000000
O O17 0.832227 0.721456 0.598561
O O18 0.000000 0.500000 0.000000
O O19 0.000000 0.000000 0.500000
#
# Coordination Sequence:
#
# PCOD9069531 Si02
#       8
#     2   2   2   2   2   2   2   2
#     4  12  26  46  75 108 151 192 249 305 380 442
#     4  12  27  49  77 108 152 194 255 311 377 456
#     4  12  29  45  73 114 155 192 246 314 379 448
#     4  12  29  49  75 109 148 196 250 311 371 446
#     4  12  23  44  76 108 148 192 244 309 370 445
#     4  12  27  48  76 108 144 202 250 306 377 454
#     4  12  25  46  73 103 153 188 246 305 373 437
#     4  12  28  45  78 111 149 200 257 307 381 452
#
# _framework density 21.718178999999999
#
# number of rings (size 3 to 8) (size 9 to 14) (size 15 to 20)
#    0.000    0.000    3.750    5.250   10.500    1.000 
#    0.000    2.500    0.000    0.000    0.000    0.000 
#    0.000    0.000    0.000    0.000    0.000    0.000 
#
# Total GULP energy -89450.624558 kJ/mol
# GULP energy per Si atom -5590.664035 kJ/mol
# Density = 2.166875 g / cm^3
# Si number density = 21.718179 Si / 1000 Ang^3
#
#
#
# Elastic Constant Matrix: (Units=GPa)
#
#
# Indices 1 2 3 4 5 6 
#
# 1 89.1086 27.6551 17.3755 -0.5661 15.0635 -12.9463
# 2 27.6551 126.6064 25.4854 9.1195 3.9444 -2.7835
# 3 17.3755 25.4854 114.1156 -2.7251 14.0839 8.5425
# 4 -0.5661 9.1195 -2.7251 48.1504 1.5469 4.0751
# 5 15.0635 3.9444 14.0839 1.5469 45.2597 -9.2208
# 6 -12.9463 -2.7835 8.5425 4.0751 -9.2208 34.2169
#
#
#
# Elastic Compliance Matrix: (Units=1/GPa)
#
#
# Indices 1 2 3 4 5 6 
#
# 1 0.013407 -0.002466 -0.001457 0.000261 -0.002901 0.004423
# 2 -0.002466 0.008930 -0.001817 -0.001908 0.000814 0.000694
# 3 -0.001457 -0.001817 0.010174 0.001381 -0.003453 -0.004334
# 4 0.000261 -0.001908 0.001381 0.021560 -0.001790 -0.003451
# 5 -0.002901 0.000814 -0.003453 -0.001790 0.025536 0.006925
# 6 0.004423 0.000694 -0.004334 -0.003451 0.006925 0.034314
#
#
# Mechanical properties :
#
#
# Convention : Reuss Voigt Hill
#
# Bulk Modulus (GPa) = 47.55066 52.31808 49.93437
# Shear Modulus (GPa) = 37.76071 42.81303 40.28687
#
# Velocity S-wave (km/s) = 4.17426 4.44475 4.31162
# Velocity P-wave (km/s) = 6.72120 7.10513 6.91583
#
# Compressibility (1/GPa) = 0.02103020
#
# Stress axis : x y z
#
# Youngs Moduli (GPa) = 74.59049 111.97889 98.28739
#
# Poissons Ratio (x) = 0.27617 0.14323
# Poissons Ratio (y) = 0.18396 0.17858
# Poissons Ratio (z) = 0.10870 0.20345
#
# Static dielectric constant tensor:
#      x y z
#    x 1.764010 0.048290 -0.016830 
#    y 0.048290 1.782240 -0.037610 
#    z -0.016830 -0.037610 1.858070 
# 
# From -- ./inp_files/227235.got.cif
#   From: 2010.05.17/outbox.cif.g08.bks.cpg/sg2_114_cif.got.tgz:227235.got - 2010.06.03 11:33:40.
