data_PCOD9069908
_publ_section_title
;
Structure prediction by ZEFSAII (Michael W. Deem and Ramdas Pophale) SiO2 
 PCOD9069908
Probable space group: P -1
;
_chemical_formula_sum "Si O2"
_cell_formula_units_Z 15
_cell_length_a 10.997107
_cell_length_b 23.309235
_cell_length_c 11.261158
_cell_angle_alpha 143.209522
_cell_angle_beta 154.238150
_cell_angle_gamma 31.893663
_cell_volume 654.586907
_symmetry_space_group_name_H-M "P -1"
_symmetry_group_IT_number 2
_symmetry_cell_setting 'triclinic'
loop_
_space_group_symop_operation_xyz
x,y,z
-x,-y,-z
loop_
_atom_site_type_symbol
_atom_site_label
_atom_site_fract_x
_atom_site_fract_y
_atom_site_fract_z
Si Si1 0.936057 0.540404 0.145452
Si Si2 0.200251 0.996073 0.283136
Si Si3 0.075785 0.710563 0.888715
Si Si4 0.577181 0.881666 0.915877
Si Si5 0.000000 0.500000 0.500000
Si Si6 0.599766 0.756231 0.338761
Si Si7 0.946025 0.170200 0.552668
Si Si8 0.468108 0.574659 0.354418
O O1 0.740782 0.671794 0.212445
O O2 0.271474 0.496398 0.434630
O O3 0.747410 0.484153 0.950146
O O4 0.000000 0.500000 0.000000
O O5 0.343602 0.880276 0.286528
O O6 0.500000 0.000000 0.500000
O O7 0.012670 0.099751 0.375847
O O8 0.000000 0.000000 0.000000
O O9 0.856507 0.794653 0.934408
O O10 0.888724 0.748568 0.660397
O O11 0.102234 0.595127 0.748204
O O12 0.413749 0.707501 0.171584
O O13 0.270944 0.864159 0.614888
O O14 0.720299 0.863769 0.144442
O O15 0.500000 0.000000 0.000000
O O16 0.318619 0.426080 0.569529
O O17 0.753984 0.301404 0.590010
#
# Coordination Sequence:
#
# PCOD9069908 Si02
#       8
#     2   2   2   2   1   2   2   2
#     4  12  27  46  72 102 139 190 237 296 354 428
#     4  12  28  48  75  99 134 185 239 300 352 414
#     4  12  25  42  71 101 145 181 229 283 357 430
#     4  12  24  43  69  99 136 182 221 280 339 417
#     4  12  24  46  68 110 146 186 238 276 370 418
#     4  12  25  47  68 103 139 186 235 296 352 423
#     4  12  26  45  68 103 138 175 232 284 344 408
#     4  12  27  45  73 105 145 184 236 292 359 430
#
# _framework density 22.915213999999999
#
# number of rings (size 3 to 8) (size 9 to 14) (size 15 to 20)
#    0.000    0.000    4.000    5.600    3.733    1.067 
#    0.000    0.000    0.000    0.000    0.000    0.000 
#    0.000    0.000    0.000    0.000    0.000    0.000 
#
# Total GULP energy -83817.443738 kJ/mol
# GULP energy per Si atom -5587.829583 kJ/mol
# Density = 2.286306 g / cm^3
# Si number density = 22.915214 Si / 1000 Ang^3
#
#
#
# Elastic Constant Matrix: (Units=GPa)
#
#
# Indices 1 2 3 4 5 6 
#
# 1 68.4383 12.7164 1.1459 3.9890 -6.7353 -24.9813
# 2 12.7164 130.1349 18.3495 30.6445 -17.9864 -22.1680
# 3 1.1459 18.3495 89.2284 -1.1509 -4.3875 -3.8477
# 4 3.9890 30.6445 -1.1509 37.9886 -1.0036 -2.4567
# 5 -6.7353 -17.9864 -4.3875 -1.0036 48.7761 10.3589
# 6 -24.9813 -22.1680 -3.8477 -2.4567 10.3589 38.5077
#
#
#
# Elastic Compliance Matrix: (Units=1/GPa)
#
#
# Indices 1 2 3 4 5 6 
#
# 1 0.019253 0.000712 0.000143 -0.001762 0.000190 0.012750
# 2 0.000712 0.011292 -0.002075 -0.008822 0.002735 0.005456
# 3 0.000143 -0.002075 0.011679 0.002028 0.000324 0.000107
# 4 -0.001762 -0.008822 0.002028 0.033418 -0.001910 -0.003373
# 5 0.000190 0.002735 0.000324 -0.001910 0.022469 -0.004436
# 6 0.012750 0.005456 0.000107 -0.003373 -0.004436 0.038370
#
#
# Mechanical properties :
#
#
# Convention : Reuss Voigt Hill
#
# Bulk Modulus (GPa) = 25.13705 39.13614 32.13659
# Shear Modulus (GPa) = 32.85516 42.09381 37.47449
#
# Velocity S-wave (km/s) = 3.79062 4.29060 4.04834
# Velocity P-wave (km/s) = 5.49107 6.45457 5.99221
#
# Compressibility (1/GPa) = 0.03978191
#
# Stress axis : x y z
#
# Youngs Moduli (GPa) = 51.94114 88.55560 85.62480
#
# Poissons Ratio (x) = -0.06302 -0.01223
# Poissons Ratio (y) = -0.03696 0.17770
# Poissons Ratio (z) = -0.00742 0.18378
#
# Static dielectric constant tensor:
#      x y z
#    x 1.881260 0.054810 -0.020200 
#    y 0.054810 1.940170 0.022080 
#    z -0.020200 0.022080 1.813080 
# 
# From -- ./inp_files/439534.got.cif
#   From: 2010.05.17/outbox.cif.g08.bks.cpg/sg2_220_cif.got.tgz:439534.got - 2010.06.03 11:33:40.
