data_PCOD9069229
_publ_section_title
;
Structure prediction by ZEFSAII (Michael W. Deem and Ramdas Pophale) SiO2 
 PCOD9069229
Probable space group: P -1
;
_chemical_formula_sum "Si O2"
_cell_formula_units_Z 14
_cell_length_a 16.788548
_cell_length_b 11.678685
_cell_length_c 9.680834
_cell_angle_alpha 122.414292
_cell_angle_beta 121.901287
_cell_angle_gamma 20.263945
_cell_volume 552.841910
_symmetry_space_group_name_H-M "P -1"
_symmetry_group_IT_number 2
_symmetry_cell_setting 'triclinic'
loop_
_space_group_symop_operation_xyz
x,y,z
-x,-y,-z
loop_
_atom_site_type_symbol
_atom_site_label
_atom_site_fract_x
_atom_site_fract_y
_atom_site_fract_z
Si Si1 0.470593 0.282289 0.505923
Si Si2 0.900550 0.806856 0.743777
Si Si3 0.018761 0.792901 0.322641
Si Si4 0.157958 0.216342 0.712227
Si Si5 0.242429 0.793244 0.916981
Si Si6 0.689336 0.611561 0.293328
Si Si7 0.648268 0.872895 0.932486
O O1 0.214255 0.646189 0.445762
O O2 0.409877 0.256373 0.556519
O O3 0.648054 0.144604 0.662084
O O4 0.631924 0.033843 0.362916
O O5 0.957524 0.586870 0.723969
O O6 0.098912 0.568213 0.658536
O O7 0.916159 0.905182 0.934240
O O8 0.174048 0.471805 0.183625
O O9 0.904938 0.859257 0.386451
O O10 0.831172 0.081456 0.225606
O O11 0.235017 0.157154 0.898922
O O12 0.223052 0.657879 0.826526
O O13 0.500000 0.500000 0.000000
O O14 0.503134 0.883170 0.178848
O O15 0.500000 0.000000 0.000000
#
# Coordination Sequence:
#
# PCOD9069229 Si02
#       7
#     2   2   2   2   2   2   2
#     4  12  27  47  71 114 153 186 240 303 377 431
#     4  12  25  46  74 110 143 193 246 300 361 433
#     4  12  26  47  77 106 148 195 242 306 360 430
#     4  12  25  44  77 112 146 188 246 304 366 432
#     4  12  26  51  76 107 146 198 253 292 360 438
#     4  12  26  48  78 106 151 194 240 304 364 437
#     4  12  22  46  77 111 140 188 252 300 358 429
#
# _framework density 25.323696999999999
#
# number of rings (size 3 to 8) (size 9 to 14) (size 15 to 20)
#    0.000    0.000    5.714    3.857    0.000    4.571 
#    2.571    1.429    0.000    0.000    0.000    0.000 
#    0.000    0.000    0.000    0.000    0.000    0.000 
#
# Total GULP energy -78388.525650 kJ/mol
# GULP energy per Si atom -5599.180404 kJ/mol
# Density = 2.526606 g / cm^3
# Si number density = 25.323697 Si / 1000 Ang^3
#
#
#
# Elastic Constant Matrix: (Units=GPa)
#
#
# Indices 1 2 3 4 5 6 
#
# 1 121.7039 46.9426 22.0878 -16.1423 -15.1328 -14.1439
# 2 46.9426 145.0948 46.3806 -39.9829 -14.9726 -4.3688
# 3 22.0878 46.3806 150.9921 -22.6777 -16.4949 -2.2561
# 4 -16.1423 -39.9829 -22.6777 52.0736 -4.4725 -3.6994
# 5 -15.1328 -14.9726 -16.4949 -4.4725 49.4755 3.6155
# 6 -14.1439 -4.3688 -2.2561 -3.6994 3.6155 48.4801
#
#
#
# Elastic Compliance Matrix: (Units=1/GPa)
#
#
# Indices 1 2 3 4 5 6 
#
# 1 0.009973 -0.002442 -0.000205 0.001502 0.002186 0.002631
# 2 -0.002442 0.010285 -0.001520 0.006721 0.002432 0.000475
# 3 -0.000205 -0.001520 0.007719 0.002336 0.002249 0.000173
# 4 0.001502 0.006721 0.002336 0.026513 0.005467 0.002768
# 5 0.002186 0.002432 0.002249 0.005467 0.022885 -0.000328
# 6 0.002631 0.000475 0.000173 0.002768 -0.000328 0.021681
#
#
# Mechanical properties :
#
#
# Convention : Reuss Voigt Hill
#
# Bulk Modulus (GPa) = 50.90980 72.06808 61.48894
# Shear Modulus (GPa) = 43.88349 50.16448 47.02399
#
# Velocity S-wave (km/s) = 4.16733 4.45559 4.31387
# Velocity P-wave (km/s) = 6.58049 7.41554 7.01046
#
# Compressibility (1/GPa) = 0.01964258
#
# Stress axis : x y z
#
# Youngs Moduli (GPa) = 100.27349 97.22599 129.55118
#
# Poissons Ratio (x) = 0.23746 0.02655
# Poissons Ratio (y) = 0.24490 0.19691
# Poissons Ratio (z) = 0.02055 0.14778
#
# Static dielectric constant tensor:
#      x y z
#    x 2.075540 0.001390 0.085500 
#    y 0.001390 2.008820 0.033600 
#    z 0.085500 0.033600 2.058330 
# 
# From -- ./inp_files/333537.got.cif
#   From: 2010.05.17/outbox.cif.g08.bks.cpg/sg2_167_cif.got.tgz:333537.got - 2010.06.03 11:33:40.
