data_PCOD9069782
_publ_section_title
;
Structure prediction by ZEFSAII (Michael W. Deem and Ramdas Pophale) SiO2 
 PCOD9069782
Probable space group: P -1
;
_chemical_formula_sum "Si O2"
_cell_formula_units_Z 15
_cell_length_a 9.173151
_cell_length_b 18.563994
_cell_length_c 8.352368
_cell_angle_alpha 61.679447
_cell_angle_beta 32.317295
_cell_angle_gamma 55.628487
_cell_volume 627.607203
_symmetry_space_group_name_H-M "P -1"
_symmetry_group_IT_number 2
_symmetry_cell_setting 'triclinic'
loop_
_space_group_symop_operation_xyz
x,y,z
-x,-y,-z
loop_
_atom_site_type_symbol
_atom_site_label
_atom_site_fract_x
_atom_site_fract_y
_atom_site_fract_z
Si Si1 0.261222 0.231796 0.002334
Si Si2 0.136546 0.401845 0.150760
Si Si3 0.500000 0.500000 0.500000
Si Si4 0.345832 0.552645 0.877398
Si Si5 0.268541 0.786678 0.671464
Si Si6 0.886480 0.019310 0.263620
Si Si7 0.761647 0.625994 0.545800
Si Si8 0.504154 0.051609 0.103849
O O1 0.220602 0.319120 0.046274
O O2 0.300200 0.151525 0.170272
O O3 0.013789 0.234167 0.100181
O O4 0.557583 0.206688 0.654874
O O5 0.146889 0.373125 0.356395
O O6 0.827779 0.467809 0.315498
O O7 0.349976 0.460562 0.883928
O O8 0.396796 0.590707 0.620171
O O9 0.605902 0.553593 0.748975
O O10 0.041797 0.597220 0.200951
O O11 0.501303 0.713050 0.642345
O O12 0.172652 0.879806 0.748789
O O13 0.611590 0.994114 0.598173
O O14 0.161567 0.959561 0.172925
O O15 0.000000 0.000000 0.000000
O O16 0.500000 0.000000 0.000000
#
# Coordination Sequence:
#
# PCOD9069782 Si02
#       8
#     2   2   1   2   2   2   2   2
#     4  12  28  45  76 105 151 186 252 301 360 441
#     4  12  29  47  75 109 142 195 248 305 367 438
#     4  12  26  46  74 102 138 184 250 290 360 430
#     4  12  27  50  73 103 142 195 242 305 364 438
#     4  12  25  49  69 110 146 195 235 306 370 435
#     4  12  26  46  78 109 152 193 245 302 374 437
#     4  12  28  47  75 103 150 190 243 304 377 431
#     4  12  23  49  75 108 141 200 244 299 365 446
#
# _framework density 23.900296999999998
#
# number of rings (size 3 to 8) (size 9 to 14) (size 15 to 20)
#    0.000    0.000    4.000    5.200    7.467    0.000 
#    2.400    0.000    0.000    0.000    0.000    0.000 
#    0.000    0.000    0.000    0.000    0.000    0.000 
#
# Total GULP energy -83850.025220 kJ/mol
# GULP energy per Si atom -5590.001681 kJ/mol
# Density = 2.384590 g / cm^3
# Si number density = 23.900297 Si / 1000 Ang^3
#
#
#
# Elastic Constant Matrix: (Units=GPa)
#
#
# Indices 1 2 3 4 5 6 
#
# 1 123.3082 47.9182 44.6116 16.0603 6.5049 8.1833
# 2 47.9182 163.9840 43.7158 16.7962 9.6831 14.1286
# 3 44.6116 43.7158 147.8764 8.9835 0.6417 23.5919
# 4 16.0603 16.7962 8.9835 38.4598 2.5441 1.8466
# 5 6.5049 9.6831 0.6417 2.5441 48.9338 9.2105
# 6 8.1833 14.1286 23.5919 1.8466 9.2105 44.4365
#
#
#
# Elastic Compliance Matrix: (Units=1/GPa)
#
#
# Indices 1 2 3 4 5 6 
#
# 1 0.010125 -0.002032 -0.002332 -0.002756 -0.000827 0.000305
# 2 -0.002032 0.007375 -0.001280 -0.001966 -0.000877 -0.001028
# 3 -0.002332 -0.001280 0.008482 -0.000341 0.001204 -0.003902
# 4 -0.002756 -0.001966 -0.000341 0.028126 -0.000759 0.000302
# 5 -0.000827 -0.000877 0.001204 -0.000759 0.021620 -0.004658
# 6 0.000305 -0.001028 -0.003902 0.000302 -0.004658 0.025799
#
#
# Mechanical properties :
#
#
# Convention : Reuss Voigt Hill
#
# Bulk Modulus (GPa) = 68.05071 78.62886 73.33979
# Shear Modulus (GPa) = 42.47607 46.29422 44.38514
#
# Velocity S-wave (km/s) = 4.22028 4.40588 4.31408
# Velocity P-wave (km/s) = 7.23065 7.67154 7.45435
#
# Compressibility (1/GPa) = 0.01469492
#
# Stress axis : x y z
#
# Youngs Moduli (GPa) = 98.76127 135.59495 117.89350
#
# Poissons Ratio (x) = 0.27558 0.27487
# Poissons Ratio (y) = 0.20072 0.15089
# Poissons Ratio (z) = 0.23027 0.17355
#
# Static dielectric constant tensor:
#      x y z
#    x 2.535650 -0.381990 0.929500 
#    y -0.381990 2.189100 -0.589310 
#    z 0.929500 -0.589310 3.172260 
# 
# From -- ./inp_files/217246.got.cif
#   From: 2010.05.17/outbox.cif.g08.bks.cpg/sg2_109_cif.got.tgz:217246.got - 2010.06.03 11:33:40.
