data_PCOD9069090
_publ_section_title
;
Structure prediction by ZEFSAII (Michael W. Deem and Ramdas Pophale) SiO2 
 PCOD9069090
Probable space group: P -1
;
_chemical_formula_sum "Si O2"
_cell_formula_units_Z 12
_cell_length_a 8.721087
_cell_length_b 9.644083
_cell_length_c 9.098531
_cell_angle_alpha 139.951132
_cell_angle_beta 88.946829
_cell_angle_gamma 95.057468
_cell_volume 489.034034
_symmetry_space_group_name_H-M "P -1"
_symmetry_group_IT_number 2
_symmetry_cell_setting 'triclinic'
loop_
_space_group_symop_operation_xyz
x,y,z
-x,-y,-z
loop_
_atom_site_type_symbol
_atom_site_label
_atom_site_fract_x
_atom_site_fract_y
_atom_site_fract_z
Si Si1 0.391816 0.835716 0.419894
Si Si2 0.369894 0.382318 0.855018
Si Si3 0.830773 0.463758 0.262995
Si Si4 0.057478 0.874275 0.536846
Si Si5 0.862531 0.731220 0.978772
Si Si6 0.647326 0.423637 0.515381
O O1 0.203544 0.777685 0.385198
O O2 0.419616 0.778022 0.544246
O O3 0.400644 0.101318 0.590563
O O4 0.433785 0.613930 0.147861
O O5 0.315207 0.504784 0.811881
O O6 0.217969 0.324666 0.908497
O O7 0.766179 0.375849 0.347736
O O8 0.922143 0.702970 0.459857
O O9 0.964735 0.331691 0.091314
O O10 0.000000 0.000000 0.500000
O O11 0.115937 0.011518 0.790930
O O12 0.744131 0.615125 0.766564
O O13 0.500000 0.500000 0.500000
#
# Coordination Sequence:
#
# PCOD9069090 Si02
#       6
#     2   2   2   2   2   2
#     4  12  24  45  73 104 150 185 242 304 357 433
#     4  12  22  42  73 104 136 195 247 289 363 436
#     4  12  25  48  71 104 154 187 244 310 361 432
#     4  12  26  44  74 112 144 188 247 303 360 435
#     4  12  25  43  76 105 143 197 243 293 373 435
#     4  12  26  50  72 104 150 196 239 309 372 429
#
# _framework density 24.538167999999999
#
# number of rings (size 3 to 8) (size 9 to 14) (size 15 to 20)
#    0.000    0.000    8.333    1.000    2.333    0.667 
#    0.000    0.833    0.000    0.000    0.000    0.000 
#    0.000    0.000    0.000    0.000    0.000    0.000 
#
# Total GULP energy -66899.256961 kJ/mol
# GULP energy per Si atom -5574.938080 kJ/mol
# Density = 2.448232 g / cm^3
# Si number density = 24.538168 Si / 1000 Ang^3
#
#
#
# Elastic Constant Matrix: (Units=GPa)
#
#
# Indices 1 2 3 4 5 6 
#
# 1 166.0864 64.8904 75.4699 -8.5704 -23.1286 0.5805
# 2 64.8904 171.2176 46.4008 -11.2682 -10.8749 15.2833
# 3 75.4699 46.4008 128.4365 -9.0656 -22.4231 -4.4088
# 4 -8.5704 -11.2682 -9.0656 30.5610 10.6371 -2.7304
# 5 -23.1286 -10.8749 -22.4231 10.6371 60.9046 -0.5496
# 6 0.5805 15.2833 -4.4088 -2.7304 -0.5496 61.3919
#
#
#
# Elastic Compliance Matrix: (Units=1/GPa)
#
#
# Indices 1 2 3 4 5 6 
#
# 1 0.009006 -0.002187 -0.004241 -0.000038 0.001476 0.000166
# 2 -0.002187 0.007284 -0.001351 0.001623 -0.000327 -0.001821
# 3 -0.004241 -0.001351 0.011252 0.001023 0.002123 0.001249
# 4 -0.000038 0.001623 0.001023 0.035657 -0.005565 0.001206
# 5 0.001476 -0.000327 0.002123 -0.005565 0.018676 0.000140
# 6 0.000166 -0.001821 0.001249 0.001206 0.000140 0.016885
#
#
# Mechanical properties :
#
#
# Convention : Reuss Voigt Hill
#
# Bulk Modulus (GPa) = 83.45403 93.25143 88.35273
# Shear Modulus (GPa) = 42.26066 49.17015 45.71541
#
# Velocity S-wave (km/s) = 4.15449 4.48126 4.32097
# Velocity P-wave (km/s) = 7.55624 8.05362 7.80889
#
# Compressibility (1/GPa) = 0.01198265
#
# Stress axis : x y z
#
# Youngs Moduli (GPa) = 111.04198 137.28207 88.87429
#
# Poissons Ratio (x) = 0.30029 0.37689
# Poissons Ratio (y) = 0.24289 0.12010
# Poissons Ratio (z) = 0.47090 0.18552
#
# Static dielectric constant tensor:
#      x y z
#    x 2.006410 -0.020500 -0.058320 
#    y -0.020500 1.998340 0.078080 
#    z -0.058320 0.078080 2.147010 
# 
# From -- ./inp_files/233057.got.cif
#   From: 2010.05.17/outbox.cif.g08.bks.cpg/sg2_117_cif.got.tgz:233057.got - 2010.06.03 11:33:40.
