data_PCOD9069892
_publ_section_title
;
Structure prediction by ZEFSAII (Michael W. Deem and Ramdas Pophale) SiO2 
 PCOD9069892
Probable space group: P -1
;
_chemical_formula_sum "Si O2"
_cell_formula_units_Z 10
_cell_length_a 8.629199
_cell_length_b 7.359996
_cell_length_c 10.746912
_cell_angle_alpha 120.836191
_cell_angle_beta 140.011121
_cell_angle_gamma 76.175495
_cell_volume 361.702776
_symmetry_space_group_name_H-M "P -1"
_symmetry_group_IT_number 2
_symmetry_cell_setting 'triclinic'
loop_
_space_group_symop_operation_xyz
x,y,z
-x,-y,-z
loop_
_atom_site_type_symbol
_atom_site_label
_atom_site_fract_x
_atom_site_fract_y
_atom_site_fract_z
Si Si1 0.777287 0.592145 0.513081
Si Si2 0.474821 0.696669 0.958870
Si Si3 0.736009 0.333407 0.739528
Si Si4 0.171897 0.840299 0.012757
Si Si5 0.976484 0.047969 0.645725
O O1 0.723325 0.407365 0.308029
O O2 0.501922 0.577147 0.391067
O O3 0.973071 0.619470 0.756201
O O4 0.884033 0.826739 0.590867
O O5 0.382735 0.872495 0.046475
O O6 0.500000 0.500000 0.000000
O O7 0.742776 0.803631 0.098778
O O8 0.786004 0.189068 0.607160
O O9 0.690048 0.188504 0.786421
O O10 0.000000 0.500000 0.000000
O O11 0.000000 0.000000 0.000000
O O12 0.000000 0.000000 0.500000
#
# Coordination Sequence:
#
# PCOD9069892 Si02
#       5
#     2   2   2   2   2
#     4  12  26  47  76 104 150 193 244 302 367 436
#     4  12  24  49  72 107 151 192 244 299 364 440
#     4  12  25  50  74 107 150 194 245 302 367 441
#     4  12  27  47  75 111 148 191 248 306 363 436
#     4  12  24  42  76 107 142 199 239 299 368 430
#
# _framework density 27.647008
#
# number of rings (size 3 to 8) (size 9 to 14) (size 15 to 20)
#    0.000    0.000    8.000    1.200    2.800    1.600 
#    0.000    0.000    0.000    0.000    0.000    0.000 
#    0.000    0.000    0.000    0.000    0.000    0.000 
#
# Total GULP energy -56085.755175 kJ/mol
# GULP energy per Si atom -5608.575517 kJ/mol
# Density = 2.758408 g / cm^3
# Si number density = 27.647008 Si / 1000 Ang^3
#
#
#
# Elastic Constant Matrix: (Units=GPa)
#
#
# Indices 1 2 3 4 5 6 
#
# 1 174.7221 42.8921 46.0821 14.1521 -15.8678 -40.5214
# 2 42.8921 75.6362 0.1874 -0.4531 -6.9841 -0.4256
# 3 46.0821 0.1874 158.5219 1.9558 -3.5266 -0.2969
# 4 14.1521 -0.4531 1.9558 47.1859 2.3710 3.3659
# 5 -15.8678 -6.9841 -3.5266 2.3710 81.2905 8.5561
# 6 -40.5214 -0.4256 -0.2969 3.3659 8.5561 57.4093
#
#
#
# Elastic Compliance Matrix: (Units=1/GPa)
#
#
# Indices 1 2 3 4 5 6 
#
# 1 0.009714 -0.005420 -0.002748 -0.003378 0.000684 0.006898
# 2 -0.005420 0.016352 0.001542 0.001960 0.000770 -0.003926
# 3 -0.002748 0.001542 0.007095 0.000679 0.000089 -0.001944
# 4 -0.003378 0.001960 0.000679 0.022489 -0.000741 -0.003574
# 5 0.000684 0.000770 0.000089 -0.000741 0.012669 -0.001356
# 6 0.006898 -0.003926 -0.001944 -0.003574 -0.001356 0.022660
#
#
# Mechanical properties :
#
#
# Convention : Reuss Voigt Hill
#
# Bulk Modulus (GPa) = 50.22816 65.24485 57.73651
# Shear Modulus (GPa) = 45.09849 58.49170 51.79509
#
# Velocity S-wave (km/s) = 4.04322 4.60462 4.33302
# Velocity P-wave (km/s) = 6.32487 7.20559 6.77955
#
# Compressibility (1/GPa) = 0.01990915
#
# Stress axis : x y z
#
# Youngs Moduli (GPa) = 102.94127 61.15512 140.94107
#
# Poissons Ratio (x) = 0.33148 0.38727
# Poissons Ratio (y) = 0.55797 -0.21732
# Poissons Ratio (z) = 0.28285 -0.09430
#
# Static dielectric constant tensor:
#      x y z
#    x 2.213100 0.067670 0.066810 
#    y 0.067670 2.176560 0.043150 
#    z 0.066810 0.043150 2.190550 
# 
# From -- ./inp_files/146746.got.cif
#   From: 2010.05.17/outbox.cif.g08.bks.cpg/sg2_74_cif.got.tgz:146746.got - 2010.06.03 11:33:40.
