data_PCOD9069252
_publ_section_title
;
Structure prediction by ZEFSAII (Michael W. Deem and Ramdas Pophale) SiO2 
 PCOD9069252
Probable space group: P -1
;
_chemical_formula_sum "Si O2"
_cell_formula_units_Z 13
_cell_length_a 9.878785
_cell_length_b 13.714416
_cell_length_c 8.913281
_cell_angle_alpha 80.692931
_cell_angle_beta 132.148889
_cell_angle_gamma 132.516420
_cell_volume 557.981596
_symmetry_space_group_name_H-M "P -1"
_symmetry_group_IT_number 2
_symmetry_cell_setting 'triclinic'
loop_
_space_group_symop_operation_xyz
x,y,z
-x,-y,-z
loop_
_atom_site_type_symbol
_atom_site_label
_atom_site_fract_x
_atom_site_fract_y
_atom_site_fract_z
Si Si1 0.500000 0.500000 0.500000
Si Si2 0.295611 0.942890 0.998274
Si Si3 0.827991 0.831258 0.464601
Si Si4 0.311116 0.634823 0.343883
Si Si5 0.740776 0.685394 0.130655
Si Si6 0.667035 0.848708 0.842695
Si Si7 0.017934 0.319111 0.947053
O O1 0.295705 0.511342 0.389944
O O2 0.679609 0.581127 0.773605
O O3 0.988060 0.843154 0.717949
O O4 0.231393 0.829138 0.094866
O O5 0.500000 0.000000 0.000000
O O6 0.406839 0.084894 0.134332
O O7 0.521566 0.731200 0.331656
O O8 0.817375 0.752520 0.337512
O O9 0.000000 0.000000 0.500000
O O10 0.478544 0.753163 0.579327
O O11 0.030182 0.584616 0.130668
O O12 0.992592 0.742981 0.202854
O O13 0.500000 0.500000 0.000000
O O14 0.643949 0.744182 0.958792
O O15 0.000000 0.000000 0.000000
#
# Coordination Sequence:
#
# PCOD9069252 Si02
#       7
#     1   2   2   2   2   2   2
#     4  12  22  50  70  98 146 188 244 294 376 446
#     4  12  26  45  73 109 147 194 255 318 365 447
#     4  12  23  44  72 106 149 195 252 307 372 445
#     4  12  26  45  76 104 143 198 246 305 370 455
#     4  12  26  45  72 109 151 196 246 313 379 445
#     4  12  22  49  73 101 153 200 246 309 379 439
#     4  12  27  48  75 107 144 197 250 308 380 445
#
# _framework density 23.298261
#
# number of rings (size 3 to 8) (size 9 to 14) (size 15 to 20)
#    0.000    0.000    7.692    2.308    2.154    0.615 
#    0.000    0.769    0.000    0.000    0.000    0.000 
#    0.000    0.000    0.000    0.000    0.000    0.000 
#
# Total GULP energy -72562.859394 kJ/mol
# GULP energy per Si atom -5581.758415 kJ/mol
# Density = 2.324523 g / cm^3
# Si number density = 23.298261 Si / 1000 Ang^3
#
#
#
# Elastic Constant Matrix: (Units=GPa)
#
#
# Indices 1 2 3 4 5 6 
#
# 1 158.3561 35.2351 29.1406 3.4537 -32.6126 -25.5313
# 2 35.2351 122.1114 24.7664 -4.6655 -10.6807 -17.3991
# 3 29.1406 24.7664 89.5794 -4.3866 -12.2349 -17.1657
# 4 3.4537 -4.6655 -4.3866 30.3244 -19.4892 -0.1598
# 5 -32.6126 -10.6807 -12.2349 -19.4892 50.7802 0.8521
# 6 -25.5313 -17.3991 -17.1657 -0.1598 0.8521 52.3198
#
#
#
# Elastic Compliance Matrix: (Units=1/GPa)
#
#
# Indices 1 2 3 4 5 6 
#
# 1 0.008428 -0.001171 -0.000848 0.002533 0.005878 0.003357
# 2 -0.001171 0.009367 -0.001445 0.002540 0.001811 0.002048
# 3 -0.000848 -0.001445 0.013243 0.004350 0.003955 0.003400
# 4 0.002533 0.002540 0.004350 0.047459 0.021368 0.003305
# 5 0.005878 0.001811 0.003955 0.021368 0.032930 0.004297
# 6 0.003357 0.002048 0.003400 0.003305 0.004297 0.022488
#
#
# Mechanical properties :
#
#
# Convention : Reuss Voigt Hill
#
# Bulk Modulus (GPa) = 41.47350 60.92565 51.19958
# Shear Modulus (GPa) = 33.58433 45.41188 39.49811
#
# Velocity S-wave (km/s) = 3.80082 4.41971 4.12190
# Velocity P-wave (km/s) = 6.09109 7.22857 6.68407
#
# Compressibility (1/GPa) = 0.02411178
#
# Stress axis : x y z
#
# Youngs Moduli (GPa) = 118.65308 106.75389 75.51092
#
# Poissons Ratio (x) = 0.12497 0.06402
# Poissons Ratio (y) = 0.13890 0.10910
# Poissons Ratio (z) = 0.10060 0.15424
#
# Static dielectric constant tensor:
#      x y z
#    x 1.678570 -0.291840 -0.107020 
#    y -0.291840 1.471030 -0.136620 
#    z -0.107020 -0.136620 1.838410 
# 
# From -- ./inp_files/179649.got.cif
#   From: 2010.05.17/outbox.cif.g08.bks.cpg/sg2_90_cif.got.tgz:179649.got - 2010.06.03 11:33:40.
