data_PCOD9069376
_publ_section_title
;
Structure prediction by ZEFSAII (Michael W. Deem and Ramdas Pophale) SiO2 
 PCOD9069376
Probable space group: P -1
;
_chemical_formula_sum "Si O2"
_cell_formula_units_Z 14
_cell_length_a 9.035807
_cell_length_b 11.897952
_cell_length_c 9.405795
_cell_angle_alpha 121.226194
_cell_angle_beta 134.671325
_cell_angle_gamma 63.032808
_cell_volume 608.309611
_symmetry_space_group_name_H-M "P -1"
_symmetry_group_IT_number 2
_symmetry_cell_setting 'triclinic'
loop_
_space_group_symop_operation_xyz
x,y,z
-x,-y,-z
loop_
_atom_site_type_symbol
_atom_site_label
_atom_site_fract_x
_atom_site_fract_y
_atom_site_fract_z
Si Si1 0.563283 0.246695 0.552799
Si Si2 0.026226 0.582265 0.429463
Si Si3 0.009818 0.941814 0.306344
Si Si4 0.551952 0.650901 0.148030
Si Si5 0.256467 0.820981 0.839891
Si Si6 0.635481 0.789038 0.887770
Si Si7 0.221800 0.500286 0.225802
O O1 0.461670 0.297831 0.665883
O O2 0.403592 0.200136 0.299976
O O3 0.670842 0.370776 0.646802
O O4 0.756950 0.127809 0.617590
O O5 0.793343 0.639086 0.253451
O O6 0.000000 0.500000 0.500000
O O7 0.147237 0.703754 0.623743
O O8 0.162702 0.493767 0.347055
O O9 0.923948 0.052845 0.204059
O O10 0.849053 0.834605 0.113930
O O11 0.000000 0.000000 0.500000
O O12 0.500000 0.500000 0.000000
O O13 0.384684 0.755661 0.018805
O O14 0.433586 0.861560 0.880455
O O15 0.636473 0.632862 0.816716
O O16 0.000000 0.500000 0.000000
#
# Coordination Sequence:
#
# PCOD9069376 Si02
#       7
#     2   2   2   2   2   2   2
#     4  12  26  47  73 111 144 190 248 303 357 441
#     4  12  25  45  70 106 150 184 236 305 367 430
#     4  12  27  49  75 107 147 191 256 301 352 438
#     4  12  27  46  72 109 153 186 237 302 376 433
#     4  12  27  45  73 105 146 199 238 297 371 429
#     4  12  25  44  79 106 143 189 250 306 362 427
#     4  12  23  42  72 107 141 185 242 303 363 419
#
# _framework density 23.014596999999998
#
# number of rings (size 3 to 8) (size 9 to 14) (size 15 to 20)
#    0.000    0.000    5.714    4.286    2.000    1.714 
#    0.000    1.429    0.000    0.000    0.000    0.000 
#    0.000    0.000    0.000    0.000    0.000    0.000 
#
# Total GULP energy -78392.818196 kJ/mol
# GULP energy per Si atom -5599.487014 kJ/mol
# Density = 2.296221 g / cm^3
# Si number density = 23.014597 Si / 1000 Ang^3
#
#
#
# Elastic Constant Matrix: (Units=GPa)
#
#
# Indices 1 2 3 4 5 6 
#
# 1 64.9953 7.9547 25.8119 5.4778 -8.0197 -7.6503
# 2 7.9547 118.8135 20.1123 -19.7061 -4.4628 -8.1510
# 3 25.8119 20.1123 128.9979 -9.6039 1.8288 3.6154
# 4 5.4778 -19.7061 -9.6039 34.7492 -1.8450 4.2319
# 5 -8.0197 -4.4628 1.8288 -1.8450 43.2217 -5.2327
# 6 -7.6503 -8.1510 3.6154 4.2319 -5.2327 35.1705
#
#
#
# Elastic Compliance Matrix: (Units=1/GPa)
#
#
# Indices 1 2 3 4 5 6 
#
# 1 0.018730 -0.000852 -0.004203 -0.005055 0.004017 0.005515
# 2 -0.000852 0.009677 -0.001018 0.005199 0.001316 0.001732
# 3 -0.004203 -0.001018 0.009057 0.002832 -0.001467 -0.002640
# 4 -0.005055 0.005199 0.002832 0.033839 0.000416 -0.004196
# 5 0.004017 0.001316 -0.001467 0.000416 0.024697 0.004954
# 6 0.005515 0.001732 -0.002640 -0.004196 0.004954 0.031547
#
#
# Mechanical properties :
#
#
# Convention : Reuss Voigt Hill
#
# Bulk Modulus (GPa) = 39.49783 46.72939 43.11361
# Shear Modulus (GPa) = 33.75354 39.89013 36.82184
#
# Velocity S-wave (km/s) = 3.83380 4.16775 4.00426
# Velocity P-wave (km/s) = 6.06602 6.59610 6.33661
#
# Compressibility (1/GPa) = 0.02531785
#
# Stress axis : x y z
#
# Youngs Moduli (GPa) = 53.39050 103.34250 110.40645
#
# Poissons Ratio (x) = 0.08803 0.46402
# Poissons Ratio (y) = 0.04548 0.11243
# Poissons Ratio (z) = 0.22439 0.10524
#
# Static dielectric constant tensor:
#      x y z
#    x 2.170830 0.132560 -0.572670 
#    y 0.132560 1.936290 -0.219240 
#    z -0.572670 -0.219240 2.741670 
# 
# From -- ./inp_files/190433.got.cif
#   From: 2010.05.17/outbox.cif.g08.bks.cpg/sg2_96_cif.got.tgz:190433.got - 2010.06.03 11:33:40.
