data_PCOD9069465
_publ_section_title
;
Structure prediction by ZEFSAII (Michael W. Deem and Ramdas Pophale) SiO2 
 PCOD9069465
Probable space group: P -1
;
_chemical_formula_sum "Si O2"
_cell_formula_units_Z 15
_cell_length_a 9.257033
_cell_length_b 8.936218
_cell_length_c 9.276128
_cell_angle_alpha 80.129406
_cell_angle_beta 119.094452
_cell_angle_gamma 88.021808
_cell_volume 654.376324
_symmetry_space_group_name_H-M "P -1"
_symmetry_group_IT_number 2
_symmetry_cell_setting 'triclinic'
loop_
_space_group_symop_operation_xyz
x,y,z
-x,-y,-z
loop_
_atom_site_type_symbol
_atom_site_label
_atom_site_fract_x
_atom_site_fract_y
_atom_site_fract_z
Si Si1 0.631263 0.282686 0.079185
Si Si2 0.845864 0.965389 0.333431
Si Si3 0.947148 0.113091 0.823819
Si Si4 0.500000 0.500000 0.500000
Si Si5 0.538954 0.658053 0.726344
Si Si6 0.569851 0.770315 0.278781
Si Si7 0.361995 0.021815 0.308077
Si Si8 0.158195 0.588022 0.090253
O O1 0.551026 0.372995 0.164979
O O2 0.764843 0.354532 0.030878
O O3 0.724943 0.122594 0.213173
O O4 0.477982 0.260528 0.903505
O O5 0.734960 0.847592 0.368597
O O6 0.912584 0.890276 0.227227
O O7 0.000000 0.000000 0.500000
O O8 0.804594 0.025381 0.700219
O O9 0.892668 0.276136 0.845123
O O10 0.000000 0.000000 0.000000
O O11 0.417269 0.655603 0.533547
O O12 0.574895 0.619050 0.400623
O O13 0.634489 0.804212 0.769726
O O14 0.679544 0.523585 0.749803
O O15 0.418306 0.900907 0.230345
O O16 0.500000 0.000000 0.500000
O O17 0.000000 0.500000 0.000000
#
# Coordination Sequence:
#
# PCOD9069465 Si02
#       8
#     2   2   2   1   2   2   2   2
#     4  12  26  48  76 112 147 200 260 313 377 455
#     4  12  28  46  76 116 153 195 254 323 382 445
#     4  12  25  47  74 108 150 196 252 305 382 453
#     4  12  26  44  74 110 148 198 246 312 376 450
#     4  12  27  44  77 108 151 195 255 309 378 455
#     4  12  25  49  75 111 149 196 263 309 378 458
#     4  12  23  43  77 106 142 198 252 307 366 456
#     4  12  27  45  72 111 152 194 246 313 384 443
#
# _framework density 22.922592000000002
#
# number of rings (size 3 to 8) (size 9 to 14) (size 15 to 20)
#    0.000    0.000    6.667    2.400    3.733    0.000 
#    0.000    0.000    0.000    4.000    0.000    0.000 
#    0.000    0.000    0.000    0.000    0.000    0.000 
#
# Total GULP energy -83695.701345 kJ/mol
# GULP energy per Si atom -5579.713423 kJ/mol
# Density = 2.287042 g / cm^3
# Si number density = 22.922592 Si / 1000 Ang^3
#
#
#
# Elastic Constant Matrix: (Units=GPa)
#
#
# Indices 1 2 3 4 5 6 
#
# 1 99.9030 49.5475 24.3243 8.0373 0.0711 11.9482
# 2 49.5475 141.7777 32.5938 -1.8966 1.0904 6.0214
# 3 24.3243 32.5938 109.4982 6.9387 -4.1558 6.6191
# 4 8.0373 -1.8966 6.9387 44.5172 -5.4101 -3.8637
# 5 0.0711 1.0904 -4.1558 -5.4101 39.7254 20.8413
# 6 11.9482 6.0214 6.6191 -3.8637 20.8413 63.6624
#
#
#
# Elastic Compliance Matrix: (Units=1/GPa)
#
#
# Indices 1 2 3 4 5 6 
#
# 1 0.012842 -0.004129 -0.001301 -0.002390 0.000837 -0.002303
# 2 -0.004129 0.008933 -0.001867 0.001396 -0.000426 0.000348
# 3 -0.001301 -0.001867 0.010198 -0.001349 0.001588 -0.001241
# 4 -0.002390 0.001396 -0.001349 0.023558 0.002467 0.001079
# 5 0.000837 -0.000426 0.001588 0.002467 0.031095 -0.010312
# 6 -0.002303 0.000348 -0.001241 0.001079 -0.010312 0.019678
#
#
# Mechanical properties :
#
#
# Convention : Reuss Voigt Hill
#
# Bulk Modulus (GPa) = 57.54664 62.67889 60.11276
# Shear Modulus (GPa) = 39.46615 45.89522 42.68068
#
# Velocity S-wave (km/s) = 4.15386 4.47943 4.31971
# Velocity P-wave (km/s) = 6.94012 7.35913 7.15269
#
# Compressibility (1/GPa) = 0.01737721
#
# Stress axis : x y z
#
# Youngs Moduli (GPa) = 77.87218 111.94701 98.05631
#
# Poissons Ratio (x) = 0.46226 0.12758
# Poissons Ratio (y) = 0.32155 0.18311
# Poissons Ratio (z) = 0.10132 0.20904
#
# Static dielectric constant tensor:
#      x y z
#    x 1.803110 -0.070430 -0.107520 
#    y -0.070430 1.881510 -0.123940 
#    z -0.107520 -0.123940 1.440660 
# 
# From -- ./inp_files/158279.got.cif
#   From: 2010.05.17/outbox.cif.g08.bks.cpg/sg2_80_cif.got.tgz:158279.got - 2010.06.03 11:33:40.
