data_PCOD9069798
_publ_section_title
;
Structure prediction by ZEFSAII (Michael W. Deem and Ramdas Pophale) SiO2 
 PCOD9069798
Probable space group: P -1
;
_chemical_formula_sum "Si O2"
_cell_formula_units_Z 11
_cell_length_a 8.855502
_cell_length_b 8.212883
_cell_length_c 10.285989
_cell_angle_alpha 110.521500
_cell_angle_beta 72.800091
_cell_angle_gamma 54.314207
_cell_volume 428.728916
_symmetry_space_group_name_H-M "P -1"
_symmetry_group_IT_number 2
_symmetry_cell_setting 'triclinic'
loop_
_space_group_symop_operation_xyz
x,y,z
-x,-y,-z
loop_
_atom_site_type_symbol
_atom_site_label
_atom_site_fract_x
_atom_site_fract_y
_atom_site_fract_z
Si Si1 0.705632 0.968288 0.988676
Si Si2 0.308967 0.714061 0.495541
Si Si3 0.089820 0.211751 0.832764
Si Si4 0.500000 0.000000 0.500000
Si Si5 0.400631 0.536776 0.894579
Si Si6 0.140655 0.515648 0.556197
O O1 0.947736 0.747625 0.776282
O O2 0.657715 0.218760 0.074841
O O3 0.770321 0.870254 0.092009
O O4 0.500000 0.000000 0.000000
O O5 0.500000 0.500000 0.500000
O O6 0.189485 0.630873 0.474830
O O7 0.122303 0.998036 0.693632
O O8 0.426430 0.690350 0.327074
O O9 0.808917 0.428554 0.013285
O O10 0.218080 0.222443 0.695412
O O11 0.613900 0.770887 0.520298
O O12 0.500000 0.500000 0.000000
O O13 0.000000 0.500000 0.500000
#
# Coordination Sequence:
#
# PCOD9069798 Si02
#       6
#     2   2   2   1   2   2
#     4  12  26  50  76 110 157 204 255 325 395 460
#     4  12  23  50  78 103 151 204 247 313 391 452
#     4  12  27  50  75 110 153 203 260 316 388 461
#     4  12  28  46  76 112 148 202 262 312 386 458
#     4  12  28  47  78 117 152 200 261 317 385 470
#     4  12  27  49  76 108 157 200 256 322 386 460
#
# _framework density 25.657236999999999
#
# number of rings (size 3 to 8) (size 9 to 14) (size 15 to 20)
#    0.000    0.000    5.455    3.818    5.091    4.364 
#    0.000    0.000    0.000    0.000    0.000    0.000 
#    0.000    0.000    0.000    0.000    0.000    0.000 
#
# Total GULP energy -61274.667328 kJ/mol
# GULP energy per Si atom -5570.424303 kJ/mol
# Density = 2.559884 g / cm^3
# Si number density = 25.657237 Si / 1000 Ang^3
#
#
#
# Elastic Constant Matrix: (Units=GPa)
#
#
# Indices 1 2 3 4 5 6 
#
# 1 129.5311 14.0085 26.7152 -19.9014 -11.6847 4.0517
# 2 14.0085 38.1917 8.9346 -2.3590 -6.6736 9.3226
# 3 26.7152 8.9346 186.6417 -17.4281 -26.4509 1.4568
# 4 -19.9014 -2.3590 -17.4281 47.2924 11.3838 0.2879
# 5 -11.6847 -6.6736 -26.4509 11.3838 60.8251 -13.1969
# 6 4.0517 9.3226 1.4568 0.2879 -13.1969 33.7748
#
#
#
# Elastic Compliance Matrix: (Units=1/GPa)
#
#
# Indices 1 2 3 4 5 6 
#
# 1 0.008695 -0.002713 -0.000760 0.003141 0.000428 -0.000121
# 2 -0.002713 0.029318 -0.000866 -0.000128 0.000728 -0.007444
# 3 -0.000760 -0.000866 0.005947 0.001265 0.002319 0.000969
# 4 0.003141 -0.000128 0.001265 0.023848 -0.003774 -0.002074
# 5 0.000428 0.000728 0.002319 -0.003774 0.019938 0.007470
# 6 -0.000121 -0.007444 0.000969 -0.002074 0.007470 0.034572
#
#
# Mechanical properties :
#
#
# Convention : Reuss Voigt Hill
#
# Bulk Modulus (GPa) = 28.34254 50.40902 39.37578
# Shear Modulus (GPa) = 35.02459 48.69220 41.85840
#
# Velocity S-wave (km/s) = 3.69873 4.36110 4.04350
# Velocity P-wave (km/s) = 5.41400 6.71183 6.09754
#
# Compressibility (1/GPa) = 0.03528266
#
# Stress axis : x y z
#
# Youngs Moduli (GPa) = 115.00388 34.10890 168.14604
#
# Poissons Ratio (x) = 0.09255 0.12775
# Poissons Ratio (y) = 0.31204 0.14558
# Poissons Ratio (z) = 0.08738 0.02953
#
# Static dielectric constant tensor:
#      x y z
#    x 2.986250 0.934400 0.207900 
#    y 0.934400 2.998310 0.231480 
#    z 0.207900 0.231480 2.084340 
# 
# From -- ./inp_files/152656.got.cif
#   From: 2010.05.17/outbox.cif.g08.bks.cpg/sg2_77_cif.got.tgz:152656.got - 2010.06.03 11:33:40.
