data_PCOD9069387
_publ_section_title
;
Structure prediction by ZEFSAII (Michael W. Deem and Ramdas Pophale) SiO2 
 PCOD9069387
Probable space group: P -1
;
_chemical_formula_sum "Si O2"
_cell_formula_units_Z 16
_cell_length_a 11.213587
_cell_length_b 10.451865
_cell_length_c 8.773606
_cell_angle_alpha 56.793269
_cell_angle_beta 127.728988
_cell_angle_gamma 121.248316
_cell_volume 653.760357
_symmetry_space_group_name_H-M "P -1"
_symmetry_group_IT_number 2
_symmetry_cell_setting 'triclinic'
loop_
_space_group_symop_operation_xyz
x,y,z
-x,-y,-z
loop_
_atom_site_type_symbol
_atom_site_label
_atom_site_fract_x
_atom_site_fract_y
_atom_site_fract_z
Si Si1 0.977939 0.327956 0.665446
Si Si2 0.320282 0.478907 0.336351
Si Si3 0.921740 0.739615 0.528576
Si Si4 0.255919 0.739912 0.900108
Si Si5 0.731979 0.948925 0.168525
Si Si6 0.511959 0.766246 0.877925
Si Si7 0.763509 0.730726 0.883708
Si Si8 0.255139 0.952184 0.213453
O O1 0.033339 0.238337 0.627302
O O2 0.000000 0.500000 0.500000
O O3 0.807054 0.221880 0.654267
O O4 0.099345 0.330658 0.894581
O O5 0.500000 0.500000 0.500000
O O6 0.211003 0.422709 0.433266
O O7 0.267605 0.337230 0.263747
O O8 0.288523 0.631302 0.131176
O O9 0.074344 0.728256 0.745081
O O10 0.845498 0.882597 0.405736
O O11 0.334332 0.698696 0.832909
O O12 0.332847 0.926169 0.871707
O O13 0.806674 0.043689 0.011227
O O14 0.607155 0.797140 0.093578
O O15 0.601488 0.677393 0.892269
O O16 0.561671 0.948466 0.731288
O O17 0.805375 0.921356 0.815806
#
# Coordination Sequence:
#
# PCOD9069387 Si02
#       8
#     2   2   2   2   2   2   2   2
#     4  12  23  42  74 113 146 182 240 304 363 437
#     4  12  29  47  71 105 148 196 242 309 372 427
#     4  12  26  44  67 112 141 188 247 293 375 438
#     4  12  24  43  71 106 151 187 243 306 367 423
#     4   9  21  42  71 100 146 191 241 292 359 434
#     4   8  20  42  74  94 137 197 242 282 358 431
#     4   9  22  47  73  94 147 193 244 290 369 429
#     4   8  21  41  74  97 143 193 237 281 364 424
#
# _framework density 24.473797999999999
#
# number of rings (size 3 to 8) (size 9 to 14) (size 15 to 20)
#    1.500    0.000    2.500    3.000    3.500    1.500 
#    2.250    0.625    0.000    0.000    0.000    0.000 
#    0.000    0.000    0.000    0.000    0.000    0.000 
#
# Total GULP energy -89310.467798 kJ/mol
# GULP energy per Si atom -5581.904237 kJ/mol
# Density = 2.441809 g / cm^3
# Si number density = 24.473798 Si / 1000 Ang^3
#
#
#
# Elastic Constant Matrix: (Units=GPa)
#
#
# Indices 1 2 3 4 5 6 
#
# 1 54.8975 5.1527 13.4872 -15.0809 0.8248 13.2718
# 2 5.1527 51.2673 26.8132 -13.6706 2.6336 4.3690
# 3 13.4872 26.8132 122.4852 -6.6485 7.3736 15.7386
# 4 -15.0809 -13.6706 -6.6485 44.8854 1.4173 -7.4321
# 5 0.8248 2.6336 7.3736 1.4173 29.2745 -3.0080
# 6 13.2718 4.3690 15.7386 -7.4321 -3.0080 43.8924
#
#
#
# Elastic Compliance Matrix: (Units=1/GPa)
#
#
# Indices 1 2 3 4 5 6 
#
# 1 0.021513 0.000824 -0.001483 0.006461 -0.001137 -0.005039
# 2 0.000824 0.023867 -0.004893 0.006896 -0.001250 0.000212
# 3 -0.001483 -0.004893 0.009858 -0.000939 -0.002255 -0.002913
# 4 0.006461 0.006896 -0.000939 0.026815 -0.001646 0.002124
# 5 -0.001137 -0.001250 -0.002255 -0.001646 0.035303 0.003418
# 6 -0.005039 0.000212 -0.002913 0.002124 0.003418 0.025924
#
#
# Mechanical properties :
#
#
# Convention : Reuss Voigt Hill
#
# Bulk Modulus (GPa) = 22.65823 35.50622 29.08223
# Shear Modulus (GPa) = 29.56945 35.82357 32.69651
#
# Velocity S-wave (km/s) = 3.47970 3.83005 3.65907
# Velocity P-wave (km/s) = 5.04209 5.83938 5.45532
#
# Compressibility (1/GPa) = 0.04413407
#
# Stress axis : x y z
#
# Youngs Moduli (GPa) = 46.48374 41.89915 101.44368
#
# Poissons Ratio (x) = -0.03452 0.15039
# Poissons Ratio (y) = -0.03830 0.49637
# Poissons Ratio (z) = 0.06891 0.20502
#
# Static dielectric constant tensor:
#      x y z
#    x 1.989160 0.028850 0.021340 
#    y 0.028850 2.013060 0.018900 
#    z 0.021340 0.018900 1.927510 
# 
# From -- ./inp_files/261835.got.cif
#   From: 2010.05.17/outbox.cif.g08.bks.cpg/sg2_131_cif.got.tgz:261835.got - 2010.06.03 11:33:40.
