data_PCOD9069192
_publ_section_title
;
Structure prediction by ZEFSAII (Michael W. Deem and Ramdas Pophale) SiO2 
 PCOD9069192
Probable space group: P -1
;
_chemical_formula_sum "Si O2"
_cell_formula_units_Z 16
_cell_length_a 7.173761
_cell_length_b 16.534712
_cell_length_c 11.913619
_cell_angle_alpha 148.887330
_cell_angle_beta 102.310102
_cell_angle_gamma 93.046805
_cell_volume 630.899716
_symmetry_space_group_name_H-M "P -1"
_symmetry_group_IT_number 2
_symmetry_cell_setting 'triclinic'
loop_
_space_group_symop_operation_xyz
x,y,z
-x,-y,-z
loop_
_atom_site_type_symbol
_atom_site_label
_atom_site_fract_x
_atom_site_fract_y
_atom_site_fract_z
Si Si1 0.769100 0.250789 0.342106
Si Si2 0.450979 0.528620 0.795858
Si Si3 0.587907 0.118661 0.392346
Si Si4 0.905735 0.365850 0.107066
Si Si5 0.604965 0.694564 0.683669
Si Si6 0.251685 0.100118 0.681967
Si Si7 0.619751 0.331692 0.843741
Si Si8 0.089758 0.883258 0.006924
O O1 0.725249 0.154879 0.340672
O O2 0.550492 0.219177 0.217002
O O3 0.903982 0.212698 0.221935
O O4 0.883295 0.455438 0.633035
O O5 0.388721 0.506488 0.895453
O O6 0.409818 0.366982 0.521128
O O7 0.283698 0.600527 0.820055
O O8 0.681161 0.703416 0.024422
O O9 0.658087 0.003691 0.348920
O O10 0.641240 0.302125 0.682216
O O11 0.335161 0.038244 0.231857
O O12 0.918912 0.213832 0.993965
O O13 0.824896 0.326867 0.923732
O O14 0.500000 0.500000 0.500000
O O15 0.843583 0.847748 0.925092
O O16 0.405027 0.163376 0.665251
O O17 0.000000 0.000000 0.500000
#
# Coordination Sequence:
#
# PCOD9069192 Si02
#       8
#     2   2   2   2   2   2   2   2
#     4  12  26  41  64 103 131 171 216 264 342 374
#     4   8  19  39  62  92 122 159 222 263 308 362
#     4  12  24  42  65  96 137 169 205 273 337 388
#     4   9  18  39  69  83 124 169 214 260 312 378
#     4  12  24  39  70  98 120 176 234 259 308 395
#     4   9  20  38  65  95 121 166 219 255 316 392
#     4   8  20  40  65  92 121 171 213 255 331 378
#     4  12  22  45  65  90 140 173 212 276 310 387
#
# _framework density 25.360607000000002
#
# number of rings (size 3 to 8) (size 9 to 14) (size 15 to 20)
#    1.500    0.000    5.000    1.875    0.000    3.000 
#    2.250    0.625    0.000    0.000    0.000    0.000 
#    0.000    0.000    0.000    0.000    0.000    0.000 
#
# Total GULP energy -89225.074589 kJ/mol
# GULP energy per Si atom -5576.567162 kJ/mol
# Density = 2.530289 g / cm^3
# Si number density = 25.360607 Si / 1000 Ang^3
#
#
#
# Elastic Constant Matrix: (Units=GPa)
#
#
# Indices 1 2 3 4 5 6 
#
# 1 94.3910 36.0661 34.8591 4.9930 32.9222 10.0008
# 2 36.0661 144.9048 65.2935 16.9112 15.2099 47.7601
# 3 34.8591 65.2935 147.5256 9.6777 30.2297 25.5542
# 4 4.9930 16.9112 9.6777 35.9638 8.0148 13.5657
# 5 32.9222 15.2099 30.2297 8.0148 58.1514 7.5808
# 6 10.0008 47.7601 25.5542 13.5657 7.5808 43.6212
#
#
#
# Elastic Compliance Matrix: (Units=1/GPa)
#
#
# Indices 1 2 3 4 5 6 
#
# 1 0.014384 -0.003013 -0.000911 0.000671 -0.007179 0.001574
# 2 -0.003013 0.012823 -0.003262 -0.000769 0.001651 -0.011486
# 3 -0.000911 -0.003262 0.009311 0.000357 -0.003364 -0.001201
# 4 0.000671 -0.000769 0.000357 0.032140 -0.003636 -0.008884
# 5 -0.007179 0.001651 -0.003364 -0.003636 0.023222 -0.001095
# 6 0.001574 -0.011486 -0.001201 -0.008884 -0.001095 0.038796
#
#
# Mechanical properties :
#
#
# Convention : Reuss Voigt Hill
#
# Bulk Modulus (GPa) = 45.15283 73.25098 59.20190
# Shear Modulus (GPa) = 32.80215 44.25412 38.52813
#
# Velocity S-wave (km/s) = 3.60033 4.18185 3.90194
# Velocity P-wave (km/s) = 5.92673 7.22935 6.61021
#
# Compressibility (1/GPa) = 0.02214701
#
# Stress axis : x y z
#
# Youngs Moduli (GPa) = 69.52327 77.98597 107.39680
#
# Poissons Ratio (x) = 0.23498 0.09780
# Poissons Ratio (y) = 0.20949 0.35028
# Poissons Ratio (z) = 0.06331 0.25436
#
# Static dielectric constant tensor:
#      x y z
#    x 2.098040 -0.040160 0.013440 
#    y -0.040160 2.050270 0.014430 
#    z 0.013440 0.014430 2.041930 
# 
# From -- ./inp_files/402380.got.cif
#   From: 2010.05.17/outbox.cif.g08.bks.cpg/sg2_202_cif.got.tgz:402380.got - 2010.06.03 11:33:40.
