data_PCOD9069447
_publ_section_title
;
Structure prediction by ZEFSAII (Michael W. Deem and Ramdas Pophale) SiO2 
 PCOD9069447
Probable space group: P -1
;
_chemical_formula_sum "Si O2"
_cell_formula_units_Z 16
_cell_length_a 8.546374
_cell_length_b 12.551363
_cell_length_c 12.227087
_cell_angle_alpha 66.211462
_cell_angle_beta 119.907405
_cell_angle_gamma 140.350007
_cell_volume 725.016577
_symmetry_space_group_name_H-M "P -1"
_symmetry_group_IT_number 2
_symmetry_cell_setting 'triclinic'
loop_
_space_group_symop_operation_xyz
x,y,z
-x,-y,-z
loop_
_atom_site_type_symbol
_atom_site_label
_atom_site_fract_x
_atom_site_fract_y
_atom_site_fract_z
Si Si1 0.392700 0.698592 0.770744
Si Si2 0.715433 0.897975 0.399029
Si Si3 0.962699 0.389159 0.128918
Si Si4 0.473357 0.563758 0.355838
Si Si5 0.728934 0.051731 0.131929
Si Si6 0.006076 0.972955 0.138803
Si Si7 0.187767 0.374706 0.738102
Si Si8 0.341971 0.808968 0.492604
O O1 0.290888 0.699144 0.850829
O O2 0.695791 0.867327 0.789620
O O3 0.297697 0.520921 0.800231
O O4 0.271809 0.709911 0.620435
O O5 0.643565 0.755111 0.359480
O O6 0.528551 0.825441 0.468036
O O7 0.681649 0.993597 0.266754
O O8 0.000000 0.000000 0.500000
O O9 0.937768 0.250847 0.124608
O O10 0.196554 0.486465 0.256018
O O11 0.000000 0.500000 0.000000
O O12 0.500000 0.500000 0.500000
O O13 0.587956 0.541049 0.307232
O O14 0.832843 0.984031 0.139606
O O15 0.500000 0.000000 0.000000
O O16 0.894250 0.791297 0.182253
O O17 0.000000 0.000000 0.000000
O O18 0.925156 0.294886 0.621067
O O19 0.500000 0.000000 0.500000
#
# Coordination Sequence:
#
# PCOD9069447 Si02
#       8
#     2   2   2   2   2   2   2   2
#     4  12  26  49  74 108 148 188 242 301 361 435
#     4  12  24  43  73 105 141 189 239 292 358 428
#     4  12  28  47  73 106 142 191 243 296 363 431
#     4  12  24  46  70 103 145 185 239 294 358 428
#     4  12  26  48  72 104 147 188 241 300 359 434
#     4  12  28  47  74 106 143 195 243 296 364 431
#     4  12  26  46  75 108 147 187 242 299 364 431
#     4  12  23  43  74 108 145 187 241 295 362 430
#
# _framework density 22.068462
#
# number of rings (size 3 to 8) (size 9 to 14) (size 15 to 20)
#    0.000    0.000    2.500    7.875    5.250    0.500 
#    0.000    0.000    0.000    0.000    0.000    0.000 
#    0.000    0.000    0.000    0.000    0.000    0.000 
#
# Total GULP energy -89512.737272 kJ/mol
# GULP energy per Si atom -5594.546079 kJ/mol
# Density = 2.201823 g / cm^3
# Si number density = 22.068462 Si / 1000 Ang^3
#
#
#
# Elastic Constant Matrix: (Units=GPa)
#
#
# Indices 1 2 3 4 5 6 
#
# 1 84.0874 -3.7756 11.1820 -17.7656 -5.6304 3.7516
# 2 -3.7756 110.6258 34.6938 -18.4743 10.0397 -21.6297
# 3 11.1820 34.6938 134.5695 -31.1727 0.5130 7.9958
# 4 -17.7656 -18.4743 -31.1727 46.9203 6.4524 -0.1654
# 5 -5.6304 10.0397 0.5130 6.4524 34.4740 2.2580
# 6 3.7516 -21.6297 7.9958 -0.1654 2.2580 39.5566
#
#
#
# Elastic Compliance Matrix: (Units=1/GPa)
#
#
# Indices 1 2 3 4 5 6 
#
# 1 0.013153 0.001171 -0.000154 0.005217 0.000873 -0.000604
# 2 0.001171 0.012579 -0.002799 0.004212 -0.004718 0.007620
# 3 -0.000154 -0.002799 0.009575 0.005203 -0.000102 -0.003424
# 4 0.005217 0.004212 0.005203 0.029233 -0.006003 0.001222
# 5 0.000873 -0.004718 -0.000102 -0.006003 0.031943 -0.004490
# 6 -0.000604 0.007620 -0.003424 0.001222 -0.004490 0.030458
#
#
# Mechanical properties :
#
#
# Convention : Reuss Voigt Hill
#
# Bulk Modulus (GPa) = 31.50379 45.94256 38.72318
# Shear Modulus (GPa) = 35.43969 43.33569 39.38769
#
# Velocity S-wave (km/s) = 4.01171 4.43617 4.22927
# Velocity P-wave (km/s) = 5.98038 6.86315 6.43691
#
# Compressibility (1/GPa) = 0.03174221
#
# Stress axis : x y z
#
# Youngs Moduli (GPa) = 76.02825 79.49903 104.44300
#
# Poissons Ratio (x) = -0.09310 0.01606
# Poissons Ratio (y) = -0.08904 0.29237
# Poissons Ratio (z) = 0.01169 0.22255
#
# Static dielectric constant tensor:
#      x y z
#    x 1.802600 0.001060 0.039910 
#    y 0.001060 1.855430 0.025320 
#    z 0.039910 0.025320 1.923030 
# 
# From -- ./inp_files/392417.got.cif
#   From: 2010.05.17/outbox.cif.g08.bks.cpg/sg2_197_cif.got.tgz:392417.got - 2010.06.03 11:33:40.
