data_PCOD9069961
_publ_section_title
;
Structure prediction by ZEFSAII (Michael W. Deem and Ramdas Pophale) SiO2 
 PCOD9069961
Probable space group: P -1
;
_chemical_formula_sum "Si O2"
_cell_formula_units_Z 14
_cell_length_a 5.444468
_cell_length_b 26.016448
_cell_length_c 28.607872
_cell_angle_alpha 170.594672
_cell_angle_beta 65.553195
_cell_angle_gamma 115.301428
_cell_volume 597.842822
_symmetry_space_group_name_H-M "P -1"
_symmetry_group_IT_number 2
_symmetry_cell_setting 'triclinic'
loop_
_space_group_symop_operation_xyz
x,y,z
-x,-y,-z
loop_
_atom_site_type_symbol
_atom_site_label
_atom_site_fract_x
_atom_site_fract_y
_atom_site_fract_z
Si Si1 0.815222 0.236978 0.749912
Si Si2 0.654569 0.337681 0.058872
Si Si3 0.841927 0.619503 0.002153
Si Si4 0.361898 0.413399 0.618465
Si Si5 0.177167 0.384673 0.425252
Si Si6 0.633014 0.231720 0.584404
Si Si7 0.000846 0.638065 0.765636
O O1 0.608328 0.035916 0.620145
O O2 0.715655 0.419421 0.876577
O O3 0.000000 0.000000 0.500000
O O4 0.000000 0.500000 0.000000
O O5 0.860902 0.443469 0.094778
O O6 0.599487 0.960224 0.719611
O O7 0.760483 0.438401 0.192381
O O8 0.420108 0.560603 0.269559
O O9 0.855622 0.993152 0.344979
O O10 0.673916 0.485986 0.850745
O O11 0.161214 0.465283 0.637898
O O12 0.671604 0.591292 0.751539
O O13 0.500000 0.500000 0.500000
O O14 0.076288 0.513796 0.597669
O O15 0.000000 0.500000 0.500000
O O16 0.116945 0.005971 0.090833
#
# Coordination Sequence:
#
# PCOD9069961 Si02
#       7
#     2   2   2   2   2   2   2
#     4  12  24  44  68  97 135 172 220 305 390 465
#     4  12  28  46  70 102 136 191 252 308 350 440
#     4  12  26  45  71  97 134 177 238 300 386 445
#     4  12  28  47  74 103 154 204 252 299 360 425
#     4  12  24  45  80 116 152 193 244 297 358 423
#     4  12  26  45  71  97 134 177 238 300 386 445
#     4  12  26  49  72 112 156 199 244 297 360 423
#
# _framework density 23.417527
#
# number of rings (size 3 to 8) (size 9 to 14) (size 15 to 20)
#    0.000    0.000    1.429    8.571    8.000    0.000 
#    0.000    0.000    0.000    0.000    0.000    0.000 
#    0.000    0.000    0.000    0.000    0.000    0.000 
#
# Total GULP energy -78339.091764 kJ/mol
# GULP energy per Si atom -5595.649412 kJ/mol
# Density = 2.336423 g / cm^3
# Si number density = 23.417527 Si / 1000 Ang^3
#
#
#
# Elastic Constant Matrix: (Units=GPa)
#
#
# Indices 1 2 3 4 5 6 
#
# 1 110.4270 32.3941 13.9803 9.0344 3.2090 -1.5188
# 2 32.3941 106.6388 40.4417 -24.7800 -1.4533 -15.8081
# 3 13.9803 40.4417 149.6195 -3.3779 6.8466 -0.2255
# 4 9.0344 -24.7800 -3.3779 46.0310 -5.1230 -0.6715
# 5 3.2090 -1.4533 6.8466 -5.1230 49.0171 6.9846
# 6 -1.5188 -15.8081 -0.2255 -0.6715 6.9846 58.3363
#
#
#
# Elastic Compliance Matrix: (Units=1/GPa)
#
#
# Indices 1 2 3 4 5 6 
#
# 1 0.010790 -0.004590 0.000181 -0.004726 -0.001238 -0.000868
# 2 -0.004590 0.014686 -0.003410 0.008789 0.001595 0.003757
# 3 0.000181 -0.003410 0.007610 -0.001459 -0.001220 -0.000761
# 4 -0.004726 0.008789 -0.001459 0.027682 0.003358 0.002170
# 5 -0.001238 0.001595 -0.001220 0.003358 0.021353 -0.002123
# 6 -0.000868 0.003757 -0.000761 0.002170 -0.002123 0.018414
#
#
# Mechanical properties :
#
#
# Convention : Reuss Voigt Hill
#
# Bulk Modulus (GPa) = 57.31088 60.03528 58.67308
# Shear Modulus (GPa) = 40.98764 49.33483 45.16124
#
# Velocity S-wave (km/s) = 4.18819 4.59491 4.39626
# Velocity P-wave (km/s) = 6.92204 7.33781 7.13296
#
# Compressibility (1/GPa) = 0.01744869
#
# Stress axis : x y z
#
# Youngs Moduli (GPa) = 92.67787 68.09257 131.40565
#
# Poissons Ratio (x) = 0.31256 -0.02381
# Poissons Ratio (y) = 0.42541 0.44804
# Poissons Ratio (z) = -0.01679 0.23217
#
# Static dielectric constant tensor:
#      x y z
#    x 2.580690 -0.625570 -0.136640 
#    y -0.625570 2.588320 0.135280 
#    z -0.136640 0.135280 1.827850 
# 
# From -- ./inp_files/615930.got.cif
#   From: 2010.05.17/outbox.cif.g08.bks.cpg/sg2_308_cif.got.tgz:615930.got - 2010.06.03 11:33:40.
