data_PCOD9069756
_publ_section_title
;
Structure prediction by ZEFSAII (Michael W. Deem and Ramdas Pophale) SiO2 
 PCOD9069756
Probable space group: P -1
;
_chemical_formula_sum "Si O2"
_cell_formula_units_Z 16
_cell_length_a 19.324755
_cell_length_b 16.587274
_cell_length_c 5.142485
_cell_angle_alpha 81.096358
_cell_angle_beta 98.506328
_cell_angle_gamma 157.445288
_cell_volume 624.595682
_symmetry_space_group_name_H-M "P -1"
_symmetry_group_IT_number 2
_symmetry_cell_setting 'triclinic'
loop_
_space_group_symop_operation_xyz
x,y,z
-x,-y,-z
loop_
_atom_site_type_symbol
_atom_site_label
_atom_site_fract_x
_atom_site_fract_y
_atom_site_fract_z
Si Si1 0.816502 0.766631 0.900758
Si Si2 0.610777 0.679387 0.655818
Si Si3 0.334920 0.022152 0.512181
Si Si4 0.998090 0.138212 0.399289
Si Si5 0.879713 0.448376 0.875937
Si Si6 0.660384 0.463521 0.315167
Si Si7 0.143484 0.874385 0.971178
Si Si8 0.693809 0.200238 0.381393
O O1 0.673845 0.684534 0.913433
O O2 0.879326 0.808529 0.626779
O O3 0.732340 0.590917 0.041672
O O4 0.000000 0.000000 0.000000
O O5 0.500000 0.500000 0.500000
O O6 0.489394 0.629110 0.635083
O O7 0.810899 0.917766 0.544972
O O8 0.535358 0.249640 0.390072
O O9 0.304612 0.030884 0.773458
O O10 0.279988 0.869088 0.589649
O O11 0.206394 0.923500 0.271139
O O12 0.150211 0.352073 0.530271
O O13 0.930390 0.114670 0.121323
O O14 0.827741 0.382526 0.579764
O O15 0.989481 0.646748 0.908166
O O16 0.714176 0.263262 0.079657
O O17 0.000000 0.500000 0.000000
O O18 0.500000 0.000000 0.500000
#
# Coordination Sequence:
#
# PCOD9069756 Si02
#       8
#     2   2   2   2   2   2   2   2
#     4  12  26  46  74 103 142 188 254 311 367 450
#     4  12  24  48  73  99 141 193 241 312 375 437
#     4  12  27  49  73 109 152 199 245 307 381 451
#     4  12  28  48  69 110 147 193 252 306 378 454
#     4  12  23  48  76 106 145 200 250 302 368 441
#     4  12  28  46  72 104 149 194 245 307 384 444
#     4  12  28  47  78 106 152 198 253 307 377 450
#     4  12  26  46  75 113 152 193 255 309 367 441
#
# _framework density 25.616569999999999
#
# number of rings (size 3 to 8) (size 9 to 14) (size 15 to 20)
#    0.000    0.000    6.250    3.000    8.750    1.000 
#    0.000    0.000    0.000    0.000    0.000    0.000 
#    0.000    0.000    0.000    0.000    0.000    0.000 
#
# Total GULP energy -89428.114038 kJ/mol
# GULP energy per Si atom -5589.257127 kJ/mol
# Density = 2.555827 g / cm^3
# Si number density = 25.616570 Si / 1000 Ang^3
#
#
#
# Elastic Constant Matrix: (Units=GPa)
#
#
# Indices 1 2 3 4 5 6 
#
# 1 60.4887 6.3276 6.2325 -6.7533 -5.6650 15.6991
# 2 6.3276 153.6928 11.3553 -17.3294 -11.4583 5.6775
# 3 6.2325 11.3553 62.2581 -17.6499 3.5727 -0.3196
# 4 -6.7533 -17.3294 -17.6499 50.7915 2.7166 1.8196
# 5 -5.6650 -11.4583 3.5727 2.7166 34.4002 -4.0812
# 6 15.6991 5.6775 -0.3196 1.8196 -4.0812 53.9610
#
#
#
# Elastic Compliance Matrix: (Units=1/GPa)
#
#
# Indices 1 2 3 4 5 6 
#
# 1 0.018502 -0.000057 -0.001439 0.002002 0.002394 -0.005272
# 2 -0.000057 0.006980 -0.000831 0.001992 0.002170 -0.000626
# 3 -0.001439 -0.000831 0.018225 0.006004 -0.002857 0.000195
# 4 0.002002 0.001992 0.006004 0.022867 -0.001632 -0.001651
# 5 0.002394 0.002170 -0.002857 -0.001632 0.030783 0.001441
# 6 -0.005272 -0.000626 0.000195 -0.001651 0.001441 0.020297
#
#
# Mechanical properties :
#
#
# Convention : Reuss Voigt Hill
#
# Bulk Modulus (GPa) = 25.60509 36.03007 30.81758
# Shear Modulus (GPa) = 36.94826 44.66548 40.80687
#
# Velocity S-wave (km/s) = 3.80196 4.18019 3.99555
# Velocity P-wave (km/s) = 5.41206 6.11509 5.77429
#
# Compressibility (1/GPa) = 0.03905474
#
# Stress axis : x y z
#
# Youngs Moduli (GPa) = 54.04792 143.27364 54.87015
#
# Poissons Ratio (x) = 0.00810 0.07895
# Poissons Ratio (y) = 0.00305 0.04557
# Poissons Ratio (z) = 0.07777 0.11899
#
# Static dielectric constant tensor:
#      x y z
#    x 2.328900 0.041150 0.028590 
#    y 0.041150 2.086690 -0.013400 
#    z 0.028590 -0.013400 2.118460 
# 
# From -- ./inp_files/107828.got.cif
#   From: 2010.05.17/outbox.cif.g08.bks.cpg/sg2_54_cif.got.tgz:107828.got - 2010.06.03 11:33:40.
