data_PCOD9069529
_publ_section_title
;
Structure prediction by ZEFSAII (Michael W. Deem and Ramdas Pophale) SiO2 
 PCOD9069529
Probable space group: P -1
;
_chemical_formula_sum "Si O2"
_cell_formula_units_Z 16
_cell_length_a 6.807146
_cell_length_b 15.166043
_cell_length_c 14.235687
_cell_angle_alpha 53.095427
_cell_angle_beta 118.476104
_cell_angle_gamma 140.262761
_cell_volume 750.937027
_symmetry_space_group_name_H-M "P -1"
_symmetry_group_IT_number 2
_symmetry_cell_setting 'triclinic'
loop_
_space_group_symop_operation_xyz
x,y,z
-x,-y,-z
loop_
_atom_site_type_symbol
_atom_site_label
_atom_site_fract_x
_atom_site_fract_y
_atom_site_fract_z
Si Si1 0.669933 0.965379 0.122636
Si Si2 0.303519 0.767038 0.344789
Si Si3 0.621726 0.539586 0.255906
Si Si4 0.568035 0.275558 0.924551
Si Si5 0.607430 0.637420 0.501419
Si Si6 0.707208 0.081434 0.586884
Si Si7 0.281567 0.515238 0.890543
Si Si8 0.365816 0.164272 0.153362
O O1 0.513814 0.898010 0.230970
O O2 0.615794 0.834130 0.136138
O O3 0.031661 0.108647 0.118965
O O4 0.500000 0.000000 0.000000
O O5 0.378297 0.663021 0.424884
O O6 0.365528 0.837984 0.415967
O O7 0.949976 0.666407 0.300608
O O8 0.494927 0.616046 0.149473
O O9 0.398325 0.407175 0.364567
O O10 0.676520 0.486265 0.210016
O O11 0.927280 0.376506 0.925137
O O12 0.451936 0.178803 0.054810
O O13 0.500000 0.500000 0.500000
O O14 0.940424 0.789872 0.447294
O O15 0.500000 0.000000 0.500000
O O16 0.659479 0.958565 0.719546
O O17 0.386889 0.670845 0.849341
O O18 0.500000 0.500000 0.000000
#
# Coordination Sequence:
#
# PCOD9069529 Si02
#       8
#     2   2   2   2   2   2   2   2
#     4  12  23  44  76 105 144 188 238 300 370 433
#     4  12  25  49  73 107 144 190 250 302 360 438
#     4  12  26  44  80 106 138 193 248 300 364 426
#     4  12  25  47  76 106 145 189 242 300 365 440
#     4  12  27  48  78 105 145 192 253 303 355 438
#     4  12  30  48  72 108 149 197 242 302 378 428
#     4  12  27  47  72 112 147 191 242 296 370 438
#     4  12  26  47  70 107 155 184 242 306 364 437
#
# _framework density 21.306715000000001
#
# number of rings (size 3 to 8) (size 9 to 14) (size 15 to 20)
#    0.000    0.000    5.000    4.875    3.500    1.500 
#    0.000    0.000    0.000    0.000    0.000    0.000 
#    0.000    0.000    0.000    0.000    0.000    0.000 
#
# Total GULP energy -89678.626118 kJ/mol
# GULP energy per Si atom -5604.914132 kJ/mol
# Density = 2.125822 g / cm^3
# Si number density = 21.306715 Si / 1000 Ang^3
#
#
#
# Elastic Constant Matrix: (Units=GPa)
#
#
# Indices 1 2 3 4 5 6 
#
# 1 95.4801 17.7561 46.6804 3.9717 -9.3539 -4.9387
# 2 17.7561 75.1326 27.6564 5.4011 -12.0540 -2.7353
# 3 46.6804 27.6564 133.9673 -7.8313 -18.0381 12.7041
# 4 3.9717 5.4011 -7.8313 37.3263 -0.5754 -9.8078
# 5 -9.3539 -12.0540 -18.0381 -0.5754 49.4599 0.5492
# 6 -4.9387 -2.7353 12.7041 -9.8078 0.5492 25.8491
#
#
#
# Elastic Compliance Matrix: (Units=1/GPa)
#
#
# Indices 1 2 3 4 5 6 
#
# 1 0.013364 -0.001058 -0.004862 -0.001128 0.000434 0.004394
# 2 -0.001058 0.015184 -0.002739 -0.002124 0.002456 0.001893
# 3 -0.004862 -0.002739 0.010704 0.001644 0.002401 -0.005907
# 4 -0.001128 -0.002124 0.001644 0.030252 0.000107 0.010228
# 5 0.000434 0.002456 0.002401 0.000107 0.021790 -0.001260
# 6 0.004394 0.001893 -0.005907 0.010228 -0.001260 0.046536
#
#
# Mechanical properties :
#
#
# Convention : Reuss Voigt Hill
#
# Bulk Modulus (GPa) = 45.59282 54.30732 49.95007
# Shear Modulus (GPa) = 30.77693 36.69285 33.73489
#
# Velocity S-wave (km/s) = 3.80474 4.15435 3.98339
# Velocity P-wave (km/s) = 6.38328 6.96816 6.68212
#
# Compressibility (1/GPa) = 0.02193328
#
# Stress axis : x y z
#
# Youngs Moduli (GPa) = 74.82736 65.86062 93.42464
#
# Poissons Ratio (x) = 0.06966 0.45427
# Poissons Ratio (y) = 0.07915 0.25588
# Poissons Ratio (z) = 0.36384 0.18039
#
# Static dielectric constant tensor:
#      x y z
#    x 1.754870 -0.023370 0.010870 
#    y -0.023370 1.744110 -0.008430 
#    z 0.010870 -0.008430 1.753870 
# 
# From -- ./inp_files/367989.got.cif
#   From: 2010.05.17/outbox.cif.g08.bks.cpg/sg2_184_cif.got.tgz:367989.got - 2010.06.03 11:33:40.
