data_PCOD9069196
_publ_section_title
;
Structure prediction by ZEFSAII (Michael W. Deem and Ramdas Pophale) SiO2 
 PCOD9069196
Probable space group: P -1
;
_chemical_formula_sum "Si O2"
_cell_formula_units_Z 14
_cell_length_a 14.418338
_cell_length_b 8.831446
_cell_length_c 13.843894
_cell_angle_alpha 125.856641
_cell_angle_beta 147.016569
_cell_angle_gamma 77.533447
_cell_volume 607.567544
_symmetry_space_group_name_H-M "P -1"
_symmetry_group_IT_number 2
_symmetry_cell_setting 'triclinic'
loop_
_space_group_symop_operation_xyz
x,y,z
-x,-y,-z
loop_
_atom_site_type_symbol
_atom_site_label
_atom_site_fract_x
_atom_site_fract_y
_atom_site_fract_z
Si Si1 0.281282 0.475135 0.291270
Si Si2 0.991295 0.686077 0.808316
Si Si3 0.266445 0.753759 0.722846
Si Si4 0.396705 0.631873 0.971135
Si Si5 0.948122 0.838407 0.485019
Si Si6 0.898815 0.983286 0.701836
Si Si7 0.509356 0.980336 0.351500
O O1 0.500000 0.500000 0.500000
O O2 0.139730 0.379206 0.230613
O O3 0.364913 0.737724 0.433081
O O4 0.105837 0.263796 0.986759
O O5 0.860541 0.429966 0.544271
O O6 0.957385 0.849331 0.773128
O O7 0.254547 0.831193 0.105025
O O8 0.294909 0.613304 0.773591
O O9 0.144465 0.846906 0.696253
O O10 0.500000 0.000000 0.000000
O O11 0.204547 0.427429 0.794147
O O12 0.500000 0.500000 0.000000
O O13 0.493172 0.884998 0.193050
O O14 0.871730 0.899530 0.535308
O O15 0.000000 0.000000 0.500000
O O16 0.675808 0.936751 0.524096
#
# Coordination Sequence:
#
# PCOD9069196 Si02
#       7
#     2   2   2   2   2   2   2
#     4  12  29  52  77 110 154 202 262 317 375 458
#     4  12  26  51  78 111 152 204 255 316 387 452
#     4  12  25  42  73 111 152 199 249 315 390 452
#     4  12  22  45  71 109 150 188 244 311 379 459
#     4  12  26  44  72 111 152 195 250 310 383 458
#     4  12  27  51  76 111 154 201 257 314 382 454
#     4  12  26  48  79 110 155 199 256 318 377 457
#
# _framework density 23.042705000000002
#
# number of rings (size 3 to 8) (size 9 to 14) (size 15 to 20)
#    0.000    0.000    5.714    3.857    4.000    0.571 
#    2.571    0.000    0.000    0.000    0.000    0.000 
#    0.000    0.000    0.000    0.000    0.000    0.000 
#
# Total GULP energy -78021.363307 kJ/mol
# GULP energy per Si atom -5572.954522 kJ/mol
# Density = 2.299026 g / cm^3
# Si number density = 23.042705 Si / 1000 Ang^3
#
#
#
# Elastic Constant Matrix: (Units=GPa)
#
#
# Indices 1 2 3 4 5 6 
#
# 1 96.3265 47.3558 43.0529 -1.7270 7.3144 -21.1582
# 2 47.3558 124.2699 45.0625 1.2351 21.1834 -17.2268
# 3 43.0529 45.0625 158.2105 23.9223 11.7474 -22.4632
# 4 -1.7270 1.2351 23.9223 56.3770 -14.3131 9.9824
# 5 7.3144 21.1834 11.7474 -14.3131 48.5111 -6.0732
# 6 -21.1582 -17.2268 -22.4632 9.9824 -6.0732 35.4510
#
#
#
# Elastic Compliance Matrix: (Units=1/GPa)
#
#
# Indices 1 2 3 4 5 6 
#
# 1 0.014506 -0.004198 -0.002228 0.000843 0.001079 0.005154
# 2 -0.004198 0.011042 -0.001297 -0.001131 -0.003999 0.001672
# 3 -0.002228 -0.001297 0.008934 -0.005241 -0.002207 0.004799
# 4 0.000843 -0.001131 -0.005241 0.023446 0.007466 -0.008690
# 5 0.001079 -0.003999 -0.002207 0.007466 0.024867 -0.000540
# 6 0.005154 0.001672 0.004799 -0.008690 -0.000540 0.037491
#
#
# Mechanical properties :
#
#
# Convention : Reuss Voigt Hill
#
# Bulk Modulus (GPa) = 52.53220 72.19438 62.36329
# Shear Modulus (GPa) = 35.19209 44.29019 39.74114
#
# Velocity S-wave (km/s) = 3.91225 4.38892 4.15742
# Velocity P-wave (km/s) = 6.57684 7.55528 7.08298
#
# Compressibility (1/GPa) = 0.01903594
#
# Stress axis : x y z
#
# Youngs Moduli (GPa) = 68.93725 90.56483 111.93218
#
# Poissons Ratio (x) = 0.38019 0.24934
# Poissons Ratio (y) = 0.28940 0.14521
# Poissons Ratio (z) = 0.15357 0.11749
#
# Static dielectric constant tensor:
#      x y z
#    x 1.948460 0.040730 0.153710 
#    y 0.040730 1.925310 0.041110 
#    z 0.153710 0.041110 2.111470 
# 
# From -- ./inp_files/530191.got.cif
#   From: 2010.05.17/outbox.cif.g08.bks.cpg/sg2_266_cif.got.tgz:530191.got - 2010.06.03 11:33:40.
