data_PCOD9069836
_publ_section_title
;
Structure prediction by ZEFSAII (Michael W. Deem and Ramdas Pophale) SiO2 
 PCOD9069836
Probable space group: P -1
;
_chemical_formula_sum "Si O2"
_cell_formula_units_Z 16
_cell_length_a 5.237464
_cell_length_b 28.189497
_cell_length_c 28.339242
_cell_angle_alpha 169.778381
_cell_angle_beta 77.658307
_cell_angle_gamma 101.297715
_cell_volume 722.804736
_symmetry_space_group_name_H-M "P -1"
_symmetry_group_IT_number 2
_symmetry_cell_setting 'triclinic'
loop_
_space_group_symop_operation_xyz
x,y,z
-x,-y,-z
loop_
_atom_site_type_symbol
_atom_site_label
_atom_site_fract_x
_atom_site_fract_y
_atom_site_fract_z
Si Si1 0.849331 0.879874 0.432203
Si Si2 0.435202 0.594773 0.424426
Si Si3 0.786982 0.018363 0.984775
Si Si4 0.484870 0.868321 0.107410
Si Si5 0.854038 0.295183 0.661630
Si Si6 0.862518 0.557188 0.453080
Si Si7 0.083837 0.167806 0.865365
Si Si8 0.435760 0.587587 0.034962
O O1 0.975596 0.881650 0.480094
O O2 0.594231 0.092159 0.652342
O O3 0.820833 0.567337 0.117859
O O4 0.000000 0.000000 0.500000
O O5 0.643929 0.611153 0.474233
O O6 0.151108 0.540539 0.402731
O O7 0.423202 0.869410 0.664728
O O8 0.526799 0.359315 0.154342
O O9 0.805899 0.289570 0.220670
O O10 0.500000 0.000000 0.000000
O O11 0.845350 0.785577 0.716704
O O12 0.000000 0.000000 0.000000
O O13 0.193023 0.920068 0.190771
O O14 0.701914 0.783826 0.055728
O O15 0.628736 0.451325 0.855031
O O16 0.790775 0.078542 0.412828
O O17 0.981060 0.546944 0.879179
O O18 0.500000 0.500000 0.000000
#
# Coordination Sequence:
#
# PCOD9069836 Si02
#       8
#     2   2   2   2   2   2   2   2
#     4  12  26  44  69  98 135 174 224 275 336 399
#     4  12  24  45  74 100 135 175 242 306 345 410
#     4  12  24  42  64 100 154 196 231 284 343 408
#     4  12  26  49  71 102 136 179 223 300 372 412
#     4  12  28  45  69 100 134 181 221 280 336 436
#     4  12  24  42  70 106 134 190 247 286 343 408
#     4  12  28  47  72 102 139 179 226 278 365 444
#     4  12  26  44  69  98 135 174 224 275 336 399
#
# _framework density 22.135992000000002
#
# number of rings (size 3 to 8) (size 9 to 14) (size 15 to 20)
#    0.000    0.000    1.250    9.000    7.000    0.000 
#    0.000    0.000    0.000    0.000    0.000    0.000 
#    0.000    0.000    0.000    0.000    0.000    0.000 
#
# Total GULP energy -89580.186983 kJ/mol
# GULP energy per Si atom -5598.761686 kJ/mol
# Density = 2.208561 g / cm^3
# Si number density = 22.135992 Si / 1000 Ang^3
#
#
#
# Elastic Constant Matrix: (Units=GPa)
#
#
# Indices 1 2 3 4 5 6 
#
# 1 114.3149 48.3007 -8.5843 -3.8300 1.9001 1.6502
# 2 48.3007 123.5965 39.3511 -0.2305 0.9677 1.4726
# 3 -8.5843 39.3511 127.9925 -1.8358 -0.0772 1.1124
# 4 -3.8300 -0.2305 -1.8358 46.8171 -0.8422 7.9398
# 5 1.9001 0.9677 -0.0772 -0.8422 36.8066 -5.3329
# 6 1.6502 1.4726 1.1124 7.9398 -5.3329 58.9212
#
#
#
# Elastic Compliance Matrix: (Units=1/GPa)
#
#
# Indices 1 2 3 4 5 6 
#
# 1 0.011114 -0.005072 0.002323 0.001036 -0.000471 -0.000411
# 2 -0.005072 0.011288 -0.003818 -0.000509 -0.000055 -0.000004
# 3 0.002323 -0.003818 0.009153 0.000567 -0.000019 -0.000221
# 4 0.001036 -0.000509 0.000567 0.021971 0.000031 -0.002985
# 5 -0.000471 -0.000055 -0.000019 0.000031 0.027558 0.002505
# 6 -0.000411 -0.000004 -0.000221 -0.002985 0.002505 0.017617
#
#
# Mechanical properties :
#
#
# Convention : Reuss Voigt Hill
#
# Bulk Modulus (GPa) = 54.28866 58.22654 56.25760
# Shear Modulus (GPa) = 42.38171 47.63140 45.00655
#
# Velocity S-wave (km/s) = 4.38037 4.64374 4.51398
# Velocity P-wave (km/s) = 7.08250 7.42385 7.25518
#
# Compressibility (1/GPa) = 0.01842005
#
# Stress axis : x y z
#
# Youngs Moduli (GPa) = 89.97767 88.58807 109.25803
#
# Poissons Ratio (x) = 0.44935 -0.25381
# Poissons Ratio (y) = 0.45640 0.41715
# Poissons Ratio (z) = -0.20902 0.33823
#
# Static dielectric constant tensor:
#      x y z
#    x 1.879150 0.022880 0.012180 
#    y 0.022880 1.791680 -0.013460 
#    z 0.012180 -0.013460 1.777430 
# 
# From -- ./inp_files/616032.got.cif
#   From: 2010.05.17/outbox.cif.g08.bks.cpg/sg2_309_cif.got.tgz:616032.got - 2010.06.03 11:33:40.
