data_PCOD9069802
_publ_section_title
;
Structure prediction by ZEFSAII (Michael W. Deem and Ramdas Pophale) SiO2 
 PCOD9069802
Probable space group: P -1
;
_chemical_formula_sum "Si O2"
_cell_formula_units_Z 14
_cell_length_a 11.639950
_cell_length_b 15.971229
_cell_length_c 15.287224
_cell_angle_alpha 152.259005
_cell_angle_beta 32.363850
_cell_angle_gamma 155.239252
_cell_volume 541.680069
_symmetry_space_group_name_H-M "P -1"
_symmetry_group_IT_number 2
_symmetry_cell_setting 'triclinic'
loop_
_space_group_symop_operation_xyz
x,y,z
-x,-y,-z
loop_
_atom_site_type_symbol
_atom_site_label
_atom_site_fract_x
_atom_site_fract_y
_atom_site_fract_z
Si Si1 0.237047 0.035580 0.195821
Si Si2 0.800712 0.095655 0.568279
Si Si3 0.546842 0.278652 0.401333
Si Si4 0.000000 0.000000 0.000000
Si Si5 0.500000 0.000000 0.500000
Si Si6 0.904362 0.538126 0.689545
Si Si7 0.624168 0.718857 0.832637
Si Si8 0.945301 0.510944 0.943951
O O1 0.417699 0.186760 0.303853
O O2 0.396119 0.142926 0.101786
O O3 0.985051 0.041924 0.355873
O O4 0.107284 0.771998 0.050368
O O5 0.003327 0.364201 0.716719
O O6 0.657496 0.935040 0.597239
O O7 0.580789 0.052606 0.601011
O O8 0.559637 0.493453 0.621791
O O9 0.852192 0.365958 0.306959
O O10 0.106492 0.255053 0.128414
O O11 0.080304 0.113831 0.153777
O O12 0.361205 0.720629 0.347812
O O13 0.000000 0.500000 0.500000
O O14 0.390236 0.634810 0.978194
O O15 0.000000 0.500000 0.000000
#
# Coordination Sequence:
#
# PCOD9069802 Si02
#       8
#     2   2   2   1   1   2   2   2
#     4  12  28  50  77 113 153 203 254 314 379 464
#     4  12  25  49  79 111 155 203 250 319 378 460
#     4  12  23  51  79 105 156 202 246 318 391 445
#     4  12  28  50  76 112 156 198 254 324 384 446
#     4  12  28  48  80 110 148 210 260 306 388 460
#     4  12  26  51  75 110 156 201 257 317 385 461
#     4  12  27  48  79 112 150 202 254 313 380 463
#     4  12  27  48  75 112 156 193 252 316 383 443
#
# _framework density 25.845514999999999
#
# number of rings (size 3 to 8) (size 9 to 14) (size 15 to 20)
#    0.000    0.000    5.714    3.429    2.000    1.714 
#    2.571    2.143    0.000    0.000    0.000    0.000 
#    0.000    0.000    0.000    0.000    0.000    0.000 
#
# Total GULP energy -78099.721274 kJ/mol
# GULP energy per Si atom -5578.551520 kJ/mol
# Density = 2.578669 g / cm^3
# Si number density = 25.845515 Si / 1000 Ang^3
#
#
#
# Elastic Constant Matrix: (Units=GPa)
#
#
# Indices 1 2 3 4 5 6 
#
# 1 133.6382 47.1605 26.5323 14.1603 24.8502 -31.0922
# 2 47.1605 145.6855 67.2884 51.9240 -9.7447 -33.6007
# 3 26.5323 67.2884 138.4817 59.7737 -0.5397 -13.6306
# 4 14.1603 51.9240 59.7737 58.8893 -4.7425 -13.6669
# 5 24.8502 -9.7447 -0.5397 -4.7425 50.8594 5.0975
# 6 -31.0922 -33.6007 -13.6306 -13.6669 5.0975 40.0966
#
#
#
# Elastic Compliance Matrix: (Units=1/GPa)
#
#
# Indices 1 2 3 4 5 6 
#
# 1 0.011467 -0.002506 -0.000977 0.001738 -0.006724 0.007907
# 2 -0.002506 0.012423 -0.002086 -0.006851 0.002431 0.005113
# 3 -0.000977 -0.002086 0.013441 -0.012081 -0.000709 -0.001965
# 4 0.001738 -0.006851 -0.012081 0.035757 0.000683 0.003601
# 5 -0.006724 0.002431 -0.000709 0.000683 0.024096 -0.006248
# 6 0.007907 0.005113 -0.001965 0.003601 -0.006248 0.036709
#
#
# Mechanical properties :
#
#
# Convention : Reuss Voigt Hill
#
# Bulk Modulus (GPa) = 38.18178 77.75196 57.96687
# Shear Modulus (GPa) = 32.51784 48.42403 40.47093
#
# Velocity S-wave (km/s) = 3.55091 4.33320 3.96141
# Velocity P-wave (km/s) = 5.62290 7.42860 6.58791
#
# Compressibility (1/GPa) = 0.02619050
#
# Stress axis : x y z
#
# Youngs Moduli (GPa) = 87.20594 80.49878 74.40145
#
# Poissons Ratio (x) = 0.20175 0.07272
# Poissons Ratio (y) = 0.21856 0.15522
# Poissons Ratio (z) = 0.08523 0.16794
#
# Static dielectric constant tensor:
#      x y z
#    x 2.039370 0.056600 -0.041250 
#    y 0.056600 2.101320 -0.062120 
#    z -0.041250 -0.062120 2.031540 
# 
# From -- ./inp_files/521090.got.cif
#   From: 2010.05.17/outbox.cif.g08.bks.cpg/sg2_261_cif.got.tgz:521090.got - 2010.06.03 11:33:40.
