data_PCOD9069035
_publ_section_title
;
Structure prediction by ZEFSAII (Michael W. Deem and Ramdas Pophale) SiO2 
 PCOD9069035
Probable space group: P -1
;
_chemical_formula_sum "Si O2"
_cell_formula_units_Z 14
_cell_length_a 14.220688
_cell_length_b 28.374830
_cell_length_c 13.557085
_cell_angle_alpha 17.603238
_cell_angle_beta 159.368823
_cell_angle_gamma 159.011250
_cell_volume 536.653190
_symmetry_space_group_name_H-M "P -1"
_symmetry_group_IT_number 2
_symmetry_cell_setting 'triclinic'
loop_
_space_group_symop_operation_xyz
x,y,z
-x,-y,-z
loop_
_atom_site_type_symbol
_atom_site_label
_atom_site_fract_x
_atom_site_fract_y
_atom_site_fract_z
Si Si1 0.992496 0.291508 0.164189
Si Si2 0.893818 0.825470 0.111646
Si Si3 0.554697 0.833352 0.247341
Si Si4 0.495533 0.991181 0.629470
Si Si5 0.422157 0.324388 0.216925
Si Si6 0.852983 0.231571 0.715685
Si Si7 0.806751 0.594087 0.663268
O O1 0.193854 0.216871 0.452103
O O2 0.197111 0.411399 0.211199
O O3 0.748783 0.172051 0.240075
O O4 0.759465 0.295999 0.844038
O O5 0.187751 0.994326 0.058190
O O6 0.974900 0.721355 0.313517
O O7 0.899383 0.765775 0.347594
O O8 0.608798 0.858736 0.741458
O O9 0.563750 0.807910 0.423639
O O10 0.634013 0.031682 0.904521
O O11 0.500000 0.000000 0.500000
O O12 0.665615 0.338979 0.345699
O O13 0.500000 0.500000 0.000000
O O14 0.107343 0.261882 0.983968
O O15 0.500000 0.500000 0.500000
O O16 0.000000 0.500000 0.000000
#
# Coordination Sequence:
#
# PCOD9069035 Si02
#       7
#     2   2   2   2   2   2   2
#     4  12  24  43  73 104 139 183 232 294 352 414
#     4  12  25  42  72 101 138 182 230 291 349 406
#     4  12  25  46  75 109 137 182 243 305 360 410
#     4  12  22  40  70 103 138 176 231 289 349 388
#     4  12  28  48  72 103 144 190 233 291 367 442
#     4  12  24  47  75 105 139 180 245 302 357 415
#     4  12  28  45  63 101 148 194 230 273 343 434
#
# _framework density 26.087612
#
# number of rings (size 3 to 8) (size 9 to 14) (size 15 to 20)
#    0.000    0.000    4.286    6.000    2.000    3.429 
#    0.000    0.000    0.000    0.000    0.000    0.000 
#    0.000    0.000    0.000    0.000    0.000    0.000 
#
# Total GULP energy -78310.468250 kJ/mol
# GULP energy per Si atom -5593.604875 kJ/mol
# Density = 2.602824 g / cm^3
# Si number density = 26.087612 Si / 1000 Ang^3
#
#
#
# Elastic Constant Matrix: (Units=GPa)
#
#
# Indices 1 2 3 4 5 6 
#
# 1 129.2175 12.7878 22.0627 8.0768 16.6886 -17.9835
# 2 12.7878 100.0395 21.7315 41.3713 4.9872 -12.9832
# 3 22.0627 21.7315 100.5215 27.3122 18.0480 -1.2102
# 4 8.0768 41.3713 27.3122 47.1658 -0.3625 -3.8903
# 5 16.6886 4.9872 18.0480 -0.3625 62.3159 5.0030
# 6 -17.9835 -12.9832 -1.2102 -3.8903 5.0030 38.5816
#
#
#
# Elastic Compliance Matrix: (Units=1/GPa)
#
#
# Indices 1 2 3 4 5 6 
#
# 1 0.008909 0.000007 -0.001378 -0.000391 -0.002341 0.004376
# 2 0.000007 0.016537 0.000809 -0.014630 -0.001996 0.004377
# 3 -0.001378 0.000809 0.012855 -0.007971 -0.003439 -0.000324
# 4 -0.000391 -0.014630 -0.007971 0.038584 0.003967 -0.001979
# 5 -0.002341 -0.001996 -0.003439 0.003967 0.018160 -0.003826
# 6 0.004376 0.004377 -0.000324 -0.001979 -0.003826 0.029718
#
#
# Mechanical properties :
#
#
# Convention : Reuss Voigt Hill
#
# Bulk Modulus (GPa) = 26.89761 49.21583 38.05672
# Shear Modulus (GPa) = 36.15869 47.82575 41.99222
#
# Velocity S-wave (km/s) = 3.72701 4.28632 4.01641
# Velocity P-wave (km/s) = 5.37156 6.58812 6.01070
#
# Compressibility (1/GPa) = 0.03717802
#
# Stress axis : x y z
#
# Youngs Moduli (GPa) = 112.24289 60.47048 77.79147
#
# Poissons Ratio (x) = -0.00040 0.10717
# Poissons Ratio (y) = -0.00075 -0.06297
# Poissons Ratio (z) = 0.15463 -0.04895
#
# Static dielectric constant tensor:
#      x y z
#    x 2.116770 0.069150 -0.044140 
#    y 0.069150 2.376490 -0.075330 
#    z -0.044140 -0.075330 2.027050 
# 
# From -- ./inp_files/287086.got.cif
#   From: 2010.05.17/outbox.cif.g08.bks.cpg/sg2_144_cif.got.tgz:287086.got - 2010.06.03 11:33:40.
