data_PCOD9069393
_publ_section_title
;
Structure prediction by ZEFSAII (Michael W. Deem and Ramdas Pophale) SiO2 
 PCOD9069393
Probable space group: P -1
;
_chemical_formula_sum "Si O2"
_cell_formula_units_Z 14
_cell_length_a 9.486376
_cell_length_b 12.329432
_cell_length_c 9.180991
_cell_angle_alpha 104.067101
_cell_angle_beta 105.379131
_cell_angle_gamma 35.782889
_cell_volume 604.655632
_symmetry_space_group_name_H-M "P -1"
_symmetry_group_IT_number 2
_symmetry_cell_setting 'triclinic'
loop_
_space_group_symop_operation_xyz
x,y,z
-x,-y,-z
loop_
_atom_site_type_symbol
_atom_site_label
_atom_site_fract_x
_atom_site_fract_y
_atom_site_fract_z
Si Si1 0.209059 0.949753 0.113391
Si Si2 0.224043 0.153217 0.405206
Si Si3 0.586034 0.546653 0.138636
Si Si4 0.879797 0.455287 0.924353
Si Si5 0.643647 0.708262 0.663315
Si Si6 0.314381 0.023660 0.891057
Si Si7 0.299855 0.545831 0.544340
O O1 0.370281 0.762844 0.182414
O O2 0.200699 0.063931 0.254778
O O3 0.319918 0.928253 0.986976
O O4 0.000000 0.000000 0.000000
O O5 0.191138 0.290760 0.351663
O O6 0.997536 0.275616 0.496764
O O7 0.500000 0.000000 0.500000
O O8 0.682660 0.434982 0.275147
O O9 0.500000 0.500000 0.000000
O O10 0.762801 0.501788 0.063321
O O11 0.730600 0.574519 0.776484
O O12 0.060512 0.241849 0.876658
O O13 0.000000 0.500000 0.000000
O O14 0.613227 0.635525 0.507120
O O15 0.410814 0.912607 0.732346
O O16 0.500000 0.000000 0.000000
O O17 0.500000 0.500000 0.500000
#
# Coordination Sequence:
#
# PCOD9069393 Si02
#       7
#     2   2   2   2   2   2   2
#     4  12  25  46  78 114 155 202 270 333 393 476
#     4  12  28  51  78 115 163 214 263 330 405 480
#     4  12  25  49  73 108 153 203 256 326 397 467
#     4  12  23  42  76 106 145 193 252 316 377 462
#     4  12  26  47  76 111 157 202 259 326 397 477
#     4  12  23  43  72 115 148 195 259 318 390 467
#     4  12  29  51  76 114 159 211 268 327 404 476
#
# _framework density 23.153676000000001
#
# number of rings (size 3 to 8) (size 9 to 14) (size 15 to 20)
#    0.000    0.000    4.286    5.571    4.000    0.000 
#    0.000    1.429    0.000    0.000    0.000    0.000 
#    0.000    0.000    0.000    0.000    0.000    0.000 
#
# Total GULP energy -78060.818752 kJ/mol
# GULP energy per Si atom -5575.772768 kJ/mol
# Density = 2.310098 g / cm^3
# Si number density = 23.153676 Si / 1000 Ang^3
#
#
#
# Elastic Constant Matrix: (Units=GPa)
#
#
# Indices 1 2 3 4 5 6 
#
# 1 163.6734 13.4758 40.4398 5.7762 2.0448 -8.8002
# 2 13.4758 108.7300 30.0446 -1.5912 7.4406 -9.9033
# 3 40.4398 30.0446 118.9503 2.0596 12.0967 -12.5284
# 4 5.7762 -1.5912 2.0596 50.8220 15.3311 3.4944
# 5 2.0448 7.4406 12.0967 15.3311 43.6120 9.8465
# 6 -8.8002 -9.9033 -12.5284 3.4944 9.8465 35.3684
#
#
#
# Elastic Compliance Matrix: (Units=1/GPa)
#
#
# Indices 1 2 3 4 5 6 
#
# 1 0.006735 -0.000201 -0.002184 -0.000874 0.000450 0.000807
# 2 -0.000201 0.010171 -0.002038 0.000864 -0.002042 0.002559
# 3 -0.002184 -0.002038 0.010363 0.000552 -0.003397 0.003448
# 4 -0.000874 0.000864 0.000552 0.022214 -0.008134 0.000290
# 5 0.000450 -0.002042 -0.003397 -0.008134 0.029080 -0.008955
# 6 0.000807 0.002559 0.003448 0.000290 -0.008955 0.032877
#
#
# Mechanical properties :
#
#
# Convention : Reuss Voigt Hill
#
# Bulk Modulus (GPa) = 54.28619 62.14158 58.21389
# Shear Modulus (GPa) = 39.54816 46.45338 43.00077
#
# Velocity S-wave (km/s) = 4.13737 4.48404 4.31419
# Velocity P-wave (km/s) = 6.80593 7.32843 7.07201
#
# Compressibility (1/GPa) = 0.01842089
#
# Stress axis : x y z
#
# Youngs Moduli (GPa) = 148.48649 98.32172 96.49363
#
# Poissons Ratio (x) = 0.01978 0.21078
# Poissons Ratio (y) = 0.02987 0.19669
# Poissons Ratio (z) = 0.32435 0.20041
#
# Static dielectric constant tensor:
#      x y z
#    x 1.820470 -0.059370 0.129190 
#    y -0.059370 2.176430 0.117330 
#    z 0.129190 0.117330 2.077720 
# 
# From -- ./inp_files/188607.got.cif
#   From: 2010.05.17/outbox.cif.g08.bks.cpg/sg2_95_cif.got.tgz:188607.got - 2010.06.03 11:33:40.
