data_PCOD9069217
_publ_section_title
;
Structure prediction by ZEFSAII (Michael W. Deem and Ramdas Pophale) SiO2 
 PCOD9069217
Probable space group: P -1
;
_chemical_formula_sum "Si O2"
_cell_formula_units_Z 15
_cell_length_a 9.524808
_cell_length_b 9.489192
_cell_length_c 21.738396
_cell_angle_alpha 151.483436
_cell_angle_beta 129.438042
_cell_angle_gamma 53.371061
_cell_volume 720.484753
_symmetry_space_group_name_H-M "P -1"
_symmetry_group_IT_number 2
_symmetry_cell_setting 'triclinic'
loop_
_space_group_symop_operation_xyz
x,y,z
-x,-y,-z
loop_
_atom_site_type_symbol
_atom_site_label
_atom_site_fract_x
_atom_site_fract_y
_atom_site_fract_z
Si Si1 0.358002 0.612887 0.450836
Si Si2 0.681138 0.668244 0.118168
Si Si3 0.424846 0.328989 0.126658
Si Si4 0.000000 0.500000 0.500000
Si Si5 0.600313 0.336732 0.308178
Si Si6 0.659725 0.706630 0.271311
Si Si7 0.000375 0.353140 0.297450
Si Si8 0.996114 0.673623 0.001109
O O1 0.500000 0.500000 0.500000
O O2 0.430601 0.447115 0.346372
O O3 0.162451 0.526700 0.383212
O O4 0.355072 0.965164 0.579447
O O5 0.707973 0.724683 0.219784
O O6 0.649922 0.984293 0.196502
O O7 0.500000 0.500000 0.000000
O O8 0.853413 0.478873 0.062197
O O9 0.535194 0.401928 0.245991
O O10 0.472946 0.557637 0.174718
O O11 0.210917 0.336326 0.084034
O O12 0.500000 0.000000 0.000000
O O13 0.223846 0.508851 0.562127
O O14 0.992306 0.389413 0.382613
O O15 0.816872 0.498657 0.269627
O O16 0.029630 0.010364 0.154428
O O17 0.000000 0.500000 0.000000
#
# Coordination Sequence:
#
# PCOD9069217 Si02
#       8
#     2   2   2   1   2   2   2   2
#     4  12  26  46  70 101 140 189 236 289 353 424
#     4  12  26  45  74 105 144 192 238 291 367 429
#     4  12  25  49  73 107 147 182 241 302 362 425
#     4  12  22  46  72  98 142 192 230 286 370 404
#     4  12  26  47  73 102 145 188 236 299 354 435
#     4  12  26  47  73 103 145 188 235 302 351 429
#     4  12  26  47  70 104 146 184 241 296 357 430
#     4  12  27  45  77 107 143 194 239 298 367 433
#
# _framework density 20.819316000000001
#
# number of rings (size 3 to 8) (size 9 to 14) (size 15 to 20)
#    0.000    0.000    5.333    4.400    3.733    2.133 
#    2.400    0.000    0.000    0.000    0.000    0.000 
#    0.000    0.000    0.000    0.000    0.000    0.000 
#
# Total GULP energy -83721.261971 kJ/mol
# GULP energy per Si atom -5581.417465 kJ/mol
# Density = 2.077193 g / cm^3
# Si number density = 20.819316 Si / 1000 Ang^3
#
#
#
# Elastic Constant Matrix: (Units=GPa)
#
#
# Indices 1 2 3 4 5 6 
#
# 1 132.6279 9.3679 12.5161 9.4362 -5.6657 -19.8066
# 2 9.3679 57.1903 18.4329 3.8454 -11.5259 -6.2707
# 3 12.5161 18.4329 56.2962 18.3164 4.5940 -14.0491
# 4 9.4362 3.8454 18.3164 50.6463 -2.7637 0.2237
# 5 -5.6657 -11.5259 4.5940 -2.7637 38.2699 -0.6411
# 6 -19.8066 -6.2707 -14.0491 0.2237 -0.6411 33.9447
#
#
#
# Elastic Compliance Matrix: (Units=1/GPa)
#
#
# Indices 1 2 3 4 5 6 
#
# 1 0.008457 -0.000496 -0.000132 -0.001452 0.001094 0.004819
# 2 -0.000496 0.021610 -0.008026 0.001763 0.007534 0.000511
# 3 -0.000132 -0.008026 0.026225 -0.009224 -0.006096 0.009240
# 4 -0.001452 0.001763 -0.009224 0.023403 0.003039 -0.004436
# 5 0.001094 0.007534 -0.006096 0.003039 0.029513 0.000045
# 6 0.004819 0.000511 0.009240 -0.004436 0.000045 0.036220
#
#
# Mechanical properties :
#
#
# Convention : Reuss Voigt Hill
#
# Bulk Modulus (GPa) = 25.65257 36.30534 30.97896
# Shear Modulus (GPa) = 28.45261 38.29200 33.37231
#
# Velocity S-wave (km/s) = 3.70083 4.29330 4.00803
# Velocity P-wave (km/s) = 5.53261 6.48481 6.02754
#
# Compressibility (1/GPa) = 0.03898245
#
# Stress axis : x y z
#
# Youngs Moduli (GPa) = 118.24448 46.27576 38.13164
#
# Poissons Ratio (x) = 0.02296 0.00504
# Poissons Ratio (y) = 0.05867 0.30605
# Poissons Ratio (z) = 0.01563 0.37142
#
# Static dielectric constant tensor:
#      x y z
#    x 1.771530 0.013870 0.004620 
#    y 0.013870 1.722210 -0.038190 
#    z 0.004620 -0.038190 1.645890 
# 
# From -- ./inp_files/158940.got.cif
#   From: 2010.05.17/outbox.cif.g08.bks.cpg/sg2_80_cif.got.tgz:158940.got - 2010.06.03 11:33:40.
