data_PCOD9069334
_publ_section_title
;
Structure prediction by ZEFSAII (Michael W. Deem and Ramdas Pophale) SiO2 
 PCOD9069334
Probable space group: P -1
;
_chemical_formula_sum "Si O2"
_cell_formula_units_Z 14
_cell_length_a 14.690891
_cell_length_b 12.669408
_cell_length_c 21.178175
_cell_angle_alpha 30.475170
_cell_angle_beta 29.128086
_cell_angle_gamma 20.539682
_cell_volume 650.629352
_symmetry_space_group_name_H-M "P -1"
_symmetry_group_IT_number 2
_symmetry_cell_setting 'triclinic'
loop_
_space_group_symop_operation_xyz
x,y,z
-x,-y,-z
loop_
_atom_site_type_symbol
_atom_site_label
_atom_site_fract_x
_atom_site_fract_y
_atom_site_fract_z
Si Si1 0.650982 0.399012 0.892386
Si Si2 0.826621 0.344097 0.047280
Si Si3 0.695891 0.662495 0.085055
Si Si4 0.448936 0.714649 0.338901
Si Si5 0.945411 0.438176 0.270366
Si Si6 0.667776 0.649058 0.450001
Si Si7 0.886279 0.633769 0.570594
O O1 0.771138 0.523525 0.733555
O O2 0.500000 0.500000 0.000000
O O3 0.423100 0.524199 0.913621
O O4 0.911018 0.025697 0.925899
O O5 0.922167 0.492636 0.888970
O O6 0.727635 0.452131 0.123577
O O7 0.560655 0.706915 0.209020
O O8 0.000000 0.500000 0.000000
O O9 0.500000 0.000000 0.000000
O O10 0.698069 0.534553 0.330803
O O11 0.368146 0.546546 0.458801
O O12 0.184812 0.075545 0.331244
O O13 0.820217 0.646432 0.301935
O O14 0.865370 0.482317 0.476793
O O15 0.371801 0.993752 0.467555
O O16 0.000000 0.500000 0.500000
#
# Coordination Sequence:
#
# PCOD9069334 Si02
#       7
#     2   2   2   2   2   2   2
#     4  12  26  46  70  98 129 174 230 280 329 386
#     4  12  24  41  72  96 133 174 214 273 339 384
#     4  12  23  42  62 100 137 174 212 267 327 405
#     4  12  24  41  69 100 136 174 217 261 333 410
#     4  12  23  44  67 105 134 169 217 271 330 409
#     4  12  26  46  70  94 135 178 218 275 334 386
#     4  12  28  48  68  98 133 176 233 281 325 390
#
# _framework density 21.517627999999998
#
# number of rings (size 3 to 8) (size 9 to 14) (size 15 to 20)
#    0.000    0.000    2.857    7.714    4.000    0.000 
#    0.000    0.000    0.000    0.000    0.000    0.000 
#    0.000    0.000    0.000    0.000    0.000    0.000 
#
# Total GULP energy -78426.439970 kJ/mol
# GULP energy per Si atom -5601.888569 kJ/mol
# Density = 2.146865 g / cm^3
# Si number density = 21.517628 Si / 1000 Ang^3
#
#
#
# Elastic Constant Matrix: (Units=GPa)
#
#
# Indices 1 2 3 4 5 6 
#
# 1 134.9001 31.0645 5.4448 13.4365 -0.9265 -13.7378
# 2 31.0645 167.7022 4.6930 -5.5898 3.9679 -7.8228
# 3 5.4448 4.6930 75.2455 5.3629 -0.2727 -5.9958
# 4 13.4365 -5.5898 5.3629 20.5139 17.8948 4.2381
# 5 -0.9265 3.9679 -0.2727 17.8948 40.0861 21.7485
# 6 -13.7378 -7.8228 -5.9958 4.2381 21.7485 44.4228
#
#
#
# Elastic Compliance Matrix: (Units=1/GPa)
#
#
# Indices 1 2 3 4 5 6 
#
# 1 0.009139 -0.002117 0.000371 -0.010948 0.004610 0.001291
# 2 -0.002117 0.006874 -0.000653 0.007724 -0.005495 0.002421
# 3 0.000371 -0.000653 0.013868 -0.006261 0.002210 0.001387
# 4 -0.010948 0.007724 -0.006261 0.105557 -0.056048 0.014499
# 5 0.004610 -0.005495 0.002210 -0.056048 0.064436 -0.025443
# 6 0.001291 0.002421 0.001387 0.014499 -0.025443 0.034597
#
#
# Mechanical properties :
#
#
# Convention : Reuss Voigt Hill
#
# Bulk Modulus (GPa) = 39.86865 51.13919 45.50392
# Shear Modulus (GPa) = 20.19133 43.44758 31.81945
#
# Velocity S-wave (km/s) = 3.06659 4.49838 3.84964
# Velocity P-wave (km/s) = 5.57739 7.12730 6.39944
#
# Compressibility (1/GPa) = 0.02508236
#
# Stress axis : x y z
#
# Youngs Moduli (GPa) = 109.42071 145.47995 72.10608
#
# Poissons Ratio (x) = 0.30799 -0.02672
# Poissons Ratio (y) = 0.23165 0.04709
# Poissons Ratio (z) = -0.04055 0.09500
#
# Static dielectric constant tensor:
#      x y z
#    x 1.740830 0.017060 0.012710 
#    y 0.017060 1.748180 0.019170 
#    z 0.012710 0.019170 1.866840 
# 
# From -- ./inp_files/82523.got.cif
#   From: 2010.05.17/outbox.cif.g08.bks.cpg/sg2_42_cif.got.tgz:82523.got - 2010.06.03 11:33:40.
