data_PCOD9069152
_publ_section_title
;
Structure prediction by ZEFSAII (Michael W. Deem and Ramdas Pophale) SiO2 
 PCOD9069152
Probable space group: P -1
;
_chemical_formula_sum "Si O2"
_cell_formula_units_Z 16
_cell_length_a 17.532655
_cell_length_b 5.308051
_cell_length_c 12.140209
_cell_angle_alpha 49.846719
_cell_angle_beta 46.328043
_cell_angle_gamma 73.169164
_cell_volume 599.313703
_symmetry_space_group_name_H-M "P -1"
_symmetry_group_IT_number 2
_symmetry_cell_setting 'triclinic'
loop_
_space_group_symop_operation_xyz
x,y,z
-x,-y,-z
loop_
_atom_site_type_symbol
_atom_site_label
_atom_site_fract_x
_atom_site_fract_y
_atom_site_fract_z
Si Si1 0.179297 0.846977 0.402465
Si Si2 0.373632 0.121079 0.535868
Si Si3 0.448532 0.848215 0.806768
Si Si4 0.997543 0.870315 0.164527
Si Si5 0.178165 0.884743 0.626328
Si Si6 0.766352 0.768393 0.170845
Si Si7 0.698304 0.769175 0.012486
Si Si8 0.420414 0.879412 0.213813
O O1 0.079014 0.506793 0.618936
O O2 0.184250 0.059391 0.451425
O O3 0.299474 0.791767 0.309425
O O4 0.191874 0.029988 0.220459
O O5 0.467151 0.970867 0.428885
O O6 0.323124 0.087700 0.718790
O O7 0.429683 0.530853 0.358461
O O8 0.268170 0.058659 0.577848
O O9 0.544626 0.841763 0.802143
O O10 0.373457 0.495468 0.929576
O O11 0.368151 0.997030 0.923584
O O12 0.942182 0.127880 0.209743
O O13 0.000000 0.000000 0.000000
O O14 0.124771 0.928573 0.048321
O O15 0.200992 0.511564 0.705529
O O16 0.727570 0.585312 0.144542
O O17 0.500000 0.000000 0.000000
#
# Coordination Sequence:
#
# PCOD9069152 Si02
#       8
#     2   2   2   2   2   2   2   2
#     4  12  25  45  75 114 147 194 252 314 378 449
#     4  12  23  44  76 112 144 195 253 315 372 442
#     4  12  26  49  73 112 153 205 248 306 376 453
#     4  12  24  46  78 111 144 192 260 321 377 432
#     4  12  23  43  80 108 146 189 257 319 367 445
#     4  12  28  50  72 109 152 202 253 311 382 453
#     4  12  32  49  73 113 160 206 244 305 386 461
#     4  12  22  43  74 110 147 194 248 311 369 438
#
# _framework density 26.697203999999999
#
# number of rings (size 3 to 8) (size 9 to 14) (size 15 to 20)
#    0.000    0.000    8.750    0.375    5.250    2.500 
#    0.000    0.625    0.000    0.000    0.000    0.000 
#    0.000    0.000    0.000    0.000    0.000    0.000 
#
# Total GULP energy -89361.068168 kJ/mol
# GULP energy per Si atom -5585.066760 kJ/mol
# Density = 2.663644 g / cm^3
# Si number density = 26.697204 Si / 1000 Ang^3
#
#
#
# Elastic Constant Matrix: (Units=GPa)
#
#
# Indices 1 2 3 4 5 6 
#
# 1 52.1313 33.9708 40.5568 14.7878 5.3861 21.2000
# 2 33.9708 122.8901 62.1059 22.0317 2.2325 24.0715
# 3 40.5568 62.1059 201.2425 31.6292 -6.1185 16.8674
# 4 14.7878 22.0317 31.6292 59.1533 12.9006 -4.7384
# 5 5.3861 2.2325 -6.1185 12.9006 48.5987 6.6809
# 6 21.2000 24.0715 16.8674 -4.7384 6.6809 53.1518
#
#
#
# Elastic Compliance Matrix: (Units=1/GPa)
#
#
# Indices 1 2 3 4 5 6 
#
# 1 0.029408 -0.003799 -0.003264 -0.004723 -0.000967 -0.009273
# 2 -0.003799 0.011306 -0.002010 -0.002625 0.000799 -0.003302
# 3 -0.003264 -0.002010 0.006737 -0.002512 0.002025 -0.000404
# 4 -0.004723 -0.002625 -0.002512 0.022366 -0.006528 0.006685
# 5 -0.000967 0.000799 0.002025 -0.006528 0.023201 -0.004117
# 6 -0.009273 -0.003302 -0.000404 0.006685 -0.004117 0.025250
#
#
# Mechanical properties :
#
#
# Convention : Reuss Voigt Hill
#
# Bulk Modulus (GPa) = 34.12310 72.17008 53.14659
# Shear Modulus (GPa) = 34.20370 48.15611 41.17991
#
# Velocity S-wave (km/s) = 3.58323 4.25171 3.93170
# Velocity P-wave (km/s) = 5.47071 7.15501 6.36879
#
# Compressibility (1/GPa) = 0.02930566
#
# Stress axis : x y z
#
# Youngs Moduli (GPa) = 34.00435 88.44692 148.42374
#
# Poissons Ratio (x) = 0.33601 0.48446
# Poissons Ratio (y) = 0.12918 0.29832
# Poissons Ratio (z) = 0.11099 0.17777
#
# Static dielectric constant tensor:
#      x y z
#    x 2.178440 -0.000540 0.018460 
#    y -0.000540 2.151840 -0.026670 
#    z 0.018460 -0.026670 2.140480 
# 
# From -- ./inp_files/459436.got.cif
#   From: 2010.05.17/outbox.cif.g08.bks.cpg/sg2_230_cif.got.tgz:459436.got - 2010.06.03 11:33:40.
