data_PCOD9069139
_publ_section_title
;
Structure prediction by ZEFSAII (Michael W. Deem and Ramdas Pophale) SiO2 
 PCOD9069139
Probable space group: P -1
;
_chemical_formula_sum "Si O2"
_cell_formula_units_Z 10
_cell_length_a 8.258064
_cell_length_b 14.028067
_cell_length_c 7.778928
_cell_angle_alpha 63.482179
_cell_angle_beta 34.592678
_cell_angle_gamma 49.869411
_cell_volume 383.756874
_symmetry_space_group_name_H-M "P -1"
_symmetry_group_IT_number 2
_symmetry_cell_setting 'triclinic'
loop_
_space_group_symop_operation_xyz
x,y,z
-x,-y,-z
loop_
_atom_site_type_symbol
_atom_site_label
_atom_site_fract_x
_atom_site_fract_y
_atom_site_fract_z
Si Si1 0.506034 0.774151 0.523158
Si Si2 0.648717 0.584129 0.836950
Si Si3 0.432788 0.286881 0.847575
Si Si4 0.208799 0.113239 0.286646
Si Si5 0.819650 0.942601 0.095138
O O1 0.484273 0.714713 0.767815
O O2 0.618566 0.680623 0.336054
O O3 0.736071 0.833153 0.286000
O O4 0.109513 0.880763 0.742102
O O5 0.000000 0.500000 0.500000
O O6 0.500000 0.500000 0.000000
O O7 0.631922 0.613687 0.029427
O O8 0.820960 0.163114 0.629906
O O9 0.185604 0.239361 0.143937
O O10 0.436766 0.061446 0.301345
O O11 0.500000 0.000000 0.000000
O O12 0.000000 0.000000 0.000000
#
# Coordination Sequence:
#
# PCOD9069139 Si02
#       5
#     2   2   2   2   2
#     4  12  25  47  72 105 146 192 248 296 361 441
#     4  12  29  50  73 103 140 189 255 322 368 408
#     4  12  25  46  76 106 147 194 241 295 360 442
#     4  12  22  43  72 108 153 191 230 281 358 447
#     4  12  25  41  70 110 155 195 232 287 355 444
#
# _framework density 26.058167000000001
#
# number of rings (size 3 to 8) (size 9 to 14) (size 15 to 20)
#    0.000    0.000    4.000    6.000    0.000    4.800 
#    0.000    0.000    0.000    0.000    0.000    0.000 
#    0.000    0.000    0.000    0.000    0.000    0.000 
#
# Total GULP energy -55803.097650 kJ/mol
# GULP energy per Si atom -5580.309765 kJ/mol
# Density = 2.599886 g / cm^3
# Si number density = 26.058167 Si / 1000 Ang^3
#
#
#
# Elastic Constant Matrix: (Units=GPa)
#
#
# Indices 1 2 3 4 5 6 
#
# 1 122.2469 34.2620 57.9667 -2.6736 27.8753 53.0980
# 2 34.2620 69.2425 34.9076 -3.7412 3.8395 32.5755
# 3 57.9667 34.9076 170.0050 -3.7367 -22.8247 29.4120
# 4 -2.6736 -3.7412 -3.7367 53.4971 13.0101 -6.0778
# 5 27.8753 3.8395 -22.8247 13.0101 54.7737 20.3994
# 6 53.0980 32.5755 29.4120 -6.0778 20.3994 58.8777
#
#
#
# Elastic Compliance Matrix: (Units=1/GPa)
#
#
# Indices 1 2 3 4 5 6 
#
# 1 0.016326 -0.000858 -0.004674 0.001051 -0.006945 -0.009399
# 2 -0.000858 0.020594 -0.001814 -0.000484 0.002283 -0.010555
# 3 -0.004674 -0.001814 0.009208 -0.001814 0.007593 -0.002199
# 4 0.001051 -0.000484 -0.001814 0.021191 -0.008254 0.005273
# 5 -0.006945 0.002283 0.007593 -0.008254 0.030568 -0.010236
# 6 -0.009399 -0.010555 -0.002199 0.005273 -0.010236 0.036490
#
#
# Mechanical properties :
#
#
# Convention : Reuss Voigt Hill
#
# Bulk Modulus (GPa) = 31.81044 68.41855 50.11449
# Shear Modulus (GPa) = 31.33856 49.05356 40.19606
#
# Velocity S-wave (km/s) = 3.47167 4.34344 3.93179
# Velocity P-wave (km/s) = 5.32015 7.17406 6.31550
#
# Compressibility (1/GPa) = 0.03143622
#
# Stress axis : x y z
#
# Youngs Moduli (GPa) = 61.25212 48.55759 108.59855
#
# Poissons Ratio (x) = 0.04168 0.50755
# Poissons Ratio (y) = 0.05258 0.19699
# Poissons Ratio (z) = 0.28627 0.08808
#
# Static dielectric constant tensor:
#      x y z
#    x 2.034260 0.077270 0.296270 
#    y 0.077270 2.013220 -0.069490 
#    z 0.296270 -0.069490 1.880600 
# 
# From -- ./inp_files/164531.got.cif
#   From: 2010.05.17/outbox.cif.g08.bks.cpg/sg2_83_cif.got.tgz:164531.got - 2010.06.03 11:33:40.
