data_PCOD9069109
_publ_section_title
;
Structure prediction by ZEFSAII (Michael W. Deem and Ramdas Pophale) SiO2 
 PCOD9069109
Probable space group: P -1
;
_chemical_formula_sum "Si O2"
_cell_formula_units_Z 14
_cell_length_a 11.711927
_cell_length_b 7.282293
_cell_length_c 11.291251
_cell_angle_alpha 68.852027
_cell_angle_beta 69.136004
_cell_angle_gamma 37.743412
_cell_volume 545.541288
_symmetry_space_group_name_H-M "P -1"
_symmetry_group_IT_number 2
_symmetry_cell_setting 'triclinic'
loop_
_space_group_symop_operation_xyz
x,y,z
-x,-y,-z
loop_
_atom_site_type_symbol
_atom_site_label
_atom_site_fract_x
_atom_site_fract_y
_atom_site_fract_z
Si Si1 0.721719 0.644844 0.277755
Si Si2 0.263322 0.927313 0.720633
Si Si3 0.130393 0.033088 0.194234
Si Si4 0.657246 0.869353 0.845424
Si Si5 0.665164 0.472176 0.574474
Si Si6 0.898240 0.475182 0.629140
Si Si7 0.311596 0.618692 0.005536
O O1 0.699664 0.508581 0.421750
O O2 0.917422 0.363969 0.205284
O O3 0.733233 0.851127 0.282579
O O4 0.540818 0.855146 0.210620
O O5 0.450716 0.677552 0.631388
O O6 0.259554 0.784230 0.864345
O O7 0.073618 0.120480 0.674269
O O8 0.269883 0.047632 0.117036
O O9 0.203275 0.852433 0.335387
O O10 0.171707 0.837413 0.114970
O O11 0.818044 0.668580 0.731416
O O12 0.661126 0.647845 0.950681
O O13 0.720991 0.592623 0.605594
O O14 0.000000 0.500000 0.500000
O O15 0.500000 0.500000 0.000000
#
# Coordination Sequence:
#
# PCOD9069109 Si02
#       7
#     2   2   2   2   2   2   2
#     4  12  24  44  76 111 144 191 244 301 371 428
#     4  12  24  45  76 109 143 199 242 292 370 430
#     4  12  27  48  73 109 149 191 242 304 362 428
#     4  12  26  49  73 108 147 193 245 297 364 433
#     4  12  24  47  74 107 155 184 240 314 359 434
#     4  12  22  42  76 109 138 190 242 290 364 431
#     4  12  25  53  73 102 154 192 246 300 353 437
#
# _framework density 25.662586999999998
#
# number of rings (size 3 to 8) (size 9 to 14) (size 15 to 20)
#    0.000    0.000    8.571    1.714    0.000    3.429 
#    0.000    1.429    0.000    0.000    0.000    0.000 
#    0.000    0.000    0.000    0.000    0.000    0.000 
#
# Total GULP energy -78570.978758 kJ/mol
# GULP energy per Si atom -5612.212768 kJ/mol
# Density = 2.560418 g / cm^3
# Si number density = 25.662587 Si / 1000 Ang^3
#
#
#
# Elastic Constant Matrix: (Units=GPa)
#
#
# Indices 1 2 3 4 5 6 
#
# 1 102.5730 39.6178 36.1470 8.7024 -23.1084 0.0787
# 2 39.6178 130.4265 50.7793 -1.5266 -14.8010 -24.8201
# 3 36.1470 50.7793 164.0112 -19.8766 -35.7201 -8.6281
# 4 8.7024 -1.5266 -19.8766 29.8527 7.0607 -18.2632
# 5 -23.1084 -14.8010 -35.7201 7.0607 35.1530 -1.1190
# 6 0.0787 -24.8201 -8.6281 -18.2632 -1.1190 53.1517
#
#
#
# Elastic Compliance Matrix: (Units=1/GPa)
#
#
# Indices 1 2 3 4 5 6 
#
# 1 0.014822 -0.004104 -0.001914 -0.011406 0.008170 -0.005997
# 2 -0.004104 0.010754 -0.001652 0.004671 -0.000585 0.006352
# 3 -0.001914 -0.001652 0.009482 0.007405 0.006304 0.003448
# 4 -0.011406 0.004671 0.007405 0.058347 -0.008986 0.023259
# 5 0.008170 -0.000585 0.006304 -0.008986 0.041735 -0.001471
# 6 -0.005997 0.006352 0.003448 0.023259 -0.001471 0.030310
#
#
# Mechanical properties :
#
#
# Convention : Reuss Voigt Hill
#
# Bulk Modulus (GPa) = 50.71808 72.23322 61.47565
# Shear Modulus (GPa) = 26.68588 41.66259 34.17424
#
# Velocity S-wave (km/s) = 3.22821 4.03361 3.65317
# Velocity P-wave (km/s) = 5.80529 7.06412 6.46541
#
# Compressibility (1/GPa) = 0.01971684
#
# Stress axis : x y z
#
# Youngs Moduli (GPa) = 67.46703 92.98597 105.46018
#
# Poissons Ratio (x) = 0.38166 0.20188
# Poissons Ratio (y) = 0.27692 0.17424
# Poissons Ratio (z) = 0.12915 0.15363
#
# Static dielectric constant tensor:
#      x y z
#    x 2.040220 0.018520 0.074080 
#    y 0.018520 2.040210 -0.118840 
#    z 0.074080 -0.118840 2.248540 
# 
# From -- ./inp_files/445638.got.cif
#   From: 2010.05.17/outbox.cif.g08.bks.cpg/sg2_223_cif.got.tgz:445638.got - 2010.06.03 11:33:40.
