data_PCOD9069282
_publ_section_title
;
Structure prediction by ZEFSAII (Michael W. Deem and Ramdas Pophale) SiO2 
 PCOD9069282
Probable space group: P -1
;
_chemical_formula_sum "Si O2"
_cell_formula_units_Z 16
_cell_length_a 25.267477
_cell_length_b 8.999495
_cell_length_c 4.971779
_cell_angle_alpha 122.283181
_cell_angle_beta 100.326342
_cell_angle_gamma 51.747515
_cell_volume 730.790495
_symmetry_space_group_name_H-M "P -1"
_symmetry_group_IT_number 2
_symmetry_cell_setting 'triclinic'
loop_
_space_group_symop_operation_xyz
x,y,z
-x,-y,-z
loop_
_atom_site_type_symbol
_atom_site_label
_atom_site_fract_x
_atom_site_fract_y
_atom_site_fract_z
Si Si1 0.746979 0.876471 0.978453
Si Si2 0.532240 0.274649 0.983153
Si Si3 0.932954 0.235316 0.270537
Si Si4 0.602459 0.639698 0.875373
Si Si5 0.617112 0.022561 0.309327
Si Si6 0.873075 0.496697 0.970560
Si Si7 0.794334 0.418752 0.490125
Si Si8 0.683060 0.358889 0.190232
O O1 0.692122 0.938906 0.219366
O O2 0.716163 0.100509 0.004339
O O3 0.822108 0.752663 0.065412
O O4 0.759720 0.675260 0.616313
O O5 0.592568 0.085183 0.654163
O O6 0.500000 0.500000 0.000000
O O7 0.471778 0.259376 0.974303
O O8 0.566337 0.234770 0.267180
O O9 0.933708 0.326339 0.648796
O O10 0.867527 0.237119 0.237499
O O11 0.906028 0.435632 0.229518
O O12 0.000000 0.000000 0.000000
O O13 0.617966 0.519322 0.486293
O O14 0.610664 0.831310 0.040051
O O15 0.658527 0.452548 0.959159
O O16 0.821462 0.431532 0.820386
O O17 0.739974 0.379501 0.368790
#
# Coordination Sequence:
#
# PCOD9069282 Si02
#       8
#     2   2   2   2   2   2   2   2
#     4   9  22  40  60  89 117 156 195 245 300 336
#     4  12  25  41  59  85 114 155 200 240 299 359
#     4   9  17  32  59  86 115 157 191 229 285 342
#     4  12  25  41  59  88 116 151 206 239 302 352
#     4  12  23  40  63  81 119 153 192 252 294 349
#     4   8  19  32  56  83 119 145 197 231 284 340
#     4   8  22  35  61  85 122 145 202 232 288 344
#     4  12  23  40  63  87 119 156 195 248 290 356
#
# _framework density 21.894100000000002
#
# number of rings (size 3 to 8) (size 9 to 14) (size 15 to 20)
#    1.500    0.000    1.250    4.500    3.500    3.000 
#    0.000    0.000    0.000    3.750    0.000    0.000 
#    0.000    0.000    0.000    0.000    0.000    0.000 
#
# Total GULP energy -89230.843046 kJ/mol
# GULP energy per Si atom -5576.927690 kJ/mol
# Density = 2.184427 g / cm^3
# Si number density = 21.894100 Si / 1000 Ang^3
#
#
#
# Elastic Constant Matrix: (Units=GPa)
#
#
# Indices 1 2 3 4 5 6 
#
# 1 45.8286 17.0336 27.3043 15.1341 -9.7191 4.8035
# 2 17.0336 71.5687 13.7688 5.2739 -9.8333 11.3374
# 3 27.3043 13.7688 57.5459 6.6909 -19.4697 -2.6179
# 4 15.1341 5.2739 6.6909 44.2129 -0.5791 -3.5640
# 5 -9.7191 -9.8333 -19.4697 -0.5791 32.3362 8.8509
# 6 4.8035 11.3374 -2.6179 -3.5640 8.8509 24.4602
#
#
#
# Elastic Compliance Matrix: (Units=1/GPa)
#
#
# Indices 1 2 3 4 5 6 
#
# 1 0.037392 -0.002983 -0.014842 -0.011001 0.004110 -0.010639
# 2 -0.002983 0.017516 -0.000759 -0.001696 0.006764 -0.010309
# 3 -0.014842 -0.000759 0.028611 0.001173 0.011961 0.002171
# 4 -0.011001 -0.001696 0.001173 0.027055 -0.005052 0.008842
# 5 0.004110 0.006764 0.011961 -0.005052 0.046905 -0.020371
# 6 -0.010639 -0.010309 0.002171 0.008842 -0.020371 0.056642
#
#
# Mechanical properties :
#
#
# Convention : Reuss Voigt Hill
#
# Bulk Modulus (GPa) = 21.57488 32.35075 26.96282
# Shear Modulus (GPa) = 18.74499 27.99097 23.36798
#
# Velocity S-wave (km/s) = 2.92921 3.57945 3.27053
# Velocity P-wave (km/s) = 4.61692 5.64724 5.15787
#
# Compressibility (1/GPa) = 0.04635019
#
# Stress axis : x y z
#
# Youngs Moduli (GPa) = 26.74396 57.09065 34.95219
#
# Poissons Ratio (x) = 0.17031 0.51876
# Poissons Ratio (y) = 0.07978 0.02652
# Poissons Ratio (z) = 0.39693 0.04332
#
# Static dielectric constant tensor:
#      x y z
#    x 1.801490 -0.003840 -0.016580 
#    y -0.003840 1.826930 0.007670 
#    z -0.016580 0.007670 1.827190 
# 
# From -- ./inp_files/126524.got.cif
#   From: 2010.05.17/outbox.cif.g08.bks.cpg/sg2_64_cif.got.tgz:126524.got - 2010.06.03 11:33:40.
