data_PCOD9069239
_publ_section_title
;
Structure prediction by ZEFSAII (Michael W. Deem and Ramdas Pophale) SiO2 
 PCOD9069239
Probable space group: P -1
;
_chemical_formula_sum "Si O2"
_cell_formula_units_Z 15
_cell_length_a 9.166862
_cell_length_b 9.901748
_cell_length_c 12.543138
_cell_angle_alpha 56.198121
_cell_angle_beta 133.851006
_cell_angle_gamma 109.378945
_cell_volume 679.516262
_symmetry_space_group_name_H-M "P -1"
_symmetry_group_IT_number 2
_symmetry_cell_setting 'triclinic'
loop_
_space_group_symop_operation_xyz
x,y,z
-x,-y,-z
loop_
_atom_site_type_symbol
_atom_site_label
_atom_site_fract_x
_atom_site_fract_y
_atom_site_fract_z
Si Si1 0.857541 0.661645 0.325478
Si Si2 0.500000 0.500000 0.500000
Si Si3 0.562449 0.479363 0.787455
Si Si4 0.885278 0.893550 0.905649
Si Si5 0.047833 0.596917 0.231837
Si Si6 0.550178 0.206099 0.262911
Si Si7 0.823180 0.302520 0.174313
Si Si8 0.945349 0.025479 0.641773
O O1 0.628887 0.628359 0.249218
O O2 0.000000 0.500000 0.500000
O O3 0.902961 0.678102 0.216206
O O4 0.926470 0.817810 0.352929
O O5 0.596693 0.501934 0.669806
O O6 0.279099 0.585909 0.392550
O O7 0.506393 0.652293 0.741271
O O8 0.742788 0.385459 0.987617
O O9 0.649113 0.885959 0.816810
O O10 0.903280 0.963739 0.766296
O O11 0.994454 0.711889 0.053483
O O12 0.000000 0.000000 0.000000
O O13 0.977861 0.418167 0.254945
O O14 0.633528 0.290037 0.163186
O O15 0.734061 0.084340 0.453096
O O16 0.931740 0.123466 0.290207
#
# Coordination Sequence:
#
# PCOD9069239 Si02
#       8
#     2   1   2   2   2   2   2   2
#     4  12  22  47  77 103 143 197 254 290 361 443
#     4  12  28  40  72 112 148 184 248 304 368 432
#     4  12  25  47  78 108 143 203 245 298 369 452
#     4  12  27  46  73 108 152 193 249 302 366 443
#     4  12  24  48  73 107 147 201 243 301 371 440
#     4  12  25  50  78 107 144 205 251 292 376 447
#     4  12  27  48  78 111 148 189 254 313 362 432
#     4  12  27  46  73 114 149 191 245 316 362 434
#
# _framework density 22.074528000000001
#
# number of rings (size 3 to 8) (size 9 to 14) (size 15 to 20)
#    0.000    0.000    6.667    2.800    1.867    2.667 
#    2.400    0.000    0.000    0.000    0.000    0.000 
#    0.000    0.000    0.000    0.000    0.000    0.000 
#
# Total GULP energy -83780.202276 kJ/mol
# GULP energy per Si atom -5585.346818 kJ/mol
# Density = 2.202429 g / cm^3
# Si number density = 22.074528 Si / 1000 Ang^3
#
#
#
# Elastic Constant Matrix: (Units=GPa)
#
#
# Indices 1 2 3 4 5 6 
#
# 1 67.2486 28.0859 8.4542 9.1519 -9.8770 -5.6408
# 2 28.0859 138.9440 34.5668 -6.5991 12.5005 -0.7372
# 3 8.4542 34.5668 110.4211 7.9839 -2.1157 -7.1245
# 4 9.1519 -6.5991 7.9839 33.8581 -2.3475 4.9683
# 5 -9.8770 12.5005 -2.1157 -2.3475 47.8782 10.3512
# 6 -5.6408 -0.7372 -7.1245 4.9683 10.3512 40.9480
#
#
#
# Elastic Compliance Matrix: (Units=1/GPa)
#
#
# Indices 1 2 3 4 5 6 
#
# 1 0.018296 -0.004519 0.000673 -0.006019 0.004208 0.002223
# 2 -0.004519 0.009291 -0.002921 0.003588 -0.003183 -0.000594
# 3 0.000673 -0.002921 0.010315 -0.003435 0.000743 0.002064
# 4 -0.006019 0.003588 -0.003435 0.033523 0.000515 -0.005560
# 5 0.004208 -0.003183 0.000743 0.000515 0.023818 -0.005432
# 6 0.002223 -0.000594 0.002064 -0.005560 -0.005432 0.027124
#
#
# Mechanical properties :
#
#
# Convention : Reuss Voigt Hill
#
# Bulk Modulus (GPa) = 41.03646 50.98084 46.00865
# Shear Modulus (GPa) = 34.71670 40.90396 37.81033
#
# Velocity S-wave (km/s) = 3.97004 4.30931 4.14315
# Velocity P-wave (km/s) = 6.29645 6.92136 6.61629
#
# Compressibility (1/GPa) = 0.02436857
#
# Stress axis : x y z
#
# Youngs Moduli (GPa) = 54.65554 107.63310 96.94676
#
# Poissons Ratio (x) = 0.48634 -0.06524
# Poissons Ratio (y) = 0.24696 0.28320
# Poissons Ratio (z) = -0.03678 0.31442
#
# Static dielectric constant tensor:
#      x y z
#    x 1.853620 0.011450 -0.024440 
#    y 0.011450 1.790300 0.002270 
#    z -0.024440 0.002270 1.812640 
# 
# From -- ./inp_files/159402.got.cif
#   From: 2010.05.17/outbox.cif.g08.bks.cpg/sg2_80_cif.got.tgz:159402.got - 2010.06.03 11:33:40.
