data_PCOD9069154
_publ_section_title
;
Structure prediction by ZEFSAII (Michael W. Deem and Ramdas Pophale) SiO2 
 PCOD9069154
Probable space group: P -1
;
_chemical_formula_sum "Si O2"
_cell_formula_units_Z 14
_cell_length_a 11.385414
_cell_length_b 7.018207
_cell_length_c 11.471947
_cell_angle_alpha 65.807506
_cell_angle_beta 131.728634
_cell_angle_gamma 110.153420
_cell_volume 620.553913
_symmetry_space_group_name_H-M "P -1"
_symmetry_group_IT_number 2
_symmetry_cell_setting 'triclinic'
loop_
_space_group_symop_operation_xyz
x,y,z
-x,-y,-z
loop_
_atom_site_type_symbol
_atom_site_label
_atom_site_fract_x
_atom_site_fract_y
_atom_site_fract_z
Si Si1 0.541105 0.238453 0.920599
Si Si2 0.725962 0.487638 0.329658
Si Si3 0.416737 0.699668 0.344432
Si Si4 0.130770 0.564265 0.805861
Si Si5 0.908104 0.165444 0.827352
Si Si6 0.335226 0.961727 0.500324
Si Si7 0.886838 0.822425 0.533095
O O1 0.405261 0.375010 0.841524
O O2 0.547080 0.259745 0.778533
O O3 0.706665 0.350095 0.047982
O O4 0.500000 0.000000 0.000000
O O5 0.834411 0.422226 0.312942
O O6 0.648320 0.278229 0.393874
O O7 0.818805 0.638544 0.447259
O O8 0.500000 0.500000 0.500000
O O9 0.227199 0.707119 0.232170
O O10 0.499034 0.892607 0.427696
O O11 0.048887 0.332142 0.832658
O O12 0.000958 0.714519 0.722109
O O13 0.800609 0.046716 0.685345
O O14 0.000000 0.000000 0.000000
O O15 0.251252 0.071228 0.524646
O O16 0.000000 0.000000 0.500000
#
# Coordination Sequence:
#
# PCOD9069154 Si02
#       7
#     2   2   2   2   2   2   2
#     4  12  28  48  79 114 151 198 254 319 383 447
#     4  12  24  48  76 114 145 196 254 305 387 456
#     4  12  28  53  78 106 155 211 261 301 380 475
#     4  12  26  45  73 111 159 184 243 321 380 445
#     4  12  30  46  72 112 150 201 251 317 380 442
#     4  12  25  49  79 107 149 201 259 309 373 469
#     4  12  22  43  74 113 147 188 242 308 382 450
#
# _framework density 22.560490000000001
#
# number of rings (size 3 to 8) (size 9 to 14) (size 15 to 20)
#    0.000    0.000    4.286    5.571    8.000    0.571 
#    0.000    0.000    0.000    0.000    0.000    0.000 
#    0.000    0.000    0.000    0.000    0.000    0.000 
#
# Total GULP energy -78275.262745 kJ/mol
# GULP energy per Si atom -5591.090196 kJ/mol
# Density = 2.250914 g / cm^3
# Si number density = 22.560490 Si / 1000 Ang^3
#
#
#
# Elastic Constant Matrix: (Units=GPa)
#
#
# Indices 1 2 3 4 5 6 
#
# 1 66.4805 30.8745 35.4897 2.7582 11.7978 14.7517
# 2 30.8745 143.3687 72.6665 -1.2461 10.3382 23.8584
# 3 35.4897 72.6665 128.9922 -8.3412 20.4067 16.4415
# 4 2.7582 -1.2461 -8.3412 51.2500 1.4861 0.2554
# 5 11.7978 10.3382 20.4067 1.4861 51.1380 2.9397
# 6 14.7517 23.8584 16.4415 0.2554 2.9397 50.0247
#
#
#
# Elastic Compliance Matrix: (Units=1/GPa)
#
#
# Indices 1 2 3 4 5 6 
#
# 1 0.018951 -0.001484 -0.003655 -0.001565 -0.002365 -0.003532
# 2 -0.001484 0.010345 -0.005170 -0.000510 0.000491 -0.002823
# 3 -0.003655 -0.005170 0.012342 0.002171 -0.003080 -0.000343
# 4 -0.001565 -0.000510 0.002171 0.019966 -0.000979 -0.000053
# 5 -0.002365 0.000491 -0.003080 -0.000979 0.021245 0.000232
# 6 -0.003532 -0.002823 -0.000343 -0.000053 0.000232 0.022478
#
#
# Mechanical properties :
#
#
# Convention : Reuss Voigt Hill
#
# Bulk Modulus (GPa) = 47.57440 68.54473 58.05956
# Shear Modulus (GPa) = 37.60767 43.80325 40.70546
#
# Velocity S-wave (km/s) = 4.08728 4.41113 4.25229
# Velocity P-wave (km/s) = 6.58846 7.50951 7.06401
#
# Compressibility (1/GPa) = 0.02101971
#
# Stress axis : x y z
#
# Youngs Moduli (GPa) = 52.76869 96.66323 81.02402
#
# Poissons Ratio (x) = 0.14343 0.29612
# Poissons Ratio (y) = 0.07830 0.41893
# Poissons Ratio (z) = 0.19286 0.49980
#
# Static dielectric constant tensor:
#      x y z
#    x 1.933550 -0.009410 -0.055400 
#    y -0.009410 1.550600 -0.251410 
#    z -0.055400 -0.251410 1.622030 
# 
# From -- ./inp_files/83449.got.cif
#   From: 2010.05.17/outbox.cif.g08.bks.cpg/sg2_42_cif.got.tgz:83449.got - 2010.06.03 11:33:40.
