data_PCOD9069778
_publ_section_title
;
Structure prediction by ZEFSAII (Michael W. Deem and Ramdas Pophale) SiO2 
 PCOD9069778
Probable space group: P -1
;
_chemical_formula_sum "Si O2"
_cell_formula_units_Z 16
_cell_length_a 10.391138
_cell_length_b 11.705253
_cell_length_c 10.792213
_cell_angle_alpha 37.518504
_cell_angle_beta 88.505577
_cell_angle_gamma 65.357419
_cell_volume 606.701023
_symmetry_space_group_name_H-M "P -1"
_symmetry_group_IT_number 2
_symmetry_cell_setting 'triclinic'
loop_
_space_group_symop_operation_xyz
x,y,z
-x,-y,-z
loop_
_atom_site_type_symbol
_atom_site_label
_atom_site_fract_x
_atom_site_fract_y
_atom_site_fract_z
Si Si1 0.121552 0.710050 0.715503
Si Si2 0.009995 0.756181 0.940193
Si Si3 0.055770 0.817048 0.269743
Si Si4 0.371218 0.023011 0.278451
Si Si5 0.540391 0.394632 0.225366
Si Si6 0.557614 0.163325 0.067946
Si Si7 0.100502 0.317652 0.449935
Si Si8 0.553600 0.663976 0.346581
O O1 0.283105 0.668973 0.692181
O O2 0.130737 0.619072 0.934767
O O3 0.018861 0.669460 0.661253
O O4 0.000000 0.000000 0.500000
O O5 0.979299 0.997355 0.779425
O O6 0.823897 0.850314 0.833263
O O7 0.079381 0.557420 0.219765
O O8 0.244366 0.552110 0.484865
O O9 0.947479 0.735267 0.373589
O O10 0.000000 0.000000 0.000000
O O11 0.446930 0.835233 0.552767
O O12 0.476455 0.839543 0.316881
O O13 0.395336 0.221160 0.091179
O O14 0.500000 0.500000 0.000000
O O15 0.409972 0.643292 0.092988
O O16 0.704349 0.925782 0.347437
O O17 0.526957 0.166157 0.920500
O O18 0.500000 0.500000 0.500000
#
# Coordination Sequence:
#
# PCOD9069778 Si02
#       8
#     2   2   2   2   2   2   2   2
#     4  12  23  49  75 101 143 188 233 294 360 416
#     4  12  26  47  75 102 143 188 236 293 359 418
#     4  12  27  46  75 105 145 186 236 293 355 425
#     4  12  26  47  75 102 143 188 236 293 359 418
#     4  12  27  46  75 105 145 186 236 293 355 425
#     4  12  28  46  72 108 143 185 240 291 352 427
#     4  12  28  46  72 108 143 185 240 291 352 427
#     4  12  23  49  75 101 143 188 233 294 360 416
#
# _framework density 26.372129999999999
#
# number of rings (size 3 to 8) (size 9 to 14) (size 15 to 20)
#    0.000    0.000    5.000    4.500    3.500    1.000 
#    0.000    0.000    0.000    0.000    0.000    0.000 
#    0.000    0.000    0.000    0.000    0.000    0.000 
#
# Total GULP energy -89483.640111 kJ/mol
# GULP energy per Si atom -5592.727507 kJ/mol
# Density = 2.631211 g / cm^3
# Si number density = 26.372130 Si / 1000 Ang^3
#
#
#
# Elastic Constant Matrix: (Units=GPa)
#
#
# Indices 1 2 3 4 5 6 
#
# 1 59.7588 -12.8024 2.6064 4.6326 -12.6088 -8.0127
# 2 -12.8024 68.8794 5.7200 20.2944 -2.5721 2.5679
# 3 2.6064 5.7200 167.1448 24.0465 -22.2012 5.3880
# 4 4.6326 20.2944 24.0465 49.0705 2.0716 -5.0726
# 5 -12.6088 -2.5721 -22.2012 2.0716 57.1377 0.1482
# 6 -8.0127 2.5679 5.3880 -5.0726 0.1482 39.1620
#
#
#
# Elastic Compliance Matrix: (Units=1/GPa)
#
#
# Indices 1 2 3 4 5 6 
#
# 1 0.019501 0.004837 0.000671 -0.004064 0.004921 0.003036
# 2 0.004837 0.018032 0.000936 -0.008631 0.002559 -0.001449
# 3 0.000671 0.000936 0.006991 -0.004154 0.003061 -0.001436
# 4 -0.004064 -0.008631 -0.004154 0.026925 -0.003885 0.003808
# 5 0.004921 0.002559 0.003061 -0.003885 0.020033 -0.000161
# 6 0.003036 -0.001449 -0.001436 0.003808 -0.000161 0.026942
#
#
# Mechanical properties :
#
#
# Convention : Reuss Voigt Hill
#
# Bulk Modulus (GPa) = 17.41807 31.87013 24.64410
# Shear Modulus (GPa) = 40.10434 49.09130 44.59782
#
# Velocity S-wave (km/s) = 3.90386 4.31917 4.11676
# Velocity P-wave (km/s) = 5.19030 6.08150 5.65349
#
# Compressibility (1/GPa) = 0.05741165
#
# Stress axis : x y z
#
# Youngs Moduli (GPa) = 51.27833 55.45713 143.04600
#
# Poissons Ratio (x) = -0.26825 -0.09597
# Poissons Ratio (y) = -0.24804 -0.13386
# Poissons Ratio (z) = -0.03440 -0.05190
#
# Static dielectric constant tensor:
#      x y z
#    x 2.125130 -0.012550 0.029600 
#    y -0.012550 2.317820 -0.052420 
#    z 0.029600 -0.052420 2.104830 
# 
# From -- ./inp_files/433658.got.cif
#   From: 2010.05.17/outbox.cif.g08.bks.cpg/sg2_217_cif.got.tgz:433658.got - 2010.06.03 11:33:40.
