data_PCOD9069796
_publ_section_title
;
Structure prediction by ZEFSAII (Michael W. Deem and Ramdas Pophale) SiO2 
 PCOD9069796
Probable space group: P -1
;
_chemical_formula_sum "Si O2"
_cell_formula_units_Z 14
_cell_length_a 29.356402
_cell_length_b 11.277763
_cell_length_c 14.796192
_cell_angle_alpha 29.491442
_cell_angle_beta 18.521312
_cell_angle_gamma 21.459157
_cell_volume 566.210390
_symmetry_space_group_name_H-M "P -1"
_symmetry_group_IT_number 2
_symmetry_cell_setting 'triclinic'
loop_
_space_group_symop_operation_xyz
x,y,z
-x,-y,-z
loop_
_atom_site_type_symbol
_atom_site_label
_atom_site_fract_x
_atom_site_fract_y
_atom_site_fract_z
Si Si1 0.808165 0.626573 0.491481
Si Si2 0.192860 0.436155 0.925164
Si Si3 0.265655 0.742932 0.012797
Si Si4 0.643321 0.840533 0.459493
Si Si5 0.852637 0.172900 0.407634
Si Si6 0.803585 0.694255 0.796552
Si Si7 0.481254 0.720894 0.310254
O O1 0.712333 0.787385 0.468705
O O2 0.721380 0.914541 0.536577
O O3 0.754793 0.419848 0.759741
O O4 0.035962 0.416887 0.201615
O O5 0.148766 0.724697 0.759363
O O6 0.412258 0.106229 0.713410
O O7 0.172140 0.486313 0.038208
O O8 0.454873 0.469063 0.777801
O O9 0.278537 0.007562 0.836921
O O10 0.073480 0.917945 0.197219
O O11 0.736770 0.499607 0.467097
O O12 0.756785 0.020404 0.696836
O O13 0.000000 0.500000 0.500000
O O14 0.637507 0.754808 0.011942
O O15 0.500000 0.500000 0.500000
#
# Coordination Sequence:
#
# PCOD9069796 Si02
#       7
#     2   2   2   2   2   2   2
#     4  12  26  47  79 109 151 201 244 316 375 442
#     4  12  26  50  74 111 150 197 251 312 371 443
#     4  12  25  49  75 112 149 198 254 307 379 445
#     4  12  28  50  76 109 152 202 254 308 370 443
#     4  12  27  49  77 109 154 197 254 309 373 446
#     4  12  26  49  74 112 150 190 250 311 372 448
#     4  12  23  50  76 110 153 192 251 311 376 444
#
# _framework density 24.725788000000001
#
# number of rings (size 3 to 8) (size 9 to 14) (size 15 to 20)
#    0.000    0.000    7.143    1.286    2.000    2.857 
#    2.571    0.000    0.000    0.000    0.000    0.000 
#    0.000    0.000    0.000    0.000    0.000    0.000 
#
# Total GULP energy -78600.082167 kJ/mol
# GULP energy per Si atom -5614.291583 kJ/mol
# Density = 2.466951 g / cm^3
# Si number density = 24.725788 Si / 1000 Ang^3
#
#
#
# Elastic Constant Matrix: (Units=GPa)
#
#
# Indices 1 2 3 4 5 6 
#
# 1 59.7060 19.2931 13.3105 9.1386 -3.0141 -2.9159
# 2 19.2931 96.9848 32.8352 -1.2465 -8.9122 9.4039
# 3 13.3105 32.8352 105.6727 1.1614 -12.8634 -3.8901
# 4 9.1386 -1.2465 1.1614 37.2103 -0.6603 0.5606
# 5 -3.0141 -8.9122 -12.8634 -0.6603 33.5174 -16.4539
# 6 -2.9159 9.4039 -3.8901 0.5606 -16.4539 45.0326
#
#
#
# Elastic Compliance Matrix: (Units=1/GPa)
#
#
# Indices 1 2 3 4 5 6 
#
# 1 0.019069 -0.003642 -0.000937 -0.004787 0.001537 0.002536
# 2 -0.003642 0.012578 -0.003565 0.001477 0.000137 -0.003139
# 3 -0.000937 -0.003565 0.011441 -0.000209 0.005089 0.003534
# 4 -0.004787 0.001477 -0.000209 0.028120 -0.000059 -0.001008
# 5 0.001537 0.000137 0.005089 -0.000059 0.039254 0.014854
# 6 0.002536 -0.003139 0.003534 -0.001008 0.014854 0.028771
#
#
# Mechanical properties :
#
#
# Convention : Reuss Voigt Hill
#
# Bulk Modulus (GPa) = 37.31374 43.69344 40.50359
# Shear Modulus (GPa) = 30.40374 36.28036 33.34205
#
# Velocity S-wave (km/s) = 3.51042 3.83470 3.67614
# Velocity P-wave (km/s) = 5.61734 6.10869 5.86816
#
# Compressibility (1/GPa) = 0.02679978
#
# Stress axis : x y z
#
# Youngs Moduli (GPa) = 52.44207 79.50257 87.40654
#
# Poissons Ratio (x) = 0.28956 0.08191
# Poissons Ratio (y) = 0.19100 0.31158
# Poissons Ratio (z) = 0.04914 0.28340
#
# Static dielectric constant tensor:
#      x y z
#    x 1.957830 0.008280 0.015310 
#    y 0.008280 1.935280 0.009150 
#    z 0.015310 0.009150 1.909660 
# 
# From -- ./inp_files/523333.got.cif
#   From: 2010.05.17/outbox.cif.g08.bks.cpg/sg2_262_cif.got.tgz:523333.got - 2010.06.03 11:33:40.
