data_PCOD9069228
_publ_section_title
;
Structure prediction by ZEFSAII (Michael W. Deem and Ramdas Pophale) SiO2 
 PCOD9069228
Probable space group: P -1
;
_chemical_formula_sum "Si O2"
_cell_formula_units_Z 15
_cell_length_a 11.222064
_cell_length_b 10.000359
_cell_length_c 11.328670
_cell_angle_alpha 132.056728
_cell_angle_beta 139.471403
_cell_angle_gamma 52.889831
_cell_volume 601.606745
_symmetry_space_group_name_H-M "P -1"
_symmetry_group_IT_number 2
_symmetry_cell_setting 'triclinic'
loop_
_space_group_symop_operation_xyz
x,y,z
-x,-y,-z
loop_
_atom_site_type_symbol
_atom_site_label
_atom_site_fract_x
_atom_site_fract_y
_atom_site_fract_z
Si Si1 0.460200 0.410728 0.295779
Si Si2 0.290969 0.191605 0.756143
Si Si3 0.667561 0.950615 0.944252
Si Si4 0.033213 0.101215 0.333465
Si Si5 0.108238 0.513798 0.966628
Si Si6 0.500000 0.500000 0.000000
Si Si7 0.850402 0.799256 0.766376
Si Si8 0.765553 0.438794 0.379473
O O1 0.500000 0.500000 0.500000
O O2 0.354311 0.248338 0.147941
O O3 0.659255 0.351749 0.350647
O O4 0.317558 0.540555 0.175846
O O5 0.143960 0.322311 0.807997
O O6 0.200770 0.053974 0.524499
O O7 0.467567 0.078044 0.891762
O O8 0.381391 0.333673 0.831520
O O9 0.706081 0.928779 0.819054
O O10 0.854759 0.009577 0.167875
O O11 0.967818 0.319270 0.438843
O O12 0.080825 0.088507 0.222952
O O13 0.004480 0.675304 0.896862
O O14 0.000000 0.500000 0.000000
O O15 0.650482 0.413390 0.162006
O O16 0.761290 0.643899 0.541243
#
# Coordination Sequence:
#
# PCOD9069228 Si02
#       8
#     2   2   2   2   2   1   2   2
#     4  12  26  48  74 106 148 201 252 304 374 453
#     4  12  27  46  79 113 150 201 248 311 378 449
#     4  12  28  50  72 114 157 197 245 322 379 436
#     4  12  26  47  75 113 154 192 248 317 379 443
#     4  12  24  46  77 104 142 200 254 298 365 454
#     4  12  22  46  76 110 144 204 248 298 374 452
#     4  12  25  48  77 110 150 197 253 308 378 449
#     4  12  23  45  80 104 148 199 254 306 367 454
#
# _framework density 24.933230999999999
#
# number of rings (size 3 to 8) (size 9 to 14) (size 15 to 20)
#    0.000    0.000    8.000    1.600    0.000    3.733 
#    2.400    1.333    0.000    0.000    0.000    0.000 
#    0.000    0.000    0.000    0.000    0.000    0.000 
#
# Total GULP energy -83695.967325 kJ/mol
# GULP energy per Si atom -5579.731155 kJ/mol
# Density = 2.487648 g / cm^3
# Si number density = 24.933231 Si / 1000 Ang^3
#
#
#
# Elastic Constant Matrix: (Units=GPa)
#
#
# Indices 1 2 3 4 5 6 
#
# 1 81.2372 35.9259 25.1018 -5.5745 3.1391 -4.1480
# 2 35.9259 59.8915 28.7279 -4.4497 -3.6320 -1.9728
# 3 25.1018 28.7279 155.0994 -16.6704 9.6867 5.5497
# 4 -5.5745 -4.4497 -16.6704 38.0022 8.6532 -2.8401
# 5 3.1391 -3.6320 9.6867 8.6532 48.4648 9.3406
# 6 -4.1480 -1.9728 5.5497 -2.8401 9.3406 36.6923
#
#
#
# Elastic Compliance Matrix: (Units=1/GPa)
#
#
# Indices 1 2 3 4 5 6 
#
# 1 0.017268 -0.009974 -0.000679 0.001807 -0.002495 0.002294
# 2 -0.009974 0.024336 -0.003173 -0.000772 0.003287 -0.000236
# 3 -0.000679 -0.003173 0.007664 0.003351 -0.002211 -0.000584
# 4 0.001807 -0.000772 0.003351 0.029803 -0.006882 0.003715
# 5 -0.002495 0.003287 -0.002211 -0.006882 0.023945 -0.006399
# 6 0.002294 -0.000236 -0.000584 0.003715 -0.006399 0.029505
#
#
# Mechanical properties :
#
#
# Convention : Reuss Voigt Hill
#
# Bulk Modulus (GPa) = 46.26323 52.85992 49.56157
# Shear Modulus (GPa) = 29.87221 38.39671 34.13446
#
# Velocity S-wave (km/s) = 3.46510 3.92852 3.70406
# Velocity P-wave (km/s) = 5.88254 6.46717 6.18177
#
# Compressibility (1/GPa) = 0.02161544
#
# Stress axis : x y z
#
# Youngs Moduli (GPa) = 57.91141 41.09157 130.47439
#
# Poissons Ratio (x) = 0.40983 0.08864
# Poissons Ratio (y) = 0.57759 0.41402
# Poissons Ratio (z) = 0.03935 0.13039
#
# Static dielectric constant tensor:
#      x y z
#    x 2.008940 0.006610 -0.029540 
#    y 0.006610 2.082160 -0.026230 
#    z -0.029540 -0.026230 2.006430 
# 
# From -- ./inp_files/427080.got.cif
#   From: 2010.05.17/outbox.cif.g08.bks.cpg/sg2_214_cif.got.tgz:427080.got - 2010.06.03 11:33:40.
