data_PCOD9069692
_publ_section_title
;
Structure prediction by ZEFSAII (Michael W. Deem and Ramdas Pophale) SiO2 
 PCOD9069692
Probable space group: P -1
;
_chemical_formula_sum "Si O2"
_cell_formula_units_Z 12
_cell_length_a 18.236593
_cell_length_b 11.992351
_cell_length_c 9.232117
_cell_angle_alpha 48.087329
_cell_angle_beta 50.538366
_cell_angle_gamma 19.721844
_cell_volume 506.845808
_symmetry_space_group_name_H-M "P -1"
_symmetry_group_IT_number 2
_symmetry_cell_setting 'triclinic'
loop_
_space_group_symop_operation_xyz
x,y,z
-x,-y,-z
loop_
_atom_site_type_symbol
_atom_site_label
_atom_site_fract_x
_atom_site_fract_y
_atom_site_fract_z
Si Si1 0.411508 0.744433 0.015789
Si Si2 0.009148 0.314701 0.614239
Si Si3 0.710389 0.765943 0.347163
Si Si4 0.197207 0.632440 0.999080
Si Si5 0.638647 0.701681 0.198869
Si Si6 0.497531 0.584794 0.582490
O O1 0.332684 0.741872 0.242424
O O2 0.500000 0.500000 0.000000
O O3 0.587263 0.597203 0.009871
O O4 0.284088 0.059379 0.822104
O O5 0.000000 0.500000 0.500000
O O6 0.918478 0.416819 0.478836
O O7 0.839121 0.478854 0.792171
O O8 0.255017 0.910325 0.669087
O O9 0.716346 0.694424 0.238991
O O10 0.500000 0.000000 0.500000
O O11 0.193473 0.618824 0.843535
O O12 0.000000 0.000000 0.000000
O O13 0.526682 0.719246 0.402542
O O14 0.500000 0.000000 0.000000
O O15 0.500000 0.500000 0.500000
#
# Coordination Sequence:
#
# PCOD9069692 Si02
#       6
#     2   2   2   2   2   2
#     4  12  24  43  69 101 139 184 229 281 355 412
#     4  12  25  44  71 103 136 183 234 288 344 416
#     4  12  24  44  72 106 138 186 235 290 350 415
#     4  12  24  46  70 100 141 185 229 286 355 412
#     4  12  23  47  72 100 141 187 232 291 350 416
#     4  12  24  46  68  99 141 182 229 287 351 412
#
# _framework density 23.675839
#
# number of rings (size 3 to 8) (size 9 to 14) (size 15 to 20)
#    0.000    0.000    6.667    4.000    0.000    0.000 
#    3.000    5.833    0.000    0.000    0.000    0.000 
#    0.000    0.000    0.000    0.000    0.000    0.000 
#
# Total GULP energy -67039.120582 kJ/mol
# GULP energy per Si atom -5586.593382 kJ/mol
# Density = 2.362195 g / cm^3
# Si number density = 23.675839 Si / 1000 Ang^3
#
#
#
# Elastic Constant Matrix: (Units=GPa)
#
#
# Indices 1 2 3 4 5 6 
#
# 1 133.5332 11.5424 35.5263 12.4063 11.6189 21.7919
# 2 11.5424 51.4870 12.7556 1.1438 5.1983 12.1559
# 3 35.5263 12.7556 158.1858 -3.0987 -10.5052 -3.6702
# 4 12.4063 1.1438 -3.0987 22.5092 14.2695 10.5993
# 5 11.6189 5.1983 -10.5052 14.2695 63.3392 0.6079
# 6 21.7919 12.1559 -3.6702 10.5993 0.6079 30.7328
#
#
#
# Elastic Compliance Matrix: (Units=1/GPa)
#
#
# Indices 1 2 3 4 5 6 
#
# 1 0.009479 0.000259 -0.002449 -0.001307 -0.001808 -0.006629
# 2 0.000259 0.022877 -0.002288 0.006065 -0.003560 -0.011526
# 3 -0.002449 -0.002288 0.007258 -0.000452 0.001908 0.003626
# 4 -0.001307 0.006065 -0.000452 0.065378 -0.014833 -0.023781
# 5 -0.001808 -0.003560 0.001908 -0.014833 0.019997 0.007638
# 6 -0.006629 -0.011526 0.003626 -0.023781 0.007638 0.050282
#
#
# Mechanical properties :
#
#
# Convention : Reuss Voigt Hill
#
# Bulk Modulus (GPa) = 32.61871 51.42830 42.02350
# Shear Modulus (GPa) = 25.71404 42.20835 33.96119
#
# Velocity S-wave (km/s) = 3.29916 4.22686 3.79149
# Velocity P-wave (km/s) = 5.32163 6.75209 6.07908
#
# Compressibility (1/GPa) = 0.03065725
#
# Stress axis : x y z
#
# Youngs Moduli (GPa) = 105.50068 43.71151 137.77541
#
# Poissons Ratio (x) = -0.01130 0.33743
# Poissons Ratio (y) = -0.02728 0.31521
# Poissons Ratio (z) = 0.25838 0.10001
#
# Static dielectric constant tensor:
#      x y z
#    x 1.910300 0.070190 -0.071700 
#    y 0.070190 2.098360 -0.096530 
#    z -0.071700 -0.096530 2.057880 
# 
# From -- ./inp_files/148008.got.cif
#   From: 2010.05.17/outbox.cif.g08.bks.cpg/sg2_75_cif.got.tgz:148008.got - 2010.06.03 11:33:40.
