data_PCOD9069245
_publ_section_title
;
Structure prediction by ZEFSAII (Michael W. Deem and Ramdas Pophale) SiO2 
 PCOD9069245
Probable space group: P -1
;
_chemical_formula_sum "Si O2"
_cell_formula_units_Z 16
_cell_length_a 27.153905
_cell_length_b 8.071254
_cell_length_c 15.307491
_cell_angle_alpha 49.780506
_cell_angle_beta 159.577028
_cell_angle_gamma 140.238100
_cell_volume 705.613368
_symmetry_space_group_name_H-M "P -1"
_symmetry_group_IT_number 2
_symmetry_cell_setting 'triclinic'
loop_
_space_group_symop_operation_xyz
x,y,z
-x,-y,-z
loop_
_atom_site_type_symbol
_atom_site_label
_atom_site_fract_x
_atom_site_fract_y
_atom_site_fract_z
Si Si1 0.574559 0.366918 0.614754
Si Si2 0.471608 0.830995 0.714988
Si Si3 0.019591 0.989297 0.642244
Si Si4 0.351543 0.031371 0.706840
Si Si5 0.943661 0.662497 0.796134
Si Si6 0.580668 0.611838 0.822490
Si Si7 0.345076 0.178261 0.835987
Si Si8 0.986800 0.865693 0.117415
O O1 0.500000 0.500000 0.500000
O O2 0.497097 0.311915 0.407791
O O3 0.492686 0.074383 0.618337
O O4 0.790070 0.577537 0.899644
O O5 0.269444 0.570224 0.484127
O O6 0.566329 0.734693 0.846562
O O7 0.574421 0.950811 0.936390
O O8 0.011967 0.771437 0.771951
O O9 0.845737 0.948677 0.399491
O O10 0.000000 0.000000 0.500000
O O11 0.215808 0.264761 0.894514
O O12 0.454275 0.285215 0.725936
O O13 0.321554 0.129095 0.713001
O O14 0.145359 0.831411 0.398148
O O15 0.500000 0.000000 0.000000
O O16 0.992451 0.920890 0.848195
O O17 0.000000 0.500000 0.000000
O O18 0.500000 0.500000 0.000000
O O19 0.000000 0.000000 0.000000
#
# Coordination Sequence:
#
# PCOD9069245 Si02
#       8
#     2   2   2   2   2   2   2   2
#     4  12  28  45  71 109 151 191 249 310 376 442
#     4  12  24  46  75 101 143 193 242 309 365 445
#     4  12  23  42  74 110 149 183 243 319 376 437
#     4  12  27  47  76 106 152 200 246 307 381 454
#     4  12  25  46  77 108 144 196 253 307 375 452
#     4  12  24  47  69 107 145 190 250 307 365 446
#     4  12  22  48  73 103 143 189 247 307 369 449
#     4  12  24  51  73 106 155 201 247 311 380 455
#
# _framework density 22.675305999999999
#
# number of rings (size 3 to 8) (size 9 to 14) (size 15 to 20)
#    0.000    0.000    7.500    2.625    1.750    3.000 
#    2.250    1.250    0.000    0.000    0.000    0.000 
#    0.000    0.000    0.000    0.000    0.000    0.000 
#
# Total GULP energy -89262.479836 kJ/mol
# GULP energy per Si atom -5578.904990 kJ/mol
# Density = 2.262370 g / cm^3
# Si number density = 22.675306 Si / 1000 Ang^3
#
#
#
# Elastic Constant Matrix: (Units=GPa)
#
#
# Indices 1 2 3 4 5 6 
#
# 1 80.9424 34.5572 25.7034 6.9880 -2.8152 23.8874
# 2 34.5572 50.6767 16.4523 0.2253 -3.3435 24.7564
# 3 25.7034 16.4523 169.8754 14.9592 4.0864 15.4180
# 4 6.9880 0.2253 14.9592 54.4031 18.4014 -0.7968
# 5 -2.8152 -3.3435 4.0864 18.4014 47.9325 -6.7397
# 6 23.8874 24.7564 15.4180 -0.7968 -6.7397 38.4212
#
#
#
# Elastic Compliance Matrix: (Units=1/GPa)
#
#
# Indices 1 2 3 4 5 6 
#
# 1 0.018580 -0.009993 -0.001246 -0.002325 0.000756 -0.004528
# 2 -0.009993 0.034399 -0.000474 0.001342 -0.000897 -0.015891
# 3 -0.001246 -0.000474 0.006405 -0.001525 -0.000288 -0.001572
# 4 -0.002325 0.001342 -0.001525 0.021902 -0.008294 0.000192
# 5 0.000756 -0.000897 -0.000288 -0.008294 0.024669 0.004378
# 6 -0.004528 -0.015891 -0.001572 0.000192 0.004378 0.040485
#
#
# Mechanical properties :
#
#
# Convention : Reuss Voigt Hill
#
# Bulk Modulus (GPa) = 27.81001 50.54671 39.17836
# Shear Modulus (GPa) = 27.49499 43.13680 35.31590
#
# Velocity S-wave (km/s) = 3.48595 4.36635 3.95075
# Velocity P-wave (km/s) = 5.33793 6.91085 6.17468
#
# Compressibility (1/GPa) = 0.03595828
#
# Stress axis : x y z
#
# Youngs Moduli (GPa) = 53.82177 29.07056 156.12815
#
# Poissons Ratio (x) = 0.29050 0.19453
# Poissons Ratio (y) = 0.53784 0.07398
# Poissons Ratio (z) = 0.06706 0.01377
#
# Static dielectric constant tensor:
#      x y z
#    x 1.824170 -0.055730 -0.066950 
#    y -0.055730 1.823820 -0.095330 
#    z -0.066950 -0.095330 1.993350 
# 
# From -- ./inp_files/543825.got.cif
#   From: 2010.05.17/outbox.cif.g08.bks.cpg/sg2_272_cif.got.tgz:543825.got - 2010.06.03 11:33:40.
