data_PCOD9069424
_publ_section_title
;
Structure prediction by ZEFSAII (Michael W. Deem and Ramdas Pophale) SiO2 
 PCOD9069424
Probable space group: P -1
;
_chemical_formula_sum "Si O2"
_cell_formula_units_Z 16
_cell_length_a 12.143504
_cell_length_b 15.008582
_cell_length_c 15.172844
_cell_angle_alpha 150.920187
_cell_angle_beta 40.127229
_cell_angle_gamma 120.922376
_cell_volume 753.745842
_symmetry_space_group_name_H-M "P -1"
_symmetry_group_IT_number 2
_symmetry_cell_setting 'triclinic'
loop_
_space_group_symop_operation_xyz
x,y,z
-x,-y,-z
loop_
_atom_site_type_symbol
_atom_site_label
_atom_site_fract_x
_atom_site_fract_y
_atom_site_fract_z
Si Si1 0.005064 0.183641 0.386629
Si Si2 0.786152 0.551236 0.142153
Si Si3 0.517720 0.482057 0.579199
Si Si4 0.870496 0.606559 0.759881
Si Si5 0.941566 0.134971 0.062947
Si Si6 0.430951 0.125557 0.060907
Si Si7 0.562765 0.028265 0.706723
Si Si8 0.884231 0.160280 0.629837
O O1 0.210871 0.168481 0.220498
O O2 0.851429 0.424729 0.665632
O O3 0.010001 0.126005 0.435570
O O4 0.971235 0.024657 0.209584
O O5 0.673926 0.504409 0.248636
O O6 0.655560 0.796328 0.408897
O O7 0.811706 0.393150 0.911697
O O8 0.000000 0.500000 0.000000
O O9 0.500000 0.500000 0.500000
O O10 0.708059 0.264850 0.302978
O O11 0.552245 0.665507 0.756736
O O12 0.000000 0.500000 0.500000
O O13 0.982086 0.698799 0.829880
O O14 0.659104 0.802988 0.036191
O O15 0.000000 0.000000 0.000000
O O16 0.559621 0.000651 0.790564
O O17 0.500000 0.000000 0.000000
O O18 0.703840 0.124346 0.684613
O O19 0.000000 0.000000 0.500000
#
# Coordination Sequence:
#
# PCOD9069424 Si02
#       8
#     2   2   2   2   2   2   2   2
#     4  12  27  45  75 109 145 200 248 301 373 440
#     4  12  27  45  72 104 150 198 241 302 379 437
#     4  12  26  42  73 112 143 190 256 312 371 442
#     4  12  24  47  76 109 148 192 245 313 369 433
#     4  12  24  45  76 111 151 190 250 313 373 441
#     4  12  23  43  71 106 147 183 250 318 369 430
#     4  12  25  48  74 105 145 197 247 301 372 438
#     4  12  28  50  73 106 157 199 243 304 372 450
#
# _framework density 21.227314
#
# number of rings (size 3 to 8) (size 9 to 14) (size 15 to 20)
#    0.000    0.000    6.250    3.750    3.500    2.500 
#    0.000    1.250    0.000    0.000    0.000    0.000 
#    0.000    0.000    0.000    0.000    0.000    0.000 
#
# Total GULP energy -89590.346456 kJ/mol
# GULP energy per Si atom -5599.396653 kJ/mol
# Density = 2.117900 g / cm^3
# Si number density = 21.227314 Si / 1000 Ang^3
#
#
#
# Elastic Constant Matrix: (Units=GPa)
#
#
# Indices 1 2 3 4 5 6 
#
# 1 91.5518 39.9461 51.8542 6.8552 12.5784 6.9509
# 2 39.9461 98.2500 44.1111 -2.1344 11.0317 12.0712
# 3 51.8542 44.1111 126.2039 26.0864 11.9034 11.1211
# 4 6.8552 -2.1344 26.0864 41.0894 6.2247 -3.5731
# 5 12.5784 11.0317 11.9034 6.2247 55.1283 7.4716
# 6 6.9509 12.0712 11.1211 -3.5731 7.4716 48.6554
#
#
#
# Elastic Compliance Matrix: (Units=1/GPa)
#
#
# Indices 1 2 3 4 5 6 
#
# 1 0.015678 -0.003908 -0.005067 0.000691 -0.001808 0.000216
# 2 -0.003908 0.013883 -0.003782 0.003836 -0.001294 -0.001541
# 3 -0.005067 -0.003782 0.013105 -0.007876 0.000237 -0.001948
# 4 0.000691 0.003836 -0.007876 0.030190 -0.003100 0.003443
# 5 -0.001808 -0.001294 0.000237 -0.003100 0.019475 -0.002693
# 6 0.000216 -0.001541 -0.001948 0.003443 -0.002693 0.022016
#
#
# Mechanical properties :
#
#
# Convention : Reuss Voigt Hill
#
# Bulk Modulus (GPa) = 58.30193 65.31427 61.80810
# Shear Modulus (GPa) = 34.34575 40.98091 37.66333
#
# Velocity S-wave (km/s) = 4.02680 4.39860 4.21680
# Velocity P-wave (km/s) = 7.01037 7.52547 7.27248
#
# Compressibility (1/GPa) = 0.01715209
#
# Stress axis : x y z
#
# Youngs Moduli (GPa) = 63.78274 72.03130 76.30756
#
# Poissons Ratio (x) = 0.28149 0.38667
# Poissons Ratio (y) = 0.24925 0.28858
# Poissons Ratio (z) = 0.32321 0.27241
#
# Static dielectric constant tensor:
#      x y z
#    x 1.764850 0.010700 -0.011040 
#    y 0.010700 1.755660 0.033610 
#    z -0.011040 0.033610 1.785840 
# 
# From -- ./inp_files/455805.got.cif
#   From: 2010.05.17/outbox.cif.g08.bks.cpg/sg2_228_cif.got.tgz:455805.got - 2010.06.03 11:33:40.
