data_PCOD9069737
_publ_section_title
;
Structure prediction by ZEFSAII (Michael W. Deem and Ramdas Pophale) SiO2 
 PCOD9069737
Probable space group: P -1
;
_chemical_formula_sum "Si O2"
_cell_formula_units_Z 10
_cell_length_a 7.095901
_cell_length_b 8.415589
_cell_length_c 9.418055
_cell_angle_alpha 62.003353
_cell_angle_beta 75.095265
_cell_angle_gamma 116.008923
_cell_volume 362.439447
_symmetry_space_group_name_H-M "P -1"
_symmetry_group_IT_number 2
_symmetry_cell_setting 'triclinic'
loop_
_space_group_symop_operation_xyz
x,y,z
-x,-y,-z
loop_
_atom_site_type_symbol
_atom_site_label
_atom_site_fract_x
_atom_site_fract_y
_atom_site_fract_z
Si Si1 0.756346 0.701668 0.959558
Si Si2 0.755805 0.188476 0.118538
Si Si3 0.926441 0.503118 0.676219
Si Si4 0.771755 0.985353 0.622338
Si Si5 0.432027 0.322912 0.711341
O O1 0.985512 0.698283 0.890539
O O2 0.766930 0.718338 0.120726
O O3 0.500000 0.500000 0.000000
O O4 0.818473 0.942764 0.792233
O O5 0.543463 0.186185 0.240959
O O6 0.629931 0.914078 0.231163
O O7 0.834621 0.311944 0.895486
O O8 0.672838 0.465918 0.711659
O O9 0.000000 0.500000 0.500000
O O10 0.157929 0.776696 0.547490
O O11 0.000000 0.000000 0.500000
O O12 0.500000 0.500000 0.500000
#
# Coordination Sequence:
#
# PCOD9069737 Si02
#       5
#     2   2   2   2   2
#     4  12  28  52  78 122 169 215 275 344 420 503
#     4  12  27  50  84 118 166 219 281 345 409 492
#     4  12  23  47  83 119 160 211 278 342 412 493
#     4  12  28  51  77 118 169 219 274 336 423 493
#     4  12  24  49  86 122 163 217 276 343 416 500
#
# _framework density 27.590814999999999
#
# number of rings (size 3 to 8) (size 9 to 14) (size 15 to 20)
#    0.000    0.000    4.000    6.000    0.000    1.600 
#    0.000    0.000    0.000    0.000    0.000    0.000 
#    0.000    0.000    0.000    0.000    0.000    0.000 
#
# Total GULP energy -55764.970296 kJ/mol
# GULP energy per Si atom -5576.497030 kJ/mol
# Density = 2.752802 g / cm^3
# Si number density = 27.590815 Si / 1000 Ang^3
#
#
#
# Elastic Constant Matrix: (Units=GPa)
#
#
# Indices 1 2 3 4 5 6 
#
# 1 214.5556 28.9270 66.4134 -2.6011 -7.0400 8.6976
# 2 28.9270 104.7392 83.3543 0.7678 -13.5873 -8.7506
# 3 66.4134 83.3543 244.3726 -6.5034 32.1810 -3.1803
# 4 -2.6011 0.7678 -6.5034 57.6816 -9.7209 -9.2478
# 5 -7.0400 -13.5873 32.1810 -9.7209 69.7566 2.6581
# 6 8.6976 -8.7506 -3.1803 -9.2478 2.6581 39.8440
#
#
#
# Elastic Compliance Matrix: (Units=1/GPa)
#
#
# Indices 1 2 3 4 5 6 
#
# 1 0.005264 -0.000162 -0.001561 0.000058 0.001280 -0.001381
# 2 -0.000162 0.015164 -0.005817 0.000501 0.005590 0.002645
# 3 -0.001561 -0.005817 0.007101 0.000030 -0.004560 -0.000059
# 4 0.000058 0.000501 0.000030 0.018432 0.002498 0.004211
# 5 0.001280 0.005590 -0.004560 0.002498 0.018007 -0.000037
# 6 -0.001381 0.002645 -0.000059 0.004211 -0.000037 0.026955
#
#
# Mechanical properties :
#
#
# Convention : Reuss Voigt Hill
#
# Bulk Modulus (GPa) = 80.31525 102.33964 91.32745
# Shear Modulus (GPa) = 45.39221 59.12128 52.25675
#
# Velocity S-wave (km/s) = 4.06050 4.63405 4.35672
# Velocity P-wave (km/s) = 7.15235 8.11203 7.64726
#
# Compressibility (1/GPa) = 0.01245094
#
# Stress axis : x y z
#
# Youngs Moduli (GPa) = 189.95613 65.94728 140.82942
#
# Poissons Ratio (x) = 0.01066 0.21978
# Poissons Ratio (y) = 0.03071 0.81916
# Poissons Ratio (z) = 0.29645 0.38359
#
# Static dielectric constant tensor:
#      x y z
#    x 0.000000 0.000000 0.000000 
#    y 0.000000 0.000000 0.000000 
#    z 0.000000 0.000000 0.000000 
# 
# From -- ./inp_files/144258.got.cif
#   From: 2010.05.17/outbox.cif.g08.bks.cpg/sg2_73_cif.got.tgz:144258.got - 2010.06.03 11:33:40.
