data_PCOD9069502
_publ_section_title
;
Structure prediction by ZEFSAII (Michael W. Deem and Ramdas Pophale) SiO2 
 PCOD9069502
Probable space group: P -1
;
_chemical_formula_sum "Si O2"
_cell_formula_units_Z 14
_cell_length_a 8.614257
_cell_length_b 12.045206
_cell_length_c 21.730937
_cell_angle_alpha 27.287612
_cell_angle_beta 34.939827
_cell_angle_gamma 53.323435
_cell_volume 512.785653
_symmetry_space_group_name_H-M "P -1"
_symmetry_group_IT_number 2
_symmetry_cell_setting 'triclinic'
loop_
_space_group_symop_operation_xyz
x,y,z
-x,-y,-z
loop_
_atom_site_type_symbol
_atom_site_label
_atom_site_fract_x
_atom_site_fract_y
_atom_site_fract_z
Si Si1 0.907378 0.727637 0.895994
Si Si2 0.645775 0.416536 0.667864
Si Si3 0.660154 0.118798 0.109104
Si Si4 0.402406 0.188223 0.591980
Si Si5 0.301867 0.789026 0.073460
Si Si6 0.974211 0.737015 0.512363
Si Si7 0.972896 0.233869 0.305330
O O1 0.048121 0.798648 0.746217
O O2 0.549633 0.670291 0.042710
O O3 0.086893 0.980244 0.760321
O O4 0.000000 0.500000 0.000000
O O5 0.541222 0.510641 0.594709
O O6 0.688348 0.608076 0.619795
O O7 0.000000 0.500000 0.500000
O O8 0.444554 0.091437 0.908676
O O9 0.856489 0.188472 0.948875
O O10 0.649829 0.941236 0.258899
O O11 0.321901 0.935356 0.276069
O O12 0.758744 0.438059 0.938553
O O13 0.682705 0.184056 0.465500
O O14 0.039034 0.537542 0.321486
O O15 0.992062 0.954889 0.450766
#
# Coordination Sequence:
#
# PCOD9069502 Si02
#       7
#     2   2   2   2   2   2   2
#     4  12  23  44  72 104 145 182 233 302 347 415
#     4  12  24  52  76  99 140 191 246 294 348 413
#     4  12  26  47  70 108 149 189 226 296 359 426
#     4  12  26  43  74 109 140 187 236 296 354 421
#     4  12  27  49  72 105 144 191 240 288 355 423
#     4  12  26  46  77 103 142 194 235 291 356 423
#     4  12  25  44  72 110 146 178 240 290 363 418
#
# _framework density 27.301855
#
# number of rings (size 3 to 8) (size 9 to 14) (size 15 to 20)
#    0.000    0.000    7.143    3.000    2.000    1.714 
#    2.571    1.429    0.000    0.000    0.000    0.000 
#    0.000    0.000    0.000    0.000    0.000    0.000 
#
# Total GULP energy -78134.068161 kJ/mol
# GULP energy per Si atom -5581.004869 kJ/mol
# Density = 2.723972 g / cm^3
# Si number density = 27.301855 Si / 1000 Ang^3
#
#
#
# Elastic Constant Matrix: (Units=GPa)
#
#
# Indices 1 2 3 4 5 6 
#
# 1 131.4509 31.6065 63.1159 -3.4673 27.5776 19.8821
# 2 31.6065 86.3416 36.0630 -27.5457 -1.1856 -5.7514
# 3 63.1159 36.0630 172.9588 -51.5912 14.4894 8.2156
# 4 -3.4673 -27.5457 -51.5912 65.6666 2.8424 0.5696
# 5 27.5776 -1.1856 14.4894 2.8424 54.2467 0.9517
# 6 19.8821 -5.7514 8.2156 0.5696 0.9517 47.0675
#
#
#
# Elastic Compliance Matrix: (Units=1/GPa)
#
#
# Indices 1 2 3 4 5 6 
#
# 1 0.012390 -0.004545 -0.004208 -0.004301 -0.004963 -0.004902
# 2 -0.004545 0.015507 -0.000151 0.006014 0.002309 0.003722
# 3 -0.004208 -0.000151 0.009588 0.007282 -0.000807 0.000014
# 4 -0.004301 0.006014 0.007282 0.023274 -0.000864 0.001016
# 5 -0.004963 0.002309 -0.000807 -0.000864 0.021232 0.002100
# 6 -0.004902 0.003722 0.000014 0.001016 0.002100 0.023714
#
#
# Mechanical properties :
#
#
# Convention : Reuss Voigt Hill
#
# Bulk Modulus (GPa) = 50.82140 72.48024 61.65082
# Shear Modulus (GPa) = 38.44062 50.72721 44.58392
#
# Velocity S-wave (km/s) = 3.75638 4.31514 4.04542
# Velocity P-wave (km/s) = 6.12119 7.17166 6.66714
#
# Compressibility (1/GPa) = 0.01967675
#
# Stress axis : x y z
#
# Youngs Moduli (GPa) = 80.71225 64.48738 104.29865
#
# Poissons Ratio (x) = 0.29307 0.43888
# Poissons Ratio (y) = 0.36681 0.01578
# Poissons Ratio (z) = 0.33963 0.00976
#
# Static dielectric constant tensor:
#      x y z
#    x 2.217530 -0.044270 0.048670 
#    y -0.044270 2.307900 -0.006920 
#    z 0.048670 -0.006920 2.160390 
# 
# From -- ./inp_files/589338.got.cif
#   From: 2010.05.17/outbox.cif.g08.bks.cpg/sg2_295_cif.got.tgz:589338.got - 2010.06.03 11:33:40.
