data_PCOD9069143
_publ_section_title
;
Structure prediction by ZEFSAII (Michael W. Deem and Ramdas Pophale) SiO2 
 PCOD9069143
Probable space group: P -1
;
_chemical_formula_sum "Si O2"
_cell_formula_units_Z 16
_cell_length_a 8.497830
_cell_length_b 10.853989
_cell_length_c 8.405060
_cell_angle_alpha 104.817119
_cell_angle_beta 84.953233
_cell_angle_gamma 67.826545
_cell_volume 679.142048
_symmetry_space_group_name_H-M "P -1"
_symmetry_group_IT_number 2
_symmetry_cell_setting 'triclinic'
loop_
_space_group_symop_operation_xyz
x,y,z
-x,-y,-z
loop_
_atom_site_type_symbol
_atom_site_label
_atom_site_fract_x
_atom_site_fract_y
_atom_site_fract_z
Si Si1 0.119491 0.272142 0.672136
Si Si2 0.058339 0.351394 0.035723
Si Si3 0.298150 0.629386 0.252991
Si Si4 0.376561 0.319077 0.181252
Si Si5 0.197359 0.709017 0.742318
Si Si6 0.692451 0.163317 0.946580
Si Si7 0.392000 0.386699 0.563977
Si Si8 0.078512 0.073767 0.389202
O O1 0.138285 0.242732 0.848899
O O2 0.235225 0.357388 0.648668
O O3 0.184151 0.138692 0.507570
O O4 0.906772 0.338895 0.686567
O O5 0.184089 0.339691 0.166087
O O6 0.000000 0.500000 0.000000
O O7 0.903467 0.331858 0.124775
O O8 0.388402 0.462149 0.169015
O O9 0.298064 0.715888 0.126145
O O10 0.427288 0.666411 0.371435
O O11 0.411655 0.317794 0.365153
O O12 0.494186 0.195502 0.012465
O O13 0.324268 0.555864 0.614732
O O14 0.075156 0.801687 0.646204
O O15 0.257657 0.811673 0.870755
O O16 0.807358 0.025885 0.794059
O O17 0.000000 0.000000 0.500000
#
# Coordination Sequence:
#
# PCOD9069143 Si02
#       8
#     2   2   2   2   2   2   2   2
#     4  12  25  47  77 109 150 200 245 308 379 441
#     4  12  22  43  72 112 150 189 242 313 382 448
#     4  12  23  45  75 110 149 192 245 316 382 437
#     4  12  25  42  68 110 155 187 243 313 382 437
#     4  12  24  44  75 109 148 194 251 307 374 444
#     4  12  26  44  72 106 146 200 250 299 368 457
#     4  12  27  44  75 122 151 185 248 324 383 441
#     4  12  27  49  73 101 149 208 257 296 362 456
#
# _framework density 23.559135999999999
#
# number of rings (size 3 to 8) (size 9 to 14) (size 15 to 20)
#    0.000    0.000    6.250    3.375    1.750    1.500 
#    0.000    5.000    0.000    0.000    0.000    0.000 
#    0.000    0.000    0.000    0.000    0.000    0.000 
#
# Total GULP energy -89328.917974 kJ/mol
# GULP energy per Si atom -5583.057373 kJ/mol
# Density = 2.350551 g / cm^3
# Si number density = 23.559136 Si / 1000 Ang^3
#
#
#
# Elastic Constant Matrix: (Units=GPa)
#
#
# Indices 1 2 3 4 5 6 
#
# 1 127.4277 11.1623 53.7801 0.8746 10.3032 -6.3211
# 2 11.1623 32.0967 27.9402 -7.3366 0.6826 4.5397
# 3 53.7801 27.9402 177.4153 14.7502 8.5087 -14.6072
# 4 0.8746 -7.3366 14.7502 36.0633 -8.2137 1.3210
# 5 10.3032 0.6826 8.5087 -8.2137 52.6358 -0.1629
# 6 -6.3211 4.5397 -14.6072 1.3210 -0.1629 18.9175
#
#
#
# Elastic Compliance Matrix: (Units=1/GPa)
#
#
# Indices 1 2 3 4 5 6 
#
# 1 0.009153 -0.001235 -0.002406 0.000147 -0.001359 0.001475
# 2 -0.001235 0.046664 -0.010094 0.015215 0.003579 -0.020436
# 3 -0.002406 -0.010094 0.009361 -0.006600 -0.001912 0.009291
# 4 0.000147 0.015215 -0.006600 0.035368 0.006325 -0.011113
# 5 -0.001359 0.003579 -0.001912 0.006325 0.020505 -0.003055
# 6 0.001475 -0.020436 0.009291 -0.011113 -0.003055 0.066182
#
#
# Mechanical properties :
#
#
# Convention : Reuss Voigt Hill
#
# Bulk Modulus (GPa) = 26.51894 58.07832 42.29863
# Shear Modulus (GPa) = 22.00009 37.79379 29.89694
#
# Velocity S-wave (km/s) = 3.05917 4.00960 3.56619
# Velocity P-wave (km/s) = 4.87430 6.79276 5.91187
#
# Compressibility (1/GPa) = 0.03770890
#
# Stress axis : x y z
#
# Youngs Moduli (GPa) = 109.25190 21.42964 106.83000
#
# Poissons Ratio (x) = 0.02647 0.25699
# Poissons Ratio (y) = 0.13495 1.07832
# Poissons Ratio (z) = 0.26282 0.21631
#
# Static dielectric constant tensor:
#      x y z
#    x 2.006890 -0.056850 -0.002300 
#    y -0.056850 1.951510 0.057520 
#    z -0.002300 0.057520 1.954360 
# 
# From -- ./inp_files/189293.got.cif
#   From: 2010.05.17/outbox.cif.g08.bks.cpg/sg2_95_cif.got.tgz:189293.got - 2010.06.03 11:33:40.
