data_PCOD9069064
_publ_section_title
;
Structure prediction by ZEFSAII (Michael W. Deem and Ramdas Pophale) SiO2 
 PCOD9069064
Probable space group: P -1
;
_chemical_formula_sum "Si O2"
_cell_formula_units_Z 14
_cell_length_a 12.871487
_cell_length_b 9.218783
_cell_length_c 15.597132
_cell_angle_alpha 114.639808
_cell_angle_beta 151.642738
_cell_angle_gamma 53.052424
_cell_volume 671.219401
_symmetry_space_group_name_H-M "P -1"
_symmetry_group_IT_number 2
_symmetry_cell_setting 'triclinic'
loop_
_space_group_symop_operation_xyz
x,y,z
-x,-y,-z
loop_
_atom_site_type_symbol
_atom_site_label
_atom_site_fract_x
_atom_site_fract_y
_atom_site_fract_z
Si Si1 0.468279 0.671248 0.342377
Si Si2 0.310928 0.421108 0.347679
Si Si3 0.834360 0.686595 0.483300
Si Si4 0.491050 0.089849 0.262424
Si Si5 0.743684 0.410897 0.091837
Si Si6 0.287200 0.408432 0.065673
Si Si7 0.941652 0.004614 0.059270
O O1 0.697323 0.590717 0.558431
O O2 0.578813 0.708162 0.345806
O O3 0.234295 0.855227 0.266132
O O4 0.355194 0.542727 0.202079
O O5 0.500000 0.500000 0.500000
O O6 0.445409 0.227259 0.343025
O O7 0.011207 0.534922 0.125721
O O8 0.000000 0.500000 0.500000
O O9 0.016927 0.651753 0.687039
O O10 0.738534 0.879121 0.408305
O O11 0.477458 0.200163 0.193159
O O12 0.244092 0.069704 0.075947
O O13 0.689801 0.551701 0.007731
O O14 0.814179 0.213029 0.053835
O O15 0.500000 0.500000 0.000000
O O16 0.000000 0.000000 0.000000
#
# Coordination Sequence:
#
# PCOD9069064 Si02
#       7
#     2   2   2   2   2   2   2
#     4  12  23  43  72 103 148 188 245 299 358 432
#     4  12  23  40  70 110 149 184 234 301 371 428
#     4  12  27  48  72 103 144 197 252 298 361 442
#     4  12  24  43  72 106 146 186 238 306 365 426
#     4  12  26  49  74 103 148 198 245 301 366 436
#     4  12  24  44  71 109 145 186 237 306 363 426
#     4  12  22  41  71 107 143 191 242 296 361 430
#
# _framework density 20.857561
#
# number of rings (size 3 to 8) (size 9 to 14) (size 15 to 20)
#    0.000    0.000    7.143    3.857    0.000    1.143 
#    0.000    5.714    0.000    0.000    0.000    0.000 
#    0.000    0.000    0.000    0.000    0.000    0.000 
#
# Total GULP energy -78164.472322 kJ/mol
# GULP energy per Si atom -5583.176594 kJ/mol
# Density = 2.081009 g / cm^3
# Si number density = 20.857561 Si / 1000 Ang^3
#
#
#
# Elastic Constant Matrix: (Units=GPa)
#
#
# Indices 1 2 3 4 5 6 
#
# 1 123.7246 86.4768 52.1344 -8.3539 -8.9808 9.7594
# 2 86.4768 151.0666 57.5119 -7.0049 -8.8484 4.7598
# 3 52.1344 57.5119 137.6613 1.0078 -17.5575 4.7068
# 4 -8.3539 -7.0049 1.0078 36.7482 1.8974 -6.9922
# 5 -8.9808 -8.8484 -17.5575 1.8974 42.9188 -5.8888
# 6 9.7594 4.7598 4.7068 -6.9922 -5.8888 39.0565
#
#
#
# Elastic Compliance Matrix: (Units=1/GPa)
#
#
# Indices 1 2 3 4 5 6 
#
# 1 0.014387 -0.007187 -0.002359 0.001550 0.000204 -0.002127
# 2 -0.007187 0.011560 -0.002130 0.000775 0.000083 0.000795
# 3 -0.002359 -0.002130 0.009440 -0.001371 0.002978 -0.000085
# 4 0.001550 0.000775 -0.001371 0.028683 -0.000698 0.004713
# 5 0.000204 0.000083 0.002978 -0.000698 0.025052 0.003232
# 6 -0.002127 0.000795 -0.000085 0.004713 0.003232 0.027380
#
#
# Mechanical properties :
#
#
# Convention : Reuss Voigt Hill
#
# Bulk Modulus (GPa) = 83.08443 89.41097 86.24770
# Shear Modulus (GPa) = 34.75471 38.16665 36.46068
#
# Velocity S-wave (km/s) = 4.08645 4.28234 4.18554
# Velocity P-wave (km/s) = 7.88582 8.21046 8.04978
#
# Compressibility (1/GPa) = 0.01203595
#
# Stress axis : x y z
#
# Youngs Moduli (GPa) = 69.50864 86.50262 105.93008
#
# Poissons Ratio (x) = 0.62168 0.24985
# Poissons Ratio (y) = 0.49954 0.22565
# Poissons Ratio (z) = 0.16395 0.18427
#
# Static dielectric constant tensor:
#      x y z
#    x 2.083250 -0.124440 -0.075890 
#    y -0.124440 1.889650 -0.011320 
#    z -0.075890 -0.011320 1.820770 
# 
# From -- ./inp_files/516164.got.cif
#   From: 2010.05.17/outbox.cif.g08.bks.cpg/sg2_259_cif.got.tgz:516164.got - 2010.06.03 11:33:40.
