data_PCOD9069478
_publ_section_title
;
Structure prediction by ZEFSAII (Michael W. Deem and Ramdas Pophale) SiO2 
 PCOD9069478
Probable space group: P -1
;
_chemical_formula_sum "Si O2"
_cell_formula_units_Z 16
_cell_length_a 8.224051
_cell_length_b 23.715704
_cell_length_c 9.241890
_cell_angle_alpha 49.942141
_cell_angle_beta 32.397094
_cell_angle_gamma 46.128175
_cell_volume 688.214134
_symmetry_space_group_name_H-M "P -1"
_symmetry_group_IT_number 2
_symmetry_cell_setting 'triclinic'
loop_
_space_group_symop_operation_xyz
x,y,z
-x,-y,-z
loop_
_atom_site_type_symbol
_atom_site_label
_atom_site_fract_x
_atom_site_fract_y
_atom_site_fract_z
Si Si1 0.264414 0.203396 0.419225
Si Si2 0.141737 0.332509 0.799084
Si Si3 0.615886 0.049773 0.219105
Si Si4 0.383177 0.473401 0.772505
Si Si5 0.530460 0.303699 0.859713
Si Si6 0.473906 0.431633 0.236472
Si Si7 0.868409 0.926835 0.716208
Si Si8 0.417360 0.166577 0.702944
O O1 0.468574 0.134928 0.266774
O O2 0.378523 0.176111 0.542573
O O3 0.872386 0.234902 0.674341
O O4 0.338365 0.275402 0.173173
O O5 0.335319 0.327783 0.813833
O O6 0.189428 0.399633 0.546734
O O7 0.256768 0.249620 0.767258
O O8 0.769038 0.355187 0.086802
O O9 0.433359 0.054942 0.195840
O O10 0.500000 0.000000 0.500000
O O11 0.000000 0.000000 0.000000
O O12 0.500000 0.500000 0.500000
O O13 0.566042 0.379059 0.789525
O O14 0.451396 0.530259 0.740394
O O15 0.000000 0.500000 0.000000
O O16 0.500000 0.500000 0.000000
O O17 0.195012 0.861026 0.515858
O O18 0.747298 0.893741 0.006481
O O19 0.000000 0.000000 0.500000
#
# Coordination Sequence:
#
# PCOD9069478 Si02
#       8
#     2   2   2   2   2   2   2   2
#     4  12  27  44  72 106 141 185 240 300 355 429
#     4  12  25  46  68  99 143 193 235 299 365 440
#     4  12  26  49  77 110 145 188 243 296 355 438
#     4  12  23  44  68 101 135 187 246 300 360 431
#     4  12  24  44  70  98 139 188 240 297 360 424
#     4  12  26  43  67 101 141 186 241 301 368 432
#     4  12  26  49  78 109 149 196 237 300 368 440
#     4  12  27  47  71 109 149 190 245 295 372 440
#
# _framework density 23.248574999999999
#
# number of rings (size 3 to 8) (size 9 to 14) (size 15 to 20)
#    0.000    0.000    2.500    7.500    3.500    2.000 
#    0.000    0.000    0.000    0.000    0.000    0.000 
#    0.000    0.000    0.000    0.000    0.000    0.000 
#
# Total GULP energy -89345.895484 kJ/mol
# GULP energy per Si atom -5584.118468 kJ/mol
# Density = 2.319566 g / cm^3
# Si number density = 23.248575 Si / 1000 Ang^3
#
#
#
# Elastic Constant Matrix: (Units=GPa)
#
#
# Indices 1 2 3 4 5 6 
#
# 1 66.4113 20.1045 41.4967 8.3993 13.0825 -0.8161
# 2 20.1045 91.2284 22.2411 15.9511 7.6634 15.2693
# 3 41.4967 22.2411 188.6119 -0.5673 16.4748 -3.8174
# 4 8.3993 15.9511 -0.5673 62.7845 -12.7348 -1.2399
# 5 13.0825 7.6634 16.4748 -12.7348 34.5132 3.6681
# 6 -0.8161 15.2693 -3.8174 -1.2399 3.6681 35.2384
#
#
#
# Elastic Compliance Matrix: (Units=1/GPa)
#
#
# Indices 1 2 3 4 5 6 
#
# 1 0.019766 -0.002688 -0.003421 -0.003311 -0.006679 0.001831
# 2 -0.002688 0.013619 -0.000947 -0.003689 -0.002281 -0.005958
# 3 -0.003421 -0.000947 0.006319 0.000483 -0.001457 0.001184
# 4 -0.003311 -0.003689 0.000483 0.019114 0.008754 0.001336
# 5 -0.006679 -0.002281 -0.001457 0.008754 0.036234 -0.002788
# 6 0.001831 -0.005958 0.001184 0.001336 -0.002788 0.031468
#
#
# Mechanical properties :
#
#
# Convention : Reuss Voigt Hill
#
# Bulk Modulus (GPa) = 39.07692 57.10403 48.09048
# Shear Modulus (GPa) = 33.52027 44.00117 38.76072
#
# Velocity S-wave (km/s) = 3.80125 4.35517 4.08760
# Velocity P-wave (km/s) = 6.00923 7.06440 6.55807
#
# Compressibility (1/GPa) = 0.02559055
#
# Stress axis : x y z
#
# Youngs Moduli (GPa) = 50.59157 73.42822 158.25443
#
# Poissons Ratio (x) = 0.19741 0.54143
# Poissons Ratio (y) = 0.13601 0.14985
# Poissons Ratio (z) = 0.17309 0.06953
#
# Static dielectric constant tensor:
#      x y z
#    x 1.889060 -0.082110 0.060060 
#    y -0.082110 1.770540 0.052730 
#    z 0.060060 0.052730 1.798830 
# 
# From -- ./inp_files/226039.got.cif
#   From: 2010.05.17/outbox.cif.g08.bks.cpg/sg2_114_cif.got.tgz:226039.got - 2010.06.03 11:33:40.
