data_PCOD9069432
_publ_section_title
;
Structure prediction by ZEFSAII (Michael W. Deem and Ramdas Pophale) SiO2 
 PCOD9069432
Probable space group: P -1
;
_chemical_formula_sum "Si O2"
_cell_formula_units_Z 15
_cell_length_a 8.859540
_cell_length_b 19.099637
_cell_length_c 12.546440
_cell_angle_alpha 28.632476
_cell_angle_beta 48.721693
_cell_angle_gamma 41.064413
_cell_volume 668.280426
_symmetry_space_group_name_H-M "P -1"
_symmetry_group_IT_number 2
_symmetry_cell_setting 'triclinic'
loop_
_space_group_symop_operation_xyz
x,y,z
-x,-y,-z
loop_
_atom_site_type_symbol
_atom_site_label
_atom_site_fract_x
_atom_site_fract_y
_atom_site_fract_z
Si Si1 0.376960 0.664451 0.409967
Si Si2 0.426742 0.064585 0.727802
Si Si3 0.640725 0.396577 0.969601
Si Si4 0.423940 0.174974 0.358819
Si Si5 0.000000 0.000000 0.000000
Si Si6 0.045665 0.650312 0.751029
Si Si7 0.271121 0.370709 0.541740
Si Si8 0.947086 0.849210 0.753283
O O1 0.500000 0.500000 0.500000
O O2 0.262777 0.624650 0.618203
O O3 0.587232 0.677870 0.349296
O O4 0.180869 0.825886 0.222270
O O5 0.479215 0.152973 0.486185
O O6 0.328959 0.196052 0.693224
O O7 0.224000 0.026282 0.840613
O O8 0.683754 0.912126 0.826428
O O9 0.648099 0.526323 0.710932
O O10 0.500000 0.500000 0.000000
O O11 0.527885 0.289868 0.114261
O O12 0.888299 0.263012 0.078752
O O13 0.156069 0.256025 0.363736
O O14 0.500000 0.000000 0.500000
O O15 0.007483 0.747821 0.749451
O O16 0.000000 0.500000 0.000000
O O17 0.000000 0.500000 0.500000
O O18 0.000000 0.000000 0.500000
#
# Coordination Sequence:
#
# PCOD9069432 Si02
#       8
#     2   2   2   2   1   2   2   2
#     4  12  29  53  78 114 162 213 272 330 415 499
#     4  12  26  50  72 113 155 206 269 332 405 481
#     4  12  24  47  80 108 156 208 256 331 409 478
#     4  12  23  43  72 110 153 194 259 320 395 471
#     4  12  30  50  82 104 166 220 268 336 410 494
#     4  12  26  44  77 113 152 202 260 327 398 470
#     4  12  29  51  77 114 155 210 271 332 408 502
#     4  12  24  46  78 115 153 198 262 337 398 479
#
# _framework density 22.445665999999999
#
# number of rings (size 3 to 8) (size 9 to 14) (size 15 to 20)
#    0.000    0.000    5.333    4.000    3.733    2.667 
#    7.200    0.000    0.000    0.000    0.000    0.000 
#    0.000    0.000    0.000    0.000    0.000    0.000 
#
# Total GULP energy -83509.443063 kJ/mol
# GULP energy per Si atom -5567.296204 kJ/mol
# Density = 2.239458 g / cm^3
# Si number density = 22.445666 Si / 1000 Ang^3
#
#
#
# Elastic Constant Matrix: (Units=GPa)
#
#
# Indices 1 2 3 4 5 6 
#
# 1 135.4809 64.4761 30.9818 -2.2994 10.3481 -31.0363
# 2 64.4761 141.2157 37.0176 -5.1324 -5.7381 -14.5453
# 3 30.9818 37.0176 125.1301 6.3705 -5.6082 -5.1436
# 4 -2.2994 -5.1324 6.3705 21.6583 -5.6830 -5.5195
# 5 10.3481 -5.7381 -5.6082 -5.6830 43.7016 -10.1121
# 6 -31.0363 -14.5453 -5.1436 -5.5195 -10.1121 53.5070
#
#
#
# Elastic Compliance Matrix: (Units=1/GPa)
#
#
# Indices 1 2 3 4 5 6 
#
# 1 0.010986 -0.004174 -0.001444 0.001301 -0.002044 0.004847
# 2 -0.004174 0.009807 -0.001881 0.003373 0.002686 0.000919
# 3 -0.001444 -0.001881 0.009074 -0.003265 0.000676 -0.000686
# 4 0.001301 0.003373 -0.003265 0.052424 0.008469 0.008366
# 5 -0.002044 0.002686 0.000676 0.008469 0.026163 0.005428
# 6 0.004847 0.000919 -0.000686 0.008366 0.005428 0.023573
#
#
# Mechanical properties :
#
#
# Convention : Reuss Voigt Hill
#
# Bulk Modulus (GPa) = 67.25594 74.08642 70.67118
# Shear Modulus (GPa) = 32.89855 41.73012 37.31434
#
# Velocity S-wave (km/s) = 3.83260 4.31648 4.08171
# Velocity P-wave (km/s) = 7.04372 7.61060 7.33264
#
# Compressibility (1/GPa) = 0.01486857
#
# Stress axis : x y z
#
# Youngs Moduli (GPa) = 91.02169 101.97017 110.20399
#
# Poissons Ratio (x) = 0.42564 0.15913
# Poissons Ratio (y) = 0.37994 0.20732
# Poissons Ratio (z) = 0.13143 0.19183
#
# Static dielectric constant tensor:
#      x y z
#    x 1.852800 -0.027690 0.060910 
#    y -0.027690 1.794040 -0.058350 
#    z 0.060910 -0.058350 2.059430 
# 
# From -- ./inp_files/402610.got.cif
#   From: 2010.05.17/outbox.cif.g08.bks.cpg/sg2_202_cif.got.tgz:402610.got - 2010.06.03 11:33:40.
