data_PCOD9069559
_publ_section_title
;
Structure prediction by ZEFSAII (Michael W. Deem and Ramdas Pophale) SiO2 
 PCOD9069559
Probable space group: P -1
;
_chemical_formula_sum "Si O2"
_cell_formula_units_Z 14
_cell_length_a 6.510444
_cell_length_b 17.912286
_cell_length_c 8.229627
_cell_angle_alpha 59.980742
_cell_angle_beta 105.523713
_cell_angle_gamma 132.523768
_cell_volume 608.676539
_symmetry_space_group_name_H-M "P -1"
_symmetry_group_IT_number 2
_symmetry_cell_setting 'triclinic'
loop_
_space_group_symop_operation_xyz
x,y,z
-x,-y,-z
loop_
_atom_site_type_symbol
_atom_site_label
_atom_site_fract_x
_atom_site_fract_y
_atom_site_fract_z
Si Si1 0.643877 0.030842 0.666183
Si Si2 0.296039 0.317547 0.809936
Si Si3 0.285385 0.747595 0.546043
Si Si4 0.290582 0.191472 0.654675
Si Si5 0.176242 0.624895 0.981250
Si Si6 0.362816 0.874388 0.046012
Si Si7 0.944880 0.583274 0.346285
O O1 0.661131 0.137114 0.601569
O O2 0.964349 0.085106 0.687822
O O3 0.500000 0.000000 0.500000
O O4 0.447820 0.908782 0.841800
O O5 0.334064 0.287121 0.671064
O O6 0.333332 0.430728 0.706397
O O7 0.512374 0.327090 0.962837
O O8 0.970814 0.214172 0.903224
O O9 0.568127 0.769273 0.535161
O O10 0.186485 0.698702 0.759084
O O11 0.078813 0.662469 0.451514
O O12 0.458924 0.159751 0.816218
O O13 0.000000 0.500000 0.000000
O O14 0.057877 0.618392 0.143821
O O15 0.500000 0.000000 0.000000
O O16 0.000000 0.500000 0.500000
#
# Coordination Sequence:
#
# PCOD9069559 Si02
#       7
#     2   2   2   2   2   2   2
#     4  12  29  43  72 113 154 200 252 308 373 452
#     4  12  26  47  78 109 150 201 249 316 375 455
#     4  12  26  50  72 113 154 193 255 314 376 449
#     4  12  23  47  75 102 154 199 245 305 377 446
#     4  12  29  49  76 113 149 195 257 321 381 446
#     4  12  23  45  72 108 144 199 257 293 374 453
#     4  12  25  53  78 107 146 198 252 313 385 449
#
# _framework density 23.000723000000001
#
# number of rings (size 3 to 8) (size 9 to 14) (size 15 to 20)
#    0.000    0.000    8.571    0.429    6.000    1.714 
#    2.571    0.000    0.000    0.000    0.000    0.000 
#    0.000    0.000    0.000    0.000    0.000    0.000 
#
# Total GULP energy -78025.075352 kJ/mol
# GULP energy per Si atom -5573.219668 kJ/mol
# Density = 2.294837 g / cm^3
# Si number density = 23.000723 Si / 1000 Ang^3
#
#
#
# Elastic Constant Matrix: (Units=GPa)
#
#
# Indices 1 2 3 4 5 6 
#
# 1 112.9725 25.5297 37.3107 10.9855 5.9609 -5.2984
# 2 25.5297 88.7495 10.2425 22.1517 3.0928 -10.9446
# 3 37.3107 10.2425 151.8095 8.5423 -10.5617 -7.0179
# 4 10.9855 22.1517 8.5423 33.6401 -4.1385 4.8013
# 5 5.9609 3.0928 -10.5617 -4.1385 36.0826 -4.5394
# 6 -5.2984 -10.9446 -7.0179 4.8013 -4.5394 42.5336
#
#
#
# Elastic Compliance Matrix: (Units=1/GPa)
#
#
# Indices 1 2 3 4 5 6 
#
# 1 0.010472 -0.002188 -0.002488 -0.001683 -0.002431 0.000261
# 2 -0.002188 0.014999 0.000204 -0.010048 -0.001438 0.004601
# 3 -0.002488 0.000204 0.007494 -0.001098 0.002635 0.001384
# 4 -0.001683 -0.010048 -0.001098 0.038693 0.004391 -0.006875
# 5 -0.002431 -0.001438 0.002635 0.004391 0.029822 0.002449
# 6 0.000261 0.004601 0.001384 -0.006875 0.002449 0.025993
#
#
# Mechanical properties :
#
#
# Convention : Reuss Voigt Hill
#
# Bulk Modulus (GPa) = 41.63214 55.52193 48.57703
# Shear Modulus (GPa) = 34.61986 41.14782 37.88384
#
# Velocity S-wave (km/s) = 3.88385 4.23422 4.06282
# Velocity P-wave (km/s) = 6.18483 6.93516 6.57071
#
# Compressibility (1/GPa) = 0.02401990
#
# Stress axis : x y z
#
# Youngs Moduli (GPa) = 95.49014 66.67127 133.43688
#
# Poissons Ratio (x) = 0.14588 0.33206
# Poissons Ratio (y) = 0.20894 -0.02720
# Poissons Ratio (z) = 0.23763 -0.01359
#
# Static dielectric constant tensor:
#      x y z
#    x 2.033140 -0.025410 -0.256770 
#    y -0.025410 1.952750 -0.059460 
#    z -0.256770 -0.059460 2.268520 
# 
# From -- ./inp_files/138767.got.cif
#   From: 2010.05.17/outbox.cif.g08.bks.cpg/sg2_70_cif.got.tgz:138767.got - 2010.06.03 11:33:40.
