data_PCOD9069301
_publ_section_title
;
Structure prediction by ZEFSAII (Michael W. Deem and Ramdas Pophale) SiO2 
 PCOD9069301
Probable space group: P -1
;
_chemical_formula_sum "Si O2"
_cell_formula_units_Z 16
_cell_length_a 15.212649
_cell_length_b 15.251432
_cell_length_c 15.212430
_cell_angle_alpha 138.374575
_cell_angle_beta 160.345771
_cell_angle_gamma 41.456955
_cell_volume 772.031726
_symmetry_space_group_name_H-M "P -1"
_symmetry_group_IT_number 2
_symmetry_cell_setting 'triclinic'
loop_
_space_group_symop_operation_xyz
x,y,z
-x,-y,-z
loop_
_atom_site_type_symbol
_atom_site_label
_atom_site_fract_x
_atom_site_fract_y
_atom_site_fract_z
Si Si1 0.406175 0.739401 0.493925
Si Si2 0.860463 0.189155 0.190225
Si Si3 0.772877 0.909011 0.228861
Si Si4 0.371990 0.057066 0.681214
Si Si5 0.557226 0.713628 0.431064
Si Si6 0.041569 0.844176 0.942453
Si Si7 0.274309 0.516651 0.725347
Si Si8 0.886263 0.662561 0.016272
O O1 0.531391 0.664175 0.468008
O O2 0.597397 0.688577 0.717600
O O3 0.405581 0.896535 0.596618
O O4 0.107142 0.720097 0.211734
O O5 0.764136 0.338520 0.248791
O O6 0.145114 0.119418 0.444503
O O7 0.645084 0.100021 0.942888
O O8 0.879393 0.217516 0.125401
O O9 0.721101 0.890939 0.269898
O O10 0.849835 0.763349 0.142877
O O11 0.000000 0.000000 0.500000
O O12 0.500000 0.000000 0.000000
O O13 0.273797 0.797667 0.195678
O O14 0.642887 0.595621 0.354050
O O15 0.775489 0.805312 0.698130
O O16 0.000000 0.000000 0.000000
O O17 0.000000 0.500000 0.500000
O O18 0.500000 0.500000 0.000000
O O19 0.000000 0.500000 0.000000
#
# Coordination Sequence:
#
# PCOD9069301 Si02
#       8
#     2   2   2   2   2   2   2   2
#     4  12  25  45  69 103 140 175 227 287 343 405
#     4  12  24  39  65  98 130 170 225 279 318 393
#     4  12  23  46  73  99 137 187 225 272 358 421
#     4  12  24  41  68 101 132 169 227 284 330 395
#     4  12  24  42  68  93 132 187 219 271 346 400
#     4  12  23  41  63  95 132 174 222 270 331 397
#     4  12  23  44  64  89 135 184 224 270 333 399
#     4  12  26  46  74 104 142 181 225 287 350 422
#
# _framework density 20.724537999999999
#
# number of rings (size 3 to 8) (size 9 to 14) (size 15 to 20)
#    0.000    0.000    5.000    6.000    0.000    2.000 
#    0.000    0.000    0.000    0.000    0.000    0.000 
#    0.000    0.000    0.000    0.000    0.000    0.000 
#
# Total GULP energy -89510.542720 kJ/mol
# GULP energy per Si atom -5594.408920 kJ/mol
# Density = 2.067737 g / cm^3
# Si number density = 20.724538 Si / 1000 Ang^3
#
#
#
# Elastic Constant Matrix: (Units=GPa)
#
#
# Indices 1 2 3 4 5 6 
#
# 1 89.6788 -25.6469 5.5938 10.8556 -3.5568 -23.5391
# 2 -25.6469 112.4724 6.3857 9.7930 -8.8537 -14.9827
# 3 5.5938 6.3857 101.0891 -3.6895 3.8507 -6.2939
# 4 10.8556 9.7930 -3.6895 33.0500 1.7190 -3.6344
# 5 -3.5568 -8.8537 3.8507 1.7190 47.4417 -0.2216
# 6 -23.5391 -14.9827 -6.2939 -3.6344 -0.2216 34.6332
#
#
#
# Elastic Compliance Matrix: (Units=1/GPa)
#
#
# Indices 1 2 3 4 5 6 
#
# 1 0.017793 0.006805 -0.000882 -0.006552 0.002979 0.014208
# 2 0.006805 0.012430 -0.000889 -0.005156 0.003132 0.009320
# 3 -0.000882 -0.000889 0.010173 0.001863 -0.001120 0.001053
# 4 -0.006552 -0.005156 0.001863 0.033985 -0.002849 -0.002797
# 5 0.002979 0.003132 -0.001120 -0.002849 0.022095 0.003019
# 6 0.014208 0.009320 0.001053 -0.002797 0.003019 0.042480
#
#
# Mechanical properties :
#
#
# Convention : Reuss Voigt Hill
#
# Bulk Modulus (GPa) = 19.81613 30.65617 25.23615
# Shear Modulus (GPa) = 34.31451 44.15215 39.23333
#
# Velocity S-wave (km/s) = 4.07350 4.62066 4.35568
# Velocity P-wave (km/s) = 5.63089 6.57964 6.12367
#
# Compressibility (1/GPa) = 0.05046394
#
# Stress axis : x y z
#
# Youngs Moduli (GPa) = 56.20253 80.44830 98.29479
#
# Poissons Ratio (x) = -0.54746 0.08674
# Poissons Ratio (y) = -0.38246 0.08738
# Poissons Ratio (z) = 0.04959 0.07152
#
# Static dielectric constant tensor:
#      x y z
#    x 1.780020 -0.090110 -0.046850 
#    y -0.090110 1.795040 0.044990 
#    z -0.046850 0.044990 1.719930 
# 
# From -- ./inp_files/534229.got.cif
#   From: 2010.05.17/outbox.cif.g08.bks.cpg/sg2_268_cif.got.tgz:534229.got - 2010.06.03 11:33:40.
