data_PCOD9069653
_publ_section_title
;
Structure prediction by ZEFSAII (Michael W. Deem and Ramdas Pophale) SiO2 
 PCOD9069653
Probable space group: P -1
;
_chemical_formula_sum "Si O2"
_cell_formula_units_Z 16
_cell_length_a 13.049487
_cell_length_b 8.356568
_cell_length_c 15.499507
_cell_angle_alpha 109.107777
_cell_angle_beta 27.637964
_cell_angle_gamma 110.672444
_cell_volume 733.159684
_symmetry_space_group_name_H-M "P -1"
_symmetry_group_IT_number 2
_symmetry_cell_setting 'triclinic'
loop_
_space_group_symop_operation_xyz
x,y,z
-x,-y,-z
loop_
_atom_site_type_symbol
_atom_site_label
_atom_site_fract_x
_atom_site_fract_y
_atom_site_fract_z
Si Si1 0.644392 0.120571 0.480228
Si Si2 0.975348 0.321169 0.935423
Si Si3 0.143895 0.207063 0.150869
Si Si4 0.892862 0.409356 0.811035
Si Si5 0.431047 0.190465 0.095868
Si Si6 0.538177 0.582745 0.392554
Si Si7 0.670322 0.714158 0.616590
Si Si8 0.596903 0.015019 0.200628
O O1 0.655167 0.307591 0.464461
O O2 0.897407 0.098053 0.308075
O O3 0.500000 0.000000 0.500000
O O4 0.486694 0.103190 0.678127
O O5 0.231215 0.290302 0.749047
O O6 0.918740 0.353742 0.882779
O O7 0.000000 0.500000 0.000000
O O8 0.804912 0.169879 0.079265
O O9 0.128431 0.391258 0.152471
O O10 0.234938 0.220617 0.182371
O O11 0.321385 0.106238 0.953363
O O12 0.097367 0.343172 0.595773
O O13 0.662358 0.311866 0.928489
O O14 0.356846 0.244008 0.255774
O O15 0.500000 0.000000 0.000000
O O16 0.500000 0.500000 0.500000
O O17 0.514573 0.438086 0.310508
O O18 0.611609 0.885869 0.646287
#
# Coordination Sequence:
#
# PCOD9069653 Si02
#       8
#     2   2   2   2   2   2   2   2
#     4  12  29  47  75 114 156 193 254 313 377 449
#     4  12  24  43  75 106 154 205 248 305 381 457
#     4  12  28  51  73 111 153 196 248 323 375 445
#     4  12  27  48  79 110 149 196 260 307 376 455
#     4  12  27  51  76 112 152 196 258 313 380 449
#     4  12  23  46  75 109 152 199 247 305 374 455
#     4  12  25  47  78 108 145 208 252 303 379 452
#     4  12  28  44  75 108 151 196 250 310 384 444
#
# _framework density 21.823349
#
# number of rings (size 3 to 8) (size 9 to 14) (size 15 to 20)
#    0.000    0.000    6.250    1.875    8.750    3.000 
#    0.000    0.000    0.000    0.000    0.000    0.000 
#    0.000    0.000    0.000    0.000    0.000    0.000 
#
# Total GULP energy -89376.865448 kJ/mol
# GULP energy per Si atom -5586.054091 kJ/mol
# Density = 2.177368 g / cm^3
# Si number density = 21.823349 Si / 1000 Ang^3
#
#
#
# Elastic Constant Matrix: (Units=GPa)
#
#
# Indices 1 2 3 4 5 6 
#
# 1 124.7087 28.7379 22.3933 0.2980 -7.6499 14.5011
# 2 28.7379 103.5130 25.3484 11.2105 -3.6577 7.8398
# 3 22.3933 25.3484 78.1226 5.4956 -5.2173 8.7994
# 4 0.2980 11.2105 5.4956 40.8842 3.5457 -2.7018
# 5 -7.6499 -3.6577 -5.2173 3.5457 42.6837 5.7742
# 6 14.5011 7.8398 8.7994 -2.7018 5.7742 35.9266
#
#
#
# Elastic Compliance Matrix: (Units=1/GPa)
#
#
# Indices 1 2 3 4 5 6 
#
# 1 0.009212 -0.001906 -0.001574 0.000311 0.001698 -0.003166
# 2 -0.001906 0.011294 -0.002715 -0.002870 0.000717 -0.001361
# 3 -0.001574 -0.002715 0.014673 -0.001554 0.001782 -0.002769
# 4 0.000311 -0.002870 -0.001554 0.025930 -0.002982 0.003311
# 5 0.001698 0.000717 0.001782 -0.002982 0.025006 -0.005522
# 6 -0.003166 -0.001361 -0.002769 0.003311 -0.005522 0.031224
#
#
# Mechanical properties :
#
#
# Convention : Reuss Voigt Hill
#
# Bulk Modulus (GPa) = 43.88114 51.03371 47.45743
# Shear Modulus (GPa) = 36.40965 39.22321 37.81643
#
# Velocity S-wave (km/s) = 4.08901 4.24406 4.16726
# Velocity P-wave (km/s) = 6.51494 6.88852 6.70433
#
# Compressibility (1/GPa) = 0.02278883
#
# Stress axis : x y z
#
# Youngs Moduli (GPa) = 108.55269 88.54339 68.15332
#
# Poissons Ratio (x) = 0.16876 0.10727
# Poissons Ratio (y) = 0.20689 0.18504
# Poissons Ratio (z) = 0.17086 0.24040
#
# Static dielectric constant tensor:
#      x y z
#    x 1.760850 0.029550 -0.021300 
#    y 0.029550 1.801160 0.037190 
#    z -0.021300 0.037190 1.853820 
# 
# From -- ./inp_files/515839.got.cif
#   From: 2010.05.17/outbox.cif.g08.bks.cpg/sg2_258_cif.got.tgz:515839.got - 2010.06.03 11:33:40.
