data_PCOD9069214
_publ_section_title
;
Structure prediction by ZEFSAII (Michael W. Deem and Ramdas Pophale) SiO2 
 PCOD9069214
Probable space group: P -1
;
_chemical_formula_sum "Si O2"
_cell_formula_units_Z 14
_cell_length_a 8.557299
_cell_length_b 9.417295
_cell_length_c 13.174894
_cell_angle_alpha 133.058454
_cell_angle_beta 97.638958
_cell_angle_gamma 61.914483
_cell_volume 654.490718
_symmetry_space_group_name_H-M "P -1"
_symmetry_group_IT_number 2
_symmetry_cell_setting 'triclinic'
loop_
_space_group_symop_operation_xyz
x,y,z
-x,-y,-z
loop_
_atom_site_type_symbol
_atom_site_label
_atom_site_fract_x
_atom_site_fract_y
_atom_site_fract_z
Si Si1 0.639289 0.404468 0.058052
Si Si2 0.894869 0.381282 0.899354
Si Si3 0.484403 0.429197 0.651753
Si Si4 0.649279 0.727989 0.870731
Si Si5 0.127618 0.077241 0.105822
Si Si6 0.108925 0.628138 0.589846
Si Si7 0.135273 0.925559 0.570007
O O1 0.576845 0.558530 0.229123
O O2 0.500000 0.500000 0.000000
O O3 0.820179 0.351910 0.986272
O O4 0.680720 0.160090 0.977842
O O5 0.735569 0.554708 0.890467
O O6 0.041442 0.145931 0.741952
O O7 0.000000 0.500000 0.000000
O O8 0.554617 0.610993 0.741774
O O9 0.307296 0.497254 0.599942
O O10 0.657065 0.187927 0.511170
O O11 0.823960 0.741817 0.847719
O O12 0.500000 0.000000 0.000000
O O13 0.026339 0.171032 0.248577
O O14 0.000000 0.000000 0.000000
O O15 0.132571 0.729385 0.537880
O O16 0.000000 0.500000 0.500000
O O17 0.000000 0.000000 0.500000
#
# Coordination Sequence:
#
# PCOD9069214 Si02
#       7
#     2   2   2   2   2   2   2
#     4  12  22  46  72 109 146 189 249 309 368 436
#     4  12  27  45  76 110 150 196 248 309 380 438
#     4  12  26  48  77 108 153 199 253 312 377 453
#     4  12  23  43  75 109 149 194 255 302 374 443
#     4  12  23  44  75 105 148 193 253 311 363 446
#     4  12  28  49  76 105 149 203 254 308 383 450
#     4  12  26  51  74 107 155 194 247 312 379 453
#
# _framework density 21.390677
#
# number of rings (size 3 to 8) (size 9 to 14) (size 15 to 20)
#    0.000    0.000    7.143    2.143    2.000    0.000 
#    2.571    1.429    0.000    0.000    0.000    0.000 
#    0.000    0.000    0.000    0.000    0.000    0.000 
#
# Total GULP energy -78075.206779 kJ/mol
# GULP energy per Si atom -5576.800484 kJ/mol
# Density = 2.134199 g / cm^3
# Si number density = 21.390677 Si / 1000 Ang^3
#
#
#
# Elastic Constant Matrix: (Units=GPa)
#
#
# Indices 1 2 3 4 5 6 
#
# 1 129.4338 62.2563 83.9887 -4.6143 3.1149 -6.1824
# 2 62.2563 136.9346 48.0593 -16.5523 -4.9493 -7.5803
# 3 83.9887 48.0593 150.8969 -3.2447 -16.9749 3.8199
# 4 -4.6143 -16.5523 -3.2447 36.7105 -3.4582 -6.5211
# 5 3.1149 -4.9493 -16.9749 -3.4582 59.6573 -7.4184
# 6 -6.1824 -7.5803 3.8199 -6.5211 -7.4184 46.0230
#
#
#
# Elastic Compliance Matrix: (Units=1/GPa)
#
#
# Indices 1 2 3 4 5 6 
#
# 1 0.014462 -0.004220 -0.007093 -0.000775 -0.003014 0.001241
# 2 -0.004220 0.010167 -0.000689 0.004482 0.001379 0.002022
# 3 -0.007093 -0.000689 0.011200 -0.000165 0.003306 -0.001486
# 4 -0.000775 0.004482 -0.000165 0.030372 0.002798 0.005402
# 5 -0.003014 0.001379 0.003306 0.002798 0.018501 0.002926
# 6 0.001241 0.002022 -0.001486 0.005402 0.002926 0.023589
#
#
# Mechanical properties :
#
#
# Convention : Reuss Voigt Hill
#
# Bulk Modulus (GPa) = 84.55944 89.54155 87.05050
# Shear Modulus (GPa) = 36.70109 43.34223 40.02166
#
# Velocity S-wave (km/s) = 4.14666 4.50624 4.33018
# Velocity P-wave (km/s) = 7.90842 8.30818 8.11077
#
# Compressibility (1/GPa) = 0.01182600
#
# Stress axis : x y z
#
# Youngs Moduli (GPa) = 69.14539 98.36156 89.28367
#
# Poissons Ratio (x) = 0.41507 0.63327
# Poissons Ratio (y) = 0.29178 0.06151
# Poissons Ratio (z) = 0.49044 0.06776
#
# Static dielectric constant tensor:
#      x y z
#    x 1.467000 -0.116610 -0.173540 
#    y -0.116610 1.875250 -0.070990 
#    z -0.173540 -0.070990 1.774230 
# 
# From -- ./inp_files/244868.got.cif
#   From: 2010.05.17/outbox.cif.g08.bks.cpg/sg2_123_cif.got.tgz:244868.got - 2010.06.03 11:33:40.
