data_PCOD9069875
_publ_section_title
;
Structure prediction by ZEFSAII (Michael W. Deem and Ramdas Pophale) SiO2 
 PCOD9069875
Probable space group: P -1
;
_chemical_formula_sum "Si O2"
_cell_formula_units_Z 14
_cell_length_a 19.502405
_cell_length_b 9.433188
_cell_length_c 9.720118
_cell_angle_alpha 128.584602
_cell_angle_beta 27.526980
_cell_angle_gamma 125.227623
_cell_volume 644.627186
_symmetry_space_group_name_H-M "P -1"
_symmetry_group_IT_number 2
_symmetry_cell_setting 'triclinic'
loop_
_space_group_symop_operation_xyz
x,y,z
-x,-y,-z
loop_
_atom_site_type_symbol
_atom_site_label
_atom_site_fract_x
_atom_site_fract_y
_atom_site_fract_z
Si Si1 0.052366 0.989188 0.555588
Si Si2 0.755383 0.635942 0.472803
Si Si3 0.646629 0.444148 0.127803
Si Si4 0.434921 0.167166 0.287083
Si Si5 0.148477 0.974904 0.814201
Si Si6 0.768667 0.444085 0.616870
Si Si7 0.103199 0.588124 0.152297
O O1 0.148013 0.173988 0.545976
O O2 0.122140 0.793755 0.301886
O O3 0.000000 0.000000 0.500000
O O4 0.910667 0.981357 0.903575
O O5 0.626506 0.700727 0.641467
O O6 0.714983 0.536271 0.628255
O O7 0.839608 0.486144 0.141880
O O8 0.500000 0.500000 0.500000
O O9 0.590429 0.235879 0.122031
O O10 0.667664 0.476178 0.948453
O O11 0.796289 0.512070 0.978224
O O12 0.291158 0.103534 0.593800
O O13 0.500000 0.000000 0.000000
O O14 0.200966 0.769206 0.584685
O O15 0.000000 0.000000 0.000000
O O16 0.929942 0.535838 0.424238
#
# Coordination Sequence:
#
# PCOD9069875 Si02
#       7
#     2   2   2   2   2   2   2
#     4  12  24  42  71 111 143 179 237 305 360 414
#     4  12  25  48  74 108 149 186 240 307 360 427
#     4  12  27  45  67 107 144 189 240 297 352 438
#     4  12  25  49  72 101 147 194 239 292 365 436
#     4  12  24  45  76 105 139 193 248 292 355 434
#     4  12  25  46  76 107 141 192 245 300 365 418
#     4  12  24  46  76 105 143 187 245 297 356 430
#
# _framework density 21.717980000000001
#
# number of rings (size 3 to 8) (size 9 to 14) (size 15 to 20)
#    0.000    0.000    7.143    3.429    2.000    0.571 
#    0.000    0.000    0.000    4.286    0.000    0.000 
#    0.000    0.000    0.000    0.000    0.000    0.000 
#
# Total GULP energy -77934.866376 kJ/mol
# GULP energy per Si atom -5566.776170 kJ/mol
# Density = 2.166855 g / cm^3
# Si number density = 21.717980 Si / 1000 Ang^3
#
#
#
# Elastic Constant Matrix: (Units=GPa)
#
#
# Indices 1 2 3 4 5 6 
#
# 1 117.9699 34.1065 82.7272 -25.0491 17.8685 -9.8153
# 2 34.1065 87.3912 33.5993 14.2661 7.8621 -12.0392
# 3 82.7272 33.5993 145.8642 -3.0542 31.8952 -25.1996
# 4 -25.0491 14.2661 -3.0542 47.9109 9.8318 6.8602
# 5 17.8685 7.8621 31.8952 9.8318 49.9641 1.7402
# 6 -9.8153 -12.0392 -25.1996 6.8602 1.7402 31.4982
#
#
#
# Elastic Compliance Matrix: (Units=1/GPa)
#
#
# Indices 1 2 3 4 5 6 
#
# 1 0.020506 -0.007022 -0.010652 0.013610 -0.001839 -0.007678
# 2 -0.007022 0.016220 0.001022 -0.009616 0.000959 0.006871
# 3 -0.010652 0.001022 0.015727 -0.005286 -0.005738 0.011122
# 4 0.013610 -0.009616 -0.005286 0.033293 -0.006163 -0.010574
# 5 -0.001839 0.000959 -0.005738 -0.006163 0.025566 -0.004867
# 6 -0.007678 0.006871 0.011122 -0.010574 -0.004867 0.043451
#
#
# Mechanical properties :
#
#
# Convention : Reuss Voigt Hill
#
# Bulk Modulus (GPa) = 52.21951 72.45459 62.33705
# Shear Modulus (GPa) = 25.71346 39.26079 32.48712
#
# Velocity S-wave (km/s) = 3.44462 4.25638 3.87183
# Velocity P-wave (km/s) = 6.31800 7.58879 6.98236
#
# Compressibility (1/GPa) = 0.01914993
#
# Stress axis : x y z
#
# Youngs Moduli (GPa) = 48.76572 61.65114 63.58465
#
# Poissons Ratio (x) = 0.43289 0.67731
# Poissons Ratio (y) = 0.34242 -0.06498
# Poissons Ratio (z) = 0.51945 -0.06300
#
# Static dielectric constant tensor:
#      x y z
#    x 1.769360 -0.025190 0.009870 
#    y -0.025190 1.996590 0.058190 
#    z 0.009870 0.058190 1.758670 
# 
# From -- ./inp_files/240487.got.cif
#   From: 2010.05.17/outbox.cif.g08.bks.cpg/sg2_121_cif.got.tgz:240487.got - 2010.06.03 11:33:40.
