data_PCOD9069618
_publ_section_title
;
Structure prediction by ZEFSAII (Michael W. Deem and Ramdas Pophale) SiO2 
 PCOD9069618
Probable space group: P -1
;
_chemical_formula_sum "Si O2"
_cell_formula_units_Z 16
_cell_length_a 13.580200
_cell_length_b 21.096477
_cell_length_c 21.564804
_cell_angle_alpha 166.664186
_cell_angle_beta 31.433223
_cell_angle_gamma 150.757924
_cell_volume 695.650843
_symmetry_space_group_name_H-M "P -1"
_symmetry_group_IT_number 2
_symmetry_cell_setting 'triclinic'
loop_
_space_group_symop_operation_xyz
x,y,z
-x,-y,-z
loop_
_atom_site_type_symbol
_atom_site_label
_atom_site_fract_x
_atom_site_fract_y
_atom_site_fract_z
Si Si1 0.622610 0.289176 0.744465
Si Si2 0.583388 0.181181 0.978602
Si Si3 0.056069 0.916847 0.236218
Si Si4 0.932869 0.497236 0.273683
Si Si5 0.008921 0.791142 0.738224
Si Si6 0.646421 0.622792 0.254115
Si Si7 0.537989 0.912798 0.232234
Si Si8 0.677846 0.483028 0.517593
O O1 0.853908 0.416528 0.723218
O O2 0.500000 0.000000 0.500000
O O3 0.609161 0.202958 0.741237
O O4 0.500000 0.500000 0.000000
O O5 0.762800 0.102383 0.837774
O O6 0.424659 0.863740 0.739803
O O7 0.669112 0.436831 0.124087
O O8 0.477942 0.342501 0.235779
O O9 0.848424 0.745621 0.221402
O O10 0.067347 0.243658 0.525860
O O11 0.074840 0.773109 0.023117
O O12 0.770964 0.465890 0.384167
O O13 0.232330 0.930707 0.721849
O O14 0.000000 0.500000 0.500000
O O15 0.838104 0.679417 0.670052
O O16 0.000000 0.000000 0.000000
O O17 0.557149 0.880187 0.556794
O O18 0.475007 0.374737 0.072058
#
# Coordination Sequence:
#
# PCOD9069618 Si02
#       8
#     2   2   2   2   2   2   2   2
#     4  12  24  42  66  98 132 179 228 276 346 414
#     4  12  27  45  74 103 139 194 240 298 355 416
#     4  12  25  47  73 104 141 189 242 296 360 410
#     4  12  26  47  71 102 149 184 236 300 348 428
#     4  12  25  44  69 101 140 185 232 284 349 424
#     4  12  23  46  70 105 142 175 241 298 352 421
#     4  12  24  42  70 100 137 184 225 287 362 415
#     4  12  27  47  68 106 146 185 243 291 352 428
#
# _framework density 23.000043999999999
#
# number of rings (size 3 to 8) (size 9 to 14) (size 15 to 20)
#    0.000    0.000    2.500    8.625    0.000    5.000 
#    0.000    3.750    0.000    0.000    0.000    0.000 
#    0.000    0.000    0.000    0.000    0.000    0.000 
#
# Total GULP energy -89504.484999 kJ/mol
# GULP energy per Si atom -5594.030312 kJ/mol
# Density = 2.294769 g / cm^3
# Si number density = 23.000044 Si / 1000 Ang^3
#
#
#
# Elastic Constant Matrix: (Units=GPa)
#
#
# Indices 1 2 3 4 5 6 
#
# 1 56.1907 29.4527 -6.0094 -1.0756 -12.0682 1.1818
# 2 29.4527 108.3344 36.2156 -10.8230 -2.3969 -6.1297
# 3 -6.0094 36.2156 112.4982 -7.0347 -11.0957 -3.6344
# 4 -1.0756 -10.8230 -7.0347 22.7619 -1.2933 -1.8904
# 5 -12.0682 -2.3969 -11.0957 -1.2933 44.7531 -2.7478
# 6 1.1818 -6.1297 -3.6344 -1.8904 -2.7478 33.1891
#
#
#
# Elastic Compliance Matrix: (Units=1/GPa)
#
#
# Indices 1 2 3 4 5 6 
#
# 1 0.024006 -0.008038 0.004457 -0.001020 0.007037 -0.001327
# 2 -0.008038 0.013516 -0.004640 0.004676 -0.002315 0.002349
# 3 0.004457 -0.004640 0.011122 0.001708 0.003798 0.000614
# 4 -0.001020 0.004676 0.001708 0.047077 0.002001 0.003934
# 5 0.007037 -0.002315 0.003798 0.002001 0.025237 0.001941
# 6 -0.001327 0.002349 0.000614 0.003934 0.001941 0.031064
#
#
# Mechanical properties :
#
#
# Convention : Reuss Voigt Hill
#
# Bulk Modulus (GPa) = 31.05355 44.03791 37.54573
# Shear Modulus (GPa) = 27.90206 34.63177 31.26692
#
# Velocity S-wave (km/s) = 3.48678 3.88458 3.69104
# Velocity P-wave (km/s) = 5.45353 6.26964 5.87577
#
# Compressibility (1/GPa) = 0.03220243
#
# Stress axis : x y z
#
# Youngs Moduli (GPa) = 41.65605 73.98584 89.90965
#
# Poissons Ratio (x) = 0.59469 -0.40076
# Poissons Ratio (y) = 0.33483 0.41723
# Poissons Ratio (z) = -0.18568 0.34333
#
# Static dielectric constant tensor:
#      x y z
#    x 1.861030 0.016020 0.008500 
#    y 0.016020 1.915180 0.004460 
#    z 0.008500 0.004460 1.779630 
# 
# From -- ./inp_files/612393.got.cif
#   From: 2010.05.17/outbox.cif.g08.bks.cpg/sg2_307_cif.got.tgz:612393.got - 2010.06.03 11:33:40.
