data_PCOD9069308
_publ_section_title
;
Structure prediction by ZEFSAII (Michael W. Deem and Ramdas Pophale) SiO2 
 PCOD9069308
Probable space group: P -1
;
_chemical_formula_sum "Si O2"
_cell_formula_units_Z 12
_cell_length_a 11.203425
_cell_length_b 11.195972
_cell_length_c 12.809434
_cell_angle_alpha 82.924870
_cell_angle_beta 67.356418
_cell_angle_gamma 26.140404
_cell_volume 546.878521
_symmetry_space_group_name_H-M "P -1"
_symmetry_group_IT_number 2
_symmetry_cell_setting 'triclinic'
loop_
_space_group_symop_operation_xyz
x,y,z
-x,-y,-z
loop_
_atom_site_type_symbol
_atom_site_label
_atom_site_fract_x
_atom_site_fract_y
_atom_site_fract_z
Si Si1 0.724147 0.109511 0.360171
Si Si2 0.719425 0.306683 0.630818
Si Si3 0.807148 0.637141 0.442398
Si Si4 0.261706 0.148308 0.156286
Si Si5 0.691989 0.552618 0.148986
Si Si6 0.129078 0.774828 0.049872
O O1 0.570416 0.376899 0.373963
O O2 0.400845 0.308338 0.481965
O O3 0.050706 0.807108 0.359243
O O4 0.870170 0.967424 0.210238
O O5 0.555557 0.343978 0.750851
O O6 0.000000 0.000000 0.500000
O O7 0.000000 0.500000 0.500000
O O8 0.069622 0.398964 0.280221
O O9 0.500000 0.000000 0.500000
O O10 0.964891 0.333962 0.172914
O O11 0.495800 0.847594 0.168729
O O12 0.500000 0.000000 0.000000
O O13 0.854687 0.361105 0.008521
O O14 0.500000 0.500000 0.000000
O O15 0.000000 0.000000 0.000000
#
# Coordination Sequence:
#
# PCOD9069308 Si02
#       6
#     2   2   2   2   2   2
#     4  12  24  43  67  99 136 172 225 276 338 410
#     4  12  23  41  68  98 132 174 213 280 346 404
#     4  12  28  49  71  99 137 183 232 284 338 402
#     4  12  28  47  71 101 134 184 235 280 338 401
#     4  12  24  44  70 100 140 172 225 283 336 407
#     4  12  23  42  67 106 136 176 220 269 344 410
#
# _framework density 21.942713999999999
#
# number of rings (size 3 to 8) (size 9 to 14) (size 15 to 20)
#    0.000    0.000    3.333    7.000    4.667    0.000 
#    0.000    0.000    0.000    0.000    0.000    0.000 
#    0.000    0.000    0.000    0.000    0.000    0.000 
#
# Total GULP energy -67093.462073 kJ/mol
# GULP energy per Si atom -5591.121839 kJ/mol
# Density = 2.189277 g / cm^3
# Si number density = 21.942714 Si / 1000 Ang^3
#
#
#
# Elastic Constant Matrix: (Units=GPa)
#
#
# Indices 1 2 3 4 5 6 
#
# 1 49.1655 -6.4903 32.1458 2.9368 19.2046 -6.7573
# 2 -6.4903 81.5711 15.7746 1.3632 8.0361 3.6411
# 3 32.1458 15.7746 141.3381 13.4156 22.9884 3.4516
# 4 2.9368 1.3632 13.4156 27.1028 9.8369 4.2723
# 5 19.2046 8.0361 22.9884 9.8369 56.4838 3.6069
# 6 -6.7573 3.6411 3.4516 4.2723 3.6069 51.7929
#
#
#
# Elastic Compliance Matrix: (Units=1/GPa)
#
#
# Indices 1 2 3 4 5 6 
#
# 1 0.028465 0.004007 -0.005834 0.002016 -0.008496 0.004246
# 2 0.004007 0.013219 -0.002050 0.000867 -0.002549 -0.000164
# 3 -0.005834 -0.002050 0.009098 -0.003341 -0.000789 -0.000893
# 4 0.002016 0.000867 -0.003341 0.041019 -0.006432 -0.002511
# 5 -0.008496 -0.002549 -0.000789 -0.006432 0.022519 -0.001914
# 6 0.004246 -0.000164 -0.000893 -0.002511 -0.001914 0.020273
#
#
# Mechanical properties :
#
#
# Convention : Reuss Voigt Hill
#
# Bulk Modulus (GPa) = 23.24179 39.43721 31.33950
# Shear Modulus (GPa) = 31.91012 42.45222 37.18117
#
# Velocity S-wave (km/s) = 3.81760 4.40328 4.12085
# Velocity P-wave (km/s) = 5.48152 6.62296 6.07909
#
# Compressibility (1/GPa) = 0.04302595
#
# Stress axis : x y z
#
# Youngs Moduli (GPa) = 35.13094 75.65155 109.91115
#
# Poissons Ratio (x) = -0.30313 0.64127
# Poissons Ratio (y) = -0.14077 0.22535
# Poissons Ratio (z) = 0.20497 0.15511
#
# Static dielectric constant tensor:
#      x y z
#    x 1.838790 -0.029180 0.021960 
#    y -0.029180 1.758200 -0.031500 
#    z 0.021960 -0.031500 1.786090 
# 
# From -- ./inp_files/424107.got.cif
#   From: 2010.05.17/outbox.cif.g08.bks.cpg/sg2_213_cif.got.tgz:424107.got - 2010.06.03 11:33:40.
