data_PCOD9069608
_publ_section_title
;
Structure prediction by ZEFSAII (Michael W. Deem and Ramdas Pophale) SiO2 
 PCOD9069608
Probable space group: P -1
;
_chemical_formula_sum "Si O2"
_cell_formula_units_Z 12
_cell_length_a 15.219295
_cell_length_b 9.737068
_cell_length_c 5.165479
_cell_angle_alpha 58.715276
_cell_angle_beta 93.074825
_cell_angle_gamma 124.510317
_cell_volume 506.627888
_symmetry_space_group_name_H-M "P -1"
_symmetry_group_IT_number 2
_symmetry_cell_setting 'triclinic'
loop_
_space_group_symop_operation_xyz
x,y,z
-x,-y,-z
loop_
_atom_site_type_symbol
_atom_site_label
_atom_site_fract_x
_atom_site_fract_y
_atom_site_fract_z
Si Si1 0.794552 0.898892 0.762584
Si Si2 0.537883 0.879416 0.254365
Si Si3 0.077477 0.828538 0.983304
Si Si4 0.540618 0.712823 0.917235
Si Si5 0.776198 0.298154 0.917144
Si Si6 0.807576 0.542886 0.185905
O O1 0.677189 0.860786 0.795293
O O2 0.856908 0.002989 0.399910
O O3 0.768543 0.680561 0.008250
O O4 0.876722 0.053765 0.851915
O O5 0.499835 0.798601 0.618468
O O6 0.502868 0.704648 0.211081
O O7 0.500000 0.000000 0.000000
O O8 0.673600 0.054425 0.116852
O O9 0.110547 0.678601 0.110403
O O10 0.944400 0.702700 0.058335
O O11 0.500000 0.500000 0.000000
O O12 0.767731 0.415834 0.569385
O O13 0.771497 0.387707 0.096232
#
# Coordination Sequence:
#
# PCOD9069608 Si02
#       6
#     2   2   2   2   2   2
#     4  12  24  44  68  98 138 173 221 277 327 388
#     4  12  27  47  72  98 133 174 219 277 336 393
#     4  12  23  46  67  96 137 181 222 268 329 385
#     4  12  26  47  71 100 131 174 221 276 334 393
#     4  12  24  44  66  99 138 170 224 275 328 388
#     4  12  26  40  70 101 133 180 223 267 322 401
#
# _framework density 23.686019999999999
#
# number of rings (size 3 to 8) (size 9 to 14) (size 15 to 20)
#    0.000    0.000    3.333    7.000    4.667    0.000 
#    0.000    0.000    0.000    0.000    0.000    0.000 
#    0.000    0.000    0.000    0.000    0.000    0.000 
#
# Total GULP energy -67302.313095 kJ/mol
# GULP energy per Si atom -5608.526091 kJ/mol
# Density = 2.363211 g / cm^3
# Si number density = 23.686020 Si / 1000 Ang^3
#
#
#
# Elastic Constant Matrix: (Units=GPa)
#
#
# Indices 1 2 3 4 5 6 
#
# 1 60.2748 26.7940 18.4105 19.3207 20.7872 -13.5559
# 2 26.7940 116.1510 -2.5367 11.2536 11.3744 16.3136
# 3 18.4105 -2.5367 78.5444 0.9268 30.3446 22.8644
# 4 19.3207 11.2536 0.9268 25.7305 0.9583 18.7113
# 5 20.7872 11.3744 30.3446 0.9583 42.7196 -9.6245
# 6 -13.5559 16.3136 22.8644 18.7113 -9.6245 19.9344
#
#
#
# Elastic Compliance Matrix: (Units=1/GPa)
#
#
# Indices 1 2 3 4 5 6 
#
# 1 0.011729 0.001912 0.011250 0.006963 -0.019410 -0.022399
# 2 0.001912 0.008023 -0.002408 -0.010215 0.000527 0.007339
# 3 0.011250 -0.002408 0.007257 -0.020300 -0.005551 0.017672
# 4 0.006963 -0.010215 -0.020300 0.013075 0.021193 0.034337
# 5 -0.019410 0.000527 -0.005551 0.021193 0.033731 -0.010871
# 6 -0.022399 0.007339 0.017672 0.034337 -0.010871 -0.028821
#
#
# Mechanical properties :
#
#
# Convention : Reuss Voigt Hill
#
# Bulk Modulus (GPa) = 20.61194 37.81180 29.21187
# Shear Modulus (GPa) = 126.07631 31.83041 78.95336
#
# Velocity S-wave (km/s) = 7.30368 3.66983 5.77976
# Velocity P-wave (km/s) = 8.93566 5.82712 7.54325
#
# Compressibility (1/GPa) = 0.04851558
#
# Stress axis : x y z
#
# Youngs Moduli (GPa) = 85.26072 124.63968 137.80489
#
# Poissons Ratio (x) = -0.23834 -1.55026
# Poissons Ratio (y) = -0.16304 0.33188
# Poissons Ratio (z) = -0.95915 0.30017
#
# Static dielectric constant tensor:
#      x y z
#    x 1.946820 0.013490 0.008920 
#    y 0.013490 1.860280 -0.023260 
#    z 0.008920 -0.023260 1.858310 
# 
# From -- ./inp_files/88405.got.cif
#   From: 2010.05.17/outbox.cif.g08.bks.cpg/sg2_45_cif.got.tgz:88405.got - 2010.06.03 11:33:40.
