data_PCOD9069556
_publ_section_title
;
Structure prediction by ZEFSAII (Michael W. Deem and Ramdas Pophale) SiO2 
 PCOD9069556
Probable space group: P -1
;
_chemical_formula_sum "Si O2"
_cell_formula_units_Z 16
_cell_length_a 19.475747
_cell_length_b 9.283630
_cell_length_c 22.131392
_cell_angle_alpha 40.395702
_cell_angle_beta 158.497563
_cell_angle_gamma 149.476527
_cell_volume 727.632901
_symmetry_space_group_name_H-M "P -1"
_symmetry_group_IT_number 2
_symmetry_cell_setting 'triclinic'
loop_
_space_group_symop_operation_xyz
x,y,z
-x,-y,-z
loop_
_atom_site_type_symbol
_atom_site_label
_atom_site_fract_x
_atom_site_fract_y
_atom_site_fract_z
Si Si1 0.001485 0.352055 0.272451
Si Si2 0.266612 0.164176 0.690569
Si Si3 0.111423 0.784656 0.330437
Si Si4 0.567317 0.516408 0.981412
Si Si5 0.610759 0.087967 0.944705
Si Si6 0.514309 0.467803 0.449626
Si Si7 0.285603 0.761151 0.150258
Si Si8 0.391409 0.699312 0.678284
O O1 0.090310 0.597527 0.316785
O O2 0.224085 0.391138 0.410430
O O3 0.850668 0.343152 0.096484
O O4 0.810409 0.044140 0.248522
O O5 0.407211 0.503941 0.707656
O O6 0.418015 0.135535 0.777372
O O7 0.000000 0.000000 0.500000
O O8 0.177151 0.689511 0.475934
O O9 0.861342 0.739563 0.141555
O O10 0.333905 0.126000 0.396523
O O11 0.500000 0.500000 0.000000
O O12 0.395550 0.548177 0.790738
O O13 0.506881 0.210550 0.022367
O O14 0.663801 0.071291 0.924208
O O15 0.500000 0.500000 0.500000
O O16 0.418860 0.627904 0.295325
O O17 0.391585 0.967715 0.230252
O O18 0.000000 0.500000 0.000000
#
# Coordination Sequence:
#
# PCOD9069556 Si02
#       8
#     2   2   2   2   2   2   2   2
#     4  12  25  46  74 104 149 192 237 308 371 439
#     4  12  23  45  71 110 146 187 242 302 370 443
#     4  12  27  49  72 108 150 190 252 302 369 445
#     4  12  25  44  73 112 147 189 240 309 370 436
#     4  12  25  45  73 107 149 188 241 303 372 436
#     4  12  27  48  73 101 144 197 248 300 363 436
#     4  12  27  49  70 106 145 195 250 300 367 443
#     4  12  25  44  77 103 148 190 244 303 374 428
#
# _framework density 21.989108999999999
#
# number of rings (size 3 to 8) (size 9 to 14) (size 15 to 20)
#    0.000    0.000    6.250    3.750    1.750    0.500 
#    2.250    1.250    0.000    0.000    0.000    0.000 
#    0.000    0.000    0.000    0.000    0.000    0.000 
#
# Total GULP energy -89197.485101 kJ/mol
# GULP energy per Si atom -5574.842819 kJ/mol
# Density = 2.193906 g / cm^3
# Si number density = 21.989109 Si / 1000 Ang^3
#
#
#
# Elastic Constant Matrix: (Units=GPa)
#
#
# Indices 1 2 3 4 5 6 
#
# 1 79.0250 12.3456 43.6131 9.0529 9.6278 -12.0747
# 2 12.3456 109.0313 22.8210 4.6988 2.3138 -18.5679
# 3 43.6131 22.8210 77.4660 10.3671 -12.4582 -17.3410
# 4 9.0529 4.6988 10.3671 34.7906 2.9894 -10.7930
# 5 9.6278 2.3138 -12.4582 2.9894 45.1545 -0.1250
# 6 -12.0747 -18.5679 -17.3410 -10.7930 -0.1250 40.0776
#
#
#
# Elastic Compliance Matrix: (Units=1/GPa)
#
#
# Indices 1 2 3 4 5 6 
#
# 1 0.020891 0.000685 -0.012983 -0.000731 -0.008021 0.000772
# 2 0.000685 0.010372 -0.002889 0.000629 -0.001505 0.003927
# 3 -0.012983 -0.002889 0.024002 -0.002857 0.009740 0.004397
# 4 -0.000731 0.000629 -0.002857 0.032271 -0.002780 0.007517
# 5 -0.008021 -0.001505 0.009740 -0.002780 0.026806 0.000435
# 6 0.000772 0.003927 0.004397 0.007517 0.000435 0.030932
#
#
# Mechanical properties :
#
#
# Convention : Reuss Voigt Hill
#
# Bulk Modulus (GPa) = 40.17194 47.00905 43.59049
# Shear Modulus (GPa) = 27.18219 36.45404 31.81812
#
# Velocity S-wave (km/s) = 3.51973 4.07605 3.80806
# Velocity P-wave (km/s) = 5.90141 6.60129 6.26114
#
# Compressibility (1/GPa) = 0.02489300
#
# Stress axis : x y z
#
# Youngs Moduli (GPa) = 47.86707 96.41099 41.66325
#
# Poissons Ratio (x) = -0.06605 0.54090
# Poissons Ratio (y) = -0.03279 0.12035
# Poissons Ratio (z) = 0.62145 0.27849
#
# Static dielectric constant tensor:
#      x y z
#    x 1.813350 -0.015750 -0.102310 
#    y -0.015750 1.868000 -0.017170 
#    z -0.102310 -0.017170 1.875690 
# 
# From -- ./inp_files/613599.got.cif
#   From: 2010.05.17/outbox.cif.g08.bks.cpg/sg2_307_cif.got.tgz:613599.got - 2010.06.03 11:33:40.
