data_PCOD9069553
_publ_section_title
;
Structure prediction by ZEFSAII (Michael W. Deem and Ramdas Pophale) SiO2 
 PCOD9069553
Probable space group: P -1
;
_chemical_formula_sum "Si O2"
_cell_formula_units_Z 14
_cell_length_a 15.310823
_cell_length_b 9.504026
_cell_length_c 10.723975
_cell_angle_alpha 118.780700
_cell_angle_beta 29.489445
_cell_angle_gamma 132.432626
_cell_volume 542.371361
_symmetry_space_group_name_H-M "P -1"
_symmetry_group_IT_number 2
_symmetry_cell_setting 'triclinic'
loop_
_space_group_symop_operation_xyz
x,y,z
-x,-y,-z
loop_
_atom_site_type_symbol
_atom_site_label
_atom_site_fract_x
_atom_site_fract_y
_atom_site_fract_z
Si Si1 0.493292 0.307992 0.645713
Si Si2 0.271135 0.711572 0.883564
Si Si3 0.888948 0.660749 0.927191
Si Si4 0.084892 0.884970 0.031181
Si Si5 0.311614 0.528967 0.265849
Si Si6 0.943562 0.077253 0.483980
Si Si7 0.662226 0.112100 0.696887
O O1 0.617655 0.349979 0.379866
O O2 0.327783 0.371425 0.874136
O O3 0.656806 0.402307 0.600019
O O4 0.330549 0.069991 0.766210
O O5 0.163634 0.548288 0.055546
O O6 0.104843 0.735272 0.023906
O O7 0.460281 0.927981 0.794731
O O8 0.945651 0.785238 0.037542
O O9 0.108304 0.785049 0.624280
O O10 0.994266 0.979771 0.268589
O O11 0.093853 0.315174 0.413436
O O12 0.352046 0.703862 0.203387
O O13 0.500000 0.500000 0.000000
O O14 0.707614 0.028695 0.727293
O O15 0.000000 0.000000 0.500000
#
# Coordination Sequence:
#
# PCOD9069553 Si02
#       7
#     2   2   2   2   2   2   2
#     4  12  23  45  71 104 148 184 235 295 362 418
#     4  12  26  43  75 111 139 186 237 299 360 423
#     4  12  26  43  78 108 142 184 235 302 360 419
#     4  12  23  49  68 106 147 183 237 296 357 419
#     4  12  25  48  72 101 143 195 237 286 357 426
#     4  12  29  46  72 104 142 193 241 290 349 431
#     4  12  25  51  74 104 145 186 239 299 360 415
#
# _framework density 25.812571999999999
#
# number of rings (size 3 to 8) (size 9 to 14) (size 15 to 20)
#    0.000    0.000    5.714    3.857    6.000    0.000 
#    0.000    1.429    0.000    0.000    0.000    0.000 
#    0.000    0.000    0.000    0.000    0.000    0.000 
#
# Total GULP energy -78586.748245 kJ/mol
# GULP energy per Si atom -5613.339160 kJ/mol
# Density = 2.575382 g / cm^3
# Si number density = 25.812572 Si / 1000 Ang^3
#
#
#
# Elastic Constant Matrix: (Units=GPa)
#
#
# Indices 1 2 3 4 5 6 
#
# 1 144.4966 50.2960 21.6314 5.0381 -23.9954 -11.1360
# 2 50.2960 136.9918 28.8323 1.4758 1.7629 -13.2857
# 3 21.6314 28.8323 76.9393 19.4318 -7.5315 -7.9336
# 4 5.0381 1.4758 19.4318 39.8859 -4.2942 -5.8610
# 5 -23.9954 1.7629 -7.5315 -4.2942 39.1772 1.2596
# 6 -11.1360 -13.2857 -7.9336 -5.8610 1.2596 59.2724
#
#
#
# Elastic Compliance Matrix: (Units=1/GPa)
#
#
# Indices 1 2 3 4 5 6 
#
# 1 0.009127 -0.003187 -0.000758 0.000049 0.005568 0.000785
# 2 -0.003187 0.009264 -0.003088 0.001444 -0.002845 0.001268
# 3 -0.000758 -0.003088 0.016529 -0.007540 0.002007 0.000590
# 4 0.000049 0.001444 -0.007540 0.029182 0.001644 0.002174
# 5 0.005568 -0.002845 0.002007 0.001644 0.029623 0.000210
# 6 0.000785 0.001268 0.000590 0.002174 0.000210 0.017592
#
#
# Mechanical properties :
#
#
# Convention : Reuss Voigt Hill
#
# Bulk Modulus (GPa) = 47.95426 62.21633 55.08530
# Shear Modulus (GPa) = 37.78304 44.84497 41.31400
#
# Velocity S-wave (km/s) = 3.83004 4.17265 4.00501
# Velocity P-wave (km/s) = 6.17877 6.88260 6.54016
#
# Compressibility (1/GPa) = 0.02085320
#
# Stress axis : x y z
#
# Youngs Moduli (GPa) = 109.56568 107.94655 60.49936
#
# Poissons Ratio (x) = 0.34407 0.04586
# Poissons Ratio (y) = 0.34923 0.18682
# Poissons Ratio (z) = 0.08305 0.33333
#
# Static dielectric constant tensor:
#      x y z
#    x 2.078110 -0.018770 0.049190 
#    y -0.018770 1.997910 -0.039600 
#    z 0.049190 -0.039600 2.066750 
# 
# From -- ./inp_files/177323.got.cif
#   From: 2010.05.17/outbox.cif.g08.bks.cpg/sg2_89_cif.got.tgz:177323.got - 2010.06.03 11:33:40.
