data_PCOD9069585
_publ_section_title
;
Structure prediction by ZEFSAII (Michael W. Deem and Ramdas Pophale) SiO2 
 PCOD9069585
Probable space group: P -1
;
_chemical_formula_sum "Si O2"
_cell_formula_units_Z 16
_cell_length_a 9.063830
_cell_length_b 12.526305
_cell_length_c 8.854504
_cell_angle_alpha 116.413387
_cell_angle_beta 121.444842
_cell_angle_gamma 56.259101
_cell_volume 695.953449
_symmetry_space_group_name_H-M "P -1"
_symmetry_group_IT_number 2
_symmetry_cell_setting 'triclinic'
loop_
_space_group_symop_operation_xyz
x,y,z
-x,-y,-z
loop_
_atom_site_type_symbol
_atom_site_label
_atom_site_fract_x
_atom_site_fract_y
_atom_site_fract_z
Si Si1 0.753105 0.953486 0.383701
Si Si2 0.182760 0.243296 0.268270
Si Si3 0.027499 0.479939 0.825361
Si Si4 0.428717 0.766730 0.395698
Si Si5 0.720113 0.012083 0.048340
Si Si6 0.704865 0.378736 0.532636
Si Si7 0.571524 0.761493 0.158770
Si Si8 0.070242 0.830688 0.681496
O O1 0.656730 0.860427 0.328902
O O2 0.973663 0.878035 0.495729
O O3 0.675972 0.080774 0.525140
O O4 0.711533 0.985957 0.205636
O O5 0.039000 0.377727 0.196608
O O6 0.358890 0.270713 0.444844
O O7 0.063485 0.210658 0.312877
O O8 0.259604 0.115260 0.117277
O O9 0.879560 0.420603 0.656165
O O10 0.246255 0.375428 0.854885
O O11 0.000000 0.500000 0.000000
O O12 0.314300 0.698406 0.378760
O O13 0.442496 0.743713 0.209906
O O14 0.897553 0.050608 0.152147
O O15 0.548511 0.148576 0.987335
O O16 0.500000 0.500000 0.500000
O O17 0.737087 0.292568 0.343241
#
# Coordination Sequence:
#
# PCOD9069585 Si02
#       8
#     2   2   2   2   2   2   2   2
#     4  12  23  45  75 106 144 191 243 300 363 430
#     4  12  26  48  76 107 149 193 243 303 363 430
#     4  12  29  48  75 109 150 191 241 299 371 434
#     4  12  25  45  77 106 144 194 245 299 363 433
#     4  12  27  45  77 112 146 191 244 309 360 425
#     4  12  27  46  75 104 146 191 243 295 364 437
#     4  12  26  47  75 107 147 191 247 296 364 437
#     4  12  27  48  75 109 146 191 249 301 360 434
#
# _framework density 22.990044999999999
#
# number of rings (size 3 to 8) (size 9 to 14) (size 15 to 20)
#    0.000    0.000    6.250    3.000    5.250    2.000 
#    0.000    1.250    0.000    0.000    0.000    0.000 
#    0.000    0.000    0.000    0.000    0.000    0.000 
#
# Total GULP energy -89472.000650 kJ/mol
# GULP energy per Si atom -5592.000041 kJ/mol
# Density = 2.293772 g / cm^3
# Si number density = 22.990045 Si / 1000 Ang^3
#
#
#
# Elastic Constant Matrix: (Units=GPa)
#
#
# Indices 1 2 3 4 5 6 
#
# 1 114.8354 41.8114 25.5297 -8.4631 -24.0196 -0.4519
# 2 41.8114 126.6468 39.1162 -15.8521 -7.8633 -17.4847
# 3 25.5297 39.1162 79.3405 -9.4983 -2.7169 0.7255
# 4 -8.4631 -15.8521 -9.4983 35.0760 -4.9401 3.4547
# 5 -24.0196 -7.8633 -2.7169 -4.9401 28.8105 8.8886
# 6 -0.4519 -17.4847 0.7255 3.4547 8.8886 45.1086
#
#
#
# Elastic Compliance Matrix: (Units=1/GPa)
#
#
# Indices 1 2 3 4 5 6 
#
# 1 0.012803 -0.003052 -0.001820 0.003151 0.011287 -0.003491
# 2 -0.003052 0.011079 -0.004237 0.002588 -0.000800 0.004291
# 3 -0.001820 -0.004237 0.015530 0.002016 -0.000241 -0.002017
# 4 0.003151 0.002588 0.002016 0.032773 0.010230 -0.003523
# 5 0.011287 -0.000800 -0.000241 0.010230 0.048907 -0.010614
# 6 -0.003491 0.004291 -0.002017 -0.003523 -0.010614 0.026191
#
#
# Mechanical properties :
#
#
# Convention : Reuss Voigt Hill
#
# Bulk Modulus (GPa) = 47.18000 59.30414 53.24207
# Shear Modulus (GPa) = 28.97483 36.09005 32.53244
#
# Velocity S-wave (km/s) = 3.55395 3.96638 3.76582
# Velocity P-wave (km/s) = 6.11615 6.84309 6.48980
#
# Compressibility (1/GPa) = 0.02119542
#
# Stress axis : x y z
#
# Youngs Moduli (GPa) = 78.10696 90.26295 64.39212
#
# Poissons Ratio (x) = 0.27544 0.11717
# Poissons Ratio (y) = 0.23835 0.27282
# Poissons Ratio (z) = 0.14212 0.38244
#
# Static dielectric constant tensor:
#      x y z
#    x 1.896340 -0.004950 0.123820 
#    y -0.004950 1.958560 -0.008840 
#    z 0.123820 -0.008840 2.025690 
# 
# From -- ./inp_files/188784.got.cif
#   From: 2010.05.17/outbox.cif.g08.bks.cpg/sg2_95_cif.got.tgz:188784.got - 2010.06.03 11:33:40.
