data_PCOD9069874
_publ_section_title
;
Structure prediction by ZEFSAII (Michael W. Deem and Ramdas Pophale) SiO2 
 PCOD9069874
Probable space group: P -1
;
_chemical_formula_sum "Si O2"
_cell_formula_units_Z 14
_cell_length_a 15.877335
_cell_length_b 9.414118
_cell_length_c 11.491050
_cell_angle_alpha 128.875678
_cell_angle_beta 150.481969
_cell_angle_gamma 39.828780
_cell_volume 537.502251
_symmetry_space_group_name_H-M "P -1"
_symmetry_group_IT_number 2
_symmetry_cell_setting 'triclinic'
loop_
_space_group_symop_operation_xyz
x,y,z
-x,-y,-z
loop_
_atom_site_type_symbol
_atom_site_label
_atom_site_fract_x
_atom_site_fract_y
_atom_site_fract_z
Si Si1 0.728913 0.872448 0.368053
Si Si2 0.407296 0.810670 0.043055
Si Si3 0.546656 0.597732 0.719034
Si Si4 0.374494 0.404565 0.567607
Si Si5 0.938554 0.226299 0.478758
Si Si6 0.020342 0.206112 0.132789
Si Si7 0.807574 0.751944 0.875017
O O1 0.562480 0.140332 0.293634
O O2 0.593081 0.769793 0.162327
O O3 0.890613 0.802229 0.419885
O O4 0.861607 0.810054 0.615174
O O5 0.491928 0.745650 0.242102
O O6 0.243812 0.079359 0.996966
O O7 0.277054 0.708657 0.809637
O O8 0.500000 0.500000 0.500000
O O9 0.436385 0.562395 0.675180
O O10 0.792360 0.438714 0.961711
O O11 0.141629 0.571100 0.425145
O O12 0.383651 0.261093 0.397172
O O13 0.000000 0.000000 0.500000
O O14 0.143747 0.174135 0.147363
O O15 0.000000 0.000000 0.000000
O O16 0.000000 0.500000 0.000000
#
# Coordination Sequence:
#
# PCOD9069874 Si02
#       7
#     2   2   2   2   2   2   2
#     4  12  26  49  74 106 151 199 250 309 374 449
#     4  12  27  48  77 111 148 193 255 312 374 447
#     4  12  24  42  73 110 147 193 249 306 377 443
#     4  12  25  48  72 106 150 193 243 312 372 441
#     4  12  27  51  75 105 152 199 251 305 378 452
#     4  12  24  42  71 110 149 192 246 308 373 445
#     4  12  25  45  73 111 147 188 244 312 372 436
#
# _framework density 26.046403000000002
#
# number of rings (size 3 to 8) (size 9 to 14) (size 15 to 20)
#    0.000    0.000    4.286    6.857    0.000    1.143 
#    2.571    0.000    0.000    0.000    0.000    0.000 
#    0.000    0.000    0.000    0.000    0.000    0.000 
#
# Total GULP energy -78518.443143 kJ/mol
# GULP energy per Si atom -5608.460225 kJ/mol
# Density = 2.598712 g / cm^3
# Si number density = 26.046403 Si / 1000 Ang^3
#
#
#
# Elastic Constant Matrix: (Units=GPa)
#
#
# Indices 1 2 3 4 5 6 
#
# 1 182.0802 34.0164 35.6151 1.6503 42.5191 8.4528
# 2 34.0164 100.4742 47.4672 -11.4800 10.8276 0.2321
# 3 35.6151 47.4672 121.2542 -5.5738 0.9818 1.7858
# 4 1.6503 -11.4800 -5.5738 59.4493 5.6715 1.1396
# 5 42.5191 10.8276 0.9818 5.6715 32.1942 2.2743
# 6 8.4528 0.2321 1.7858 1.1396 2.2743 54.7065
#
#
#
# Elastic Compliance Matrix: (Units=1/GPa)
#
#
# Indices 1 2 3 4 5 6 
#
# 1 0.008694 -0.000645 -0.002175 0.000518 -0.011233 -0.000813
# 2 -0.000645 0.013146 -0.004817 0.002469 -0.003880 0.000311
# 3 -0.002175 -0.004817 0.010728 -0.000264 0.004223 -0.000164
# 4 0.000518 0.002469 -0.000264 0.017703 -0.004606 -0.000259
# 5 -0.011233 -0.003880 0.004223 -0.004606 0.047904 -0.000281
# 6 -0.000813 0.000311 -0.000164 -0.000259 -0.000281 0.018426
#
#
# Mechanical properties :
#
#
# Convention : Reuss Voigt Hill
#
# Bulk Modulus (GPa) = 57.81658 70.88955 64.35307
# Shear Modulus (GPa) = 36.32711 48.38398 42.35555
#
# Velocity S-wave (km/s) = 3.73863 4.31467 4.03694
# Velocity P-wave (km/s) = 6.39392 7.21787 6.81835
#
# Compressibility (1/GPa) = 0.01729608
#
# Stress axis : x y z
#
# Youngs Moduli (GPa) = 115.02175 76.06824 93.21824
#
# Poissons Ratio (x) = 0.04903 0.20271
# Poissons Ratio (y) = 0.07414 0.44900
# Poissons Ratio (z) = 0.25012 0.36639
#
# Static dielectric constant tensor:
#      x y z
#    x 2.010030 0.005420 0.042670 
#    y 0.005420 2.087790 -0.023250 
#    z 0.042670 -0.023250 2.164220 
# 
# From -- ./inp_files/226453.got.cif
#   From: 2010.05.17/outbox.cif.g08.bks.cpg/sg2_114_cif.got.tgz:226453.got - 2010.06.03 11:33:40.
