data_PCOD9069336
_publ_section_title
;
Structure prediction by ZEFSAII (Michael W. Deem and Ramdas Pophale) SiO2 
 PCOD9069336
Probable space group: P -1
;
_chemical_formula_sum "Si O2"
_cell_formula_units_Z 14
_cell_length_a 4.945236
_cell_length_b 10.824439
_cell_length_c 13.052038
_cell_angle_alpha 72.074681
_cell_angle_beta 100.262688
_cell_angle_gamma 116.233034
_cell_volume 595.559780
_symmetry_space_group_name_H-M "P -1"
_symmetry_group_IT_number 2
_symmetry_cell_setting 'triclinic'
loop_
_space_group_symop_operation_xyz
x,y,z
-x,-y,-z
loop_
_atom_site_type_symbol
_atom_site_label
_atom_site_fract_x
_atom_site_fract_y
_atom_site_fract_z
Si Si1 0.764076 0.827448 0.077690
Si Si2 0.882703 0.827719 0.515386
Si Si3 0.696054 0.477344 0.929631
Si Si4 0.677353 0.889915 0.826164
Si Si5 0.189365 0.671040 0.446238
Si Si6 0.014985 0.744705 0.760734
Si Si7 0.340458 0.828689 0.213877
O O1 0.482361 0.677015 0.086353
O O2 0.648987 0.882192 0.155784
O O3 0.058090 0.798875 0.126733
O O4 0.771526 0.900354 0.949731
O O5 0.517658 0.746545 0.504637
O O6 0.003896 0.764070 0.444789
O O7 0.008595 0.772774 0.634523
O O8 0.000000 0.000000 0.500000
O O9 0.774860 0.590372 0.815794
O O10 0.500000 0.500000 0.000000
O O11 0.000000 0.500000 0.000000
O O12 0.342929 0.768899 0.817440
O O13 0.904258 0.851512 0.784560
O O14 0.648061 0.033967 0.757780
O O15 0.268037 0.702206 0.322323
O O16 0.000000 0.500000 0.500000
#
# Coordination Sequence:
#
# PCOD9069336 Si02
#       7
#     2   2   2   2   2   2   2
#     4  12  24  41  67  96 132 174 219 257 331 401
#     4  12  26  49  75 102 134 183 239 290 343 406
#     4  12  23  42  62  94 133 170 212 271 320 393
#     4  12  23  44  64 103 132 169 214 272 325 403
#     4  12  28  48  70 104 141 180 235 292 343 406
#     4  12  24  41  72  96 131 171 218 273 335 387
#     4  12  26  43  68  92 136 176 216 267 332 394
#
# _framework density 23.507296
#
# number of rings (size 3 to 8) (size 9 to 14) (size 15 to 20)
#    0.000    0.000    2.857    7.714    4.000    0.000 
#    0.000    0.000    0.000    0.000    0.000    0.000 
#    0.000    0.000    0.000    0.000    0.000    0.000 
#
# Total GULP energy -78319.142182 kJ/mol
# GULP energy per Si atom -5594.224442 kJ/mol
# Density = 2.345379 g / cm^3
# Si number density = 23.507296 Si / 1000 Ang^3
#
#
#
# Elastic Constant Matrix: (Units=GPa)
#
#
# Indices 1 2 3 4 5 6 
#
# 1 138.3953 7.2699 7.7267 11.7228 -8.3581 9.7932
# 2 7.2699 105.4141 -0.9778 -10.0613 -1.3761 7.0702
# 3 7.7267 -0.9778 115.7024 -25.4720 -11.7756 8.3036
# 4 11.7228 -10.0613 -25.4720 37.6947 6.5093 1.5052
# 5 -8.3581 -1.3761 -11.7756 6.5093 35.6356 8.4595
# 6 9.7932 7.0702 8.3036 1.5052 8.4595 37.0640
#
#
#
# Elastic Compliance Matrix: (Units=1/GPa)
#
#
# Indices 1 2 3 4 5 6 
#
# 1 0.007947 -0.000720 -0.000903 -0.003657 0.002737 -0.002236
# 2 -0.000720 0.010056 0.001155 0.003699 0.000458 -0.002241
# 3 -0.000903 0.001155 0.010923 0.007612 0.002856 -0.003390
# 4 -0.003657 0.003699 0.007612 0.034575 -0.004059 -0.001922
# 5 0.002737 0.000458 0.002856 -0.004059 0.032471 -0.008697
# 6 -0.002236 -0.002241 -0.003390 -0.001922 -0.008697 0.030821
#
#
# Mechanical properties :
#
#
# Convention : Reuss Voigt Hill
#
# Bulk Modulus (GPa) = 35.72675 43.06104 39.39389
# Shear Modulus (GPa) = 36.48056 45.11174 40.79615
#
# Velocity S-wave (km/s) = 3.94367 4.38545 4.17041
# Velocity P-wave (km/s) = 5.99732 6.63331 6.32332
#
# Compressibility (1/GPa) = 0.02799023
#
# Stress axis : x y z
#
# Youngs Moduli (GPa) = 125.83047 99.44222 91.55235
#
# Poissons Ratio (x) = 0.07158 0.08266
# Poissons Ratio (y) = 0.09057 -0.10572
# Poissons Ratio (z) = 0.11361 -0.11483
#
# Static dielectric constant tensor:
#      x y z
#    x 1.991310 -0.036550 -0.072690 
#    y -0.036550 1.959380 0.009750 
#    z -0.072690 0.009750 1.789190 
# 
# From -- ./inp_files/364152.got.cif
#   From: 2010.05.17/outbox.cif.g08.bks.cpg/sg2_183_cif.got.tgz:364152.got - 2010.06.03 11:33:40.
