data_PCOD9069128
_publ_section_title
;
Structure prediction by ZEFSAII (Michael W. Deem and Ramdas Pophale) SiO2 
 PCOD9069128
Probable space group: P -1
;
_chemical_formula_sum "Si O2"
_cell_formula_units_Z 14
_cell_length_a 9.737901
_cell_length_b 21.172808
_cell_length_c 21.535769
_cell_angle_alpha 20.322726
_cell_angle_beta 150.490092
_cell_angle_gamma 152.039224
_cell_volume 698.605081
_symmetry_space_group_name_H-M "P -1"
_symmetry_group_IT_number 2
_symmetry_cell_setting 'triclinic'
loop_
_space_group_symop_operation_xyz
x,y,z
-x,-y,-z
loop_
_atom_site_type_symbol
_atom_site_label
_atom_site_fract_x
_atom_site_fract_y
_atom_site_fract_z
Si Si1 0.144800 0.418416 0.576345
Si Si2 0.129714 0.330819 0.201381
Si Si3 0.094828 0.993141 0.973036
Si Si4 0.209239 0.940441 0.794031
Si Si5 0.144531 0.431973 0.921316
Si Si6 0.831699 0.686143 0.624058
Si Si7 0.180747 0.439139 0.786122
O O1 0.062815 0.185352 0.754538
O O2 0.500023 0.518075 0.637541
O O3 0.000000 0.500000 0.500000
O O4 0.033280 0.492528 0.403586
O O5 0.141587 0.258309 0.343526
O O6 0.468549 0.422819 0.219851
O O7 0.899239 0.173183 0.209399
O O8 0.000000 0.500000 0.000000
O O9 0.440670 0.009051 0.098085
O O10 0.000000 0.000000 0.000000
O O11 0.885111 0.787107 0.049385
O O12 0.145253 0.135959 0.576629
O O13 0.016956 0.786456 0.912433
O O14 0.079214 0.442690 0.813387
O O15 0.057217 0.583686 0.788218
O O16 0.500000 0.500000 0.000000
#
# Coordination Sequence:
#
# PCOD9069128 Si02
#       7
#     2   2   2   2   2   2   2
#     4  12  22  43  70 104 138 173 229 290 341 403
#     4  12  22  45  73 102 136 185 229 290 342 399
#     4  12  23  43  73 103 138 177 226 290 345 404
#     4  12  25  45  73 102 139 183 232 281 349 406
#     4  12  27  50  67  98 147 188 228 283 340 416
#     4  12  24  45  74 101 140 179 234 287 342 410
#     4  12  26  44  72 100 141 182 232 280 348 410
#
# _framework density 20.039935
#
# number of rings (size 3 to 8) (size 9 to 14) (size 15 to 20)
#    0.000    0.000    8.571    1.286    0.000    2.857 
#    5.143    0.000    0.000    0.000    0.000    0.000 
#    0.000    0.000    0.000    0.000    0.000    0.000 
#
# Total GULP energy -78258.125652 kJ/mol
# GULP energy per Si atom -5589.866118 kJ/mol
# Density = 1.999432 g / cm^3
# Si number density = 20.039935 Si / 1000 Ang^3
#
#
#
# Elastic Constant Matrix: (Units=GPa)
#
#
# Indices 1 2 3 4 5 6 
#
# 1 101.2760 8.8888 24.9901 2.1119 -24.1520 4.6529
# 2 8.8888 29.0013 0.3501 2.0261 9.3185 2.7236
# 3 24.9901 0.3501 117.3263 -11.9809 -14.0307 5.1431
# 4 2.1119 2.0261 -11.9809 35.2016 -3.8189 3.0645
# 5 -24.1520 9.3185 -14.0307 -3.8189 41.5990 11.0121
# 6 4.6529 2.7236 5.1431 3.0645 11.0121 42.4366
#
#
#
# Elastic Compliance Matrix: (Units=1/GPa)
#
#
# Indices 1 2 3 4 5 6 
#
# 1 0.013302 -0.006894 -0.001456 0.000453 0.009716 -0.003394
# 2 -0.006894 0.041348 -0.000908 -0.004052 -0.014547 0.002280
# 3 -0.001456 -0.000908 0.009777 0.004050 0.003609 -0.002196
# 4 0.000453 -0.004052 0.004050 0.031064 0.006503 -0.004211
# 5 0.009716 -0.014547 0.003609 0.006503 0.037612 -0.010799
# 6 -0.003394 0.002280 -0.002196 -0.004211 -0.010799 0.027163
#
#
# Mechanical properties :
#
#
# Convention : Reuss Voigt Hill
#
# Bulk Modulus (GPa) = 21.78119 35.11795 28.44957
# Shear Modulus (GPa) = 25.76162 38.07243 31.91702
#
# Velocity S-wave (km/s) = 3.58930 4.36343 3.99516
# Velocity P-wave (km/s) = 5.29810 6.55348 5.95894
#
# Compressibility (1/GPa) = 0.04591117
#
# Stress axis : x y z
#
# Youngs Moduli (GPa) = 75.17736 24.18472 102.27579
#
# Poissons Ratio (x) = 0.16674 0.14889
# Poissons Ratio (y) = 0.51830 0.09289
# Poissons Ratio (z) = 0.10944 0.02197
#
# Static dielectric constant tensor:
#      x y z
#    x 1.671220 -0.011310 0.206680 
#    y -0.011310 1.733060 -0.088790 
#    z 0.206680 -0.088790 0.847670 
# 
# From -- ./inp_files/183731.got.cif
#   From: 2010.05.17/outbox.cif.g08.bks.cpg/sg2_92_cif.got.tgz:183731.got - 2010.06.03 11:33:40.
