data_PCOD9069084
_publ_section_title
;
Structure prediction by ZEFSAII (Michael W. Deem and Ramdas Pophale) SiO2 
 PCOD9069084
Probable space group: P -1
;
_chemical_formula_sum "Si O2"
_cell_formula_units_Z 16
_cell_length_a 11.417203
_cell_length_b 14.148668
_cell_length_c 12.452383
_cell_angle_alpha 92.613426
_cell_angle_beta 66.424778
_cell_angle_gamma 147.588433
_cell_volume 794.603198
_symmetry_space_group_name_H-M "P -1"
_symmetry_group_IT_number 2
_symmetry_cell_setting 'triclinic'
loop_
_space_group_symop_operation_xyz
x,y,z
-x,-y,-z
loop_
_atom_site_type_symbol
_atom_site_label
_atom_site_fract_x
_atom_site_fract_y
_atom_site_fract_z
Si Si1 0.833896 0.199800 0.156994
Si Si2 0.800756 0.164034 0.618424
Si Si3 0.863182 0.444726 0.436215
Si Si4 0.254751 0.017816 0.188714
Si Si5 0.903513 0.423528 0.871489
Si Si6 0.140336 0.371468 0.839478
Si Si7 0.204459 0.926515 0.612477
Si Si8 0.820530 0.841835 0.660574
O O1 0.890456 0.190815 0.251082
O O2 0.923343 0.370450 0.134166
O O3 0.483258 0.962927 0.251800
O O4 0.010207 0.268465 0.000722
O O5 0.760717 0.041117 0.691649
O O6 0.780851 0.134367 0.497430
O O7 0.094286 0.413774 0.561684
O O8 0.000000 0.500000 0.500000
O O9 0.055643 0.539710 0.269214
O O10 0.529410 0.188186 0.526337
O O11 0.009926 0.802287 0.195376
O O12 0.208471 0.096725 0.234306
O O13 0.570418 0.207519 0.026811
O O14 0.043508 0.414735 0.847464
O O15 0.491674 0.599196 0.727415
O O16 0.982695 0.860338 0.653265
O O17 0.000000 0.000000 0.500000
#
# Coordination Sequence:
#
# PCOD9069084 Si02
#       8
#     2   2   2   2   2   2   2   2
#     4  12  23  42  71  98 138 173 219 279 343 395
#     4  12  22  42  70 103 133 172 220 283 343 390
#     4  12  24  40  69 104 138 171 217 278 341 398
#     4  12  25  43  73 103 129 175 230 279 336 392
#     4  12  22  42  71 105 134 169 225 283 338 395
#     4  12  25  44  70 100 135 173 224 285 333 393
#     4  12  27  45  65  99 140 182 222 271 334 403
#     4  12  27  47  68  93 137 185 227 271 330 406
#
# _framework density 20.135838
#
# number of rings (size 3 to 8) (size 9 to 14) (size 15 to 20)
#    0.000    0.000    7.500    4.125    0.000    2.000 
#    0.000    0.625    0.000    0.000    0.000    0.000 
#    0.000    0.000    0.000    0.000    0.000    0.000 
#
# Total GULP energy -89520.798136 kJ/mol
# GULP energy per Si atom -5595.049884 kJ/mol
# Density = 2.009001 g / cm^3
# Si number density = 20.135838 Si / 1000 Ang^3
#
#
#
# Elastic Constant Matrix: (Units=GPa)
#
#
# Indices 1 2 3 4 5 6 
#
# 1 60.9610 22.9891 28.5440 -14.9573 -8.7076 1.2573
# 2 22.9891 147.1417 37.9689 -12.0790 -8.3249 7.2038
# 3 28.5440 37.9689 98.2719 -2.7397 11.0866 22.2267
# 4 -14.9573 -12.0790 -2.7397 25.2221 8.9434 9.7553
# 5 -8.7076 -8.3249 11.0866 8.9434 34.4817 -0.9816
# 6 1.2573 7.2038 22.2267 9.7553 -0.9816 17.8068
#
#
#
# Elastic Compliance Matrix: (Units=1/GPa)
#
#
# Indices 1 2 3 4 5 6 
#
# 1 0.023307 -0.000743 -0.007709 0.009139 0.005917 0.003596
# 2 -0.000743 0.008022 -0.002688 0.003010 0.001793 -0.001388
# 3 -0.007709 -0.002688 0.025032 0.018462 -0.016590 -0.040643
# 4 0.009139 0.003010 0.018462 0.086925 -0.027555 -0.074049
# 5 0.005917 0.001793 -0.016590 -0.027555 0.044465 0.037111
# 6 0.003596 -0.001388 -0.040643 -0.074049 0.037111 0.149810
#
#
# Mechanical properties :
#
#
# Convention : Reuss Voigt Hill
#
# Bulk Modulus (GPa) = 29.34156 53.93095 41.63625
# Shear Modulus (GPa) = 13.46973 29.96028 21.71501
#
# Velocity S-wave (km/s) = 2.58920 3.86153 3.28750
# Velocity P-wave (km/s) = 4.85201 6.83546 5.92729
#
# Compressibility (1/GPa) = 0.03408136
#
# Stress axis : x y z
#
# Youngs Moduli (GPa) = 42.90541 124.64962 39.94852
#
# Poissons Ratio (x) = 0.09266 0.30795
# Poissons Ratio (y) = 0.03189 0.10739
# Poissons Ratio (z) = 0.33074 0.33509
#
# Static dielectric constant tensor:
#      x y z
#    x 1.720630 -0.025650 0.029340 
#    y -0.025650 1.724840 -0.006940 
#    z 0.029340 -0.006940 1.706770 
# 
# From -- ./inp_files/278750.got.cif
#   From: 2010.05.17/outbox.cif.g08.bks.cpg/sg2_140_cif.got.tgz:278750.got - 2010.06.03 11:33:40.
