data_PCOD9069029
_publ_section_title
;
Structure prediction by ZEFSAII (Michael W. Deem and Ramdas Pophale) SiO2 
 PCOD9069029
Probable space group: P -1
;
_chemical_formula_sum "Si O2"
_cell_formula_units_Z 15
_cell_length_a 25.167573
_cell_length_b 9.962641
_cell_length_c 9.035096
_cell_angle_alpha 132.063925
_cell_angle_beta 39.654162
_cell_angle_gamma 151.081314
_cell_volume 699.028145
_symmetry_space_group_name_H-M "P -1"
_symmetry_group_IT_number 2
_symmetry_cell_setting 'triclinic'
loop_
_space_group_symop_operation_xyz
x,y,z
-x,-y,-z
loop_
_atom_site_type_symbol
_atom_site_label
_atom_site_fract_x
_atom_site_fract_y
_atom_site_fract_z
Si Si1 0.977316 0.488702 0.866933
Si Si2 0.135800 0.459318 0.335916
Si Si3 0.099315 0.071020 0.950956
Si Si4 0.236842 0.835481 0.126957
Si Si5 0.476363 0.806880 0.289340
Si Si6 0.325277 0.304931 0.458911
Si Si7 0.596429 0.070744 0.727786
Si Si8 0.500000 0.500000 0.500000
O O1 0.831424 0.272164 0.965040
O O2 0.028480 0.400213 0.601569
O O3 0.000000 0.500000 0.000000
O O4 0.055482 0.795585 0.877582
O O5 0.106504 0.200725 0.181336
O O6 0.161976 0.572918 0.197609
O O7 0.264495 0.708384 0.334741
O O8 0.237526 0.289702 0.737156
O O9 0.000000 0.000000 0.000000
O O10 0.231262 0.011680 0.361024
O O11 0.385711 0.033257 0.942761
O O12 0.400366 0.527305 0.331482
O O13 0.400858 0.780688 0.301236
O O14 0.500000 0.000000 0.500000
O O15 0.420482 0.363528 0.411938
O O16 0.544094 0.787285 0.584263
O O17 0.500000 0.000000 0.000000
#
# Coordination Sequence:
#
# PCOD9069029 Si02
#       8
#     2   2   2   2   2   2   2   1
#     4  12  29  47  74 106 142 184 242 305 352 416
#     4  12  24  46  74 104 141 187 239 291 352 433
#     4  12  25  45  77 102 138 192 236 286 360 424
#     4  12  24  47  72 103 143 190 238 289 358 425
#     4  12  26  42  69 106 144 183 235 294 348 425
#     4  12  25  44  73 107 144 191 238 290 360 426
#     4  12  24  43  69 103 142 183 236 289 353 421
#     4  12  22  40  68  98 140 188 232 278 358 414
#
# _framework density 21.458361
#
# number of rings (size 3 to 8) (size 9 to 14) (size 15 to 20)
#    0.000    0.000    6.667    3.200    1.867    2.667 
#    0.000    0.000    0.000    0.000    0.000    0.000 
#    0.000    0.000    0.000    0.000    0.000    0.000 
#
# Total GULP energy -83669.491663 kJ/mol
# GULP energy per Si atom -5577.966111 kJ/mol
# Density = 2.140952 g / cm^3
# Si number density = 21.458361 Si / 1000 Ang^3
#
#
#
# Elastic Constant Matrix: (Units=GPa)
#
#
# Indices 1 2 3 4 5 6 
#
# 1 154.1360 24.5109 6.7115 -12.1903 18.5747 -0.5572
# 2 24.5109 66.7502 21.8530 10.8768 6.1969 10.3885
# 3 6.7115 21.8530 83.0663 13.4885 0.2665 -8.4746
# 4 -12.1903 10.8768 13.4885 31.5400 2.9024 11.2810
# 5 18.5747 6.1969 0.2665 2.9024 25.2111 -0.7778
# 6 -0.5572 10.3885 -8.4746 11.2810 -0.7778 37.3152
#
#
#
# Elastic Compliance Matrix: (Units=1/GPa)
#
#
# Indices 1 2 3 4 5 6 
#
# 1 0.008120 -0.002869 -0.000868 0.005415 -0.005924 -0.001038
# 2 -0.002869 0.019253 -0.004815 -0.003514 -0.002333 -0.005483
# 3 -0.000868 -0.004815 0.015445 -0.008175 0.002828 0.007366
# 4 0.005415 -0.003514 -0.008175 0.044454 -0.008602 -0.014416
# 5 -0.005924 -0.002333 0.002828 -0.008602 0.045710 0.004757
# 6 -0.001038 -0.005483 0.007366 -0.014416 0.004757 0.034440
#
#
# Mechanical properties :
#
#
# Convention : Reuss Voigt Hill
#
# Bulk Modulus (GPa) = 38.88515 45.56704 42.22609
# Shear Modulus (GPa) = 25.89374 35.53840 30.71607
#
# Velocity S-wave (km/s) = 3.47752 4.07401 3.78752
# Velocity P-wave (km/s) = 5.85532 6.58872 6.23282
#
# Compressibility (1/GPa) = 0.02571676
#
# Stress axis : x y z
#
# Youngs Moduli (GPa) = 123.15119 51.93926 64.74522
#
# Poissons Ratio (x) = 0.14899 0.05617
# Poissons Ratio (y) = 0.35327 0.31173
# Poissons Ratio (z) = 0.10684 0.25007
#
# Static dielectric constant tensor:
#      x y z
#    x 1.750080 -0.014160 0.001170 
#    y -0.014160 2.036930 -0.288140 
#    z 0.001170 -0.288140 2.188420 
# 
# From -- ./inp_files/242201.got.cif
#   From: 2010.05.17/outbox.cif.g08.bks.cpg/sg2_122_cif.got.tgz:242201.got - 2010.06.03 11:33:40.
