data_PCOD9069868
_publ_section_title
;
Structure prediction by ZEFSAII (Michael W. Deem and Ramdas Pophale) SiO2 
 PCOD9069868
Probable space group: P -1
;
_chemical_formula_sum "Si O2"
_cell_formula_units_Z 14
_cell_length_a 14.016668
_cell_length_b 9.911989
_cell_length_c 8.522183
_cell_angle_alpha 148.586646
_cell_angle_beta 126.661231
_cell_angle_gamma 63.237043
_cell_volume 490.040487
_symmetry_space_group_name_H-M "P -1"
_symmetry_group_IT_number 2
_symmetry_cell_setting 'triclinic'
loop_
_space_group_symop_operation_xyz
x,y,z
-x,-y,-z
loop_
_atom_site_type_symbol
_atom_site_label
_atom_site_fract_x
_atom_site_fract_y
_atom_site_fract_z
Si Si1 0.750283 0.971829 0.651866
Si Si2 0.032556 0.658825 0.038327
Si Si3 0.427634 0.722579 0.711974
Si Si4 0.979490 0.722627 0.576531
Si Si5 0.192879 0.129123 0.073216
Si Si6 0.745489 0.997420 0.324404
Si Si7 0.425431 0.725041 0.091159
O O1 0.893439 0.940531 0.753162
O O2 0.724916 0.816345 0.638342
O O3 0.698866 0.899494 0.354352
O O4 0.702244 0.243556 0.919851
O O5 0.896367 0.143669 0.250874
O O6 0.908562 0.690769 0.866753
O O7 0.100640 0.469635 0.813956
O O8 0.000000 0.500000 0.000000
O O9 0.500000 0.500000 0.500000
O O10 0.305594 0.735092 0.507747
O O11 0.411857 0.718705 0.881405
O O12 0.500000 0.000000 0.000000
O O13 0.886643 0.076161 0.571788
O O14 0.000000 0.500000 0.500000
O O15 0.263711 0.144067 0.993887
O O16 0.500000 0.000000 0.500000
O O17 0.500000 0.500000 0.000000
#
# Coordination Sequence:
#
# PCOD9069868 Si02
#       7
#     2   2   2   2   2   2   2
#     4  12  25  46  76 110 150 206 256 319 400 468
#     4  12  24  42  70 105 152 206 257 308 378 465
#     4  12  28  55  84 119 158 205 274 345 409 485
#     4  12  24  42  70 105 152 206 257 308 378 465
#     4  12  24  48  66 106 160 196 256 318 368 476
#     4  12  25  46  76 110 150 206 256 319 400 468
#     4  12  28  55  84 119 158 205 274 345 409 485
#
# _framework density 28.569064999999998
#
# number of rings (size 3 to 8) (size 9 to 14) (size 15 to 20)
#    0.000    0.000    5.714    5.143    0.000    5.714 
#    5.143    0.000    0.000    0.000    0.000    0.000 
#    0.000    0.000    0.000    0.000    0.000    0.000 
#
# Total GULP energy -78241.087517 kJ/mol
# GULP energy per Si atom -5588.649108 kJ/mol
# Density = 2.850404 g / cm^3
# Si number density = 28.569065 Si / 1000 Ang^3
#
#
#
# Elastic Constant Matrix: (Units=GPa)
#
#
# Indices 1 2 3 4 5 6 
#
# 1 152.5406 73.4311 60.4735 -7.0537 -32.4935 6.5945
# 2 73.4311 252.3897 81.2801 -11.4536 -33.4268 14.7544
# 3 60.4735 81.2801 109.6929 1.6209 -34.7732 14.0318
# 4 -7.0537 -11.4536 1.6209 72.9669 8.2894 -20.2761
# 5 -32.4935 -33.4268 -34.7732 8.2894 58.8833 -6.0261
# 6 6.5945 14.7544 14.0318 -20.2761 -6.0261 74.0698
#
#
#
# Elastic Compliance Matrix: (Units=1/GPa)
#
#
# Indices 1 2 3 4 5 6 
#
# 1 0.008974 -0.001218 -0.003412 0.000624 0.002203 0.000440
# 2 -0.001218 0.005452 -0.003237 0.000728 0.000395 -0.000133
# 3 -0.003412 -0.003237 0.015465 -0.002419 0.005528 -0.002194
# 4 0.000624 0.000728 -0.002419 0.015394 -0.002400 0.004276
# 5 0.002203 0.000395 0.005528 -0.002400 0.022006 -0.000189
# 6 0.000440 -0.000133 -0.002194 0.004276 -0.000189 0.015059
#
#
# Mechanical properties :
#
#
# Convention : Reuss Voigt Hill
#
# Bulk Modulus (GPa) = 70.63644 104.99918 87.81781
# Shear Modulus (GPa) = 48.63727 61.14657 54.89192
#
# Velocity S-wave (km/s) = 4.13055 4.63136 4.38811
# Velocity P-wave (km/s) = 6.89398 8.08900 7.51528
#
# Compressibility (1/GPa) = 0.01415700
#
# Stress axis : x y z
#
# Youngs Moduli (GPa) = 111.43867 183.41873 64.66302
#
# Poissons Ratio (x) = 0.22333 0.22064
# Poissons Ratio (y) = 0.13569 0.20931
# Poissons Ratio (z) = 0.38024 0.59372
#
# Static dielectric constant tensor:
#      x y z
#    x 1.397850 -0.975120 0.461770 
#    y -0.975120 1.406430 0.388240 
#    z 0.461770 0.388240 2.068110 
# 
# From -- ./inp_files/328215.got.cif
#   From: 2010.05.17/outbox.cif.g08.bks.cpg/sg2_165_cif.got.tgz:328215.got - 2010.06.03 11:33:40.
