data_PCOD9069475
_publ_section_title
;
Structure prediction by ZEFSAII (Michael W. Deem and Ramdas Pophale) SiO2 
 PCOD9069475
Probable space group: P -1
;
_chemical_formula_sum "Si O2"
_cell_formula_units_Z 16
_cell_length_a 17.407026
_cell_length_b 9.163341
_cell_length_c 9.177767
_cell_angle_alpha 146.639475
_cell_angle_beta 92.509679
_cell_angle_gamma 87.499928
_cell_volume 804.175731
_symmetry_space_group_name_H-M "P -1"
_symmetry_group_IT_number 2
_symmetry_cell_setting 'triclinic'
loop_
_space_group_symop_operation_xyz
x,y,z
-x,-y,-z
loop_
_atom_site_type_symbol
_atom_site_label
_atom_site_fract_x
_atom_site_fract_y
_atom_site_fract_z
Si Si1 0.293154 0.185348 0.311956
Si Si2 0.927242 0.553515 0.938423
Si Si3 0.829004 0.076609 0.414941
Si Si4 0.548273 0.725358 0.774071
Si Si5 0.023984 0.704597 0.794643
Si Si6 0.421514 0.485524 0.072278
Si Si7 0.671577 0.965797 0.476155
Si Si8 0.196989 0.733948 0.763796
O O1 0.372415 0.229890 0.268664
O O2 0.309904 0.102254 0.410872
O O3 0.244082 0.458351 0.533070
O O4 0.245726 0.956562 0.035994
O O5 0.876511 0.297353 0.689471
O O6 0.969740 0.634315 0.863271
O O7 0.000000 0.500000 0.000000
O O8 0.874374 0.797333 0.189648
O O9 0.819864 0.169482 0.323029
O O10 0.747475 0.040794 0.455398
O O11 0.500000 0.500000 0.500000
O O12 0.564500 0.629016 0.860005
O O13 0.500000 0.000000 0.000000
O O14 0.116111 0.692840 0.805920
O O15 0.000000 0.500000 0.500000
O O16 0.000000 0.000000 0.000000
O O17 0.384914 0.779310 0.322734
O O18 0.500000 0.500000 0.000000
O O19 0.366150 0.286845 0.815304
#
# Coordination Sequence:
#
# PCOD9069475 Si02
#       8
#     2   2   2   2   2   2   2   2
#     4  12  26  42  67  99 129 170 217 269 317 386
#     4  12  26  43  66  95 131 170 220 271 330 388
#     4  12  25  45  64  94 132 175 213 271 327 393
#     4  12  24  44  70 100 132 169 218 264 315 382
#     4  12  23  44  67  96 125 173 220 271 325 389
#     4  12  24  45  71  98 135 175 212 267 324 387
#     4  12  26  44  66  99 135 172 218 262 331 386
#     4  12  24  43  67  92 130 169 217 267 326 379
#
# _framework density 19.896149000000001
#
# number of rings (size 3 to 8) (size 9 to 14) (size 15 to 20)
#    0.000    0.000    2.500    8.250    3.500    0.000 
#    0.000    0.000    0.000    0.000    0.000    0.000 
#    0.000    0.000    0.000    0.000    0.000    0.000 
#
# Total GULP energy -89589.439163 kJ/mol
# GULP energy per Si atom -5599.339948 kJ/mol
# Density = 1.985086 g / cm^3
# Si number density = 19.896149 Si / 1000 Ang^3
#
#
#
# Elastic Constant Matrix: (Units=GPa)
#
#
# Indices 1 2 3 4 5 6 
#
# 1 118.0122 -61.9548 89.7982 -98.1821 26.9258 23.2700
# 2 -61.9548 -368.1708 535.9953 -897.7772 285.6614 -34.5295
# 3 89.7982 535.9953 -557.7617 1179.1051 -366.1795 18.7517
# 4 -98.1821 -897.7772 1179.1051-1919.4651 619.6058 -52.8678
# 5 26.9258 285.6614 -366.1795 619.6058 -137.0823 20.4135
# 6 23.2700 -34.5295 18.7517 -52.8678 20.4135 51.3771
#
#
#
# Elastic Compliance Matrix: (Units=1/GPa)
#
#
# Indices 1 2 3 4 5 6 
#
# 1 0.010054 0.001574 -0.002216 -0.001930 0.001657 -0.005332
# 2 0.001574 0.021137 0.001907 -0.008609 0.000882 0.003587
# 3 -0.002216 0.001907 0.007011 0.002844 -0.001831 0.003381
# 4 -0.001930 -0.008609 0.002844 0.006597 0.003800 -0.000672
# 5 0.001657 0.000882 -0.001831 0.003800 0.016611 -0.002179
# 6 -0.005332 0.003587 0.003381 -0.000672 -0.002179 0.023230
#
#
# Mechanical properties :
#
#
# Convention : Reuss Voigt Hill
#
# Bulk Modulus (GPa) = 24.55054 35.52856 30.03955
# Shear Modulus (GPa) = 52.25331 -492.48468 -220.11568
#
# Velocity S-wave (km/s) = 5.13031 -15.75008 -10.52960
# Velocity P-wave (km/s) = 6.88909 17.68778 11.51951
#
# Compressibility (1/GPa) = 0.04073229
#
# Stress axis : x y z
#
# Youngs Moduli (GPa) = 99.46354 47.31083 142.62356
#
# Poissons Ratio (x) = -0.07447 0.31612
# Poissons Ratio (y) = -0.15657 -0.27204
# Poissons Ratio (z) = 0.22046 -0.09024
#
# Static dielectric constant tensor:
#      x y z
#    x 1.684020 -0.003740 0.000830 
#    y -0.003740 1.672600 0.003820 
#    z 0.000830 0.003820 1.676960 
# 
# From -- ./inp_files/217597.got.cif
#   From: 2010.05.17/outbox.cif.g08.bks.cpg/sg2_109_cif.got.tgz:217597.got - 2010.06.03 11:33:40.
