data_PCOD9069897
_publ_section_title
;
Structure prediction by ZEFSAII (Michael W. Deem and Ramdas Pophale) SiO2 
 PCOD9069897
Probable space group: P -1
;
_chemical_formula_sum "Si O2"
_cell_formula_units_Z 16
_cell_length_a 12.096466
_cell_length_b 9.401733
_cell_length_c 8.979934
_cell_angle_alpha 58.313436
_cell_angle_beta 111.679769
_cell_angle_gamma 125.332102
_cell_volume 705.790965
_symmetry_space_group_name_H-M "P -1"
_symmetry_group_IT_number 2
_symmetry_cell_setting 'triclinic'
loop_
_space_group_symop_operation_xyz
x,y,z
-x,-y,-z
loop_
_atom_site_type_symbol
_atom_site_label
_atom_site_fract_x
_atom_site_fract_y
_atom_site_fract_z
Si Si1 0.278428 0.412556 0.049082
Si Si2 0.123108 0.061124 0.644280
Si Si3 0.865527 0.304035 0.590892
Si Si4 0.713843 0.917859 0.563026
Si Si5 0.323922 0.346261 0.772280
Si Si6 0.579913 0.282412 0.531961
Si Si7 0.023175 0.835720 0.014810
Si Si8 0.524794 0.212113 0.887648
O O1 0.280953 0.245800 0.243083
O O2 0.364145 0.622426 0.043418
O O3 0.326254 0.401270 0.913124
O O4 0.121411 0.348150 0.983853
O O5 0.247572 0.101637 0.575491
O O6 0.178769 0.253173 0.667053
O O7 0.000000 0.000000 0.500000
O O8 0.082594 0.908657 0.840172
O O9 0.724087 0.310101 0.532020
O O10 0.000000 0.500000 0.500000
O O11 0.891855 0.226934 0.802330
O O12 0.826137 0.127084 0.556772
O O13 0.561851 0.889393 0.504737
O O14 0.424685 0.531255 0.629742
O O15 0.383892 0.202825 0.870684
O O16 0.572271 0.277648 0.707462
O O17 0.000000 0.000000 0.000000
O O18 0.500000 0.000000 0.000000
#
# Coordination Sequence:
#
# PCOD9069897 Si02
#       8
#     2   2   2   2   2   2   2   2
#     4  12  25  47  81 110 149 204 260 307 388 465
#     4  12  24  42  80 112 147 198 263 319 378 462
#     4  12  29  49  74 115 159 202 260 322 384 461
#     4  12  25  48  76 112 154 204 259 314 389 458
#     4  12  25  49  77 108 151 207 258 305 391 470
#     4  12  28  47  77 106 156 201 257 314 389 454
#     4  12  24  47  77 109 152 205 256 315 385 464
#     4  12  29  47  74 115 152 191 257 327 382 453
#
# _framework density 22.669602000000001
#
# number of rings (size 3 to 8) (size 9 to 14) (size 15 to 20)
#    0.000    0.000    6.250    2.625    5.250    2.000 
#    0.000    1.250    0.000    0.000    0.000    0.000 
#    0.000    0.000    0.000    0.000    0.000    0.000 
#
# Total GULP energy -89449.450399 kJ/mol
# GULP energy per Si atom -5590.590650 kJ/mol
# Density = 2.261800 g / cm^3
# Si number density = 22.669602 Si / 1000 Ang^3
#
#
#
# Elastic Constant Matrix: (Units=GPa)
#
#
# Indices 1 2 3 4 5 6 
#
# 1 78.5023 38.1808 33.7914 -8.3268 1.3601 11.3045
# 2 38.1808 185.3960 63.2513 11.2787 -2.9615 16.4861
# 3 33.7914 63.2513 133.7924 2.6509 -29.4958 -10.2286
# 4 -8.3268 11.2787 2.6509 34.7725 4.7613 6.3238
# 5 1.3601 -2.9615 -29.4958 4.7613 44.1930 6.9940
# 6 11.3045 16.4861 -10.2286 6.3238 6.9940 39.8742
#
#
#
# Elastic Compliance Matrix: (Units=1/GPa)
#
#
# Indices 1 2 3 4 5 6 
#
# 1 0.017369 -0.001850 -0.004915 0.006706 -0.003739 -0.005828
# 2 -0.001850 0.007286 -0.003394 -0.001879 -0.001063 -0.002874
# 3 -0.004915 -0.003394 0.012485 -0.003023 0.007773 0.005115
# 4 0.006706 -0.001879 -0.003023 0.033018 -0.004914 -0.006274
# 5 -0.003739 -0.001063 0.007773 -0.004914 0.028504 -0.000727
# 6 -0.005828 -0.002874 0.005115 -0.006274 -0.000727 0.030354
#
#
# Mechanical properties :
#
#
# Convention : Reuss Voigt Hill
#
# Bulk Modulus (GPa) = 59.44621 74.23751 66.84186
# Shear Modulus (GPa) = 32.27046 41.26577 36.76811
#
# Velocity S-wave (km/s) = 3.77704 4.27114 4.03167
# Velocity P-wave (km/s) = 6.73061 7.55925 7.15693
#
# Compressibility (1/GPa) = 0.01682193
#
# Stress axis : x y z
#
# Youngs Moduli (GPa) = 57.57340 137.25720 80.09787
#
# Poissons Ratio (x) = 0.25386 0.39370
# Poissons Ratio (y) = 0.10648 0.27185
# Poissons Ratio (z) = 0.28299 0.46585
#
# Static dielectric constant tensor:
#      x y z
#    x 1.889690 0.016740 0.035270 
#    y 0.016740 1.937050 0.006200 
#    z 0.035270 0.006200 1.839850 
# 
# From -- ./inp_files/242649.got.cif
#   From: 2010.05.17/outbox.cif.g08.bks.cpg/sg2_122_cif.got.tgz:242649.got - 2010.06.03 11:33:40.
