data_PCOD9069632
_publ_section_title
;
Structure prediction by ZEFSAII (Michael W. Deem and Ramdas Pophale) SiO2 
 PCOD9069632
Probable space group: P -1
;
_chemical_formula_sum "Si O2"
_cell_formula_units_Z 16
_cell_length_a 21.911434
_cell_length_b 15.665600
_cell_length_c 24.034799
_cell_angle_alpha 140.522607
_cell_angle_beta 11.713989
_cell_angle_gamma 142.171312
_cell_volume 1027.195528
_symmetry_space_group_name_H-M "P -1"
_symmetry_group_IT_number 2
_symmetry_cell_setting 'triclinic'
loop_
_space_group_symop_operation_xyz
x,y,z
-x,-y,-z
loop_
_atom_site_type_symbol
_atom_site_label
_atom_site_fract_x
_atom_site_fract_y
_atom_site_fract_z
Si Si1 0.778707 0.848369 0.611947
Si Si2 0.512030 0.343281 0.398026
Si Si3 0.300025 0.774947 0.545299
Si Si4 0.240701 0.672500 0.065601
Si Si5 0.231774 0.803708 0.805417
Si Si6 0.806420 0.279806 0.989840
Si Si7 0.281365 0.045059 0.639137
Si Si8 0.184940 0.375262 0.011104
O O1 0.491140 0.846276 0.825448
O O2 0.986085 0.750250 0.353078
O O3 0.583738 0.778973 0.805730
O O4 0.000000 0.000000 0.500000
O O5 0.500000 0.500000 0.500000
O O6 0.682713 0.283570 0.264530
O O7 0.695571 0.340095 0.174911
O O8 0.147559 0.256003 0.678149
O O9 0.506748 0.870503 0.457208
O O10 0.500720 0.673220 0.294811
O O11 0.242799 0.883573 0.605606
O O12 0.995800 0.684993 0.802113
O O13 0.168323 0.627167 0.042333
O O14 0.234410 0.538566 0.040097
O O15 0.535037 0.897065 0.551176
O O16 0.032900 0.907408 0.054869
O O17 0.028158 0.701642 0.889154
#
# Coordination Sequence:
#
# PCOD9069632 Si02
#       8
#     2   2   2   2   2   2   2   2
#     4  10  20  35  54  70  90 128 161 198 251 296
#     4  12  22  33  45  68  97 137 169 203 227 263
#     4   9  17  27  46  58  89 115 163 195 242 271
#     4  10  19  32  50  69  99 117 160 194 239 297
#     4  10  20  28  45  59  93 125 171 193 228 257
#     4  10  21  34  48  66  95 128 166 201 232 275
#     4   9  17  31  40  63  80 124 163 205 226 275
#     4  10  18  29  43  69  88 127 152 199 231 281
#
# _framework density 15.576392999999999
#
# number of rings (size 3 to 8) (size 9 to 14) (size 15 to 20)
#    0.750    1.250    1.250    3.750    0.000    5.000 
#    0.000    0.000    0.000    0.000    0.000    0.000 
#    0.000    0.000    0.000   78.750    0.000    0.000 
#
# Total GULP energy -89069.217872 kJ/mol
# GULP energy per Si atom -5566.826117 kJ/mol
# Density = 1.554094 g / cm^3
# Si number density = 15.576393 Si / 1000 Ang^3
#
#
#
# Elastic Constant Matrix: (Units=GPa)
#
#
# Indices 1 2 3 4 5 6 
#
# 1 28.5254 13.5802 8.6232 7.8282 4.7535 -7.8232
# 2 13.5802 65.2263 13.2706 9.2561 -3.0213 -7.1549
# 3 8.6232 13.2706 69.6654 6.5670 19.6954 5.8102
# 4 7.8282 9.2561 6.5670 22.0602 -2.7343 -6.2683
# 5 4.7535 -3.0213 19.6954 -2.7343 25.0748 -1.4079
# 6 -7.8232 -7.1549 5.8102 -6.2683 -1.4079 14.4139
#
#
#
# Elastic Compliance Matrix: (Units=1/GPa)
#
#
# Indices 1 2 3 4 5 6 
#
# 1 0.048110 -0.006129 -0.003806 -0.008427 -0.006649 0.020290
# 2 -0.006129 0.019368 -0.006205 -0.000298 0.008872 0.009526
# 3 -0.003806 -0.006205 0.025714 -0.013230 -0.022986 -0.023510
# 4 -0.008427 -0.000298 -0.013230 0.063530 0.020579 0.030249
# 5 -0.006649 0.008872 -0.022986 0.020579 0.063927 0.025254
# 6 0.020290 0.009526 -0.023510 0.030249 0.025254 0.110217
#
#
# Mechanical properties :
#
#
# Convention : Reuss Voigt Hill
#
# Bulk Modulus (GPa) = 16.41717 26.04058 21.22887
# Shear Modulus (GPa) = 13.03955 20.83932 16.93944
#
# Velocity S-wave (km/s) = 2.89647 3.66167 3.30131
# Velocity P-wave (km/s) = 4.66355 5.88484 5.30943
#
# Compressibility (1/GPa) = 0.06091183
#
# Stress axis : x y z
#
# Youngs Moduli (GPa) = 20.78585 51.63166 38.88966
#
# Poissons Ratio (x) = 0.31644 0.14800
# Poissons Ratio (y) = 0.12739 0.24133
# Poissons Ratio (z) = 0.07910 0.32040
#
# Static dielectric constant tensor:
#      x y z
#    x 1.498550 0.004270 -0.021140 
#    y 0.004270 1.508160 -0.018760 
#    z -0.021140 -0.018760 1.504280 
# 
# From -- ./inp_files/99101.got.cif
#   From: 2010.05.17/outbox.cif.g08.bks.cpg/sg2_50_cif.got.tgz:99101.got - 2010.06.03 11:33:40.
