data_PCOD9069704
_publ_section_title
;
Structure prediction by ZEFSAII (Michael W. Deem and Ramdas Pophale) SiO2 
 PCOD9069704
Probable space group: P -1
;
_chemical_formula_sum "Si O2"
_cell_formula_units_Z 16
_cell_length_a 8.732685
_cell_length_b 8.671838
_cell_length_c 12.722067
_cell_angle_alpha 52.695717
_cell_angle_beta 62.908677
_cell_angle_gamma 65.239514
_cell_volume 668.232172
_symmetry_space_group_name_H-M "P -1"
_symmetry_group_IT_number 2
_symmetry_cell_setting 'triclinic'
loop_
_space_group_symop_operation_xyz
x,y,z
-x,-y,-z
loop_
_atom_site_type_symbol
_atom_site_label
_atom_site_fract_x
_atom_site_fract_y
_atom_site_fract_z
Si Si1 0.244227 0.331958 0.066594
Si Si2 0.040629 0.651428 0.514271
Si Si3 0.117128 0.088727 0.844255
Si Si4 0.496680 0.608321 0.211518
Si Si5 0.669264 0.294719 0.451414
Si Si6 0.056263 0.915214 0.721008
Si Si7 0.826697 0.470024 0.787957
Si Si8 0.516752 0.056028 0.772602
O O1 0.193881 0.511789 0.088892
O O2 0.080182 0.224665 0.152304
O O3 0.395945 0.171417 0.142999
O O4 0.325787 0.392367 0.909008
O O5 0.221284 0.597334 0.545309
O O6 0.000000 0.500000 0.500000
O O7 0.882351 0.664743 0.642177
O O8 0.039248 0.868544 0.379554
O O9 0.307161 0.094511 0.826112
O O10 0.993860 0.301774 0.775468
O O11 0.146359 0.962412 0.780818
O O12 0.000000 0.000000 0.000000
O O13 0.537743 0.452247 0.357818
O O14 0.347834 0.563812 0.199129
O O15 0.430459 0.821979 0.195620
O O16 0.809313 0.179171 0.372169
O O17 0.577731 0.148039 0.608956
#
# Coordination Sequence:
#
# PCOD9069704 Si02
#       8
#     2   2   2   2   2   2   2   2
#     4  12  26  50  78 106 155 199 248 308 378 450
#     4  12  23  47  74 105 145 200 247 302 374 446
#     4  12  28  48  76 110 151 198 253 308 376 450
#     4  12  28  46  77 112 151 195 250 313 372 441
#     4  12  27  47  74 115 147 194 257 312 367 445
#     4  12  26  46  77 107 152 199 248 308 384 441
#     4  12  26  47  76 109 151 197 249 307 382 442
#     4  12  26  49  74 108 151 196 253 309 372 446
#
# _framework density 23.943773
#
# number of rings (size 3 to 8) (size 9 to 14) (size 15 to 20)
#    0.000    0.000    3.750    6.000    5.250    1.000 
#    0.000    0.000    0.000    0.000    0.000    0.000 
#    0.000    0.000    0.000    0.000    0.000    0.000 
#
# Total GULP energy -89705.718534 kJ/mol
# GULP energy per Si atom -5606.607408 kJ/mol
# Density = 2.388928 g / cm^3
# Si number density = 23.943773 Si / 1000 Ang^3
#
#
#
# Elastic Constant Matrix: (Units=GPa)
#
#
# Indices 1 2 3 4 5 6 
#
# 1 62.5154 33.8667 3.4600 -2.4562 -16.2066 15.2677
# 2 33.8667 88.2836 13.4968 22.1817 3.6698 5.1500
# 3 3.4600 13.4968 133.0586 14.3710 -17.0922 5.2085
# 4 -2.4562 22.1817 14.3710 40.7606 -4.5844 0.0681
# 5 -16.2066 3.6698 -17.0922 -4.5844 40.8698 3.7792
# 6 15.2677 5.1500 5.2085 0.0681 3.7792 26.1867
#
#
#
# Elastic Compliance Matrix: (Units=1/GPa)
#
#
# Indices 1 2 3 4 5 6 
#
# 1 0.036108 -0.017123 0.002873 0.012817 0.020460 -0.021242
# 2 -0.017123 0.021618 -0.002134 -0.013391 -0.011856 0.007902
# 3 0.002873 -0.002134 0.008582 -0.001107 0.005138 -0.003701
# 4 0.012817 -0.013391 -0.001107 0.034144 0.010224 -0.006183
# 5 0.020460 -0.011856 0.005138 0.010224 0.038438 -0.016193
# 6 -0.021242 0.007902 -0.003701 -0.006183 -0.016193 0.052107
#
#
# Mechanical properties :
#
#
# Convention : Reuss Voigt Hill
#
# Bulk Modulus (GPa) = 29.81327 42.83385 36.32356
# Shear Modulus (GPa) = 21.28165 37.09903 29.19034
#
# Velocity S-wave (km/s) = 2.98454 3.94054 3.49538
# Velocity P-wave (km/s) = 4.93508 6.21546 5.61191
#
# Compressibility (1/GPa) = 0.03354211
#
# Stress axis : x y z
#
# Youngs Moduli (GPa) = 27.69446 46.25752 116.52747
#
# Poissons Ratio (x) = 0.79205 -0.33481
# Poissons Ratio (y) = 0.47420 0.24862
# Poissons Ratio (z) = -0.07957 0.09870
#
# Static dielectric constant tensor:
#      x y z
#    x 1.867850 -0.012930 0.029810 
#    y -0.012930 1.935200 -0.052090 
#    z 0.029810 -0.052090 2.015050 
# 
# From -- ./inp_files/381248.got.cif
#   From: 2010.05.17/outbox.cif.g08.bks.cpg/sg2_191_cif.got.tgz:381248.got - 2010.06.03 11:33:40.
