data_PCOD9069137
_publ_section_title
;
Structure prediction by ZEFSAII (Michael W. Deem and Ramdas Pophale) SiO2 
 PCOD9069137
Probable space group: P -1
;
_chemical_formula_sum "Si O2"
_cell_formula_units_Z 14
_cell_length_a 12.418176
_cell_length_b 15.321570
_cell_length_c 8.777237
_cell_angle_alpha 50.331767
_cell_angle_beta 44.871452
_cell_angle_gamma 30.255482
_cell_volume 592.042810
_symmetry_space_group_name_H-M "P -1"
_symmetry_group_IT_number 2
_symmetry_cell_setting 'triclinic'
loop_
_space_group_symop_operation_xyz
x,y,z
-x,-y,-z
loop_
_atom_site_type_symbol
_atom_site_label
_atom_site_fract_x
_atom_site_fract_y
_atom_site_fract_z
Si Si1 0.971690 0.910274 0.510260
Si Si2 0.769413 0.129670 0.984734
Si Si3 0.374057 0.295044 0.019513
Si Si4 0.913674 0.524554 0.388577
Si Si5 0.544590 0.857280 0.204949
Si Si6 0.493673 0.613448 0.775478
Si Si7 0.297428 0.596555 0.719622
O O1 0.142939 0.836112 0.277964
O O2 0.059846 0.752589 0.693848
O O3 0.703526 0.040705 0.588560
O O4 0.000000 0.000000 0.500000
O O5 0.620277 0.122737 0.043210
O O6 0.587654 0.251577 0.168480
O O7 0.000000 0.000000 0.000000
O O8 0.398257 0.263194 0.852643
O O9 0.329397 0.454063 0.914821
O O10 0.142420 0.368584 0.234198
O O11 0.758819 0.716819 0.263026
O O12 0.738755 0.516687 0.573014
O O13 0.000000 0.500000 0.500000
O O14 0.500000 0.000000 0.000000
O O15 0.325765 0.673690 0.738214
O O16 0.500000 0.500000 0.000000
O O17 0.500000 0.500000 0.500000
#
# Coordination Sequence:
#
# PCOD9069137 Si02
#       7
#     2   2   2   2   2   2   2
#     4  12  23  43  73 102 140 183 234 298 351 421
#     4  12  24  42  67 105 141 181 229 296 359 410
#     4  12  25  48  70 102 142 190 238 295 355 435
#     4  12  25  47  72 103 146 190 236 298 359 431
#     4  12  28  48  71 105 142 193 240 297 364 428
#     4  12  24  43  72 108 139 181 241 293 359 430
#     4  12  22  43  72 106 135 185 241 291 351 427
#
# _framework density 23.646939
#
# number of rings (size 3 to 8) (size 9 to 14) (size 15 to 20)
#    0.000    0.000    5.714    4.714    0.000    2.286 
#    0.000    0.714    0.000    0.000    0.000    0.000 
#    0.000    0.000    0.000    0.000    0.000    0.000 
#
# Total GULP energy -78176.232278 kJ/mol
# GULP energy per Si atom -5584.016591 kJ/mol
# Density = 2.359312 g / cm^3
# Si number density = 23.646939 Si / 1000 Ang^3
#
#
#
# Elastic Constant Matrix: (Units=GPa)
#
#
# Indices 1 2 3 4 5 6 
#
# 1 94.2448 34.7273 28.3770 -6.0463 23.6749 -31.4647
# 2 34.7273 67.9516 26.9602 -6.7826 1.6958 -41.0833
# 3 28.3770 26.9602 131.7880 15.1667 -5.4947 -19.0338
# 4 -6.0463 -6.7826 15.1667 48.6131 -7.6813 -1.2629
# 5 23.6749 1.6958 -5.4947 -7.6813 47.3583 -1.0354
# 6 -31.4647 -41.0833 -19.0338 -1.2629 -1.0354 50.0419
#
#
#
# Elastic Compliance Matrix: (Units=1/GPa)
#
#
# Indices 1 2 3 4 5 6 
#
# 1 0.017054 -0.003086 -0.002519 0.001344 -0.008334 0.007093
# 2 -0.003086 0.032403 -0.003176 0.005979 0.001500 0.023636
# 3 -0.002519 -0.003176 0.009131 -0.003329 0.001876 -0.000763
# 4 0.001344 0.005979 -0.003329 0.023154 0.002595 0.005126
# 5 -0.008334 0.001500 0.001876 0.002595 0.025808 -0.002696
# 6 0.007093 0.023636 -0.000763 0.005126 -0.002696 0.043631
#
#
# Mechanical properties :
#
#
# Convention : Reuss Voigt Hill
#
# Bulk Modulus (GPa) = 24.37424 52.67928 38.52676
# Shear Modulus (GPa) = 27.40974 42.79732 35.10353
#
# Velocity S-wave (km/s) = 3.40828 4.25884 3.85708
# Velocity P-wave (km/s) = 5.08119 6.81978 6.01365
#
# Compressibility (1/GPa) = 0.04102692
#
# Stress axis : x y z
#
# Youngs Moduli (GPa) = 58.63745 30.86138 109.51653
#
# Poissons Ratio (x) = 0.09523 0.27582
# Poissons Ratio (y) = 0.18094 0.34785
# Poissons Ratio (z) = 0.14768 0.09802
#
# Static dielectric constant tensor:
#      x y z
#    x 1.827240 0.019990 0.011700 
#    y 0.019990 1.978090 -0.050620 
#    z 0.011700 -0.050620 1.856300 
# 
# From -- ./inp_files/199544.got.cif
#   From: 2010.05.17/outbox.cif.g08.bks.cpg/sg2_100_cif.got.tgz:199544.got - 2010.06.03 11:33:40.
