data_PCOD9069514
_publ_section_title
;
Structure prediction by ZEFSAII (Michael W. Deem and Ramdas Pophale) SiO2 
 PCOD9069514
Probable space group: P -1
;
_chemical_formula_sum "Si O2"
_cell_formula_units_Z 14
_cell_length_a 11.535704
_cell_length_b 11.922863
_cell_length_c 4.906944
_cell_angle_alpha 113.359786
_cell_angle_beta 118.334789
_cell_angle_gamma 75.512358
_cell_volume 543.736896
_symmetry_space_group_name_H-M "P -1"
_symmetry_group_IT_number 2
_symmetry_cell_setting 'triclinic'
loop_
_space_group_symop_operation_xyz
x,y,z
-x,-y,-z
loop_
_atom_site_type_symbol
_atom_site_label
_atom_site_fract_x
_atom_site_fract_y
_atom_site_fract_z
Si Si1 0.329097 0.459774 0.800535
Si Si2 0.566596 0.669330 0.691562
Si Si3 0.692507 0.270310 0.188942
Si Si4 0.053572 0.375034 0.298802
Si Si5 0.356693 0.965320 0.406209
Si Si6 0.984089 0.235006 0.587540
Si Si7 0.747219 0.899283 0.071989
O O1 0.444304 0.397347 0.675273
O O2 0.288111 0.597744 0.798176
O O3 0.209295 0.379165 0.505287
O O4 0.359960 0.431232 0.120754
O O5 0.427910 0.709740 0.715347
O O6 0.656142 0.784605 0.890970
O O7 0.830029 0.217793 0.428456
O O8 0.657126 0.173149 0.828919
O O9 0.000000 0.500000 0.500000
O O10 0.005163 0.267340 0.327518
O O11 0.010786 0.351075 0.921717
O O12 0.500000 0.000000 0.500000
O O13 0.324043 0.998590 0.711191
O O14 0.258290 0.052199 0.193890
O O15 0.101915 0.136702 0.709912
#
# Coordination Sequence:
#
# PCOD9069514 Si02
#       7
#     2   2   2   2   2   2   2
#     4  12  25  46  75 112 148 193 241 301 369 443
#     4  12  26  47  77 109 149 191 243 306 368 438
#     4  12  30  46  74 113 152 192 246 306 371 429
#     4  12  23  44  73 107 150 197 236 286 373 453
#     4  12  28  50  79 103 145 197 250 306 357 435
#     4  12  27  45  75 110 148 193 243 302 364 437
#     4  12  25  50  78 105 140 200 254 292 364 434
#
# _framework density 25.747748999999999
#
# number of rings (size 3 to 8) (size 9 to 14) (size 15 to 20)
#    0.000    0.000    5.714    3.429    2.000    4.571 
#    0.000    0.000    0.000    0.000    0.000    0.000 
#    0.000    0.000    0.000    0.000    0.000    0.000 
#
# Total GULP energy -78592.419400 kJ/mol
# GULP energy per Si atom -5613.744243 kJ/mol
# Density = 2.568915 g / cm^3
# Si number density = 25.747749 Si / 1000 Ang^3
#
#
#
# Elastic Constant Matrix: (Units=GPa)
#
#
# Indices 1 2 3 4 5 6 
#
# 1 93.2822 30.9796 21.6681 6.7230 11.8080 -13.6351
# 2 30.9796 96.3660 14.2764 0.9469 2.6653 -2.6824
# 3 21.6681 14.2764 89.7681 2.4483 -7.2102 -8.2907
# 4 6.7230 0.9469 2.4483 44.0338 -4.7498 -9.5522
# 5 11.8080 2.6653 -7.2102 -4.7498 49.3830 -3.3293
# 6 -13.6351 -2.6824 -8.2907 -9.5522 -3.3293 41.9242
#
#
#
# Elastic Compliance Matrix: (Units=1/GPa)
#
#
# Indices 1 2 3 4 5 6 
#
# 1 0.013565 -0.003780 -0.002621 -0.001550 -0.003367 0.003031
# 2 -0.003780 0.011719 -0.001006 0.000260 0.000108 -0.000611
# 3 -0.002621 -0.001006 0.012301 0.000418 0.002640 0.001821
# 4 -0.001550 0.000260 0.000418 0.024429 0.003132 0.005410
# 5 -0.003367 0.000108 0.002640 0.003132 0.021863 0.001884
# 6 0.003031 -0.000611 0.001821 0.005410 0.001884 0.026542
#
#
# Mechanical properties :
#
#
# Convention : Reuss Voigt Hill
#
# Bulk Modulus (GPa) = 43.91634 45.91827 44.91731
# Shear Modulus (GPa) = 37.64374 41.23435 39.43904
#
# Velocity S-wave (km/s) = 3.82779 4.00618 3.91800
# Velocity P-wave (km/s) = 6.05222 6.26673 6.16041
#
# Compressibility (1/GPa) = 0.02277057
#
# Stress axis : x y z
#
# Youngs Moduli (GPa) = 73.71695 85.33324 81.29157
#
# Poissons Ratio (x) = 0.32255 0.21310
# Poissons Ratio (y) = 0.27864 0.08179
# Poissons Ratio (z) = 0.19325 0.08586
#
# Static dielectric constant tensor:
#      x y z
#    x 2.069850 -0.035170 0.027540 
#    y -0.035170 2.041150 0.014470 
#    z 0.027540 0.014470 1.957390 
# 
# From -- ./inp_files/72444.got.cif
#   From: 2010.05.17/outbox.cif.g08.bks.cpg/sg2_37_cif.got.tgz:72444.got - 2010.06.03 11:33:40.
