data_PCOD9069557
_publ_section_title
;
Structure prediction by ZEFSAII (Michael W. Deem and Ramdas Pophale) SiO2 
 PCOD9069557
Probable space group: P -1
;
_chemical_formula_sum "Si O2"
_cell_formula_units_Z 15
_cell_length_a 8.389076
_cell_length_b 17.637125
_cell_length_c 19.927069
_cell_angle_alpha 157.951133
_cell_angle_beta 135.461348
_cell_angle_gamma 55.364311
_cell_volume 727.059387
_symmetry_space_group_name_H-M "P -1"
_symmetry_group_IT_number 2
_symmetry_cell_setting 'triclinic'
loop_
_space_group_symop_operation_xyz
x,y,z
-x,-y,-z
loop_
_atom_site_type_symbol
_atom_site_label
_atom_site_fract_x
_atom_site_fract_y
_atom_site_fract_z
Si Si1 0.218271 0.225802 0.759797
Si Si2 0.000000 0.500000 0.500000
Si Si3 0.699413 0.614320 0.939912
Si Si4 0.184061 0.271766 0.481131
Si Si5 0.282742 0.848560 0.123807
Si Si6 0.258297 0.905959 0.696400
Si Si7 0.967249 0.431339 0.760237
Si Si8 0.785595 0.092879 0.006133
O O1 0.467045 0.179805 0.802848
O O2 0.186739 0.370032 0.807249
O O3 0.193929 0.339286 0.915405
O O4 0.000000 0.000000 0.500000
O O5 0.896904 0.668344 0.565996
O O6 0.864116 0.313413 0.251353
O O7 0.417956 0.463483 0.735883
O O8 0.824477 0.492915 0.828555
O O9 0.733629 0.850324 0.113558
O O10 0.953860 0.215141 0.414998
O O11 0.256255 0.059967 0.322042
O O12 0.068983 0.637544 0.912364
O O13 0.263175 0.869587 0.055414
O O14 0.199774 0.770359 0.498751
O O15 0.526668 0.930978 0.822540
O O16 0.000000 0.000000 0.000000
#
# Coordination Sequence:
#
# PCOD9069557 Si02
#       8
#     2   1   2   2   2   2   2   2
#     4  12  23  45  72 104 148 190 237 296 354 422
#     4  12  24  44  76  96 142 182 238 290 362 408
#     4  12  24  47  73 104 148 187 239 294 355 422
#     4  12  26  48  74 106 143 192 238 300 357 424
#     4  12  25  47  73 107 148 188 240 299 354 427
#     4  12  25  49  75 103 147 187 238 296 361 422
#     4  12  26  45  75 107 143 195 238 289 365 425
#     4  12  25  47  73 104 141 187 237 297 358 424
#
# _framework density 20.631050999999999
#
# number of rings (size 3 to 8) (size 9 to 14) (size 15 to 20)
#    0.000    0.000    6.667    4.000    0.000    0.533 
#    2.400    3.333    0.000    0.000    0.000    0.000 
#    0.000    0.000    0.000    0.000    0.000    0.000 
#
# Total GULP energy -83684.042487 kJ/mol
# GULP energy per Si atom -5578.936166 kJ/mol
# Density = 2.058409 g / cm^3
# Si number density = 20.631051 Si / 1000 Ang^3
#
#
#
# Elastic Constant Matrix: (Units=GPa)
#
#
# Indices 1 2 3 4 5 6 
#
# 1 99.0701 25.4552 60.8990 -11.3656 -4.0011 -22.6679
# 2 25.4552 100.5248 46.9269 -0.5710 -0.5152 -21.5061
# 3 60.8990 46.9269 155.1382 -10.4744 -10.1320 -8.8532
# 4 -11.3656 -0.5710 -10.4744 38.0187 3.6095 -3.0118
# 5 -4.0011 -0.5152 -10.1320 3.6095 41.6265 4.7541
# 6 -22.6679 -21.5061 -8.8532 -3.0118 4.7541 32.3883
#
#
#
# Elastic Compliance Matrix: (Units=1/GPa)
#
#
# Indices 1 2 3 4 5 6 
#
# 1 0.016491 0.001016 -0.005946 0.004339 -0.001507 0.011216
# 2 0.001016 0.013469 -0.004067 0.000251 -0.001755 0.008824
# 3 -0.005946 -0.004067 0.009927 0.000328 0.002274 -0.004452
# 4 0.004339 0.000251 0.000328 0.028451 -0.002690 0.006333
# 5 -0.001507 -0.001755 0.002274 -0.002690 0.025278 -0.005559
# 6 0.011216 0.008824 -0.004452 0.006333 -0.005559 0.044772
#
#
# Mechanical properties :
#
#
# Convention : Reuss Voigt Hill
#
# Bulk Modulus (GPa) = 45.67705 69.03279 57.35492
# Shear Modulus (GPa) = 30.54706 37.17019 33.85862
#
# Velocity S-wave (km/s) = 3.85208 4.24920 4.05550
# Velocity P-wave (km/s) = 6.47863 7.58997 7.05621
#
# Compressibility (1/GPa) = 0.02189283
#
# Stress axis : x y z
#
# Youngs Moduli (GPa) = 60.63851 74.24206 100.73528
#
# Poissons Ratio (x) = -0.07546 0.59902
# Poissons Ratio (y) = -0.06163 0.40973
# Poissons Ratio (z) = 0.36058 0.30197
#
# Static dielectric constant tensor:
#      x y z
#    x 1.756680 -0.010020 0.014090 
#    y -0.010020 1.736050 0.024220 
#    z 0.014090 0.024220 1.713550 
# 
# From -- ./inp_files/503592.got.cif
#   From: 2010.05.17/outbox.cif.g08.bks.cpg/sg2_252_cif.got.tgz:503592.got - 2010.06.03 11:33:40.
