data_PCOD9069763
_publ_section_title
;
Structure prediction by ZEFSAII (Michael W. Deem and Ramdas Pophale) SiO2 
 PCOD9069763
Probable space group: P -1
;
_chemical_formula_sum "Si O2"
_cell_formula_units_Z 16
_cell_length_a 13.551830
_cell_length_b 6.725145
_cell_length_c 8.744847
_cell_angle_alpha 107.769307
_cell_angle_beta 76.636113
_cell_angle_gamma 83.623840
_cell_volume 724.092471
_symmetry_space_group_name_H-M "P -1"
_symmetry_group_IT_number 2
_symmetry_cell_setting 'triclinic'
loop_
_space_group_symop_operation_xyz
x,y,z
-x,-y,-z
loop_
_atom_site_type_symbol
_atom_site_label
_atom_site_fract_x
_atom_site_fract_y
_atom_site_fract_z
Si Si1 0.049323 0.055381 0.337408
Si Si2 0.573287 0.771247 0.898436
Si Si3 0.746916 0.817248 0.602588
Si Si4 0.131183 0.647553 0.651350
Si Si5 0.428231 0.604119 0.688694
Si Si6 0.288393 0.383074 0.899022
Si Si7 0.918632 0.344701 0.977081
Si Si8 0.718251 0.034973 0.354488
O O1 0.167843 0.067479 0.324590
O O2 0.982669 0.280855 0.360771
O O3 0.038341 0.874085 0.175944
O O4 0.000000 0.000000 0.500000
O O5 0.663457 0.785289 0.748965
O O6 0.501191 0.630080 0.810589
O O7 0.627109 0.685357 0.016440
O O8 0.500000 0.000000 0.000000
O O9 0.811201 0.589893 0.466010
O O10 0.691592 0.954055 0.511704
O O11 0.198735 0.817156 0.611858
O O12 0.117013 0.684911 0.845179
O O13 0.500000 0.500000 0.500000
O O14 0.343969 0.479044 0.759693
O O15 0.369416 0.824611 0.686124
O O16 0.245020 0.180280 0.804849
O O17 0.188831 0.543383 0.037726
O O18 0.000000 0.500000 0.000000
#
# Coordination Sequence:
#
# PCOD9069763 Si02
#       8
#     2   2   2   2   2   2   2   2
#     4  12  27  46  76 110 152 191 241 310 371 445
#     4  12  29  48  73 110 151 197 248 311 373 431
#     4  12  28  48  76 111 150 198 248 309 374 444
#     4  12  25  50  74 110 149 196 248 300 377 451
#     4  12  27  49  77 106 143 199 250 309 373 433
#     4  12  27  48  77 109 150 193 252 308 367 451
#     4  12  27  47  77 110 148 198 245 301 376 449
#     4  12  23  48  77 105 148 190 252 302 370 438
#
# _framework density 22.096626000000001
#
# number of rings (size 3 to 8) (size 9 to 14) (size 15 to 20)
#    0.000    0.000    5.000    4.125    8.750    2.000 
#    0.000    0.000    0.000    0.000    0.000    0.000 
#    0.000    0.000    0.000    0.000    0.000    0.000 
#
# Total GULP energy -89548.436448 kJ/mol
# GULP energy per Si atom -5596.777278 kJ/mol
# Density = 2.204633 g / cm^3
# Si number density = 22.096626 Si / 1000 Ang^3
#
#
#
# Elastic Constant Matrix: (Units=GPa)
#
#
# Indices 1 2 3 4 5 6 
#
# 1 100.5696 29.2189 10.0801 -2.8504 8.5978 -5.7771
# 2 29.2189 105.9781 47.7902 -2.9507 -2.1579 -8.7988
# 3 10.0801 47.7902 109.2638 5.2791 -3.7152 -3.2324
# 4 -2.8504 -2.9507 5.2791 37.3654 -1.3371 9.4269
# 5 8.5978 -2.1579 -3.7152 -1.3371 39.7418 -0.0204
# 6 -5.7771 -8.7988 -3.2324 9.4269 -0.0204 52.3053
#
#
#
# Elastic Compliance Matrix: (Units=1/GPa)
#
#
# Indices 1 2 3 4 5 6 
#
# 1 0.011101 -0.003178 0.000284 0.000300 -0.002537 0.000654
# 2 -0.003178 0.012873 -0.005328 0.001242 0.000931 0.001262
# 3 0.000284 -0.005328 0.011586 -0.002069 0.000663 0.000224
# 4 0.000300 0.001242 -0.002069 0.028469 0.000764 -0.005016
# 5 -0.002537 0.000931 0.000663 0.000764 0.025849 -0.000210
# 6 0.000654 0.001262 0.000224 -0.005016 -0.000210 0.020321
#
#
# Mechanical properties :
#
#
# Convention : Reuss Voigt Hill
#
# Bulk Modulus (GPa) = 52.31174 54.44330 53.37752
# Shear Modulus (GPa) = 37.58976 41.13064 39.36020
#
# Velocity S-wave (km/s) = 4.12898 4.31907 4.22510
# Velocity P-wave (km/s) = 6.81592 7.04022 6.92898
#
# Compressibility (1/GPa) = 0.01911617
#
# Stress axis : x y z
#
# Youngs Moduli (GPa) = 90.08092 77.68093 86.31424
#
# Poissons Ratio (x) = 0.24686 -0.02455
# Poissons Ratio (y) = 0.28627 0.45991
# Poissons Ratio (z) = -0.02562 0.41391
#
# Static dielectric constant tensor:
#      x y z
#    x 1.858150 -0.018520 -0.029950 
#    y -0.018520 1.830570 -0.007180 
#    z -0.029950 -0.007180 1.820850 
# 
# From -- ./inp_files/39185.got.cif
#   From: 2010.05.17/outbox.cif.g08.bks.cpg/sg2_20_cif.got.tgz:39185.got - 2010.06.03 11:33:40.
