data_PCOD9069693
_publ_section_title
;
Structure prediction by ZEFSAII (Michael W. Deem and Ramdas Pophale) SiO2 
 PCOD9069693
Probable space group: P -1
;
_chemical_formula_sum "Si O2"
_cell_formula_units_Z 16
_cell_length_a 9.740164
_cell_length_b 17.894691
_cell_length_c 12.027693
_cell_angle_alpha 48.756615
_cell_angle_beta 40.822193
_cell_angle_gamma 81.361320
_cell_volume 726.294935
_symmetry_space_group_name_H-M "P -1"
_symmetry_group_IT_number 2
_symmetry_cell_setting 'triclinic'
loop_
_space_group_symop_operation_xyz
x,y,z
-x,-y,-z
loop_
_atom_site_type_symbol
_atom_site_label
_atom_site_fract_x
_atom_site_fract_y
_atom_site_fract_z
Si Si1 0.253117 0.144592 0.267891
Si Si2 0.403014 0.908782 0.758162
Si Si3 0.233987 0.394060 0.550628
Si Si4 0.676997 0.386625 0.587269
Si Si5 0.345091 0.638505 0.633307
Si Si6 0.165405 0.413139 0.324927
Si Si7 0.726473 0.951876 0.145526
Si Si8 0.152764 0.884322 0.291019
O O1 0.409583 0.122025 0.281229
O O2 0.079688 0.174041 0.410102
O O3 0.483868 0.261876 0.919231
O O4 0.000000 0.000000 0.500000
O O5 0.500000 0.000000 0.500000
O O6 0.388305 0.985451 0.789868
O O7 0.074349 0.760117 0.078584
O O8 0.336765 0.504736 0.472353
O O9 0.471396 0.387013 0.394960
O O10 0.173616 0.428146 0.437654
O O11 0.582305 0.340288 0.563852
O O12 0.015441 0.459789 0.318432
O O13 0.463609 0.783716 0.461649
O O14 0.000000 0.500000 0.000000
O O15 0.954515 0.250797 0.574365
O O16 0.500000 0.500000 0.000000
O O17 0.859240 0.026659 0.871984
O O18 0.000000 0.000000 0.000000
O O19 0.500000 0.000000 0.000000
#
# Coordination Sequence:
#
# PCOD9069693 Si02
#       8
#     2   2   2   2   2   2   2   2
#     4  12  26  45  74 107 142 190 238 297 363 427
#     4  12  27  44  75 107 142 188 240 297 361 425
#     4  12  26  48  70 106 147 186 244 297 357 428
#     4  12  27  47  73 106 148 186 240 302 358 427
#     4  12  28  48  72 107 146 195 240 294 364 426
#     4  12  24  45  73 106 140 189 238 292 359 426
#     4  12  23  47  72 101 144 184 239 295 349 430
#     4  12  25  45  70 105 143 183 234 296 358 427
#
# _framework density 22.029620000000001
#
# number of rings (size 3 to 8) (size 9 to 14) (size 15 to 20)
#    0.000    0.000    3.750    6.000    5.250    2.000 
#    0.000    0.000    0.000    0.000    0.000    0.000 
#    0.000    0.000    0.000    0.000    0.000    0.000 
#
# Total GULP energy -89600.192740 kJ/mol
# GULP energy per Si atom -5600.012046 kJ/mol
# Density = 2.197948 g / cm^3
# Si number density = 22.029620 Si / 1000 Ang^3
#
#
#
# Elastic Constant Matrix: (Units=GPa)
#
#
# Indices 1 2 3 4 5 6 
#
# 1 76.3392 0.6535 11.6068 -5.2824 -7.0002 8.4060
# 2 0.6535 74.8139 25.7008 -1.3257 13.9039 3.0751
# 3 11.6068 25.7008 122.6676 -10.1695 -4.2853 6.3702
# 4 -5.2824 -1.3257 -10.1695 33.6698 -4.8668 -0.6314
# 5 -7.0002 13.9039 -4.2853 -4.8668 25.8552 5.8802
# 6 8.4060 3.0751 6.3702 -0.6314 5.8802 32.8566
#
#
#
# Elastic Compliance Matrix: (Units=1/GPa)
#
#
# Indices 1 2 3 4 5 6 
#
# 1 0.014407 -0.000785 -0.000529 0.002822 0.005788 -0.004491
# 2 -0.000785 0.016618 -0.004021 -0.002179 -0.010513 0.001265
# 3 -0.000529 -0.004021 0.009593 0.003298 0.004714 -0.002128
# 4 0.002822 -0.002179 0.003298 0.032322 0.009057 -0.002157
# 5 0.005788 -0.010513 0.004714 0.009057 0.050730 -0.010315
# 6 -0.004491 0.001265 -0.002128 -0.002157 -0.010315 0.033683
#
#
# Mechanical properties :
#
#
# Convention : Reuss Voigt Hill
#
# Bulk Modulus (GPa) = 33.39172 38.86030 36.12601
# Shear Modulus (GPa) = 28.08882 34.20031 31.14456
#
# Velocity S-wave (km/s) = 3.57466 3.94441 3.76408
# Velocity P-wave (km/s) = 5.67698 6.19862 5.94352
#
# Compressibility (1/GPa) = 0.02994754
#
# Stress axis : x y z
#
# Youngs Moduli (GPa) = 69.40978 60.17573 104.23978
#
# Poissons Ratio (x) = 0.04724 0.05518
# Poissons Ratio (y) = 0.05449 0.41916
# Poissons Ratio (z) = 0.03674 0.24197
#
# Static dielectric constant tensor:
#      x y z
#    x 1.873740 -0.088650 0.143530 
#    y -0.088650 1.848070 0.044680 
#    z 0.143530 0.044680 1.736450 
# 
# From -- ./inp_files/398345.got.cif
#   From: 2010.05.17/outbox.cif.g08.bks.cpg/sg2_200_cif.got.tgz:398345.got - 2010.06.03 11:33:40.
