data_PCOD9069042
_publ_section_title
;
Structure prediction by ZEFSAII (Michael W. Deem and Ramdas Pophale) SiO2 
 PCOD9069042
Probable space group: P -1
;
_chemical_formula_sum "Si O2"
_cell_formula_units_Z 14
_cell_length_a 12.157557
_cell_length_b 20.223643
_cell_length_c 17.248746
_cell_angle_alpha 20.431057
_cell_angle_beta 145.044007
_cell_angle_gamma 153.732484
_cell_volume 649.256447
_symmetry_space_group_name_H-M "P -1"
_symmetry_group_IT_number 2
_symmetry_cell_setting 'triclinic'
loop_
_space_group_symop_operation_xyz
x,y,z
-x,-y,-z
loop_
_atom_site_type_symbol
_atom_site_label
_atom_site_fract_x
_atom_site_fract_y
_atom_site_fract_z
Si Si1 0.568247 0.562364 0.380018
Si Si2 0.848278 0.005296 0.567589
Si Si3 0.175762 0.426709 0.190571
Si Si4 0.281976 0.741212 0.203621
Si Si5 0.003002 0.903957 0.929168
Si Si6 0.534881 0.499892 0.879311
Si Si7 0.760168 0.284030 0.318062
O O1 0.500000 0.500000 0.500000
O O2 0.373584 0.575072 0.211536
O O3 0.578249 0.357446 0.577105
O O4 0.836219 0.827642 0.236194
O O5 0.830561 0.205624 0.370072
O O6 0.024226 0.145235 0.441396
O O7 0.944546 0.941014 0.766588
O O8 0.600290 0.749751 0.673182
O O9 0.334760 0.473921 0.154540
O O10 0.000000 0.500000 0.000000
O O11 0.029601 0.493257 0.287221
O O12 0.165070 0.817361 0.111189
O O13 0.500000 0.000000 0.000000
O O14 0.757958 0.717038 0.043329
O O15 0.658883 0.429302 0.087587
O O16 0.500000 0.000000 0.500000
#
# Coordination Sequence:
#
# PCOD9069042 Si02
#       7
#     2   2   2   2   2   2   2
#     4  12  24  47  73 100 141 183 238 293 350 425
#     4  12  22  43  70 102 141 186 234 286 345 427
#     4  12  27  47  72 103 142 189 232 295 364 423
#     4  12  23  39  70 108 136 183 243 291 343 419
#     4  12  24  43  75 105 139 186 240 291 351 424
#     4  12  26  43  68 107 147 183 234 297 359 421
#     4  12  22  40  72 106 142 185 238 292 351 419
#
# _framework density 21.563127999999999
#
# number of rings (size 3 to 8) (size 9 to 14) (size 15 to 20)
#    0.000    0.000    8.571    1.714    0.000    0.571 
#    2.571    0.714    0.000    0.000    0.000    0.000 
#    0.000    0.000    0.000    0.000    0.000    0.000 
#
# Total GULP energy -78026.340474 kJ/mol
# GULP energy per Si atom -5573.310034 kJ/mol
# Density = 2.151405 g / cm^3
# Si number density = 21.563128 Si / 1000 Ang^3
#
#
#
# Elastic Constant Matrix: (Units=GPa)
#
#
# Indices 1 2 3 4 5 6 
#
# 1 82.0659 17.7939 36.8991 -0.4616 3.1526 24.6423
# 2 17.7939 103.4962 43.6076 -22.4608 -12.4524 15.1975
# 3 36.8991 43.6076 93.9711 -26.0135 3.8845 4.4090
# 4 -0.4616 -22.4608 -26.0135 48.1269 9.5289 -1.2132
# 5 3.1526 -12.4524 3.8845 9.5289 47.4237 -4.1704
# 6 24.6423 15.1975 4.4090 -1.2132 -4.1704 32.0906
#
#
#
# Elastic Compliance Matrix: (Units=1/GPa)
#
#
# Indices 1 2 3 4 5 6 
#
# 1 0.020740 0.001650 -0.009348 -0.004343 -0.000686 -0.015676
# 2 0.001650 0.013825 -0.006235 0.002343 0.002991 -0.006480
# 3 -0.009348 -0.006235 0.019323 0.008349 -0.003632 0.007319
# 4 -0.004343 0.002343 0.008349 0.027401 -0.005159 0.001444
# 5 -0.000686 0.002991 -0.003632 -0.005159 0.023468 0.002464
# 6 -0.015676 -0.006480 0.007319 0.001444 0.002464 0.045638
#
#
# Mechanical properties :
#
#
# Convention : Reuss Voigt Hill
#
# Bulk Modulus (GPa) = 38.42741 52.90384 45.66563
# Shear Modulus (GPa) = 26.74741 37.61041 32.17891
#
# Velocity S-wave (km/s) = 3.52579 4.18089 3.86724
# Velocity P-wave (km/s) = 5.86809 6.92056 6.41594
#
# Compressibility (1/GPa) = 0.02602309
#
# Stress axis : x y z
#
# Youngs Moduli (GPa) = 48.21667 72.33138 51.75134
#
# Poissons Ratio (x) = -0.11933 0.48376
# Poissons Ratio (y) = -0.07955 0.32264
# Poissons Ratio (z) = 0.45072 0.45095
#
# Static dielectric constant tensor:
#      x y z
#    x 1.797500 -0.063530 -0.025050 
#    y -0.063530 1.752180 -0.009650 
#    z -0.025050 -0.009650 1.795610 
# 
# From -- ./inp_files/570688.got.cif
#   From: 2010.05.17/outbox.cif.g08.bks.cpg/sg2_286_cif.got.tgz:570688.got - 2010.06.03 11:33:40.
