data_PCOD9069008
_publ_section_title
;
Structure prediction by ZEFSAII (Michael W. Deem and Ramdas Pophale) SiO2 
 PCOD9069008
Probable space group: P -1
;
_chemical_formula_sum "Si O2"
_cell_formula_units_Z 16
_cell_length_a 24.368562
_cell_length_b 11.334354
_cell_length_c 24.481324
_cell_angle_alpha 32.163711
_cell_angle_beta 12.185539
_cell_angle_gamma 32.181798
_cell_volume 748.960129
_symmetry_space_group_name_H-M "P -1"
_symmetry_group_IT_number 2
_symmetry_cell_setting 'triclinic'
loop_
_space_group_symop_operation_xyz
x,y,z
-x,-y,-z
loop_
_atom_site_type_symbol
_atom_site_label
_atom_site_fract_x
_atom_site_fract_y
_atom_site_fract_z
Si Si1 0.336280 0.272387 0.835438
Si Si2 0.444231 0.216012 0.931039
Si Si3 0.378989 0.108425 0.741369
Si Si4 0.928452 0.816068 0.301910
Si Si5 0.809284 0.526084 0.305179
Si Si6 0.989963 0.400905 0.487949
Si Si7 0.555799 0.098734 0.045798
Si Si8 0.114915 0.485513 0.635062
O O1 0.317122 0.274140 0.788217
O O2 0.600778 0.359263 0.562780
O O3 0.359548 0.013598 0.934224
O O4 0.085082 0.420231 0.050253
O O5 0.679649 0.357223 0.645707
O O6 0.412272 0.111912 0.943464
O O7 0.177319 0.377221 0.143594
O O8 0.500000 0.000000 0.000000
O O9 0.306363 0.245294 0.703013
O O10 0.685182 0.998864 0.487643
O O11 0.194354 0.919809 0.000003
O O12 0.961956 0.600786 0.393287
O O13 0.855629 0.733615 0.345236
O O14 0.845138 0.557635 0.322424
O O15 0.000000 0.500000 0.500000
O O16 0.258048 0.226658 0.285492
O O17 0.745672 0.267745 0.775883
#
# Coordination Sequence:
#
# PCOD9069008 Si02
#       8
#     2   2   2   2   2   2   2   2
#     4  12  23  44  68 101 133 164 226 281 332 394
#     4  12  23  41  65  97 129 172 218 264 330 388
#     4  12  26  44  69  95 129 182 223 274 332 389
#     4  12  26  45  64  96 136 175 226 267 328 401
#     4  12  24  44  69  99 132 171 221 282 335 382
#     4  12  24  41  62  94 131 174 216 261 320 392
#     4  12  22  39  66  93 126 168 210 264 333 380
#     4  12  24  44  65  97 137 169 217 278 325 393
#
# _framework density 21.362953000000001
#
# number of rings (size 3 to 8) (size 9 to 14) (size 15 to 20)
#    0.000    0.000    2.500    9.000    0.000    1.000 
#    0.000    0.000    0.000    0.000    0.000    0.000 
#    0.000    0.000    0.000    0.000    0.000    0.000 
#
# Total GULP energy -89668.673443 kJ/mol
# GULP energy per Si atom -5604.292090 kJ/mol
# Density = 2.131433 g / cm^3
# Si number density = 21.362953 Si / 1000 Ang^3
#
#
#
# Elastic Constant Matrix: (Units=GPa)
#
#
# Indices 1 2 3 4 5 6 
#
# 1 246.6117 -101.0485 -42.6856 -79.2255 37.4259 80.5601
# 2 -101.0485 105.4659 19.1206 55.3072 0.2957 -58.1253
# 3 -42.6856 19.1206 86.2668 27.7306 3.9346 -16.0303
# 4 -79.2255 55.3072 27.7306 72.7287 -3.7425 -33.0030
# 5 37.4259 0.2957 3.9346 -3.7425 40.7889 13.6524
# 6 80.5601 -58.1253 -16.0303 -33.0030 13.6524 94.5447
#
#
#
# Elastic Compliance Matrix: (Units=1/GPa)
#
#
# Indices 1 2 3 4 5 6 
#
# 1 0.010328 0.006223 0.002403 0.004340 -0.008757 -0.001787
# 2 0.006223 0.024706 0.002747 -0.009767 -0.009850 0.008365
# 3 0.002403 0.002747 0.014035 -0.004568 -0.004351 0.001054
# 4 0.004340 -0.009767 -0.004568 0.027212 -0.000679 -0.000880
# 5 -0.008757 -0.009850 -0.004351 -0.000679 0.034504 -0.004551
# 6 -0.001787 0.008365 0.001054 -0.000880 -0.004551 0.017772
#
#
# Mechanical properties :
#
#
# Convention : Reuss Voigt Hill
#
# Bulk Modulus (GPa) = 13.92464 21.01304 17.46884
# Shear Modulus (GPa) = 38.53606 79.14298 58.83952
#
# Velocity S-wave (km/s) = 4.25181 6.09321 5.25382
# Velocity P-wave (km/s) = 5.53499 7.70458 6.70808
#
# Compressibility (1/GPa) = 0.07181512
#
# Stress axis : x y z
#
# Youngs Moduli (GPa) = 96.82445 40.47578 71.25087
#
# Poissons Ratio (x) = -0.25189 -0.17123
# Poissons Ratio (y) = -0.60256 -0.19570
# Poissons Ratio (z) = -0.23269 -0.11117
#
# Static dielectric constant tensor:
#      x y z
#    x 1.834620 -0.011680 0.024730 
#    y -0.011680 1.745460 0.002630 
#    z 0.024730 0.002630 1.740360 
# 
# From -- ./inp_files/482650.got.cif
#   From: 2010.05.17/outbox.cif.g08.bks.cpg/sg2_242_cif.got.tgz:482650.got - 2010.06.03 11:33:40.
