data_PCOD9069025
_publ_section_title
;
Structure prediction by ZEFSAII (Michael W. Deem and Ramdas Pophale) SiO2 
 PCOD9069025
Probable space group: P -1
;
_chemical_formula_sum "Si O2"
_cell_formula_units_Z 12
_cell_length_a 5.779452
_cell_length_b 8.197118
_cell_length_c 13.577014
_cell_angle_alpha 110.319803
_cell_angle_beta 74.198967
_cell_angle_gamma 119.902993
_cell_volume 518.974433
_symmetry_space_group_name_H-M "P -1"
_symmetry_group_IT_number 2
_symmetry_cell_setting 'triclinic'
loop_
_space_group_symop_operation_xyz
x,y,z
-x,-y,-z
loop_
_atom_site_type_symbol
_atom_site_label
_atom_site_fract_x
_atom_site_fract_y
_atom_site_fract_z
Si Si1 0.301939 0.524687 0.947346
Si Si2 0.988889 0.800811 0.237468
Si Si3 0.137644 0.524596 0.301685
Si Si4 0.549768 0.347765 0.398200
Si Si5 0.391722 0.155339 0.556932
Si Si6 0.678713 0.790928 0.816650
O O1 0.472953 0.733176 0.918892
O O2 0.839095 0.660429 0.788427
O O3 0.500000 0.500000 0.000000
O O4 0.000000 0.500000 0.000000
O O5 0.853985 0.879324 0.351807
O O6 0.758523 0.643051 0.162193
O O7 0.114883 0.674527 0.255008
O O8 0.371630 0.656019 0.377701
O O9 0.477997 0.309504 0.285693
O O10 0.867342 0.421051 0.376084
O O11 0.500000 0.500000 0.500000
O O12 0.349965 0.169123 0.448373
O O13 0.166458 0.982857 0.184064
O O14 0.500000 0.000000 0.500000
#
# Coordination Sequence:
#
# PCOD9069025 Si02
#       6
#     2   2   2   2   2   2
#     4  12  28  56  85 111 152 201 263 342 407 462
#     4  12  27  48  75 113 152 194 260 316 382 474
#     4  12  22  45  69 102 164 200 250 313 371 451
#     4  12  22  40  67 102 152 203 247 298 370 450
#     4  12  25  40  69 112 151 207 249 301 378 464
#     4  12  27  47  76 110 148 202 254 319 393 462
#
# _framework density 23.122525
#
# number of rings (size 3 to 8) (size 9 to 14) (size 15 to 20)
#    0.000    0.000    6.667    3.500    2.333    2.667 
#    0.000    0.000    0.000    0.000    0.000    0.000 
#    0.000    0.000    0.000    0.000    0.000    0.000 
#
# Total GULP energy -66849.310862 kJ/mol
# GULP energy per Si atom -5570.775905 kJ/mol
# Density = 2.306990 g / cm^3
# Si number density = 23.122525 Si / 1000 Ang^3
#
#
#
# Elastic Constant Matrix: (Units=GPa)
#
#
# Indices 1 2 3 4 5 6 
#
# 1 97.5584 32.6095 55.2455 -12.0337 11.8056 3.2288
# 2 32.6095 124.9064 46.2209 -26.6989 3.4580 -2.3840
# 3 55.2455 46.2209 84.8118 -37.4457 -4.5993 -1.8699
# 4 -12.0337 -26.6989 -37.4457 48.1731 1.7139 -0.0733
# 5 11.8056 3.4580 -4.5993 1.7139 56.2313 -0.4744
# 6 3.2288 -2.3840 -1.8699 -0.0733 -0.4744 43.5796
#
#
#
# Elastic Compliance Matrix: (Units=1/GPa)
#
#
# Indices 1 2 3 4 5 6 
#
# 1 0.019204 -0.000698 -0.015876 -0.007753 -0.005070 -0.002210
# 2 -0.000698 0.010251 -0.004149 0.002314 -0.000890 0.000429
# 3 -0.015876 -0.004149 0.033350 0.019458 0.005744 0.002475
# 4 -0.007753 0.002314 0.019458 0.035160 0.002019 0.001617
# 5 -0.005070 -0.000890 0.005744 0.002019 0.019318 0.000787
# 6 -0.002210 0.000429 0.002475 0.001617 0.000787 0.023251
#
#
# Mechanical properties :
#
#
# Convention : Reuss Voigt Hill
#
# Bulk Modulus (GPa) = 46.81669 63.93646 55.37658
# Shear Modulus (GPa) = 26.44126 41.14353 33.79239
#
# Velocity S-wave (km/s) = 3.38528 4.22283 3.82704
# Velocity P-wave (km/s) = 5.96417 7.17549 6.59769
#
# Compressibility (1/GPa) = 0.02135990
#
# Stress axis : x y z
#
# Youngs Moduli (GPa) = 52.07273 97.55114 29.98509
#
# Poissons Ratio (x) = 0.06809 0.47603
# Poissons Ratio (y) = 0.03635 0.12441
# Poissons Ratio (z) = 0.82668 0.40474
#
# Static dielectric constant tensor:
#      x y z
#    x 1.869360 0.096680 0.026810 
#    y 0.096680 1.780420 -0.117750 
#    z 0.026810 -0.117750 1.825980 
# 
# From -- ./inp_files/103739.got.cif
#   From: 2010.05.17/outbox.cif.g08.bks.cpg/sg2_52_cif.got.tgz:103739.got - 2010.06.03 11:33:40.
