data_PCOD9069251
_publ_section_title
;
Structure prediction by ZEFSAII (Michael W. Deem and Ramdas Pophale) SiO2 
 PCOD9069251
Probable space group: P -1
;
_chemical_formula_sum "Si O2"
_cell_formula_units_Z 14
_cell_length_a 15.718091
_cell_length_b 15.662093
_cell_length_c 8.600569
_cell_angle_alpha 137.594597
_cell_angle_beta 134.691650
_cell_angle_gamma 25.342835
_cell_volume 606.397943
_symmetry_space_group_name_H-M "P -1"
_symmetry_group_IT_number 2
_symmetry_cell_setting 'triclinic'
loop_
_space_group_symop_operation_xyz
x,y,z
-x,-y,-z
loop_
_atom_site_type_symbol
_atom_site_label
_atom_site_fract_x
_atom_site_fract_y
_atom_site_fract_z
Si Si1 0.541776 0.817388 0.292656
Si Si2 0.500000 0.500000 0.500000
Si Si3 0.816898 0.451570 0.919430
Si Si4 0.734496 0.575985 0.539214
Si Si5 0.355593 0.823500 0.556925
Si Si6 0.822638 0.998138 0.088140
Si Si7 0.039513 0.877965 0.737550
Si Si8 0.000000 0.500000 0.000000
O O1 0.650041 0.675198 0.393482
O O2 0.500000 0.000000 0.500000
O O3 0.685740 0.665892 0.129362
O O4 0.332195 0.925551 0.131978
O O5 0.664275 0.476117 0.692894
O O6 0.424592 0.620313 0.394478
O O7 0.929852 0.424825 0.888502
O O8 0.974274 0.251507 0.968303
O O9 0.538952 0.750444 0.633896
O O10 0.828220 0.355911 0.367386
O O11 0.893076 0.545100 0.758870
O O12 0.278395 0.919995 0.761259
O O13 0.170994 0.988657 0.424676
O O14 0.861671 0.111627 0.249553
O O15 0.000000 0.000000 0.000000
#
# Coordination Sequence:
#
# PCOD9069251 Si02
#       8
#     2   1   2   2   2   2   2   1
#     4  12  29  50  72 104 151 204 246 302 376 451
#     4  12  22  48  80 110 152 194 248 318 368 434
#     4  12  27  49  78 112 151 194 252 310 371 445
#     4  12  28  49  74 109 154 190 251 314 367 446
#     4  12  25  44  75 113 148 189 245 306 376 439
#     4  12  25  45  77 109 146 197 249 308 379 446
#     4  12  27  44  73 114 150 195 245 312 382 442
#     4  12  26  48  76 104 144 202 244 302 362 436
#
# _framework density 23.087149
#
# number of rings (size 3 to 8) (size 9 to 14) (size 15 to 20)
#    0.000    0.000    4.286    4.714    0.000    6.857 
#    0.000    5.000    0.000    0.000    0.000    0.000 
#    0.000    0.000    0.000    0.000    0.000    0.000 
#
# Total GULP energy -77951.010612 kJ/mol
# GULP energy per Si atom -5567.929329 kJ/mol
# Density = 2.303460 g / cm^3
# Si number density = 23.087149 Si / 1000 Ang^3
#
#
#
# Elastic Constant Matrix: (Units=GPa)
#
#
# Indices 1 2 3 4 5 6 
#
# 1 59.9485 27.4213 41.6449 9.2453 5.4863 16.0644
# 2 27.4213 164.9755 66.6219 -13.2972 6.3183 19.5774
# 3 41.6449 66.6219 137.6105 -20.3645 5.7247 -11.2933
# 4 9.2453 -13.2972 -20.3645 42.3911 1.8519 -8.3509
# 5 5.4863 6.3183 5.7247 1.8519 46.7214 -3.1106
# 6 16.0644 19.5774 -11.2933 -8.3509 -3.1106 33.9282
#
#
#
# Elastic Compliance Matrix: (Units=1/GPa)
#
#
# Indices 1 2 3 4 5 6 
#
# 1 0.045504 0.004225 -0.022782 -0.026950 -0.004627 -0.038624
# 2 0.004225 0.009272 -0.007098 -0.003467 -0.001455 -0.010700
# 3 -0.022782 -0.007098 0.022538 0.018843 0.001938 0.027200
# 4 -0.026950 -0.003467 0.018843 0.043648 0.001721 0.031934
# 5 -0.004627 -0.001455 0.001938 0.001721 0.022247 0.006138
# 6 -0.038624 -0.010700 0.027200 0.031934 0.006138 0.071412
#
#
# Mechanical properties :
#
#
# Convention : Reuss Voigt Hill
#
# Bulk Modulus (GPa) = 38.45577 70.43452 54.44515
# Shear Modulus (GPa) = 18.20844 39.73125 28.96984
#
# Velocity S-wave (km/s) = 2.81140 4.15290 3.54616
# Velocity P-wave (km/s) = 5.21839 7.31914 6.35615
#
# Compressibility (1/GPa) = 0.02600390
#
# Stress axis : x y z
#
# Youngs Moduli (GPa) = 21.97602 107.85583 44.36989
#
# Poissons Ratio (x) = -0.45569 1.01083
# Poissons Ratio (y) = -0.09285 0.31494
# Poissons Ratio (z) = 0.50065 0.76556
#
# Static dielectric constant tensor:
#      x y z
#    x 1.889640 -0.066460 -0.051380 
#    y -0.066460 2.019190 0.056020 
#    z -0.051380 0.056020 1.848100 
# 
# From -- ./inp_files/316116.got.cif
#   From: 2010.05.17/outbox.cif.g08.bks.cpg/sg2_159_cif.got.tgz:316116.got - 2010.06.03 11:33:40.
