data_PCOD9069885
_publ_section_title
;
Structure prediction by ZEFSAII (Michael W. Deem and Ramdas Pophale) SiO2 
 PCOD9069885
Probable space group: P -1
;
_chemical_formula_sum "Si O2"
_cell_formula_units_Z 15
_cell_length_a 11.798343
_cell_length_b 17.976712
_cell_length_c 9.319161
_cell_angle_alpha 128.786291
_cell_angle_beta 117.147154
_cell_angle_gamma 28.945502
_cell_volume 723.206013
_symmetry_space_group_name_H-M "P -1"
_symmetry_group_IT_number 2
_symmetry_cell_setting 'triclinic'
loop_
_space_group_symop_operation_xyz
x,y,z
-x,-y,-z
loop_
_atom_site_type_symbol
_atom_site_label
_atom_site_fract_x
_atom_site_fract_y
_atom_site_fract_z
Si Si1 0.443926 0.469747 0.291373
Si Si2 0.642642 0.628874 0.667364
Si Si3 0.836704 0.038242 0.353969
Si Si4 0.097172 0.190969 0.713314
Si Si5 0.500000 0.000000 0.500000
Si Si6 0.749193 0.784667 0.911769
Si Si7 0.107133 0.235036 0.328110
Si Si8 0.052967 0.869298 0.960501
O O1 0.500000 0.500000 0.500000
O O2 0.434986 0.366964 0.221418
O O3 0.665185 0.335696 0.147284
O O4 0.179877 0.657178 0.302071
O O5 0.693415 0.708549 0.799158
O O6 0.878960 0.422860 0.505830
O O7 0.420858 0.753072 0.581731
O O8 0.796946 0.966074 0.329399
O O9 0.000000 0.000000 0.500000
O O10 0.972361 0.933478 0.155334
O O11 0.248495 0.119332 0.572850
O O12 0.120560 0.262990 0.926165
O O13 0.643982 0.894788 0.609184
O O14 0.903526 0.713427 0.775127
O O15 0.500000 0.000000 0.000000
O O16 0.090818 0.130879 0.182286
O O17 0.000000 0.000000 0.000000
#
# Coordination Sequence:
#
# PCOD9069885 Si02
#       8
#     2   2   2   2   1   2   2   2
#     4  12  25  47  74 108 148 185 245 304 359 434
#     4  12  24  46  73 103 145 192 234 305 357 431
#     4  12  27  46  74 107 144 192 246 300 369 433
#     4  12  26  46  73 104 145 189 237 304 358 431
#     4  12  24  42  74 104 140 192 236 288 364 426
#     4  12  24  47  70 103 147 187 242 297 364 425
#     4  12  25  47  73 104 146 192 242 299 364 437
#     4  12  26  46  77 103 143 196 236 298 373 428
#
# _framework density 20.740978999999999
#
# number of rings (size 3 to 8) (size 9 to 14) (size 15 to 20)
#    0.000    0.000    8.000    1.200    1.867    2.133 
#    2.400    0.000    0.000    0.000    0.000    0.000 
#    0.000    0.000    0.000    0.000    0.000    0.000 
#
# Total GULP energy -83676.100833 kJ/mol
# GULP energy per Si atom -5578.406722 kJ/mol
# Density = 2.069377 g / cm^3
# Si number density = 20.740979 Si / 1000 Ang^3
#
#
#
# Elastic Constant Matrix: (Units=GPa)
#
#
# Indices 1 2 3 4 5 6 
#
# 1 97.0571 6.8724 25.3595 4.3181 -3.9583 7.9834
# 2 6.8724 119.2925 30.9231 -4.8028 2.4879 -22.6388
# 3 25.3595 30.9231 92.3904 -6.2999 6.4308 -10.2316
# 4 4.3181 -4.8028 -6.2999 29.0208 -3.3216 -0.8447
# 5 -3.9583 2.4879 6.4308 -3.3216 46.0216 2.5502
# 6 7.9834 -22.6388 -10.2316 -0.8447 2.5502 47.6904
#
#
#
# Elastic Compliance Matrix: (Units=1/GPa)
#
#
# Indices 1 2 3 4 5 6 
#
# 1 0.011729 -0.000439 -0.003695 -0.002534 0.001537 -0.003092
# 2 -0.000439 0.009958 -0.002631 0.001226 -0.000357 0.004277
# 3 -0.003695 -0.002631 0.013313 0.002849 -0.001962 0.002381
# 4 -0.002534 0.001226 0.002849 0.035924 0.001791 0.002158
# 5 0.001537 -0.000357 -0.001962 0.001791 0.022395 -0.002014
# 6 -0.003092 0.004277 0.002381 0.002158 -0.002014 0.024173
#
#
# Mechanical properties :
#
#
# Convention : Reuss Voigt Hill
#
# Bulk Modulus (GPa) = 46.57134 48.33888 47.45511
# Shear Modulus (GPa) = 36.18486 40.91890 38.55188
#
# Velocity S-wave (km/s) = 4.18138 4.44650 4.31598
# Velocity P-wave (km/s) = 6.76864 7.05113 6.91133
#
# Compressibility (1/GPa) = 0.02147244
#
# Stress axis : x y z
#
# Youngs Moduli (GPa) = 85.25586 100.41744 75.11561
#
# Poissons Ratio (x) = 0.04406 0.27754
# Poissons Ratio (y) = 0.03740 0.19760
# Poissons Ratio (z) = 0.31501 0.26415
#
# Static dielectric constant tensor:
#      x y z
#    x 1.788580 -0.015920 0.017940 
#    y -0.015920 1.720630 0.007030 
#    z 0.017940 0.007030 1.759070 
# 
# From -- ./inp_files/181794.got.cif
#   From: 2010.05.17/outbox.cif.g08.bks.cpg/sg2_91_cif.got.tgz:181794.got - 2010.06.03 11:33:40.
