data_PCOD9069227
_publ_section_title
;
Structure prediction by ZEFSAII (Michael W. Deem and Ramdas Pophale) SiO2 
 PCOD9069227
Probable space group: P -1
;
_chemical_formula_sum "Si O2"
_cell_formula_units_Z 16
_cell_length_a 13.339838
_cell_length_b 10.788947
_cell_length_c 12.728145
_cell_angle_alpha 146.186792
_cell_angle_beta 135.518988
_cell_angle_gamma 66.847966
_cell_volume 613.559611
_symmetry_space_group_name_H-M "P -1"
_symmetry_group_IT_number 2
_symmetry_cell_setting 'triclinic'
loop_
_space_group_symop_operation_xyz
x,y,z
-x,-y,-z
loop_
_atom_site_type_symbol
_atom_site_label
_atom_site_fract_x
_atom_site_fract_y
_atom_site_fract_z
Si Si1 0.409244 0.434225 0.134990
Si Si2 0.985937 0.253603 0.369619
Si Si3 0.593580 0.080018 0.235950
Si Si4 0.643940 0.924628 0.774533
Si Si5 0.935198 0.785544 0.207941
Si Si6 0.966648 0.454583 0.720710
Si Si7 0.159695 0.976920 0.301352
Si Si8 0.537999 0.283275 0.829358
O O1 0.578960 0.668226 0.474578
O O2 0.370757 0.571746 0.107522
O O3 0.259073 0.317975 0.024912
O O4 0.409474 0.181761 0.914823
O O5 0.974044 0.298259 0.516210
O O6 0.000000 0.500000 0.500000
O O7 0.143407 0.226137 0.441164
O O8 0.817329 0.018962 0.029030
O O9 0.495229 0.149443 0.292900
O O10 0.776230 0.315527 0.515636
O O11 0.500000 0.000000 0.000000
O O12 0.634111 0.157678 0.870183
O O13 0.945408 0.561722 0.119052
O O14 0.052507 0.884010 0.264250
O O15 0.000000 0.000000 0.500000
O O16 0.058835 0.759883 0.985435
O O17 0.348404 0.049282 0.503638
O O18 0.500000 0.500000 0.000000
#
# Coordination Sequence:
#
# PCOD9069227 Si02
#       8
#     2   2   2   2   2   2   2   2
#     4  12  27  45  77 106 141 188 240 297 356 424
#     4  12  29  46  70 104 150 192 230 295 358 429
#     4  12  25  45  69 104 145 188 229 291 357 420
#     4  12  27  46  72 107 143 186 242 291 358 428
#     4  12  22  46  76 104 141 183 238 296 353 415
#     4  12  26  47  75 105 143 186 243 291 356 427
#     4  12  27  48  77 107 141 192 240 295 356 427
#     4  12  25  49  78 104 145 186 241 302 357 417
#
# _framework density 26.077335999999999
#
# number of rings (size 3 to 8) (size 9 to 14) (size 15 to 20)
#    0.000    0.000    5.000    4.500    5.250    1.000 
#    0.000    0.000    0.000    0.000    0.000    0.000 
#    0.000    0.000    0.000    0.000    0.000    0.000 
#
# Total GULP energy -89655.524570 kJ/mol
# GULP energy per Si atom -5603.470286 kJ/mol
# Density = 2.601798 g / cm^3
# Si number density = 26.077336 Si / 1000 Ang^3
#
#
#
# Elastic Constant Matrix: (Units=GPa)
#
#
# Indices 1 2 3 4 5 6 
#
# 1 91.4064 11.1135 12.3056 -7.6062 10.3248 1.2360
# 2 11.1135 72.8953 1.9912 -3.2709 1.4998 -0.6253
# 3 12.3056 1.9912 122.5860 -3.8434 -3.2223 -6.3189
# 4 -7.6062 -3.2709 -3.8434 34.3516 -5.6698 2.6008
# 5 10.3248 1.4998 -3.2223 -5.6698 38.6343 0.4324
# 6 1.2360 -0.6253 -6.3189 2.6008 0.4324 36.7684
#
#
#
# Elastic Compliance Matrix: (Units=1/GPa)
#
#
# Indices 1 2 3 4 5 6 
#
# 1 0.011797 -0.001627 -0.001212 0.001898 -0.002904 -0.000733
# 2 -0.001627 0.014011 -0.000022 0.000959 0.000027 0.000221
# 3 -0.001212 -0.000022 0.008406 0.000747 0.001120 0.001419
# 4 0.001898 0.000959 0.000747 0.030531 0.004022 -0.002126
# 5 -0.002904 0.000027 0.001120 0.004022 0.027346 -0.000316
# 6 -0.000733 0.000221 0.001419 -0.002126 -0.000316 0.027624
#
#
# Mechanical properties :
#
#
# Convention : Reuss Voigt Hill
#
# Bulk Modulus (GPa) = 35.09848 37.52316 36.31082
# Shear Modulus (GPa) = 37.05519 39.38269 38.21894
#
# Velocity S-wave (km/s) = 3.77367 3.89038 3.83247
# Velocity P-wave (km/s) = 5.69878 5.88222 5.79122
#
# Compressibility (1/GPa) = 0.02849127
#
# Stress axis : x y z
#
# Youngs Moduli (GPa) = 84.76730 71.37095 118.96821
#
# Poissons Ratio (x) = 0.11611 0.14424
# Poissons Ratio (y) = 0.13790 0.00263
# Poissons Ratio (z) = 0.10277 0.00158
#
# Static dielectric constant tensor:
#      x y z
#    x 1.973890 -0.093290 -0.039470 
#    y -0.093290 2.080830 0.140640 
#    z -0.039470 0.140640 2.107610 
# 
# From -- ./inp_files/455849.got.cif
#   From: 2010.05.17/outbox.cif.g08.bks.cpg/sg2_228_cif.got.tgz:455849.got - 2010.06.03 11:33:40.
