data_PCOD9069059
_publ_section_title
;
Structure prediction by ZEFSAII (Michael W. Deem and Ramdas Pophale) SiO2 
 PCOD9069059
Probable space group: P -1
;
_chemical_formula_sum "Si O2"
_cell_formula_units_Z 15
_cell_length_a 18.262258
_cell_length_b 8.413377
_cell_length_c 9.884360
_cell_angle_alpha 132.217673
_cell_angle_beta 122.888975
_cell_angle_gamma 36.086440
_cell_volume 662.482804
_symmetry_space_group_name_H-M "P -1"
_symmetry_group_IT_number 2
_symmetry_cell_setting 'triclinic'
loop_
_space_group_symop_operation_xyz
x,y,z
-x,-y,-z
loop_
_atom_site_type_symbol
_atom_site_label
_atom_site_fract_x
_atom_site_fract_y
_atom_site_fract_z
Si Si1 0.720461 0.163705 0.849182
Si Si2 0.057517 0.921601 0.364831
Si Si3 0.617613 0.694785 0.370697
Si Si4 0.855796 0.684741 0.957324
Si Si5 0.500000 0.500000 0.000000
Si Si6 0.250525 0.880479 0.643930
Si Si7 0.888674 0.257605 0.135431
Si Si8 0.736544 0.884768 0.436439
O O1 0.788971 0.904152 0.886266
O O2 0.759997 0.003962 0.652003
O O3 0.575632 0.375609 0.855560
O O4 0.775007 0.306232 0.004348
O O5 0.143943 0.571433 0.205845
O O6 0.137208 0.996800 0.502194
O O7 0.000000 0.000000 0.500000
O O8 0.943592 0.114672 0.257043
O O9 0.572872 0.587096 0.165065
O O10 0.699337 0.424456 0.409574
O O11 0.679022 0.778947 0.394996
O O12 0.500000 0.000000 0.500000
O O13 0.000000 0.500000 0.000000
O O14 0.788868 0.897955 0.144102
O O15 0.334579 0.862964 0.610658
O O16 0.848189 0.574985 0.286926
O O17 0.000000 0.000000 0.000000
#
# Coordination Sequence:
#
# PCOD9069059 Si02
#       8
#     2   2   2   2   1   2   2   2
#     4  12  24  45  72 106 145 197 249 299 374 434
#     4  12  23  39  66 101 144 195 239 290 355 432
#     4  12  26  52  77 102 143 194 247 313 374 433
#     4  12  22  41  69 103 149 198 240 302 367 438
#     4  12  24  48  78 102 138 198 246 306 370 444
#     4  12  27  46  71 111 145 187 257 299 370 451
#     4  12  25  42  64 103 155 190 234 295 362 437
#     4  12  27  45  75 108 147 192 244 307 370 437
#
# _framework density 22.642098000000001
#
# number of rings (size 3 to 8) (size 9 to 14) (size 15 to 20)
#    0.000    0.000    6.667    4.000    0.000    1.600 
#    0.000    0.667    0.000    0.000    0.000    0.000 
#    0.000    0.000    0.000    0.000    0.000    0.000 
#
# Total GULP energy -83560.240839 kJ/mol
# GULP energy per Si atom -5570.682723 kJ/mol
# Density = 2.259056 g / cm^3
# Si number density = 22.642098 Si / 1000 Ang^3
#
#
#
# Elastic Constant Matrix: (Units=GPa)
#
#
# Indices 1 2 3 4 5 6 
#
# 1 111.3778 41.9671 62.7836 0.3536 -19.0996 20.1733
# 2 41.9671 39.8102 32.6238 9.8701 -11.0093 17.5629
# 3 62.7836 32.6238 163.9600 -0.1576 5.3125 3.4268
# 4 0.3536 9.8701 -0.1576 31.7330 6.5133 -10.2385
# 5 -19.0996 -11.0093 5.3125 6.5133 49.2648 4.2330
# 6 20.1733 17.5629 3.4268 -10.2385 4.2330 31.7122
#
#
#
# Elastic Compliance Matrix: (Units=1/GPa)
#
#
# Indices 1 2 3 4 5 6 
#
# 1 0.017588 -0.011746 -0.004462 0.000952 0.004941 -0.004553
# 2 -0.011746 0.123810 -0.019737 -0.076100 0.042974 -0.089269
# 3 -0.004462 -0.019737 0.011713 0.014504 -0.010923 0.018644
# 4 0.000952 -0.076100 0.014504 0.085988 -0.035800 0.072513
# 5 0.004941 0.042974 -0.010923 -0.035800 0.041410 -0.042848
# 6 -0.004553 -0.089269 0.018644 0.072513 -0.042848 0.110986
#
#
# Mechanical properties :
#
#
# Convention : Reuss Voigt Hill
#
# Bulk Modulus (GPa) = 12.31198 65.54413 38.92806
# Shear Modulus (GPa) = 10.19453 34.39356 22.29404
#
# Velocity S-wave (km/s) = 2.12420 3.90168 3.14128
# Velocity P-wave (km/s) = 3.38612 7.02198 5.51244
#
# Compressibility (1/GPa) = 0.08122170
#
# Stress axis : x y z
#
# Youngs Moduli (GPa) = 56.85576 8.07689 85.37571
#
# Poissons Ratio (x) = 0.09487 0.38093
# Poissons Ratio (y) = 0.66782 1.68507
# Poissons Ratio (z) = 0.25368 0.15941
#
# Static dielectric constant tensor:
#      x y z
#    x 1.982970 0.035730 -0.013910 
#    y 0.035730 1.948010 0.014210 
#    z -0.013910 0.014210 1.815390 
# 
# From -- ./inp_files/328099.got.cif
#   From: 2010.05.17/outbox.cif.g08.bks.cpg/sg2_165_cif.got.tgz:328099.got - 2010.06.03 11:33:40.
