data_PCOD9069603
_publ_section_title
;
Structure prediction by ZEFSAII (Michael W. Deem and Ramdas Pophale) SiO2 
 PCOD9069603
Probable space group: P -1
;
_chemical_formula_sum "Si O2"
_cell_formula_units_Z 13
_cell_length_a 12.627501
_cell_length_b 11.341273
_cell_length_c 10.692163
_cell_angle_alpha 39.063381
_cell_angle_beta 135.093081
_cell_angle_gamma 109.681699
_cell_volume 597.958615
_symmetry_space_group_name_H-M "P -1"
_symmetry_group_IT_number 2
_symmetry_cell_setting 'triclinic'
loop_
_space_group_symop_operation_xyz
x,y,z
-x,-y,-z
loop_
_atom_site_type_symbol
_atom_site_label
_atom_site_fract_x
_atom_site_fract_y
_atom_site_fract_z
Si Si1 0.163656 0.770663 0.796166
Si Si2 0.000000 0.500000 0.000000
Si Si3 0.189668 0.307120 0.811984
Si Si4 0.307155 0.833000 0.281300
Si Si5 0.614403 0.545436 0.960361
Si Si6 0.798914 0.497897 0.595356
Si Si7 0.545770 0.186296 0.852836
O O1 0.116015 0.609324 0.961435
O O2 0.233494 0.664843 0.805273
O O3 0.318833 0.802779 0.950392
O O4 0.000000 0.000000 0.500000
O O5 0.948167 0.484234 0.820096
O O6 0.243066 0.340698 0.689356
O O7 0.000000 0.500000 0.500000
O O8 0.302091 0.338287 0.986511
O O9 0.204235 0.077838 0.033493
O O10 0.476269 0.694566 0.619300
O O11 0.189448 0.718868 0.269567
O O12 0.377174 0.840003 0.197274
O O13 0.500000 0.500000 0.000000
O O14 0.628946 0.598056 0.454917
O O15 0.500000 0.000000 0.000000
#
# Coordination Sequence:
#
# PCOD9069603 Si02
#       7
#     2   1   2   2   2   2   2
#     4  12  27  48  76 115 156 196 261 332 389 458
#     4  12  26  44  74 116 156 202 254 332 396 456
#     4  12  28  48  73 109 154 202 257 315 391 469
#     4  12  25  48  78 106 151 203 252 322 383 458
#     4  12  26  52  78 112 155 208 265 314 388 483
#     4  12  24  48  72 113 151 199 261 319 388 471
#     4  12  23  45  78 108 148 198 258 324 390 460
#
# _framework density 21.740635000000001
#
# number of rings (size 3 to 8) (size 9 to 14) (size 15 to 20)
#    0.000    0.000    6.154    3.692    2.154    0.615 
#    5.538    0.000    0.000    0.000    0.000    0.000 
#    0.000    0.000    0.000    0.000    0.000    0.000 
#
# Total GULP energy -72408.566145 kJ/mol
# GULP energy per Si atom -5569.889703 kJ/mol
# Density = 2.169115 g / cm^3
# Si number density = 21.740635 Si / 1000 Ang^3
#
#
#
# Elastic Constant Matrix: (Units=GPa)
#
#
# Indices 1 2 3 4 5 6 
#
# 1 71.2070 25.0938 4.0164 -17.4003 -2.6797 7.3902
# 2 25.0938 181.2695 78.6257 9.9617 -0.5006 30.2857
# 3 4.0164 78.6257 75.8262 -5.3996 11.0983 10.4154
# 4 -17.4003 9.9617 -5.3996 46.7050 -7.6322 4.7853
# 5 -2.6797 -0.5006 11.0983 -7.6322 36.1438 0.2259
# 6 7.3902 30.2857 10.4154 4.7853 0.2259 54.1083
#
#
#
# Elastic Compliance Matrix: (Units=1/GPa)
#
#
# Indices 1 2 3 4 5 6 
#
# 1 0.017693 -0.004544 0.004329 0.008493 0.001722 -0.001465
# 2 -0.004544 0.012819 -0.013353 -0.005138 0.002878 -0.003542
# 3 0.004329 -0.013353 0.028186 0.006455 -0.007162 0.000916
# 4 0.008493 -0.005138 0.006455 0.027331 0.004360 -0.001962
# 5 0.001722 0.002878 -0.007162 0.004360 0.030961 -0.000982
# 6 -0.001465 -0.003542 0.000916 -0.001962 -0.000982 0.020665
#
#
# Mechanical properties :
#
#
# Convention : Reuss Voigt Hill
#
# Bulk Modulus (GPa) = 31.68319 60.41941 46.05130
# Shear Modulus (GPa) = 28.52048 42.09587 35.30818
#
# Velocity S-wave (km/s) = 3.62588 4.40509 4.03434
# Velocity P-wave (km/s) = 5.66871 7.32969 6.55205
#
# Compressibility (1/GPa) = 0.03156247
#
# Stress axis : x y z
#
# Youngs Moduli (GPa) = 56.51990 78.00620 35.47807
#
# Poissons Ratio (x) = 0.35446 -0.15357
# Poissons Ratio (y) = 0.25683 0.47373
# Poissons Ratio (z) = -0.24465 1.04159
#
# Static dielectric constant tensor:
#      x y z
#    x 1.778310 -0.036670 0.022190 
#    y -0.036670 1.896670 -0.002250 
#    z 0.022190 -0.002250 1.821330 
# 
# From -- ./inp_files/190563.got.cif
#   From: 2010.05.17/outbox.cif.g08.bks.cpg/sg2_96_cif.got.tgz:190563.got - 2010.06.03 11:33:40.
