data_PCOD9069404
_publ_section_title
;
Structure prediction by ZEFSAII (Michael W. Deem and Ramdas Pophale) SiO2 
 PCOD9069404
Probable space group: P -1
;
_chemical_formula_sum "Si O2"
_cell_formula_units_Z 16
_cell_length_a 15.795328
_cell_length_b 6.799063
_cell_length_c 10.565791
_cell_angle_alpha 92.387106
_cell_angle_beta 44.462588
_cell_angle_gamma 75.762604
_cell_volume 729.899887
_symmetry_space_group_name_H-M "P -1"
_symmetry_group_IT_number 2
_symmetry_cell_setting 'triclinic'
loop_
_space_group_symop_operation_xyz
x,y,z
-x,-y,-z
loop_
_atom_site_type_symbol
_atom_site_label
_atom_site_fract_x
_atom_site_fract_y
_atom_site_fract_z
Si Si1 0.116237 0.959026 0.476269
Si Si2 0.396495 0.674184 0.526905
Si Si3 0.712298 0.808573 0.621876
Si Si4 0.649502 0.483015 0.840274
Si Si5 0.457961 0.191692 0.835466
Si Si6 0.198414 0.444901 0.723588
Si Si7 0.000327 0.873467 0.864201
Si Si8 0.721175 0.906936 0.168493
O O1 0.241177 0.753334 0.289333
O O2 0.074936 0.917206 0.663024
O O3 0.172241 0.145286 0.431371
O O4 0.000000 0.000000 0.500000
O O5 0.500000 0.500000 0.500000
O O6 0.466956 0.695569 0.325338
O O7 0.283180 0.589316 0.624962
O O8 0.345599 0.902172 0.656106
O O9 0.683493 0.609254 0.694885
O O10 0.756902 0.749295 0.428570
O O11 0.574791 0.013240 0.783438
O O12 0.500000 0.500000 0.000000
O O13 0.651163 0.625803 0.962959
O O14 0.385627 0.080861 0.821435
O O15 0.229778 0.324185 0.820825
O O16 0.058131 0.623421 0.838052
O O17 0.850259 0.936050 0.983437
O O18 0.000000 0.000000 0.000000
#
# Coordination Sequence:
#
# PCOD9069404 Si02
#       8
#     2   2   2   2   2   2   2   2
#     4  12  30  51  76 109 152 203 253 310 372 448
#     4  12  23  43  67 106 150 184 232 305 374 436
#     4  12  25  48  77 104 147 194 247 305 370 448
#     4  12  27  49  76 108 144 198 248 305 379 442
#     4  12  25  44  75 109 147 189 250 306 379 442
#     4  12  23  45  75 102 146 193 238 302 380 443
#     4  12  26  49  75 104 149 197 248 303 376 448
#     4  12  26  43  71 112 144 191 249 307 371 450
#
# _framework density 21.920814
#
# number of rings (size 3 to 8) (size 9 to 14) (size 15 to 20)
#    0.000    0.000    6.250    4.125    1.750    3.500 
#    0.000    0.000    0.000    0.000    0.000    0.000 
#    0.000    0.000    0.000    0.000    0.000    0.000 
#
# Total GULP energy -89463.761633 kJ/mol
# GULP energy per Si atom -5591.485102 kJ/mol
# Density = 2.187092 g / cm^3
# Si number density = 21.920814 Si / 1000 Ang^3
#
#
#
# Elastic Constant Matrix: (Units=GPa)
#
#
# Indices 1 2 3 4 5 6 
#
# 1 131.4316 27.3840 30.8266 -2.5118 -17.3482 18.1054
# 2 27.3840 66.3338 5.4700 10.7890 -8.1914 1.8755
# 3 30.8266 5.4700 81.2330 19.5710 -0.3512 1.7511
# 4 -2.5118 10.7890 19.5710 28.6313 9.4570 -3.4044
# 5 -17.3482 -8.1914 -0.3512 9.4570 37.9331 7.4004
# 6 18.1054 1.8755 1.7511 -3.4044 7.4004 30.8604
#
#
#
# Elastic Compliance Matrix: (Units=1/GPa)
#
#
# Indices 1 2 3 4 5 6 
#
# 1 0.011127 -0.003967 -0.004566 0.003227 0.004712 -0.006802
# 2 -0.003967 0.019094 0.003097 -0.011695 0.005572 -0.001635
# 3 -0.004566 0.003097 0.017296 -0.014268 0.002424 -0.000646
# 4 0.003227 -0.011695 -0.014268 0.056211 -0.017134 0.009937
# 5 0.004712 0.005572 0.002424 -0.017134 0.036734 -0.013940
# 6 -0.006802 -0.001635 -0.000646 0.009937 -0.013940 0.040969
#
#
# Mechanical properties :
#
#
# Convention : Reuss Voigt Hill
#
# Bulk Modulus (GPa) = 27.28933 45.15105 36.22019
# Shear Modulus (GPa) = 24.44761 33.83947 29.14354
#
# Velocity S-wave (km/s) = 3.34319 3.93328 3.65018
# Velocity P-wave (km/s) = 5.23246 6.42414 5.85868
#
# Compressibility (1/GPa) = 0.03664436
#
# Stress axis : x y z
#
# Youngs Moduli (GPa) = 89.87480 52.37187 57.81609
#
# Poissons Ratio (x) = 0.20778 0.26397
# Poissons Ratio (y) = 0.35658 -0.17904
# Poissons Ratio (z) = 0.41034 -0.16218
#
# Static dielectric constant tensor:
#      x y z
#    x 1.832250 0.006600 -0.003950 
#    y 0.006600 1.781050 -0.006190 
#    z -0.003950 -0.006190 1.865530 
# 
# From -- ./inp_files/441885.got.cif
#   From: 2010.05.17/outbox.cif.g08.bks.cpg/sg2_221_cif.got.tgz:441885.got - 2010.06.03 11:33:40.
