data_PCOD9069178
_publ_section_title
;
Structure prediction by ZEFSAII (Michael W. Deem and Ramdas Pophale) SiO2 
 PCOD9069178
Probable space group: P -1
;
_chemical_formula_sum "Si O2"
_cell_formula_units_Z 16
_cell_length_a 6.861915
_cell_length_b 22.150382
_cell_length_c 4.912890
_cell_angle_alpha 59.586831
_cell_angle_beta 68.763230
_cell_angle_gamma 65.629361
_cell_volume 575.313503
_symmetry_space_group_name_H-M "P -1"
_symmetry_group_IT_number 2
_symmetry_cell_setting 'triclinic'
loop_
_space_group_symop_operation_xyz
x,y,z
-x,-y,-z
loop_
_atom_site_type_symbol
_atom_site_label
_atom_site_fract_x
_atom_site_fract_y
_atom_site_fract_z
Si Si1 0.945916 0.465358 0.386911
Si Si2 0.190071 0.306729 0.503496
Si Si3 0.816054 0.848594 0.330594
Si Si4 0.306823 0.850332 0.831752
Si Si5 0.097623 0.916775 0.232734
Si Si6 0.542270 0.536267 0.615810
Si Si7 0.597761 0.915787 0.732748
Si Si8 0.469981 0.307155 0.862963
O O1 0.013305 0.376388 0.554715
O O2 0.173998 0.471649 0.447290
O O3 0.672240 0.477840 0.435215
O O4 0.000000 0.500000 0.000000
O O5 0.126775 0.237974 0.574136
O O6 0.360135 0.278390 0.727723
O O7 0.302967 0.336322 0.127441
O O8 0.579484 0.852413 0.635759
O O9 0.078699 0.855510 0.135549
O O10 0.698966 0.898036 0.023415
O O11 0.197059 0.900405 0.520200
O O12 0.349950 0.899316 0.973159
O O13 0.356544 0.763274 0.945030
O O14 0.848565 0.898309 0.479092
O O15 0.000000 0.000000 0.000000
O O16 0.463231 0.624279 0.440330
O O17 0.500000 0.500000 0.000000
O O18 0.500000 0.000000 0.500000
#
# Coordination Sequence:
#
# PCOD9069178 Si02
#       8
#     2   2   2   2   2   2   2   2
#     4  12  23  44  74 104 139 200 246 293 373 447
#     4  12  22  44  72 104 139 186 252 311 358 429
#     4  12  24  43  68 104 139 183 244 300 358 427
#     4  12  24  44  70 102 139 195 240 282 385 437
#     4  12  26  45  67 102 152 191 231 300 371 443
#     4  12  26  45  70 109 149 188 245 304 372 446
#     4  12  23  42  70 103 137 183 246 298 348 438
#     4  12  24  45  73 102 145 188 238 317 365 434
#
# _framework density 27.810921
#
# number of rings (size 3 to 8) (size 9 to 14) (size 15 to 20)
#    0.000    0.000    5.000    6.000    0.000    1.000 
#    0.000    2.500    0.000    0.000    0.000    0.000 
#    0.000    0.000    0.000    0.000    0.000    0.000 
#
# Total GULP energy -89598.641759 kJ/mol
# GULP energy per Si atom -5599.915110 kJ/mol
# Density = 2.774762 g / cm^3
# Si number density = 27.810921 Si / 1000 Ang^3
#
#
#
# Elastic Constant Matrix: (Units=GPa)
#
#
# Indices 1 2 3 4 5 6 
#
# 1 190.5078 30.0104 -10.7099 3.4812 -34.1346 15.8174
# 2 30.0104 124.9166 37.7144 9.5767 -9.8433 3.3555
# 3 -10.7099 37.7144 146.3704 20.4440 -7.1593 6.1915
# 4 3.4812 9.5767 20.4440 63.7938 -9.9609 -8.1486
# 5 -34.1346 -9.8433 -7.1593 -9.9609 66.8190 21.6944
# 6 15.8174 3.3555 6.1915 -8.1486 21.6944 52.0455
#
#
#
# Elastic Compliance Matrix: (Units=1/GPa)
#
#
# Indices 1 2 3 4 5 6 
#
# 1 0.006742 -0.001519 0.001337 -0.000368 0.004641 -0.004102
# 2 -0.001519 0.009149 -0.002387 -0.000490 0.000251 -0.000026
# 3 0.001337 -0.002387 0.008041 -0.002331 0.001569 -0.002228
# 4 -0.000368 -0.000490 -0.002331 0.017033 0.001188 0.002592
# 5 0.004641 0.000251 0.001569 0.001188 0.021028 -0.010192
# 6 -0.004102 -0.000026 -0.002228 0.002592 -0.010192 0.025382
#
#
# Mechanical properties :
#
#
# Convention : Reuss Voigt Hill
#
# Bulk Modulus (GPa) = 53.20852 63.98050 58.59451
# Shear Modulus (GPa) = 50.61812 63.51699 57.06756
#
# Velocity S-wave (km/s) = 4.27087 4.78419 4.53480
# Velocity P-wave (km/s) = 6.59501 7.31939 6.96662
#
# Compressibility (1/GPa) = 0.01879398
#
# Stress axis : x y z
#
# Youngs Moduli (GPa) = 148.31355 109.30189 124.35711
#
# Poissons Ratio (x) = 0.16607 -0.16623
# Poissons Ratio (y) = 0.22534 0.29681
# Poissons Ratio (z) = -0.19825 0.26088
#
# Static dielectric constant tensor:
#      x y z
#    x 2.487760 -0.084180 -0.184180 
#    y -0.084180 2.072150 0.079620 
#    z -0.184180 0.079620 2.178490 
# 
# From -- ./inp_files/14276.got.cif
#   From: 2010.05.17/outbox.cif.g08.bks.cpg/sg2_8_cif.got.tgz:14276.got - 2010.06.03 11:33:40.
