data_PCOD9069624
_publ_section_title
;
Structure prediction by ZEFSAII (Michael W. Deem and Ramdas Pophale) SiO2 
 PCOD9069624
Probable space group: P -1
;
_chemical_formula_sum "Si O2"
_cell_formula_units_Z 16
_cell_length_a 5.646408
_cell_length_b 16.363388
_cell_length_c 11.009402
_cell_angle_alpha 128.550370
_cell_angle_beta 105.520519
_cell_angle_gamma 54.125343
_cell_volume 636.913773
_symmetry_space_group_name_H-M "P -1"
_symmetry_group_IT_number 2
_symmetry_cell_setting 'triclinic'
loop_
_space_group_symop_operation_xyz
x,y,z
-x,-y,-z
loop_
_atom_site_type_symbol
_atom_site_label
_atom_site_fract_x
_atom_site_fract_y
_atom_site_fract_z
Si Si1 0.838560 0.549237 0.811844
Si Si2 0.676726 0.190149 0.942782
Si Si3 0.296551 0.647748 0.457349
Si Si4 0.521537 0.599473 0.172916
Si Si5 0.740181 0.134404 0.637527
Si Si6 0.316745 0.167173 0.400885
Si Si7 0.370005 0.078189 0.931944
Si Si8 0.218074 0.359795 0.354613
O O1 0.774863 0.457692 0.645280
O O2 0.882654 0.627549 0.786341
O O3 0.130538 0.454914 0.840917
O O4 0.559948 0.658763 0.949576
O O5 0.657620 0.127360 0.757545
O O6 0.558265 0.138370 0.982072
O O7 0.012284 0.154042 0.965766
O O8 0.478093 0.605305 0.318106
O O9 0.465651 0.658752 0.603217
O O10 0.997520 0.785967 0.539733
O O11 0.252463 0.741122 0.231826
O O12 0.500000 0.500000 0.000000
O O13 0.485831 0.184589 0.548506
O O14 0.000000 0.000000 0.500000
O O15 0.238613 0.257415 0.355078
O O16 0.529549 0.026120 0.255320
O O17 0.500000 0.000000 0.000000
O O18 0.000000 0.500000 0.500000
#
# Coordination Sequence:
#
# PCOD9069624 Si02
#       8
#     2   2   2   2   2   2   2   2
#     4  12  27  47  75 115 152 204 262 325 405 471
#     4  12  31  50  81 116 156 213 263 328 393 477
#     4  12  24  42  77 108 149 196 257 320 399 462
#     4  12  28  48  75 110 162 205 259 330 400 472
#     4  12  26  53  76 111 156 207 273 321 393 474
#     4  12  27  46  77 109 151 205 255 326 395 467
#     4  12  30  55  79 117 160 209 265 327 399 476
#     4  12  23  46  71 113 153 191 260 323 397 474
#
# _framework density 25.12114
#
# number of rings (size 3 to 8) (size 9 to 14) (size 15 to 20)
#    0.000    0.000    6.250    2.250   10.500    1.500 
#    0.000    0.000    0.000    0.000    0.000    0.000 
#    0.000    0.000    0.000    0.000    0.000    0.000 
#
# Total GULP energy -89322.225932 kJ/mol
# GULP energy per Si atom -5582.639121 kJ/mol
# Density = 2.506396 g / cm^3
# Si number density = 25.121140 Si / 1000 Ang^3
#
#
#
# Elastic Constant Matrix: (Units=GPa)
#
#
# Indices 1 2 3 4 5 6 
#
# 1 105.3905 50.8673 28.7124 21.5604 -9.2550 -14.8408
# 2 50.8673 123.4212 29.1304 17.9151 -12.8797 -12.9018
# 3 28.7124 29.1304 99.9803 28.4630 -17.5828 -17.9671
# 4 21.5604 17.9151 28.4630 50.9170 -5.5948 -18.2097
# 5 -9.2550 -12.8797 -17.5828 -5.5948 40.6963 7.1209
# 6 -14.8408 -12.9018 -17.9671 -18.2097 7.1209 43.7451
#
#
#
# Elastic Compliance Matrix: (Units=1/GPa)
#
#
# Indices 1 2 3 4 5 6 
#
# 1 0.012710 -0.004372 -0.001342 -0.002576 0.000338 0.001344
# 2 -0.004372 0.010530 -0.001201 -0.000816 0.001615 0.000526
# 3 -0.001342 -0.001201 0.013287 -0.005366 0.004009 0.001761
# 4 -0.002576 -0.000816 -0.005366 0.026771 -0.000876 0.007968
# 5 0.000338 0.001615 0.004009 -0.000876 0.027219 -0.002558
# 6 0.001344 0.000526 0.001761 0.007968 -0.002558 0.027928
#
#
# Mechanical properties :
#
#
# Convention : Reuss Voigt Hill
#
# Bulk Modulus (GPa) = 44.06161 60.69024 52.37593
# Shear Modulus (GPa) = 35.75501 41.74380 38.74940
#
# Velocity S-wave (km/s) = 3.77676 4.08082 3.93173
# Velocity P-wave (km/s) = 6.04949 6.81290 6.44251
#
# Compressibility (1/GPa) = 0.02269549
#
# Stress axis : x y z
#
# Youngs Moduli (GPa) = 78.67695 94.96821 75.26371
#
# Poissons Ratio (x) = 0.41521 0.10101
# Poissons Ratio (y) = 0.34398 0.09043
# Poissons Ratio (z) = 0.10559 0.11410
#
# Static dielectric constant tensor:
#      x y z
#    x 2.099810 0.066810 0.019080 
#    y 0.066810 2.047130 -0.004700 
#    z 0.019080 -0.004700 2.031740 
# 
# From -- ./inp_files/369520.got.cif
#   From: 2010.05.17/outbox.cif.g08.bks.cpg/sg2_185_cif.got.tgz:369520.got - 2010.06.03 11:33:40.
