data_PCOD9069519
_publ_section_title
;
Structure prediction by ZEFSAII (Michael W. Deem and Ramdas Pophale) SiO2 
 PCOD9069519
Probable space group: P -1
;
_chemical_formula_sum "Si O2"
_cell_formula_units_Z 14
_cell_length_a 10.747943
_cell_length_b 7.812563
_cell_length_c 21.487434
_cell_angle_alpha 34.592522
_cell_angle_beta 32.066810
_cell_angle_gamma 44.144007
_cell_volume 542.641594
_symmetry_space_group_name_H-M "P -1"
_symmetry_group_IT_number 2
_symmetry_cell_setting 'triclinic'
loop_
_space_group_symop_operation_xyz
x,y,z
-x,-y,-z
loop_
_atom_site_type_symbol
_atom_site_label
_atom_site_fract_x
_atom_site_fract_y
_atom_site_fract_z
Si Si1 0.016271 0.655199 0.781213
Si Si2 0.193412 0.653054 0.146697
Si Si3 0.469360 0.358041 0.484622
Si Si4 0.463690 0.297830 0.311716
Si Si5 0.008775 0.312348 0.439105
Si Si6 0.897031 0.270626 0.061686
Si Si7 0.594489 0.027319 0.881014
O O1 0.289711 0.629907 0.658448
O O2 0.889494 0.606300 0.784450
O O3 0.872241 0.947281 0.783286
O O4 0.959095 0.391215 0.932137
O O5 0.149419 0.538471 0.268841
O O6 0.015524 0.942922 0.122630
O O7 0.447220 0.767602 0.991013
O O8 0.500000 0.500000 0.500000
O O9 0.253070 0.541449 0.488207
O O10 0.425748 0.000245 0.611874
O O11 0.617957 0.271628 0.190435
O O12 0.477875 0.650003 0.215921
O O13 0.186691 0.252113 0.438494
O O14 0.000000 0.000000 0.500000
O O15 0.000000 0.500000 0.000000
O O16 0.500000 0.000000 0.000000
#
# Coordination Sequence:
#
# PCOD9069519 Si02
#       7
#     2   2   2   2   2   2   2
#     4  12  26  46  74 111 151 200 259 313 376 457
#     4  12  23  44  74 111 150 192 258 313 378 449
#     4  12  25  49  72 110 161 198 248 312 384 455
#     4  12  24  46  78 104 151 204 251 308 379 448
#     4  12  24  43  78 106 148 206 244 301 381 452
#     4  12  24  47  78 109 148 197 252 321 387 447
#     4  12  24  45  74 107 148 200 257 315 379 439
#
# _framework density 25.799716
#
# number of rings (size 3 to 8) (size 9 to 14) (size 15 to 20)
#    0.000    0.000    8.571    0.857    0.000    0.571 
#    7.714    2.857    0.000    0.000    0.000    0.000 
#    0.000    0.000    0.000    0.000    0.000    0.000 
#
# Total GULP energy -78400.149693 kJ/mol
# GULP energy per Si atom -5600.010692 kJ/mol
# Density = 2.574099 g / cm^3
# Si number density = 25.799716 Si / 1000 Ang^3
#
#
#
# Elastic Constant Matrix: (Units=GPa)
#
#
# Indices 1 2 3 4 5 6 
#
# 1 60.9456 27.0822 0.9150 15.1387 -9.0855 -2.3932
# 2 27.0822 183.3025 70.7282 19.8212 -2.6615 -34.3519
# 3 0.9150 70.7282 130.7482 22.5801 -8.0737 -9.1520
# 4 15.1387 19.8212 22.5801 65.0211 -10.4573 -14.3723
# 5 -9.0855 -2.6615 -8.0737 -10.4573 39.9539 -1.0490
# 6 -2.3932 -34.3519 -9.1520 -14.3723 -1.0490 46.8622
#
#
#
# Elastic Compliance Matrix: (Units=1/GPa)
#
#
# Indices 1 2 3 4 5 6 
#
# 1 0.019621 -0.003936 0.002779 -0.004333 0.003559 -0.002590
# 2 -0.003936 0.008706 -0.004503 0.000922 -0.000838 0.005565
# 3 0.002779 -0.004503 0.010563 -0.003133 0.001593 -0.002021
# 4 -0.004333 0.000922 -0.003133 0.019045 0.003579 0.005764
# 5 0.003559 -0.000838 0.001593 0.003579 0.027083 0.001583
# 6 -0.002590 0.005565 -0.002021 0.005764 0.001583 0.026695
#
#
# Mechanical properties :
#
#
# Convention : Reuss Voigt Hill
#
# Bulk Modulus (GPa) = 36.27387 63.60523 49.93955
# Shear Modulus (GPa) = 37.81516 48.78550 43.30033
#
# Velocity S-wave (km/s) = 3.83263 4.35320 4.10118
# Velocity P-wave (km/s) = 5.80308 7.06924 6.46722
#
# Compressibility (1/GPa) = 0.02756805
#
# Stress axis : x y z
#
# Youngs Moduli (GPa) = 50.96647 114.86746 94.67200
#
# Poissons Ratio (x) = 0.45215 -0.26308
# Poissons Ratio (y) = 0.20062 0.42632
# Poissons Ratio (z) = -0.14163 0.51727
#
# Static dielectric constant tensor:
#      x y z
#    x 2.146850 0.018170 -0.022190 
#    y 0.018170 2.021300 0.011330 
#    z -0.022190 0.011330 2.025490 
# 
# From -- ./inp_files/261388.got.cif
#   From: 2010.05.17/outbox.cif.g08.bks.cpg/sg2_131_cif.got.tgz:261388.got - 2010.06.03 11:33:40.
