data_PCOD9069273
_publ_section_title
;
Structure prediction by ZEFSAII (Michael W. Deem and Ramdas Pophale) SiO2 
 PCOD9069273
Probable space group: P -1
;
_chemical_formula_sum "Si O2"
_cell_formula_units_Z 16
_cell_length_a 17.599317
_cell_length_b 11.838141
_cell_length_c 8.740266
_cell_angle_alpha 62.646869
_cell_angle_beta 108.489946
_cell_angle_gamma 148.641845
_cell_volume 830.438636
_symmetry_space_group_name_H-M "P -1"
_symmetry_group_IT_number 2
_symmetry_cell_setting 'triclinic'
loop_
_space_group_symop_operation_xyz
x,y,z
-x,-y,-z
loop_
_atom_site_type_symbol
_atom_site_label
_atom_site_fract_x
_atom_site_fract_y
_atom_site_fract_z
Si Si1 0.260804 0.922491 0.040279
Si Si2 0.564582 0.462867 0.977043
Si Si3 0.146890 0.492922 0.218174
Si Si4 0.649616 0.695962 0.566094
Si Si5 0.830811 0.162874 0.318245
Si Si6 0.157403 0.244859 0.516453
Si Si7 0.140762 0.262249 0.855628
Si Si8 0.057371 0.410075 0.859879
O O1 0.241648 0.745187 0.155133
O O2 0.120011 0.801469 0.110228
O O3 0.234305 0.915698 0.847113
O O4 0.420533 0.182638 0.032870
O O5 0.627243 0.594031 0.773306
O O6 0.500000 0.500000 0.000000
O O7 0.702780 0.578813 0.075993
O O8 0.212460 0.448762 0.346308
O O9 0.989421 0.305557 0.317188
O O10 0.110011 0.442526 0.045176
O O11 0.500000 0.500000 0.500000
O O12 0.748904 0.749130 0.480054
O O13 0.721333 0.930140 0.490563
O O14 0.865512 0.352134 0.275903
O O15 0.146928 0.247603 0.688285
O O16 0.000000 0.000000 0.500000
O O17 0.107912 0.365401 0.809725
O O18 0.000000 0.000000 0.000000
#
# Coordination Sequence:
#
# PCOD9069273 Si02
#       8
#     2   2   2   2   2   2   2   2
#     4   9  19  39  65  92 124 166 206 254 308 373
#     4  12  25  42  62  93 130 167 204 259 319 366
#     4   9  18  38  67  92 119 164 214 253 303 368
#     4  12  23  39  65  95 125 166 213 253 305 369
#     4   9  18  37  67  94 124 162 210 255 300 371
#     4  12  24  42  66  90 122 161 217 260 300 379
#     4  12  26  41  62  94 129 165 204 261 321 366
#     4   9  19  40  67  96 125 159 204 260 314 363
#
# _framework density 19.266925000000001
#
# number of rings (size 3 to 8) (size 9 to 14) (size 15 to 20)
#    0.000    1.500    2.500    5.250    1.750    0.000 
#    4.500    3.750    0.000    0.000    0.000    0.000 
#    0.000    0.000    0.000    0.000    0.000    0.000 
#
# Total GULP energy -89375.949622 kJ/mol
# GULP energy per Si atom -5585.996851 kJ/mol
# Density = 1.922307 g / cm^3
# Si number density = 19.266925 Si / 1000 Ang^3
#
#
#
# Elastic Constant Matrix: (Units=GPa)
#
#
# Indices 1 2 3 4 5 6 
#
# 1 120.2955 57.1303 32.8310 0.8394 -5.6221 -6.1503
# 2 57.1303 154.6956 54.2016 -13.8699 3.8551 4.7568
# 3 32.8310 54.2016 92.9830 -7.6353 2.7359 -9.6882
# 4 0.8394 -13.8699 -7.6353 30.6439 -6.2528 2.2986
# 5 -5.6221 3.8551 2.7359 -6.2528 30.3389 2.6049
# 6 -6.1503 4.7568 -9.6882 2.2986 2.6049 26.9595
#
#
#
# Elastic Compliance Matrix: (Units=1/GPa)
#
#
# Indices 1 2 3 4 5 6 
#
# 1 0.010758 -0.003737 -0.001591 -0.002176 0.001945 0.002539
# 2 -0.003737 0.009953 -0.004641 0.003715 -0.000382 -0.004556
# 3 -0.001591 -0.004641 0.014741 0.000906 -0.001346 0.005806
# 4 -0.002176 0.003715 0.000906 0.036359 0.006931 -0.004596
# 5 0.001945 -0.000382 -0.001346 0.006931 0.035261 -0.003971
# 6 0.002539 -0.004556 0.005806 -0.004596 -0.003971 0.041338
#
#
# Mechanical properties :
#
#
# Convention : Reuss Voigt Hill
#
# Bulk Modulus (GPa) = 64.46149 72.92223 68.69186
# Shear Modulus (GPa) = 28.81533 32.50921 30.66227
#
# Velocity S-wave (km/s) = 3.87147 4.11214 3.99362
# Velocity P-wave (km/s) = 7.31534 7.77668 7.54953
#
# Compressibility (1/GPa) = 0.01551314
#
# Stress axis : x y z
#
# Youngs Moduli (GPa) = 92.95487 100.47056 67.83928
#
# Poissons Ratio (x) = 0.37546 0.10796
# Poissons Ratio (y) = 0.34738 0.31483
# Poissons Ratio (z) = 0.14793 0.46627
#
# Static dielectric constant tensor:
#      x y z
#    x 1.654400 -0.021100 0.012560 
#    y -0.021100 1.648960 -0.014230 
#    z 0.012560 -0.014230 1.681350 
# 
# From -- ./inp_files/239290.got.cif
#   From: 2010.05.17/outbox.cif.g08.bks.cpg/sg2_120_cif.got.tgz:239290.got - 2010.06.03 11:33:40.
