data_PCOD9069238
_publ_section_title
;
Structure prediction by ZEFSAII (Michael W. Deem and Ramdas Pophale) SiO2 
 PCOD9069238
Probable space group: P -1
;
_chemical_formula_sum "Si O2"
_cell_formula_units_Z 12
_cell_length_a 17.734949
_cell_length_b 9.363720
_cell_length_c 12.075638
_cell_angle_alpha 43.766733
_cell_angle_beta 159.579355
_cell_angle_gamma 140.271049
_cell_volume 447.198153
_symmetry_space_group_name_H-M "P -1"
_symmetry_group_IT_number 2
_symmetry_cell_setting 'triclinic'
loop_
_space_group_symop_operation_xyz
x,y,z
-x,-y,-z
loop_
_atom_site_type_symbol
_atom_site_label
_atom_site_fract_x
_atom_site_fract_y
_atom_site_fract_z
Si Si1 0.057483 0.775628 0.591672
Si Si2 0.940367 0.137277 0.700020
Si Si3 0.427236 0.184170 0.867871
Si Si4 0.534536 0.270414 0.672433
Si Si5 0.473617 0.303418 0.330360
Si Si6 0.308056 0.661572 0.623799
O O1 0.075319 0.736651 0.506234
O O2 0.244498 0.730888 0.953564
O O3 0.799073 0.606662 0.360847
O O4 0.146857 0.045258 0.567102
O O5 0.914785 0.274700 0.694280
O O6 0.721088 0.904836 0.541293
O O7 0.200284 0.147426 0.046423
O O8 0.534377 0.222705 0.117610
O O9 0.500000 0.000000 0.000000
O O10 0.500000 0.500000 0.500000
O O11 0.579352 0.241941 0.620323
O O12 0.494811 0.432522 0.773379
O O13 0.582525 0.274355 0.380680
#
# Coordination Sequence:
#
# PCOD9069238 Si02
#       6
#     2   2   2   2   2   2
#     4  12  24  46  79 106 147 205 245 300 374 440
#     4  12  24  49  79 102 150 204 241 306 376 437
#     4  12  22  47  76 111 148 197 248 303 369 444
#     4  12  26  47  74 111 152 195 252 305 375 446
#     4  12  29  48  77 117 149 195 254 310 372 444
#     4  12  26  48  81 110 152 192 257 306 370 443
#
# _framework density 26.833742000000001
#
# number of rings (size 3 to 8) (size 9 to 14) (size 15 to 20)
#    0.000    0.000    5.000    6.000    0.000    2.000 
#    3.000    0.000    0.000    0.000    0.000    0.000 
#    0.000    0.000    0.000    0.000    0.000    0.000 
#
# Total GULP energy -67107.476313 kJ/mol
# GULP energy per Si atom -5592.289693 kJ/mol
# Density = 2.677267 g / cm^3
# Si number density = 26.833742 Si / 1000 Ang^3
#
#
#
# Elastic Constant Matrix: (Units=GPa)
#
#
# Indices 1 2 3 4 5 6 
#
# 1 260.5693 45.2941 74.9870 -8.8803 -2.2676 18.4023
# 2 45.2941 127.4278 48.7286 32.1885 -5.2793 7.3381
# 3 74.9870 48.7286 100.3051 24.2913 -13.8151 -0.3606
# 4 -8.8803 32.1885 24.2913 58.9245 7.9428 -5.1103
# 5 -2.2676 -5.2793 -13.8151 7.9428 53.8129 -5.5068
# 6 18.4023 7.3381 -0.3606 -5.1103 -5.5068 41.8806
#
#
#
# Elastic Compliance Matrix: (Units=1/GPa)
#
#
# Indices 1 2 3 4 5 6 
#
# 1 0.005659 -0.000977 -0.004850 0.003444 -0.001834 -0.002178
# 2 -0.000977 0.010842 -0.003230 -0.005011 0.000727 -0.002014
# 3 -0.004850 -0.003230 0.017506 -0.006653 0.005234 0.002724
# 4 0.003444 -0.005011 -0.006653 0.023830 -0.005418 0.001503
# 5 -0.001834 0.000727 0.005234 -0.005418 0.021009 0.002825
# 6 -0.002178 -0.002014 0.002724 0.001503 0.002825 0.025765
#
#
# Mechanical properties :
#
#
# Convention : Reuss Voigt Hill
#
# Bulk Modulus (GPa) = 62.92464 91.81350 77.36907
# Shear Modulus (GPa) = 39.05502 52.20977 45.63240
#
# Velocity S-wave (km/s) = 3.81917 4.41577 4.12826
# Velocity P-wave (km/s) = 6.55353 7.76458 7.18462
#
# Compressibility (1/GPa) = 0.01589203
#
# Stress axis : x y z
#
# Youngs Moduli (GPa) = 176.72117 92.23381 57.12204
#
# Poissons Ratio (x) = 0.09014 0.27705
# Poissons Ratio (y) = 0.17271 0.18451
# Poissons Ratio (z) = 0.85712 0.29792
#
# Static dielectric constant tensor:
#      x y z
#    x 2.202900 -0.045380 0.057420 
#    y -0.045380 2.264570 -0.045440 
#    z 0.057420 -0.045440 2.225640 
# 
# From -- ./inp_files/444418.got.cif
#   From: 2010.05.17/outbox.cif.g08.bks.cpg/sg2_223_cif.got.tgz:444418.got - 2010.06.03 11:33:40.
