data_PCOD9069072
_publ_section_title
;
Structure prediction by ZEFSAII (Michael W. Deem and Ramdas Pophale) SiO2 
 PCOD9069072
Probable space group: P -1
;
_chemical_formula_sum "Si O2"
_cell_formula_units_Z 15
_cell_length_a 8.992045
_cell_length_b 8.200136
_cell_length_c 10.897668
_cell_angle_alpha 109.407256
_cell_angle_beta 99.094913
_cell_angle_gamma 48.972176
_cell_volume 569.708029
_symmetry_space_group_name_H-M "P -1"
_symmetry_group_IT_number 2
_symmetry_cell_setting 'triclinic'
loop_
_space_group_symop_operation_xyz
x,y,z
-x,-y,-z
loop_
_atom_site_type_symbol
_atom_site_label
_atom_site_fract_x
_atom_site_fract_y
_atom_site_fract_z
Si Si1 0.602273 0.912075 0.733495
Si Si2 0.437208 0.609746 0.382486
Si Si3 0.829189 0.885991 0.259010
Si Si4 0.556366 0.259814 0.967450
Si Si5 0.127289 0.752269 0.704138
Si Si6 0.800991 0.854731 0.519110
Si Si7 0.224597 0.462716 0.163970
Si Si8 0.000000 0.000000 0.000000
O O1 0.767766 0.706651 0.789677
O O2 0.399364 0.972863 0.764077
O O3 0.575990 0.132287 0.816077
O O4 0.657442 0.845516 0.582405
O O5 0.500000 0.500000 0.500000
O O6 0.648407 0.476985 0.311025
O O7 0.306010 0.878694 0.437186
O O8 0.312014 0.557404 0.279953
O O9 0.005167 0.678618 0.146872
O O10 0.866658 0.062203 0.311830
O O11 0.850002 0.776280 0.366252
O O12 0.500000 0.500000 0.000000
O O13 0.376402 0.319415 0.038038
O O14 0.769393 0.104616 0.020070
O O15 0.999592 0.727384 0.592108
O O16 0.019218 0.863862 0.846183
#
# Coordination Sequence:
#
# PCOD9069072 Si02
#       8
#     2   2   2   2   2   2   2   1
#     4  12  27  45  69 106 145 184 231 297 362 422
#     4  12  22  41  73 103 138 186 239 289 347 418
#     4  12  25  45  72 103 146 186 237 292 361 420
#     4  12  26  48  74 102 141 186 243 297 349 429
#     4  12  23  42  72 105 137 192 241 294 351 419
#     4  12  25  45  72 107 145 187 243 294 346 429
#     4  12  25  43  69 101 145 189 231 290 358 418
#     4  12  24  42  72 102 138 176 242 292 350 412
#
# _framework density 26.329277000000001
#
# number of rings (size 3 to 8) (size 9 to 14) (size 15 to 20)
#    0.000    0.000    6.667    3.600    0.000    3.200 
#    0.000    0.000    0.000    0.000    0.000    0.000 
#    0.000    0.000    0.000    0.000    0.000    0.000 
#
# Total GULP energy -83896.225927 kJ/mol
# GULP energy per Si atom -5593.081728 kJ/mol
# Density = 2.626935 g / cm^3
# Si number density = 26.329277 Si / 1000 Ang^3
#
#
#
# Elastic Constant Matrix: (Units=GPa)
#
#
# Indices 1 2 3 4 5 6 
#
# 1 100.3097 26.3600 -1.8602 13.4732 -12.7253 -22.8858
# 2 26.3600 113.5581 5.9602 9.6829 -19.0737 -17.2922
# 3 -1.8602 5.9602 73.2192 17.2465 -18.7701 -6.4365
# 4 13.4732 9.6829 17.2465 32.3722 -8.5843 -8.2449
# 5 -12.7253 -19.0737 -18.7701 -8.5843 38.7277 9.8921
# 6 -22.8858 -17.2922 -6.4365 -8.2449 9.8921 36.9832
#
#
#
# Elastic Compliance Matrix: (Units=1/GPa)
#
#
# Indices 1 2 3 4 5 6 
#
# 1 0.012591 -0.001416 0.002477 -0.004005 0.002200 0.006079
# 2 -0.001416 0.010276 0.000639 -0.001075 0.003968 0.002739
# 3 0.002477 0.000639 0.017672 -0.008369 0.007579 0.001014
# 4 -0.004005 -0.001075 -0.008369 0.038749 0.001733 0.003738
# 5 0.002200 0.003968 0.007579 0.001733 0.033594 -0.004064
# 6 0.006079 0.002739 0.001014 0.003738 -0.004064 0.034179
#
#
# Mechanical properties :
#
#
# Convention : Reuss Voigt Hill
#
# Bulk Modulus (GPa) = 22.75930 38.66745 30.71338
# Shear Modulus (GPa) = 31.58396 38.72508 35.15452
#
# Velocity S-wave (km/s) = 3.46725 3.83926 3.65799
# Velocity P-wave (km/s) = 4.96910 5.86270 5.43430
#
# Compressibility (1/GPa) = 0.04393808
#
# Stress axis : x y z
#
# Youngs Moduli (GPa) = 79.42078 97.31039 56.58703
#
# Poissons Ratio (x) = 0.13780 -0.14015
# Poissons Ratio (y) = 0.11246 -0.03614
# Poissons Ratio (z) = -0.19671 -0.06214
#
# Static dielectric constant tensor:
#      x y z
#    x 2.075920 0.014760 -0.021580 
#    y 0.014760 2.027140 -0.018500 
#    z -0.021580 -0.018500 2.065760 
# 
# From -- ./inp_files/203503.got.cif
#   From: 2010.05.17/outbox.cif.g08.bks.cpg/sg2_102_cif.got.tgz:203503.got - 2010.06.03 11:33:40.
