data_PCOD9069970
_publ_section_title
;
Structure prediction by ZEFSAII (Michael W. Deem and Ramdas Pophale) SiO2 
 PCOD9069970
Probable space group: P -1
;
_chemical_formula_sum "Si O2"
_cell_formula_units_Z 13
_cell_length_a 8.672767
_cell_length_b 12.535098
_cell_length_c 8.584599
_cell_angle_alpha 121.828240
_cell_angle_beta 127.596847
_cell_angle_gamma 51.708928
_cell_volume 563.393813
_symmetry_space_group_name_H-M "P -1"
_symmetry_group_IT_number 2
_symmetry_cell_setting 'triclinic'
loop_
_space_group_symop_operation_xyz
x,y,z
-x,-y,-z
loop_
_atom_site_type_symbol
_atom_site_label
_atom_site_fract_x
_atom_site_fract_y
_atom_site_fract_z
Si Si1 0.177648 0.368110 0.098065
Si Si2 0.125179 0.343273 0.391381
Si Si3 0.497653 0.072772 0.391236
Si Si4 0.161056 0.990440 0.952814
Si Si5 0.824119 0.274495 0.362085
Si Si6 0.108383 0.134622 0.717594
Si Si7 0.500000 0.500000 0.500000
O O1 0.072929 0.351526 0.182975
O O2 0.371889 0.405383 0.293477
O O3 0.221143 0.232700 0.916325
O O4 0.000000 0.500000 0.000000
O O5 0.384886 0.240473 0.478466
O O6 0.000000 0.500000 0.500000
O O7 0.023918 0.259837 0.367494
O O8 0.500000 0.000000 0.500000
O O9 0.725858 0.995446 0.383510
O O10 0.334553 0.040976 0.156469
O O11 0.051162 0.078676 0.797857
O O12 0.264313 0.829490 0.839159
O O13 0.000000 0.000000 0.000000
O O14 0.661653 0.435880 0.401816
O O15 0.906417 0.228975 0.555593
#
# Coordination Sequence:
#
# PCOD9069970 Si02
#       7
#     2   2   2   2   2   2   1
#     4  12  25  48  76 103 149 196 243 305 371 436
#     4  12  24  48  72 102 152 191 238 306 373 433
#     4  12  25  44  72 103 139 195 243 296 373 433
#     4  12  24  44  69 106 144 183 247 305 361 433
#     4  12  25  46  69 106 144 188 245 308 360 436
#     4  12  24  46  73 101 145 197 240 304 372 433
#     4  12  26  44  72 102 142 186 244 290 366 430
#
# _framework density 23.074446999999999
#
# number of rings (size 3 to 8) (size 9 to 14) (size 15 to 20)
#    0.000    0.000    7.692    1.846    2.154    0.000 
#    0.000    0.769    0.000    0.000    0.000    0.000 
#    0.000    0.000    0.000    0.000    0.000    0.000 
#
# Total GULP energy -72388.600043 kJ/mol
# GULP energy per Si atom -5568.353849 kJ/mol
# Density = 2.302193 g / cm^3
# Si number density = 23.074447 Si / 1000 Ang^3
#
#
#
# Elastic Constant Matrix: (Units=GPa)
#
#
# Indices 1 2 3 4 5 6 
#
# 1 76.1454 9.1368 25.2351 -2.9383 -19.2782 13.8568
# 2 9.1368 112.8022 33.1849 25.2608 -21.1702 8.5727
# 3 25.2351 33.1849 117.6172 24.3310 -1.5037 4.1220
# 4 -2.9383 25.2608 24.3310 55.6624 15.7135 -26.6355
# 5 -19.2782 -21.1702 -1.5037 15.7135 49.6328 -0.7452
# 6 13.8568 8.5727 4.1220 -26.6355 -0.7452 30.4072
#
#
#
# Elastic Compliance Matrix: (Units=1/GPa)
#
#
# Indices 1 2 3 4 5 6 
#
# 1 0.023711 0.012035 -0.000862 -0.028854 0.022870 -0.038796
# 2 0.012035 0.028071 0.001698 -0.047790 0.031008 -0.054731
# 3 -0.000862 0.001698 0.011599 -0.013783 0.004900 -0.013612
# 4 -0.028854 -0.047790 -0.013783 0.133019 -0.071971 0.143246
# 5 0.022870 0.031008 0.004900 -0.071971 0.063970 -0.081304
# 6 -0.038796 -0.054731 -0.013612 0.143246 -0.081304 0.191327
#
#
# Mechanical properties :
#
#
# Convention : Reuss Voigt Hill
#
# Bulk Modulus (GPa) = 11.22033 49.07537 30.14785
# Shear Modulus (GPa) = 10.97303 43.07435 27.02369
#
# Velocity S-wave (km/s) = 2.18307 4.32528 3.42592
# Velocity P-wave (km/s) = 3.35077 6.80136 5.36126
#
# Compressibility (1/GPa) = 0.08912395
#
# Stress axis : x y z
#
# Youngs Moduli (GPa) = 42.17469 35.62337 86.21531
#
# Poissons Ratio (x) = -0.42873 0.07431
# Poissons Ratio (y) = -0.50757 -0.14642
# Poissons Ratio (z) = 0.03635 -0.06050
#
# Static dielectric constant tensor:
#      x y z
#    x 1.892960 -0.020710 0.022770 
#    y -0.020710 1.976540 0.007500 
#    z 0.022770 0.007500 1.853250 
# 
# From -- ./inp_files/166667.got.cif
#   From: 2010.05.17/outbox.cif.g08.bks.cpg/sg2_84_cif.got.tgz:166667.got - 2010.06.03 11:33:40.
