data_PCOD9069416
_publ_section_title
;
Structure prediction by ZEFSAII (Michael W. Deem and Ramdas Pophale) SiO2 
 PCOD9069416
Probable space group: P -1
;
_chemical_formula_sum "Si O2"
_cell_formula_units_Z 14
_cell_length_a 6.840791
_cell_length_b 16.994109
_cell_length_c 7.115253
_cell_angle_alpha 106.683317
_cell_angle_beta 137.931068
_cell_angle_gamma 72.089808
_cell_volume 525.119299
_symmetry_space_group_name_H-M "P -1"
_symmetry_group_IT_number 2
_symmetry_cell_setting 'triclinic'
loop_
_space_group_symop_operation_xyz
x,y,z
-x,-y,-z
loop_
_atom_site_type_symbol
_atom_site_label
_atom_site_fract_x
_atom_site_fract_y
_atom_site_fract_z
Si Si1 0.102295 0.402531 0.038526
Si Si2 0.608711 0.330493 0.642112
Si Si3 0.835713 0.001850 0.190339
Si Si4 0.905704 0.840067 0.645355
Si Si5 0.100119 0.332544 0.642854
Si Si6 0.247833 0.843260 0.233757
Si Si7 0.394943 0.598217 0.961629
O O1 0.812865 0.384514 0.970327
O O2 0.903972 0.344714 0.719660
O O3 0.356340 0.375556 0.354927
O O4 0.000000 0.500000 0.000000
O O5 0.662010 0.229112 0.601123
O O6 0.407744 0.337196 0.717877
O O7 0.903775 0.086556 0.205354
O O8 0.000000 0.000000 0.500000
O O9 0.994268 0.919838 0.145234
O O10 0.500000 0.000000 0.000000
O O11 0.559729 0.876081 0.445509
O O12 0.897204 0.767440 0.440591
O O13 0.088184 0.797227 0.923704
O O14 0.323433 0.382093 0.977080
O O15 0.863605 0.382510 0.365407
O O16 0.500000 0.500000 0.000000
#
# Coordination Sequence:
#
# PCOD9069416 Si02
#       7
#     2   2   2   2   2   2   2
#     4  12  26  44  67 103 150 199 241 306 380 433
#     4  12  24  44  70 102 144 191 253 300 365 440
#     4  12  28  49  77 114 148 190 239 304 375 457
#     4  12  24  49  76 108 148 194 247 304 373 444
#     4  12  24  44  68 104 143 188 250 301 370 436
#     4  12  25  49  76 109 148 196 247 303 375 444
#     4  12  23  43  70 102 140 189 248 308 356 439
#
# _framework density 26.660612
#
# number of rings (size 3 to 8) (size 9 to 14) (size 15 to 20)
#    0.000    0.000    2.857    7.714    2.000    0.000 
#    0.000    0.000    0.000    0.000    0.000    0.000 
#    0.000    0.000    0.000    0.000    0.000    0.000 
#
# Total GULP energy -78315.191004 kJ/mol
# GULP energy per Si atom -5593.942215 kJ/mol
# Density = 2.659993 g / cm^3
# Si number density = 26.660612 Si / 1000 Ang^3
#
#
#
# Elastic Constant Matrix: (Units=GPa)
#
#
# Indices 1 2 3 4 5 6 
#
# 1 233.8795 43.5306 81.1730 7.9011 24.4168 -14.8416
# 2 43.5306 152.1542 48.9126 0.2695 16.4781 -2.3465
# 3 81.1730 48.9126 149.8687 -5.2730 37.3260 -23.1329
# 4 7.9011 0.2695 -5.2730 39.3231 -2.6327 9.8931
# 5 24.4168 16.4781 37.3260 -2.6327 106.6171 -0.2678
# 6 -14.8416 -2.3465 -23.1329 9.8931 -0.2678 38.6419
#
#
#
# Elastic Compliance Matrix: (Units=1/GPa)
#
#
# Indices 1 2 3 4 5 6 
#
# 1 0.005440 -0.000683 -0.002568 -0.001688 -0.000281 0.000941
# 2 -0.000683 0.007478 -0.002185 0.000062 -0.000236 -0.001134
# 3 -0.002568 -0.002185 0.010193 0.000506 -0.002618 0.004835
# 4 -0.001688 0.000062 0.000506 0.027768 0.000867 -0.007445
# 5 -0.000281 -0.000236 -0.002618 0.000867 0.010413 -0.001839
# 6 0.000941 -0.001134 0.004835 -0.007445 -0.001839 0.030959
#
#
# Mechanical properties :
#
#
# Convention : Reuss Voigt Hill
#
# Bulk Modulus (GPa) = 81.70345 98.12610 89.91478
# Shear Modulus (GPa) = 46.64093 61.06885 53.85489
#
# Velocity S-wave (km/s) = 4.18716 4.79122 4.49934
# Velocity P-wave (km/s) = 7.35450 8.21543 7.79685
#
# Compressibility (1/GPa) = 0.01223939
#
# Stress axis : x y z
#
# Youngs Moduli (GPa) = 183.81996 133.72662 98.11134
#
# Poissons Ratio (x) = 0.09134 0.25194
# Poissons Ratio (y) = 0.12555 0.21435
# Poissons Ratio (z) = 0.47202 0.29215
#
# Static dielectric constant tensor:
#      x y z
#    x 1.931200 -5.598010 -0.268190 
#    y -5.598010 -59.260460 -2.527810 
#    z -0.268190 -2.527810 1.927800 
# 
# From -- ./inp_files/218452.got.cif
#   From: 2010.05.17/outbox.cif.g08.bks.cpg/sg2_110_cif.got.tgz:218452.got - 2010.06.03 11:33:40.
