data_PCOD9069112
_publ_section_title
;
Structure prediction by ZEFSAII (Michael W. Deem and Ramdas Pophale) SiO2 
 PCOD9069112
Probable space group: P -1
;
_chemical_formula_sum "Si O2"
_cell_formula_units_Z 15
_cell_length_a 9.405327
_cell_length_b 12.056449
_cell_length_c 8.625759
_cell_angle_alpha 127.978085
_cell_angle_beta 80.387138
_cell_angle_gamma 118.717148
_cell_volume 664.347932
_symmetry_space_group_name_H-M "P -1"
_symmetry_group_IT_number 2
_symmetry_cell_setting 'triclinic'
loop_
_space_group_symop_operation_xyz
x,y,z
-x,-y,-z
loop_
_atom_site_type_symbol
_atom_site_label
_atom_site_fract_x
_atom_site_fract_y
_atom_site_fract_z
Si Si1 0.153124 0.594181 0.663827
Si Si2 0.533023 0.094967 0.238077
Si Si3 0.278425 0.291188 0.766938
Si Si4 0.010639 0.656239 0.047867
Si Si5 0.413019 0.531057 0.687027
Si Si6 0.000000 0.000000 0.000000
Si Si7 0.364659 0.143629 0.906432
Si Si8 0.174166 0.016109 0.320105
O O1 0.306143 0.733272 0.663817
O O2 0.227852 0.488281 0.635143
O O3 0.000000 0.500000 0.500000
O O4 0.087723 0.662451 0.871029
O O5 0.368527 0.097476 0.315271
O O6 0.576137 0.985761 0.247899
O O7 0.500000 0.000000 0.000000
O O8 0.170192 0.360201 0.929694
O O9 0.404787 0.425383 0.743850
O O10 0.358417 0.230312 0.826628
O O11 0.163802 0.138297 0.548524
O O12 0.123671 0.838703 0.244545
O O13 0.000000 0.500000 0.000000
O O14 0.500000 0.500000 0.500000
O O15 0.509149 0.715705 0.881557
O O16 0.928941 0.001931 0.833630
O O17 0.814737 0.940638 0.053478
#
# Coordination Sequence:
#
# PCOD9069112 Si02
#       8
#     2   2   2   2   2   1   2   2
#     4  12  27  47  77 113 146 201 260 310 378 459
#     4  12  23  49  78 106 151 203 255 316 377 451
#     4  12  28  47  76 111 151 202 254 319 390 448
#     4  12  25  48  73 107 156 194 245 320 377 448
#     4  12  26  49  73 106 152 197 254 319 382 458
#     4  12  22  42  78 108 150 198 250 304 376 454
#     4  12  26  45  74 110 149 201 255 311 384 456
#     4  12  26  50  77 109 154 201 258 310 382 463
#
# _framework density 22.578527999999999
#
# number of rings (size 3 to 8) (size 9 to 14) (size 15 to 20)
#    0.000    0.000    6.667    2.400    1.867    3.733 
#    2.400    0.000    0.000    0.000    0.000    0.000 
#    0.000    0.000    0.000    0.000    0.000    0.000 
#
# Total GULP energy -83685.499041 kJ/mol
# GULP energy per Si atom -5579.033269 kJ/mol
# Density = 2.252714 g / cm^3
# Si number density = 22.578528 Si / 1000 Ang^3
#
#
#
# Elastic Constant Matrix: (Units=GPa)
#
#
# Indices 1 2 3 4 5 6 
#
# 1 134.3488 33.6313 36.0371 -9.3298 9.4019 -6.2688
# 2 33.6313 93.9695 16.2668 8.9087 4.1057 -12.3349
# 3 36.0371 16.2668 62.2880 4.9876 -5.2326 -4.9436
# 4 -9.3298 8.9087 4.9876 33.1931 7.4775 0.9576
# 5 9.4019 4.1057 -5.2326 7.4775 38.7948 -1.6886
# 6 -6.2688 -12.3349 -4.9436 0.9576 -1.6886 51.9604
#
#
#
# Elastic Compliance Matrix: (Units=1/GPa)
#
#
# Indices 1 2 3 4 5 6 
#
# 1 0.010527 -0.003103 -0.006104 0.005651 -0.004148 -0.000286
# 2 -0.003103 0.012653 -0.000942 -0.004252 0.000220 0.002625
# 3 -0.006104 -0.000942 0.020878 -0.005897 0.005589 0.001317
# 4 0.005651 -0.004252 -0.005897 0.035752 -0.008686 -0.001830
# 5 -0.004148 0.000220 0.005589 -0.008686 0.029238 0.001194
# 6 -0.000286 0.002625 0.001317 -0.001830 0.001194 0.020032
#
#
# Mechanical properties :
#
#
# Convention : Reuss Voigt Hill
#
# Bulk Modulus (GPa) = 42.08590 51.38629 46.73609
# Shear Modulus (GPa) = 31.78689 38.43440 35.11065
#
# Velocity S-wave (km/s) = 3.75619 4.13031 3.94769
# Velocity P-wave (km/s) = 6.12308 6.74939 6.44385
#
# Compressibility (1/GPa) = 0.02376093
#
# Stress axis : x y z
#
# Youngs Moduli (GPa) = 94.99716 79.02962 47.89760
#
# Poissons Ratio (x) = 0.24523 0.29235
# Poissons Ratio (y) = 0.29478 0.04512
# Poissons Ratio (z) = 0.57982 0.07444
#
# Static dielectric constant tensor:
#      x y z
#    x 1.835630 -0.029010 -0.011780 
#    y -0.029010 1.901650 0.033230 
#    z -0.011780 0.033230 1.854360 
# 
# From -- ./inp_files/184051.got.cif
#   From: 2010.05.17/outbox.cif.g08.bks.cpg/sg2_93_cif.got.tgz:184051.got - 2010.06.03 11:33:40.
