data_PCOD9069266
_publ_section_title
;
Structure prediction by ZEFSAII (Michael W. Deem and Ramdas Pophale) SiO2 
 PCOD9069266
Probable space group: P -1
;
_chemical_formula_sum "Si O2"
_cell_formula_units_Z 14
_cell_length_a 11.596001
_cell_length_b 12.335417
_cell_length_c 5.116431
_cell_angle_alpha 102.702329
_cell_angle_beta 116.175813
_cell_angle_gamma 92.271677
_cell_volume 632.879305
_symmetry_space_group_name_H-M "P -1"
_symmetry_group_IT_number 2
_symmetry_cell_setting 'triclinic'
loop_
_space_group_symop_operation_xyz
x,y,z
-x,-y,-z
loop_
_atom_site_type_symbol
_atom_site_label
_atom_site_fract_x
_atom_site_fract_y
_atom_site_fract_z
Si Si1 0.980251 0.916231 0.179234
Si Si2 0.380892 0.045178 0.767650
Si Si3 0.709982 0.759512 0.906426
Si Si4 0.222380 0.815110 0.468173
Si Si5 0.655213 0.506692 0.723144
Si Si6 0.700035 0.363775 0.203446
Si Si7 0.479218 0.795492 0.359601
O O1 0.084173 0.828483 0.218138
O O2 0.000000 0.000000 0.500000
O O3 0.841236 0.835299 0.977796
O O4 0.000000 0.000000 0.000000
O O5 0.435521 0.084603 0.558893
O O6 0.267908 0.943985 0.662652
O O7 0.334556 0.157663 0.880606
O O8 0.500000 0.000000 0.000000
O O9 0.721762 0.632789 0.927430
O O10 0.585745 0.736917 0.578080
O O11 0.208508 0.722398 0.635084
O O12 0.345574 0.799134 0.392065
O O13 0.500000 0.500000 0.500000
O O14 0.703769 0.456673 0.478931
O O15 0.695229 0.428511 0.957589
O O16 0.569660 0.271915 0.987103
#
# Coordination Sequence:
#
# PCOD9069266 Si02
#       7
#     2   2   2   2   2   2   2
#     4  12  30  50  74 108 154 197 240 299 374 445
#     4  12  23  37  69 110 143 180 241 302 371 433
#     4  12  27  46  72 111 146 197 241 310 364 436
#     4  12  25  46  73 105 153 189 247 299 371 445
#     4  12  25  44  72 107 152 183 253 302 367 425
#     4  12  25  44  70 107 138 201 233 307 363 428
#     4  12  23  41  72 109 146 188 244 300 377 425
#
# _framework density 22.121120000000001
#
# number of rings (size 3 to 8) (size 9 to 14) (size 15 to 20)
#    0.000    0.000    7.143    2.571    6.000    0.000 
#    0.000    1.429    0.000    0.000    0.000    0.000 
#    0.000    0.000    0.000    0.000    0.000    0.000 
#
# Total GULP energy -77943.672763 kJ/mol
# GULP energy per Si atom -5567.405197 kJ/mol
# Density = 2.207077 g / cm^3
# Si number density = 22.121120 Si / 1000 Ang^3
#
#
#
# Elastic Constant Matrix: (Units=GPa)
#
#
# Indices 1 2 3 4 5 6 
#
# 1 100.6101 40.5072 44.0959 -11.4876 26.1811 3.6652
# 2 40.5072 154.0061 50.1470 -3.1500 -2.6698 -6.7102
# 3 44.0959 50.1470 82.0249 -11.3912 -8.9452 -7.2254
# 4 -11.4876 -3.1500 -11.3912 55.1888 -1.3979 -3.8474
# 5 26.1811 -2.6698 -8.9452 -1.3979 32.6064 -4.6373
# 6 3.6652 -6.7102 -7.2254 -3.8474 -4.6373 16.4579
#
#
#
# Elastic Compliance Matrix: (Units=1/GPa)
#
#
# Indices 1 2 3 4 5 6 
#
# 1 0.029291 -0.002926 -0.019954 -0.000833 -0.032960 -0.025958
# 2 -0.002926 0.008445 -0.003064 -0.000455 0.002664 0.003394
# 3 -0.019954 -0.003064 0.030736 0.004514 0.028044 0.025645
# 4 -0.000833 -0.000455 0.004514 0.019478 0.003786 0.007602
# 5 -0.032960 0.002664 0.028044 0.003786 0.071134 0.041666
# 6 -0.025958 0.003394 0.025645 0.007602 0.041666 0.092702
#
#
# Mechanical properties :
#
#
# Convention : Reuss Voigt Hill
#
# Bulk Modulus (GPa) = 60.30095 67.34904 63.82500
# Shear Modulus (GPa) = 16.17073 34.31003 25.24038
#
# Velocity S-wave (km/s) = 2.70665 3.94256 3.38155
# Velocity P-wave (km/s) = 6.08987 7.15798 6.64542
#
# Compressibility (1/GPa) = 0.01658349
#
# Stress axis : x y z
#
# Youngs Moduli (GPa) = 34.14074 118.40943 32.53513
#
# Poissons Ratio (x) = 0.34648 0.64921
# Poissons Ratio (y) = 0.09990 0.09968
# Poissons Ratio (z) = 0.68125 0.36279
#
# Static dielectric constant tensor:
#      x y z
#    x 2.009790 0.079570 0.087240 
#    y 0.079570 2.024730 0.092430 
#    z 0.087240 0.092430 1.995510 
# 
# From -- ./inp_files/67436.got.cif
#   From: 2010.05.17/outbox.cif.g08.bks.cpg/sg2_34_cif.got.tgz:67436.got - 2010.06.03 11:33:40.
