data_PCOD9069629
_publ_section_title
;
Structure prediction by ZEFSAII (Michael W. Deem and Ramdas Pophale) SiO2 
 PCOD9069629
Probable space group: P -1
;
_chemical_formula_sum "Si O2"
_cell_formula_units_Z 16
_cell_length_a 8.723568
_cell_length_b 25.274347
_cell_length_c 24.967192
_cell_angle_alpha 11.480657
_cell_angle_beta 139.786564
_cell_angle_gamma 137.977499
_cell_volume 706.757345
_symmetry_space_group_name_H-M "P -1"
_symmetry_group_IT_number 2
_symmetry_cell_setting 'triclinic'
loop_
_space_group_symop_operation_xyz
x,y,z
-x,-y,-z
loop_
_atom_site_type_symbol
_atom_site_label
_atom_site_fract_x
_atom_site_fract_y
_atom_site_fract_z
Si Si1 0.433888 0.215768 0.488252
Si Si2 0.005103 0.327147 0.345116
Si Si3 0.256251 0.169416 0.260110
Si Si4 0.418149 0.121872 0.800421
Si Si5 0.155535 0.240086 0.286980
Si Si6 0.138029 0.612904 0.204673
Si Si7 0.921123 0.257597 0.756127
Si Si8 0.252879 0.300191 0.904310
O O1 0.198201 0.305340 0.370086
O O2 0.379903 0.233996 0.392335
O O3 0.637736 0.415995 0.356890
O O4 0.532222 0.920555 0.821122
O O5 0.121962 0.451298 0.305421
O O6 0.912384 0.029923 0.618882
O O7 0.783106 0.536868 0.066402
O O8 0.188851 0.216117 0.257149
O O9 0.500000 0.000000 0.500000
O O10 0.243366 0.382039 0.501906
O O11 0.642684 0.233979 0.717749
O O12 0.500000 0.000000 0.000000
O O13 0.295404 0.872916 0.986120
O O14 0.000000 0.000000 0.500000
O O15 0.000000 0.500000 0.000000
O O16 0.884093 0.706283 0.069126
O O17 0.000000 0.500000 0.500000
O O18 0.062105 0.253288 0.853920
O O19 0.000000 0.000000 0.000000
#
# Coordination Sequence:
#
# PCOD9069629 Si02
#       8
#     2   2   2   2   2   2   2   2
#     4  12  26  45  72 101 146 187 233 294 365 425
#     4  12  27  48  68 106 145 187 235 292 363 433
#     4  12  26  46  72 103 142 184 240 298 352 422
#     4  12  26  50  77 102 144 198 241 299 362 434
#     4  12  23  46  71  99 133 187 238 286 349 427
#     4  12  28  47  75 106 146 190 245 294 369 436
#     4  12  28  47  74 108 145 186 248 302 358 425
#     4  12  28  46  71 106 144 186 237 296 359 431
#
# _framework density 22.638604999999998
#
# number of rings (size 3 to 8) (size 9 to 14) (size 15 to 20)
#    0.000    0.000    3.750    5.250   10.500    0.000 
#    0.000    0.000    0.000    0.000    0.000    0.000 
#    0.000    0.000    0.000    0.000    0.000    0.000 
#
# Total GULP energy -89551.022388 kJ/mol
# GULP energy per Si atom -5596.938899 kJ/mol
# Density = 2.258708 g / cm^3
# Si number density = 22.638605 Si / 1000 Ang^3
#
#
#
# Elastic Constant Matrix: (Units=GPa)
#
#
# Indices 1 2 3 4 5 6 
#
# 1 65.4403 8.1413 31.2343 -8.4198 12.8830 -1.1181
# 2 8.1413 75.3202 10.7990 -15.9219 14.1986 -10.7348
# 3 31.2343 10.7990 137.2317 -7.8121 12.7888 -1.1137
# 4 -8.4198 -15.9219 -7.8121 48.5202 0.9446 3.1363
# 5 12.8830 14.1986 12.7888 0.9446 33.6943 -1.8651
# 6 -1.1181 -10.7348 -1.1137 3.1363 -1.8651 36.5253
#
#
#
# Elastic Compliance Matrix: (Units=1/GPa)
#
#
# Indices 1 2 3 4 5 6 
#
# 1 0.018452 0.000213 -0.003507 0.002824 -0.005894 -0.000023
# 2 0.000213 0.016233 -0.000374 0.005177 -0.006705 0.003979
# 3 -0.003507 -0.000374 0.008307 0.000646 -0.001678 -0.000105
# 4 0.002824 0.005177 0.000646 0.023020 -0.004183 -0.000563
# 5 -0.005894 -0.006705 -0.001678 -0.004183 0.035510 -0.000030
# 6 -0.000023 0.003979 -0.000105 -0.000563 -0.000030 0.028591
#
#
# Mechanical properties :
#
#
# Convention : Reuss Voigt Hill
#
# Bulk Modulus (GPa) = 28.04594 42.03792 35.04193
# Shear Modulus (GPa) = 33.48233 38.93580 36.20906
#
# Velocity S-wave (km/s) = 3.84994 4.15165 4.00364
# Velocity P-wave (km/s) = 5.67258 6.44911 6.07327
#
# Compressibility (1/GPa) = 0.03565579
#
# Stress axis : x y z
#
# Youngs Moduli (GPa) = 54.19612 61.60459 120.38329
#
# Poissons Ratio (x) = -0.01313 0.42213
# Poissons Ratio (y) = -0.01155 0.04503
# Poissons Ratio (z) = 0.19004 0.02304
#
# Static dielectric constant tensor:
#      x y z
#    x 1.821310 0.012110 0.003510 
#    y 0.012110 1.873000 0.033530 
#    z 0.003510 0.033530 1.783610 
# 
# From -- ./inp_files/357981.got.cif
#   From: 2010.05.17/outbox.cif.g08.bks.cpg/sg2_179_cif.got.tgz:357981.got - 2010.06.03 11:33:40.
