data_PCOD9069499
_publ_section_title
;
Structure prediction by ZEFSAII (Michael W. Deem and Ramdas Pophale) SiO2 
 PCOD9069499
Probable space group: P -1
;
_chemical_formula_sum "Si O2"
_cell_formula_units_Z 14
_cell_length_a 12.664477
_cell_length_b 10.470572
_cell_length_c 5.531461
_cell_angle_alpha 61.235913
_cell_angle_beta 118.215548
_cell_angle_gamma 107.986220
_cell_volume 563.440119
_symmetry_space_group_name_H-M "P -1"
_symmetry_group_IT_number 2
_symmetry_cell_setting 'triclinic'
loop_
_space_group_symop_operation_xyz
x,y,z
-x,-y,-z
loop_
_atom_site_type_symbol
_atom_site_label
_atom_site_fract_x
_atom_site_fract_y
_atom_site_fract_z
Si Si1 0.254485 0.014454 0.739807
Si Si2 0.435600 0.534770 0.151242
Si Si3 0.089803 0.106648 0.832084
Si Si4 0.442609 0.874504 0.373321
Si Si5 0.696361 0.747178 0.737721
Si Si6 0.719745 0.241955 0.315299
Si Si7 0.972152 0.404996 0.308833
O O1 0.250178 0.918275 0.581872
O O2 0.136979 0.993067 0.793837
O O3 0.261000 0.185193 0.532251
O O4 0.377034 0.968284 0.024001
O O5 0.500000 0.500000 0.500000
O O6 0.313747 0.425158 0.102151
O O7 0.500000 0.500000 0.000000
O O8 0.399205 0.698900 0.982438
O O9 0.035334 0.251955 0.537763
O O10 0.211088 0.176038 0.039701
O O11 0.000000 0.000000 0.000000
O O12 0.557798 0.785371 0.554997
O O13 0.326969 0.770625 0.448789
O O14 0.500000 0.000000 0.500000
O O15 0.832709 0.343842 0.247363
O O16 0.000000 0.500000 0.500000
O O17 0.000000 0.500000 0.000000
#
# Coordination Sequence:
#
# PCOD9069499 Si02
#       7
#     2   2   2   2   2   2   2
#     4  12  26  45  82 109 159 202 267 330 409 474
#     4  12  29  48  78 115 163 207 261 320 400 491
#     4  12  29  52  82 116 156 212 286 340 400 481
#     4  12  23  44  71 118 155 196 255 325 410 470
#     4  12  26  46  77 114 158 207 262 332 398 483
#     4  12  28  49  77 114 159 211 262 331 403 483
#     4  12  32  57  83 115 164 220 277 335 407 480
#
# _framework density 24.847359000000001
#
# number of rings (size 3 to 8) (size 9 to 14) (size 15 to 20)
#    0.000    0.000    4.286    3.857   12.000    1.143 
#    0.000    0.000    0.000    0.000    0.000    0.000 
#    0.000    0.000    0.000    0.000    0.000    0.000 
#
# Total GULP energy -78089.007770 kJ/mol
# GULP energy per Si atom -5577.786269 kJ/mol
# Density = 2.479081 g / cm^3
# Si number density = 24.847359 Si / 1000 Ang^3
#
#
#
# Elastic Constant Matrix: (Units=GPa)
#
#
# Indices 1 2 3 4 5 6 
#
# 1 176.9794 36.0810 50.8650 -9.3132 -4.1310 -3.6705
# 2 36.0810 86.7944 37.8769 -14.8275 4.0140 -6.2685
# 3 50.8650 37.8769 145.6432 -20.5685 5.8563 -8.2072
# 4 -9.3132 -14.8275 -20.5685 41.2209 -4.0302 3.5035
# 5 -4.1310 4.0140 5.8563 -4.0302 44.4749 -19.0824
# 6 -3.6705 -6.2685 -8.2072 3.5035 -19.0824 46.4971
#
#
#
# Elastic Compliance Matrix: (Units=1/GPa)
#
#
# Indices 1 2 3 4 5 6 
#
# 1 0.006615 -0.001987 -0.001825 -0.000049 0.001216 0.000435
# 2 -0.001987 0.014052 -0.002431 0.003274 -0.000462 0.000872
# 3 -0.001825 -0.002431 0.008601 0.002899 -0.000564 0.000597
# 4 -0.000049 0.003274 0.002899 0.027065 0.001582 -0.000441
# 5 0.001216 -0.000462 -0.000564 0.001582 0.027645 0.011161
# 6 0.000435 0.000872 0.000597 -0.000441 0.011161 0.026378
#
#
# Mechanical properties :
#
#
# Convention : Reuss Voigt Hill
#
# Bulk Modulus (GPa) = 59.58122 73.22919 66.40521
# Shear Modulus (GPa) = 38.93055 45.41150 42.17103
#
# Velocity S-wave (km/s) = 3.96256 4.27970 4.12418
# Velocity P-wave (km/s) = 6.70573 7.34553 7.03291
#
# Compressibility (1/GPa) = 0.01678381
#
# Stress axis : x y z
#
# Youngs Moduli (GPa) = 151.17890 71.16631 116.26226
#
# Poissons Ratio (x) = 0.14138 0.21215
# Poissons Ratio (y) = 0.30033 0.28258
# Poissons Ratio (z) = 0.27586 0.17297
#
# Static dielectric constant tensor:
#      x y z
#    x 2.152960 -0.032980 -0.007470 
#    y -0.032980 2.016960 -0.024920 
#    z -0.007470 -0.024920 2.130010 
# 
# From -- ./inp_files/68783.got.cif
#   From: 2010.05.17/outbox.cif.g08.bks.cpg/sg2_35_cif.got.tgz:68783.got - 2010.06.03 11:33:40.
