data_PCOD9069690
_publ_section_title
;
Structure prediction by ZEFSAII (Michael W. Deem and Ramdas Pophale) SiO2 
 PCOD9069690
Probable space group: P -1
;
_chemical_formula_sum "Si O2"
_cell_formula_units_Z 14
_cell_length_a 11.007989
_cell_length_b 4.807040
_cell_length_c 14.879459
_cell_angle_alpha 117.714415
_cell_angle_beta 124.237374
_cell_angle_gamma 76.986676
_cell_volume 575.528594
_symmetry_space_group_name_H-M "P -1"
_symmetry_group_IT_number 2
_symmetry_cell_setting 'triclinic'
loop_
_space_group_symop_operation_xyz
x,y,z
-x,-y,-z
loop_
_atom_site_type_symbol
_atom_site_label
_atom_site_fract_x
_atom_site_fract_y
_atom_site_fract_z
Si Si1 0.608237 0.486477 0.856114
Si Si2 0.532931 0.948759 0.402621
Si Si3 0.534163 0.923214 0.107195
Si Si4 0.073741 0.171760 0.971494
Si Si5 0.842822 0.869567 0.311254
Si Si6 0.999930 0.747210 0.704422
Si Si7 0.273098 0.563408 0.535830
O O1 0.597461 0.215611 0.735852
O O2 0.485682 0.727181 0.811996
O O3 0.754936 0.711037 0.947992
O O4 0.568235 0.320740 0.911369
O O5 0.671812 0.723248 0.425093
O O6 0.500000 0.000000 0.500000
O O7 0.584687 0.271397 0.426081
O O8 0.698645 0.828839 0.181660
O O9 0.500000 0.000000 0.000000
O O10 0.037297 0.937650 0.838692
O O11 0.000000 0.500000 0.000000
O O12 0.000000 0.000000 0.000000
O O13 0.886258 0.526552 0.308948
O O14 0.978557 0.001418 0.328125
O O15 0.807429 0.153574 0.405809
O O16 0.838309 0.587970 0.606826
#
# Coordination Sequence:
#
# PCOD9069690 Si02
#       7
#     2   2   2   2   2   2   2
#     4  12  25  49  71 109 149 190 250 305 368 437
#     4  12  26  45  77 109 147 195 247 305 370 437
#     4  12  25  44  76 108 149 193 240 304 371 443
#     4  12  29  49  73 102 147 197 250 304 362 440
#     4  12  23  47  71 110 149 185 247 303 373 438
#     4  12  27  45  75 106 147 199 242 298 369 441
#     4  12  25  47  74 111 148 192 245 304 373 436
#
# _framework density 24.325462999999999
#
# number of rings (size 3 to 8) (size 9 to 14) (size 15 to 20)
#    0.000    0.000    2.857    6.857    4.000    2.286 
#    0.000    0.000    0.000    0.000    0.000    0.000 
#    0.000    0.000    0.000    0.000    0.000    0.000 
#
# Total GULP energy -78290.496281 kJ/mol
# GULP energy per Si atom -5592.178306 kJ/mol
# Density = 2.427010 g / cm^3
# Si number density = 24.325463 Si / 1000 Ang^3
#
#
#
# Elastic Constant Matrix: (Units=GPa)
#
#
# Indices 1 2 3 4 5 6 
#
# 1 78.0640 17.6070 52.5339 7.1927 -1.5875 36.6024
# 2 17.6070 129.1059 11.6099 15.4951 10.7559 17.8069
# 3 52.5339 11.6099 188.9924 7.0412 16.0550 14.2928
# 4 7.1927 15.4951 7.0412 31.9726 -3.7142 -0.8651
# 5 -1.5875 10.7559 16.0550 -3.7142 38.6517 0.6319
# 6 36.6024 17.8069 14.2928 -0.8651 0.6319 56.4737
#
#
#
# Elastic Compliance Matrix: (Units=1/GPa)
#
#
# Indices 1 2 3 4 5 6 
#
# 1 0.023613 -0.000645 -0.005628 -0.003743 0.003352 -0.013772
# 2 -0.000645 0.008972 0.000250 -0.004679 -0.003036 -0.002512
# 3 -0.005628 0.000250 0.007011 -0.000735 -0.003314 0.001820
# 4 -0.003743 -0.004679 -0.000735 0.035225 0.004764 0.004574
# 5 0.003352 -0.003036 -0.003314 0.004764 0.028699 -0.000625
# 6 -0.013772 -0.002512 0.001820 0.004574 -0.000625 0.027042
#
#
# Mechanical properties :
#
#
# Convention : Reuss Voigt Hill
#
# Bulk Modulus (GPa) = 36.29553 62.18488 49.24021
# Shear Modulus (GPa) = 32.94004 46.38037 39.66020
#
# Velocity S-wave (km/s) = 3.68385 4.37127 4.04220
# Velocity P-wave (km/s) = 5.74870 7.14818 6.48630
#
# Compressibility (1/GPa) = 0.02755160
#
# Stress axis : x y z
#
# Youngs Moduli (GPa) = 42.34957 111.45866 142.62377
#
# Poissons Ratio (x) = 0.07186 0.80267
# Poissons Ratio (y) = 0.02730 -0.03569
# Poissons Ratio (z) = 0.23834 -0.02789
#
# Static dielectric constant tensor:
#      x y z
#    x 1.861650 -0.014220 0.013400 
#    y -0.014220 1.861740 -0.030860 
#    z 0.013400 -0.030860 1.986370 
# 
# From -- ./inp_files/564335.got.cif
#   From: 2010.05.17/outbox.cif.g08.bks.cpg/sg2_283_cif.got.tgz:564335.got - 2010.06.03 11:33:40.
