data_PCOD9069067
_publ_section_title
;
Structure prediction by ZEFSAII (Michael W. Deem and Ramdas Pophale) SiO2 
 PCOD9069067
Probable space group: P -1
;
_chemical_formula_sum "Si O2"
_cell_formula_units_Z 14
_cell_length_a 15.791936
_cell_length_b 11.251289
_cell_length_c 8.276105
_cell_angle_alpha 80.004360
_cell_angle_beta 40.778027
_cell_angle_gamma 50.118699
_cell_volume 576.821050
_symmetry_space_group_name_H-M "P -1"
_symmetry_group_IT_number 2
_symmetry_cell_setting 'triclinic'
loop_
_space_group_symop_operation_xyz
x,y,z
-x,-y,-z
loop_
_atom_site_type_symbol
_atom_site_label
_atom_site_fract_x
_atom_site_fract_y
_atom_site_fract_z
Si Si1 0.886664 0.796549 0.206562
Si Si2 0.479022 0.373310 0.099934
Si Si3 0.283748 0.591823 0.833940
Si Si4 0.019684 0.270882 0.239811
Si Si5 0.144751 0.915106 0.155976
Si Si6 0.516778 0.209670 0.772898
Si Si7 0.822547 0.731198 0.669743
O O1 0.848718 0.755524 0.441922
O O2 0.710998 0.031749 0.419693
O O3 0.131492 0.658600 0.897479
O O4 0.875484 0.737731 0.063237
O O5 0.231256 0.520447 0.426707
O O6 0.500000 0.500000 0.000000
O O7 0.611355 0.249716 0.098624
O O8 0.587836 0.220575 0.832660
O O9 0.500000 0.500000 0.500000
O O10 0.355718 0.424103 0.874845
O O11 0.144369 0.794828 0.079878
O O12 0.133298 0.207406 0.262939
O O13 0.055241 0.105972 0.175368
O O14 0.000000 0.000000 0.500000
O O15 0.396039 0.176512 0.002165
O O16 0.000000 0.500000 0.500000
#
# Coordination Sequence:
#
# PCOD9069067 Si02
#       7
#     2   2   2   2   2   2   2
#     4  12  28  46  76 112 143 195 249 303 368 432
#     4  12  22  41  72 104 146 196 238 287 372 434
#     4  12  25  43  67 107 155 185 232 301 364 434
#     4  12  27  47  73 111 145 192 246 303 362 437
#     4  12  23  40  68 103 148 188 237 291 351 440
#     4  12  25  48  75 104 148 198 240 306 366 430
#     4  12  25  54  76 101 149 193 251 306 362 432
#
# _framework density 24.270958
#
# number of rings (size 3 to 8) (size 9 to 14) (size 15 to 20)
#    0.000    0.000    5.714    4.714    0.000    2.286 
#    0.000    0.000    0.000    0.000    0.000    0.000 
#    0.000    0.000    0.000    0.000    0.000    0.000 
#
# Total GULP energy -78356.282889 kJ/mol
# GULP energy per Si atom -5596.877349 kJ/mol
# Density = 2.421572 g / cm^3
# Si number density = 24.270958 Si / 1000 Ang^3
#
#
#
# Elastic Constant Matrix: (Units=GPa)
#
#
# Indices 1 2 3 4 5 6 
#
# 1 50.3372 12.1105 17.7097 -23.1804 4.6263 -5.9747
# 2 12.1105 93.1581 11.6806 2.6962 5.7016 -11.6263
# 3 17.7097 11.6806 127.6444 -13.5280 12.8672 11.3437
# 4 -23.1804 2.6962 -13.5280 36.7419 -4.3742 2.9712
# 5 4.6263 5.7016 12.8672 -4.3742 48.0300 -0.6314
# 6 -5.9747 -11.6263 11.3437 2.9712 -0.6314 28.1203
#
#
#
# Elastic Compliance Matrix: (Units=1/GPa)
#
#
# Indices 1 2 3 4 5 6 
#
# 1 0.030480 -0.003707 -0.002279 0.018325 -0.000165 0.003923
# 2 -0.003707 0.012243 -0.001428 -0.004314 -0.001037 0.005283
# 3 -0.002279 -0.001428 0.009159 0.002218 -0.001929 -0.005047
# 4 0.018325 -0.004314 0.002218 0.040368 0.001790 -0.003010
# 5 -0.000165 -0.001037 -0.001929 0.001790 0.021647 0.000611
# 6 0.003923 0.005283 -0.005047 -0.003010 0.000611 0.040947
#
#
# Mechanical properties :
#
#
# Convention : Reuss Voigt Hill
#
# Bulk Modulus (GPa) = 26.98893 39.34903 33.16898
# Shear Modulus (GPa) = 27.46892 37.88770 32.67831
#
# Velocity S-wave (km/s) = 3.36781 3.95527 3.67331
# Velocity P-wave (km/s) = 5.12512 6.09151 5.62909
#
# Compressibility (1/GPa) = 0.03705223
#
# Stress axis : x y z
#
# Youngs Moduli (GPa) = 32.80892 81.67878 109.17964
#
# Poissons Ratio (x) = 0.30281 0.24886
# Poissons Ratio (y) = 0.12163 0.15592
# Poissons Ratio (z) = 0.07478 0.11665
#
# Static dielectric constant tensor:
#      x y z
#    x 2.027080 -0.033450 0.013540 
#    y -0.033450 2.017220 -0.055250 
#    z 0.013540 -0.055250 1.942100 
# 
# From -- ./inp_files/333191.got.cif
#   From: 2010.05.17/outbox.cif.g08.bks.cpg/sg2_167_cif.got.tgz:333191.got - 2010.06.03 11:33:40.
