data_PCOD9069663
_publ_section_title
;
Structure prediction by ZEFSAII (Michael W. Deem and Ramdas Pophale) SiO2 
 PCOD9069663
Probable space group: P -1
;
_chemical_formula_sum "Si O2"
_cell_formula_units_Z 16
_cell_length_a 12.787847
_cell_length_b 11.510565
_cell_length_c 12.137266
_cell_angle_alpha 42.882067
_cell_angle_beta 112.167433
_cell_angle_gamma 77.806579
_cell_volume 713.054593
_symmetry_space_group_name_H-M "P -1"
_symmetry_group_IT_number 2
_symmetry_cell_setting 'triclinic'
loop_
_space_group_symop_operation_xyz
x,y,z
-x,-y,-z
loop_
_atom_site_type_symbol
_atom_site_label
_atom_site_fract_x
_atom_site_fract_y
_atom_site_fract_z
Si Si1 0.082781 0.867784 0.895610
Si Si2 0.395056 0.759227 0.098643
Si Si3 0.249963 0.115160 0.577999
Si Si4 0.566128 0.868673 0.737941
Si Si5 0.063473 0.739505 0.746235
Si Si6 0.312576 0.087093 0.044927
Si Si7 0.760833 0.456071 0.399369
Si Si8 0.061280 0.647987 0.230517
O O1 0.087395 0.730219 0.893327
O O2 0.274128 0.733100 0.083022
O O3 0.018038 0.855241 0.990285
O O4 0.929448 0.186676 0.587015
O O5 0.598562 0.513082 0.309088
O O6 0.394366 0.868175 0.136344
O O7 0.294693 0.977512 0.808746
O O8 0.188423 0.377047 0.399436
O O9 0.090695 0.207144 0.389400
O O10 0.420110 0.921384 0.701921
O O11 0.594686 0.997711 0.740882
O O12 0.500000 0.000000 0.500000
O O13 0.750914 0.549241 0.025445
O O14 0.000000 0.000000 0.500000
O O15 0.308536 0.284505 0.858375
O O16 0.113547 0.250920 0.872757
O O17 0.836444 0.413547 0.578266
#
# Coordination Sequence:
#
# PCOD9069663 Si02
#       8
#     2   2   2   2   2   2   2   2
#     4  12  28  46  65 107 151 186 237 295 370 429
#     4  12  25  45  75 108 138 187 243 305 349 431
#     4  12  25  48  77 103 139 191 249 294 360 427
#     4  12  28  47  74 112 145 186 245 302 360 430
#     4  12  27  48  74 102 148 197 241 294 361 438
#     4  12  23  46  77 105 141 188 245 295 361 433
#     4  12  24  46  73 105 139 190 239 297 361 431
#     4  12  25  45  74 106 145 187 233 306 369 425
#
# _framework density 22.438673999999999
#
# number of rings (size 3 to 8) (size 9 to 14) (size 15 to 20)
#    0.000    0.000    6.250    4.125    1.750    3.000 
#    2.250    0.000    0.000    0.000    0.000    0.000 
#    0.000    0.000    0.000    0.000    0.000    0.000 
#
# Total GULP energy -89609.189894 kJ/mol
# GULP energy per Si atom -5600.574368 kJ/mol
# Density = 2.238760 g / cm^3
# Si number density = 22.438674 Si / 1000 Ang^3
#
#
#
# Elastic Constant Matrix: (Units=GPa)
#
#
# Indices 1 2 3 4 5 6 
#
# 1 45.4232 70.1724 35.8274 -35.1746 51.8315 -32.0352
# 2 70.1724 119.8913 50.5742 46.0896 7.4740 15.6989
# 3 35.8274 50.5742 70.1398 11.0741 22.4463 -4.1012
# 4 -35.1746 46.0896 11.0741 13.8725 -5.5710 -15.6616
# 5 51.8315 7.4740 22.4463 -5.5710 45.0041 5.8565
# 6 -32.0352 15.6989 -4.1012 -15.6616 5.8565 18.7332
#
#
#
# Elastic Compliance Matrix: (Units=1/GPa)
#
#
# Indices 1 2 3 4 5 6 
#
# 1 0.004898 0.005590 -0.002572 -0.015489 -0.006178 -0.007890
# 2 0.005590 0.006520 -0.005800 0.001491 -0.005185 0.005695
# 3 -0.002572 -0.005800 0.023952 -0.006779 -0.009241 0.002928
# 4 -0.015489 0.001491 -0.006779 0.027734 0.026258 -0.014243
# 5 -0.006178 -0.005185 -0.009241 0.026258 0.037810 0.001891
# 6 -0.007890 0.005695 0.002928 -0.014243 0.001891 0.023259
#
#
# Mechanical properties :
#
#
# Convention : Reuss Voigt Hill
#
# Bulk Modulus (GPa) = 33.54899 60.95580 47.25239
# Shear Modulus (GPa) = 35.79867 20.78064 28.28965
#
# Velocity S-wave (km/s) = 3.99858 3.04650 3.55456
# Velocity P-wave (km/s) = 6.02512 6.29281 6.16042
#
# Compressibility (1/GPa) = 0.02980716
#
# Stress axis : x y z
#
# Youngs Moduli (GPa) = 204.15660 153.38572 41.75097
#
# Poissons Ratio (x) = -0.85750 0.10738
# Poissons Ratio (y) = -1.14133 0.24214
# Poissons Ratio (z) = 0.52507 0.88958
#
# Static dielectric constant tensor:
#      x y z
#    x 1.807450 -0.021300 -0.013890 
#    y -0.021300 1.941640 0.015360 
#    z -0.013890 0.015360 1.821720 
# 
# From -- ./inp_files/273812.got.cif
#   From: 2010.05.17/outbox.cif.g08.bks.cpg/sg2_137_cif.got.tgz:273812.got - 2010.06.03 11:33:40.
