data_PCOD9069418
_publ_section_title
;
Structure prediction by ZEFSAII (Michael W. Deem and Ramdas Pophale) SiO2 
 PCOD9069418
Probable space group: P -1
;
_chemical_formula_sum "Si O2"
_cell_formula_units_Z 14
_cell_length_a 12.794603
_cell_length_b 12.409722
_cell_length_c 7.682298
_cell_angle_alpha 46.759804
_cell_angle_beta 136.284007
_cell_angle_gamma 107.587212
_cell_volume 567.182883
_symmetry_space_group_name_H-M "P -1"
_symmetry_group_IT_number 2
_symmetry_cell_setting 'triclinic'
loop_
_space_group_symop_operation_xyz
x,y,z
-x,-y,-z
loop_
_atom_site_type_symbol
_atom_site_label
_atom_site_fract_x
_atom_site_fract_y
_atom_site_fract_z
Si Si1 0.874098 0.593336 0.386809
Si Si2 0.903278 0.897956 0.913185
Si Si3 0.764691 0.695112 0.486066
Si Si4 0.694807 0.430643 0.851735
Si Si5 0.976047 0.179169 0.227584
Si Si6 0.434936 0.885400 0.659731
Si Si7 0.325705 0.621046 0.715450
O O1 0.895592 0.583427 0.628623
O O2 0.757500 0.496643 0.329682
O O3 0.000000 0.500000 0.500000
O O4 0.862483 0.774087 0.127291
O O5 0.020321 0.808133 0.992516
O O6 0.718704 0.015541 0.510807
O O7 0.000000 0.000000 0.000000
O O8 0.736253 0.588869 0.720243
O O9 0.853426 0.807832 0.529086
O O10 0.593667 0.775311 0.084807
O O11 0.500000 0.500000 0.500000
O O12 0.815661 0.303079 0.999368
O O13 0.720155 0.363674 0.151017
O O14 0.000000 0.000000 0.500000
O O15 0.356113 0.788781 0.545162
O O16 0.500000 0.000000 0.500000
O O17 0.500000 0.500000 0.000000
#
# Coordination Sequence:
#
# PCOD9069418 Si02
#       7
#     2   2   2   2   2   2   2
#     4  12  23  43  70 105 139 196 251 300 366 445
#     4  12  26  48  74 106 152 203 248 311 377 454
#     4  12  25  49  72 108 153 194 250 313 376 451
#     4  12  25  48  76 108 150 192 250 312 372 449
#     4  12  28  49  73 111 151 201 247 312 386 444
#     4  12  25  47  73 111 150 197 254 315 376 445
#     4  12  23  45  72 107 143 192 248 302 369 443
#
# _framework density 24.683395000000001
#
# number of rings (size 3 to 8) (size 9 to 14) (size 15 to 20)
#    0.000    0.000    4.286    5.571    0.000    1.714 
#    2.571    0.000    0.000    0.000    0.000    0.000 
#    0.000    0.000    0.000    0.000    0.000    0.000 
#
# Total GULP energy -78021.346293 kJ/mol
# GULP energy per Si atom -5572.953307 kJ/mol
# Density = 2.462721 g / cm^3
# Si number density = 24.683395 Si / 1000 Ang^3
#
#
#
# Elastic Constant Matrix: (Units=GPa)
#
#
# Indices 1 2 3 4 5 6 
#
# 1 126.1932 51.4295 36.1678 -19.4887 5.9715 6.8579
# 2 51.4295 216.5876 43.2702 -16.7352 -10.0092 47.3871
# 3 36.1678 43.2702 81.3368 -13.4681 4.8159 27.4444
# 4 -19.4887 -16.7352 -13.4681 37.6403 10.6348 -7.6370
# 5 5.9715 -10.0092 4.8159 10.6348 62.1103 -4.7243
# 6 6.8579 47.3871 27.4444 -7.6370 -4.7243 59.5392
#
#
#
# Elastic Compliance Matrix: (Units=1/GPa)
#
#
# Indices 1 2 3 4 5 6 
#
# 1 0.010359 -0.002042 -0.003585 0.004119 -0.001563 0.002489
# 2 -0.002042 0.006287 -0.001038 0.000256 0.000928 -0.004184
# 3 -0.003585 -0.001038 0.017289 0.003172 -0.002200 -0.006498
# 4 0.004119 0.000256 0.003172 0.031932 -0.005956 0.001483
# 5 -0.001563 0.000928 -0.002200 -0.005956 0.017674 0.001094
# 6 0.002489 -0.004184 -0.006498 0.001483 0.001094 0.023112
#
#
# Mechanical properties :
#
#
# Convention : Reuss Voigt Hill
#
# Bulk Modulus (GPa) = 48.53019 76.20584 62.36802
# Shear Modulus (GPa) = 39.41634 51.40797 45.41215
#
# Velocity S-wave (km/s) = 4.00043 4.56861 4.29393
# Velocity P-wave (km/s) = 6.40638 7.66615 7.06440
#
# Compressibility (1/GPa) = 0.02060573
#
# Stress axis : x y z
#
# Youngs Moduli (GPa) = 96.53449 159.04979 57.84077
#
# Poissons Ratio (x) = 0.32479 0.20737
# Poissons Ratio (y) = 0.19713 0.06001
# Poissons Ratio (z) = 0.34609 0.16502
#
# Static dielectric constant tensor:
#      x y z
#    x 1.936780 0.005990 0.024260 
#    y 0.005990 2.293790 0.127600 
#    z 0.024260 0.127600 2.165810 
# 
# From -- ./inp_files/261372.got.cif
#   From: 2010.05.17/outbox.cif.g08.bks.cpg/sg2_131_cif.got.tgz:261372.got - 2010.06.03 11:33:40.
