data_PCOD9069140
_publ_section_title
;
Structure prediction by ZEFSAII (Michael W. Deem and Ramdas Pophale) SiO2 
 PCOD9069140
Probable space group: P -1
;
_chemical_formula_sum "Si O2"
_cell_formula_units_Z 16
_cell_length_a 8.447275
_cell_length_b 11.884997
_cell_length_c 8.720124
_cell_angle_alpha 116.186981
_cell_angle_beta 114.249409
_cell_angle_gamma 63.480763
_cell_volume 677.601605
_symmetry_space_group_name_H-M "P -1"
_symmetry_group_IT_number 2
_symmetry_cell_setting 'triclinic'
loop_
_space_group_symop_operation_xyz
x,y,z
-x,-y,-z
loop_
_atom_site_type_symbol
_atom_site_label
_atom_site_fract_x
_atom_site_fract_y
_atom_site_fract_z
Si Si1 0.628792 0.831566 0.611499
Si Si2 0.088989 0.997590 0.865593
Si Si3 0.004205 0.760373 0.535243
Si Si4 0.554257 0.115337 0.878485
Si Si5 0.571184 0.313393 0.745876
Si Si6 0.596442 0.436625 0.338330
Si Si7 0.026811 0.712679 0.156020
Si Si8 0.691539 0.713488 0.903039
O O1 0.810854 0.770628 0.544313
O O2 0.462090 0.788084 0.454146
O O3 0.676688 0.771617 0.763098
O O4 0.576256 0.989256 0.704055
O O5 0.029745 0.901239 0.670230
O O6 0.301747 0.933770 0.955145
O O7 0.025045 0.144416 0.863120
O O8 0.000000 0.000000 0.000000
O O9 0.192444 0.652513 0.607400
O O10 0.995779 0.731848 0.336054
O O11 0.578341 0.234184 0.857726
O O12 0.361469 0.172273 0.919838
O O13 0.414505 0.450198 0.723670
O O14 0.756633 0.347183 0.818776
O O15 0.500000 0.500000 0.500000
O O16 0.462346 0.356111 0.185681
O O17 0.901556 0.637231 0.979813
#
# Coordination Sequence:
#
# PCOD9069140 Si02
#       8
#     2   2   2   2   2   2   2   2
#     4  12  25  47  76 109 145 184 234 302 364 425
#     4  12  22  43  72 109 147 182 232 299 367 426
#     4  12  25  46  73 106 146 190 237 292 360 426
#     4  12  25  45  73 112 145 179 237 298 366 423
#     4  12  27  48  73 104 148 193 239 289 354 427
#     4  12  26  52  73 100 145 196 242 290 347 425
#     4  12  25  43  73 109 143 187 237 298 361 422
#     4  12  26  46  75 107 144 191 238 294 356 423
#
# _framework density 23.612694000000001
#
# number of rings (size 3 to 8) (size 9 to 14) (size 15 to 20)
#    0.000    0.000    7.500    1.875    0.000    2.500 
#    0.000    0.000    0.000    0.000    0.000    0.000 
#    0.000    0.000    0.000    0.000    0.000    0.000 
#
# Total GULP energy -89551.460698 kJ/mol
# GULP energy per Si atom -5596.966294 kJ/mol
# Density = 2.355895 g / cm^3
# Si number density = 23.612694 Si / 1000 Ang^3
#
#
#
# Elastic Constant Matrix: (Units=GPa)
#
#
# Indices 1 2 3 4 5 6 
#
# 1 77.6638 10.9249 20.1705 -6.4529 -7.2369 -3.2076
# 2 10.9249 104.8197 7.1737 -27.7950 -10.0424 5.9810
# 3 20.1705 7.1737 98.4289 -18.8919 5.3604 3.6605
# 4 -6.4529 -27.7950 -18.8919 31.2345 -0.7954 -2.8268
# 5 -7.2369 -10.0424 5.3604 -0.7954 45.3424 -6.8710
# 6 -3.2076 5.9810 3.6605 -2.8268 -6.8710 29.0184
#
#
#
# Elastic Compliance Matrix: (Units=1/GPa)
#
#
# Indices 1 2 3 4 5 6 
#
# 1 0.014229 -0.001025 -0.002998 0.000548 0.002846 0.002890
# 2 -0.001025 0.013138 0.001528 0.012362 0.002602 -0.001194
# 3 -0.002998 0.001528 0.012363 0.008007 -0.001740 -0.001838
# 4 0.000548 0.012362 0.008007 0.048222 0.003015 0.001914
# 5 0.002846 0.002602 -0.001740 0.003015 0.024258 0.006035
# 6 0.002890 -0.001194 -0.001838 0.001914 0.006035 0.036874
#
#
# Mechanical properties :
#
#
# Convention : Reuss Voigt Hill
#
# Bulk Modulus (GPa) = 28.78628 39.71672 34.25150
# Shear Modulus (GPa) = 30.18351 37.29530 33.73940
#
# Velocity S-wave (km/s) = 3.57918 3.97855 3.78414
# Velocity P-wave (km/s) = 5.41278 6.16131 5.79913
#
# Compressibility (1/GPa) = 0.03473877
#
# Stress axis : x y z
#
# Youngs Moduli (GPa) = 70.27914 76.11684 80.88910
#
# Poissons Ratio (x) = 0.07799 0.24254
# Poissons Ratio (y) = 0.07201 -0.12358
# Poissons Ratio (z) = 0.21073 -0.11629
#
# Static dielectric constant tensor:
#      x y z
#    x 1.920740 -0.036400 0.040900 
#    y -0.036400 1.933000 0.022780 
#    z 0.040900 0.022780 1.895820 
# 
# From -- ./inp_files/189562.got.cif
#   From: 2010.05.17/outbox.cif.g08.bks.cpg/sg2_95_cif.got.tgz:189562.got - 2010.06.03 11:33:40.
