data_PCOD9069094
_publ_section_title
;
Structure prediction by ZEFSAII (Michael W. Deem and Ramdas Pophale) SiO2 
 PCOD9069094
Probable space group: P -1
;
_chemical_formula_sum "Si O2"
_cell_formula_units_Z 13
_cell_length_a 7.948809
_cell_length_b 7.248809
_cell_length_c 11.858516
_cell_angle_alpha 74.300225
_cell_angle_beta 119.515497
_cell_angle_gamma 118.194499
_cell_volume 523.417450
_symmetry_space_group_name_H-M "P -1"
_symmetry_group_IT_number 2
_symmetry_cell_setting 'triclinic'
loop_
_space_group_symop_operation_xyz
x,y,z
-x,-y,-z
loop_
_atom_site_type_symbol
_atom_site_label
_atom_site_fract_x
_atom_site_fract_y
_atom_site_fract_z
Si Si1 0.312082 0.291076 0.016087
Si Si2 0.959450 0.354542 0.800695
Si Si3 0.781506 0.910710 0.374359
Si Si4 0.791161 0.484534 0.369609
Si Si5 0.000000 0.500000 0.000000
Si Si6 0.257998 0.940095 0.900170
Si Si7 0.568087 0.946652 0.701877
O O1 0.380412 0.166555 0.152348
O O2 0.500000 0.500000 0.000000
O O3 0.113074 0.351548 0.963695
O O4 0.209861 0.122261 0.912856
O O5 0.126660 0.486642 0.739130
O O6 0.835046 0.445921 0.826724
O O7 0.798713 0.136653 0.728272
O O8 0.740819 0.681005 0.355086
O O9 0.797986 0.055662 0.247892
O O10 0.584397 0.928909 0.368246
O O11 0.000000 0.000000 0.500000
O O12 0.592230 0.270807 0.372673
O O13 0.000000 0.500000 0.500000
O O14 0.149243 0.720128 0.955527
O O15 0.500000 0.000000 0.000000
#
# Coordination Sequence:
#
# PCOD9069094 Si02
#       7
#     2   2   2   2   1   2   2
#     4  12  22  42  73 107 147 197 243 311 385 447
#     4  12  26  46  73 113 148 194 252 314 384 455
#     4  12  25  48  78 109 152 209 255 312 390 461
#     4  12  27  51  77 103 152 207 258 310 385 464
#     4  12  26  40  74 112 150 184 250 316 388 436
#     4  12  23  44  71 106 147 191 249 312 377 457
#     4  12  25  47  74 109 151 196 255 318 379 452
#
# _framework density 24.836772
#
# number of rings (size 3 to 8) (size 9 to 14) (size 15 to 20)
#    0.000    0.000    7.692    2.308    0.000    1.846 
#    0.000    0.769    0.000    0.000    0.000    0.000 
#    0.000    0.000    0.000    0.000    0.000    0.000 
#
# Total GULP energy -72390.314742 kJ/mol
# GULP energy per Si atom -5568.485749 kJ/mol
# Density = 2.478024 g / cm^3
# Si number density = 24.836772 Si / 1000 Ang^3
#
#
#
# Elastic Constant Matrix: (Units=GPa)
#
#
# Indices 1 2 3 4 5 6 
#
# 1 90.1401 53.9252 39.6397 2.6217 37.4006 -13.6645
# 2 53.9252 220.3910 19.7936 15.7630 2.1328 1.8959
# 3 39.6397 19.7936 118.5924 9.7432 24.0221 12.6989
# 4 2.6217 15.7630 9.7432 36.2302 0.4516 4.7266
# 5 37.4006 2.1328 24.0221 0.4516 40.0461 8.9518
# 6 -13.6645 1.8959 12.6989 4.7266 8.9518 44.1975
#
#
#
# Elastic Compliance Matrix: (Units=1/GPa)
#
#
# Indices 1 2 3 4 5 6 
#
# 1 0.035242 -0.007971 -0.005815 0.000336 -0.033395 0.019637
# 2 -0.007971 0.006534 0.000635 -0.001975 0.007693 -0.004274
# 3 -0.005815 0.000635 0.010977 -0.002190 -0.000107 -0.004723
# 4 0.000336 -0.001975 -0.002190 0.029347 0.001354 -0.002595
# 5 -0.033395 0.007693 -0.000107 0.001354 0.060967 -0.023117
# 6 0.019637 -0.004274 -0.004723 -0.002595 -0.023117 0.035197
#
#
# Mechanical properties :
#
#
# Convention : Reuss Voigt Hill
#
# Bulk Modulus (GPa) = 37.80328 72.87117 55.33723
# Shear Modulus (GPa) = 23.43202 45.14577 34.28889
#
# Velocity S-wave (km/s) = 3.07488 4.26807 3.71963
# Velocity P-wave (km/s) = 5.27828 7.32750 6.38563
#
# Compressibility (1/GPa) = 0.02645273
#
# Stress axis : x y z
#
# Youngs Moduli (GPa) = 28.37485 153.04148 91.09632
#
# Poissons Ratio (x) = 1.21983 0.52976
# Poissons Ratio (y) = 0.22616 -0.05788
# Poissons Ratio (z) = 0.16501 -0.09723
#
# Static dielectric constant tensor:
#      x y z
#    x 2.765840 -0.413500 0.021420 
#    y -0.413500 2.178490 0.031370 
#    z 0.021420 0.031370 2.115780 
# 
# From -- ./inp_files/375963.got.cif
#   From: 2010.05.17/outbox.cif.g08.bks.cpg/sg2_188_cif.got.tgz:375963.got - 2010.06.03 11:33:40.
