data_PCOD9069587
_publ_section_title
;
Structure prediction by ZEFSAII (Michael W. Deem and Ramdas Pophale) SiO2 
 PCOD9069587
Probable space group: P -1
;
_chemical_formula_sum "Si O2"
_cell_formula_units_Z 13
_cell_length_a 9.586293
_cell_length_b 11.454442
_cell_length_c 11.545933
_cell_angle_alpha 115.298823
_cell_angle_beta 100.428883
_cell_angle_gamma 134.053240
_cell_volume 557.781165
_symmetry_space_group_name_H-M "P -1"
_symmetry_group_IT_number 2
_symmetry_cell_setting 'triclinic'
loop_
_space_group_symop_operation_xyz
x,y,z
-x,-y,-z
loop_
_atom_site_type_symbol
_atom_site_label
_atom_site_fract_x
_atom_site_fract_y
_atom_site_fract_z
Si Si1 0.033415 0.792737 0.621614
Si Si2 0.880993 0.042901 0.047001
Si Si3 0.454669 0.926210 0.328065
Si Si4 0.149287 0.084934 0.408118
Si Si5 0.335757 0.565947 0.204672
Si Si6 0.500000 0.500000 0.000000
Si Si7 0.515987 0.788321 0.677621
O O1 0.860284 0.767635 0.518093
O O2 0.814769 0.510255 0.511519
O O3 0.161349 0.972177 0.828496
O O4 0.270660 0.916255 0.630198
O O5 0.112672 0.329340 0.160301
O O6 0.595292 0.846367 0.848899
O O7 0.000000 0.000000 0.000000
O O8 0.248355 0.639231 0.182194
O O9 0.500000 0.000000 0.500000
O O10 0.390448 0.004144 0.279398
O O11 0.360163 0.189816 0.578401
O O12 0.301971 0.175809 0.347124
O O13 0.826440 0.778736 0.225812
O O14 0.365757 0.494419 0.071629
#
# Coordination Sequence:
#
# PCOD9069587 Si02
#       7
#     2   2   2   2   2   1   2
#     4  12  25  47  74 104 143 190 244 299 356 424
#     4  12  24  45  74 108 139 184 245 299 351 425
#     4  12  27  48  71 107 149 193 240 291 368 437
#     4  12  23  45  75 107 142 189 240 300 360 416
#     4  12  25  45  72 105 148 186 239 298 357 425
#     4  12  24  42  68 114 138 182 240 302 348 422
#     4  12  25  46  74 103 147 193 235 296 361 432
#
# _framework density 23.306632
#
# number of rings (size 3 to 8) (size 9 to 14) (size 15 to 20)
#    0.000    0.000    7.692    2.308    0.000    1.231 
#    0.000    0.000    0.000    0.000    0.000    0.000 
#    0.000    0.000    0.000    0.000    0.000    0.000 
#
# Total GULP energy -72484.584050 kJ/mol
# GULP energy per Si atom -5575.737235 kJ/mol
# Density = 2.325358 g / cm^3
# Si number density = 23.306632 Si / 1000 Ang^3
#
#
#
# Elastic Constant Matrix: (Units=GPa)
#
#
# Indices 1 2 3 4 5 6 
#
# 1 95.2243 30.4717 16.2089 -14.2302 -16.4001 11.9755
# 2 30.4717 68.7092 24.9970 -9.7936 -11.1265 5.4363
# 3 16.2089 24.9970 103.8772 -15.5847 -14.4733 -4.5575
# 4 -14.2302 -9.7936 -15.5847 43.1600 7.5155 -5.0599
# 5 -16.4001 -11.1265 -14.4733 7.5155 22.3221 -11.5105
# 6 11.9755 5.4363 -4.5575 -5.0599 -11.5105 45.8559
#
#
#
# Elastic Compliance Matrix: (Units=1/GPa)
#
#
# Indices 1 2 3 4 5 6 
#
# 1 0.013529 -0.004619 0.000183 0.002228 0.006435 -0.001106
# 2 -0.004619 0.018432 -0.003140 0.000915 0.003258 -0.000372
# 3 0.000183 -0.003140 0.011947 0.002828 0.007241 0.003641
# 4 0.002228 0.000915 0.002828 0.026014 -0.004093 0.001434
# 5 0.006435 0.003258 0.007241 -0.004093 0.064666 0.014433
# 6 -0.001106 -0.000372 0.003641 0.001434 0.014433 0.026284
#
#
# Mechanical properties :
#
#
# Convention : Reuss Voigt Hill
#
# Bulk Modulus (GPa) = 34.77578 45.68511 40.23045
# Shear Modulus (GPa) = 26.93832 35.34314 31.14073
#
# Velocity S-wave (km/s) = 3.40343 3.89838 3.65928
# Velocity P-wave (km/s) = 5.51342 6.31723 5.92896
#
# Compressibility (1/GPa) = 0.02875564
#
# Stress axis : x y z
#
# Youngs Moduli (GPa) = 73.91553 54.25215 83.70509
#
# Poissons Ratio (x) = 0.25060 -0.01531
# Poissons Ratio (y) = 0.34143 0.26283
# Poissons Ratio (z) = -0.01352 0.17035
#
# Static dielectric constant tensor:
#      x y z
#    x 1.851500 -0.032980 -0.010020 
#    y -0.032980 1.917850 -0.005340 
#    z -0.010020 -0.005340 1.923460 
# 
# From -- ./inp_files/243270.got.cif
#   From: 2010.05.17/outbox.cif.g08.bks.cpg/sg2_122_cif.got.tgz:243270.got - 2010.06.03 11:33:40.
