data_PCOD9069813
_publ_section_title
;
Structure prediction by ZEFSAII (Michael W. Deem and Ramdas Pophale) SiO2 
 PCOD9069813
Probable space group: P -1
;
_chemical_formula_sum "Si O2"
_cell_formula_units_Z 12
_cell_length_a 11.272753
_cell_length_b 7.823714
_cell_length_c 9.398432
_cell_angle_alpha 66.866619
_cell_angle_beta 124.004966
_cell_angle_gamma 134.037860
_cell_volume 493.962110
_symmetry_space_group_name_H-M "P -1"
_symmetry_group_IT_number 2
_symmetry_cell_setting 'triclinic'
loop_
_space_group_symop_operation_xyz
x,y,z
-x,-y,-z
loop_
_atom_site_type_symbol
_atom_site_label
_atom_site_fract_x
_atom_site_fract_y
_atom_site_fract_z
Si Si1 0.074666 0.299926 0.719433
Si Si2 0.250540 0.053607 0.922964
Si Si3 0.779520 0.017561 0.375387
Si Si4 0.378826 0.445162 0.708321
Si Si5 0.886154 0.344380 0.838644
Si Si6 0.534321 0.207102 0.550553
O O1 0.107611 0.106671 0.836808
O O2 0.268915 0.506829 0.708287
O O3 0.008850 0.354835 0.794404
O O4 0.923939 0.196549 0.529332
O O5 0.197082 0.892172 0.799059
O O6 0.424437 0.313996 0.892193
O O7 0.250954 0.926649 0.101014
O O8 0.770358 0.788023 0.411977
O O9 0.583364 0.896650 0.352637
O O10 0.515697 0.654194 0.625563
O O11 0.748738 0.386590 0.671891
O O12 0.000000 0.500000 0.000000
O O13 0.500000 0.000000 0.500000
#
# Coordination Sequence:
#
# PCOD9069813 Si02
#       6
#     2   2   2   2   2   2
#     4   9  19  41  68  87 120 169 218 240 297 386
#     4   8  21  41  62  92 121 165 210 255 300 368
#     4   9  19  40  69  87 122 165 217 245 300 376
#     4   8  21  39  67  89 117 172 214 244 296 381
#     4  12  26  38  62  98 133 156 200 265 320 353
#     4  12  24  40  62  97 129 161 202 260 312 364
#
# _framework density 24.293361999999998
#
# number of rings (size 3 to 8) (size 9 to 14) (size 15 to 20)
#    2.000    0.000    1.667    3.000    4.667    2.667 
#    0.000    0.833    0.000    0.000    0.000    0.000 
#    0.000    0.000    0.000    0.000    0.000    0.000 
#
# Total GULP energy -66843.153074 kJ/mol
# GULP energy per Si atom -5570.262756 kJ/mol
# Density = 2.423807 g / cm^3
# Si number density = 24.293362 Si / 1000 Ang^3
#
#
#
# Elastic Constant Matrix: (Units=GPa)
#
#
# Indices 1 2 3 4 5 6 
#
# 1 129.6253 1.1602 41.0462 2.7083 -40.3042 10.0744
# 2 1.1602 51.7231 28.7502 -11.4104 -8.1412 -11.5927
# 3 41.0462 28.7502 95.4448 12.6179 -29.5077 -6.3364
# 4 2.7083 -11.4104 12.6179 43.3806 -6.6644 1.2719
# 5 -40.3042 -8.1412 -29.5077 -6.6644 40.1536 0.9575
# 6 10.0744 -11.5927 -6.3364 1.2719 0.9575 16.5414
#
#
#
# Elastic Compliance Matrix: (Units=1/GPa)
#
#
# Indices 1 2 3 4 5 6 
#
# 1 0.013067 0.002267 -0.003688 0.002882 0.011551 -0.008673
# 2 0.002267 0.031129 -0.009905 0.010890 0.002743 0.015645
# 3 -0.003688 -0.009905 0.018071 -0.006718 0.006398 0.002373
# 4 0.002882 0.010890 -0.006718 0.028412 0.004860 0.000837
# 5 0.011551 0.002743 0.006398 0.004860 0.042694 -0.005507
# 6 -0.008673 0.015645 0.002373 0.000837 -0.005507 0.077865
#
#
# Mechanical properties :
#
#
# Convention : Reuss Voigt Hill
#
# Bulk Modulus (GPa) = 25.24301 46.52293 35.88297
# Shear Modulus (GPa) = 20.23510 33.73756 26.98633
#
# Velocity S-wave (km/s) = 2.88921 3.73065 3.33656
# Velocity P-wave (km/s) = 4.64150 6.14402 5.44484
#
# Compressibility (1/GPa) = 0.03961493
#
# Stress axis : x y z
#
# Youngs Moduli (GPa) = 76.52575 32.12420 55.33872
#
# Poissons Ratio (x) = -0.07283 0.20411
# Poissons Ratio (y) = -0.17349 0.54812
# Poissons Ratio (z) = 0.28225 0.31819
#
# Static dielectric constant tensor:
#      x y z
#    x 1.900000 0.002830 -0.012020 
#    y 0.002830 2.044230 -0.002130 
#    z -0.012020 -0.002130 1.914870 
# 
# From -- ./inp_files/160013.got.cif
#   From: 2010.05.17/outbox.cif.g08.bks.cpg/sg2_81_cif.got.tgz:160013.got - 2010.06.03 11:33:40.
