data_PCOD9069272
_publ_section_title
;
Structure prediction by ZEFSAII (Michael W. Deem and Ramdas Pophale) SiO2 
 PCOD9069272
Probable space group: P -1
;
_chemical_formula_sum "Si O2"
_cell_formula_units_Z 16
_cell_length_a 12.331509
_cell_length_b 8.736297
_cell_length_c 8.852957
_cell_angle_alpha 112.795299
_cell_angle_beta 117.946333
_cell_angle_gamma 55.929841
_cell_volume 687.665996
_symmetry_space_group_name_H-M "P -1"
_symmetry_group_IT_number 2
_symmetry_cell_setting 'triclinic'
loop_
_space_group_symop_operation_xyz
x,y,z
-x,-y,-z
loop_
_atom_site_type_symbol
_atom_site_label
_atom_site_fract_x
_atom_site_fract_y
_atom_site_fract_z
Si Si1 0.439539 0.537595 0.312010
Si Si2 0.606937 0.915785 0.403087
Si Si3 0.142397 0.478309 0.841346
Si Si4 0.831972 0.670477 0.697204
Si Si5 0.856970 0.329157 0.773778
Si Si6 0.566207 0.122784 0.161821
Si Si7 0.170333 0.128651 0.905868
Si Si8 0.407108 0.418708 0.831439
O O1 0.500000 0.500000 0.500000
O O2 0.278813 0.692079 0.279133
O O3 0.453901 0.341786 0.177968
O O4 0.551337 0.574094 0.309656
O O5 0.742890 0.779915 0.535468
O O6 0.555341 0.797411 0.218307
O O7 0.500000 0.000000 0.500000
O O8 0.609483 0.064112 0.342792
O O9 0.183807 0.266240 0.839438
O O10 0.251877 0.511617 0.827302
O O11 0.990576 0.577525 0.712003
O O12 0.122422 0.575130 0.026907
O O13 0.815545 0.490939 0.680264
O O14 0.810765 0.802048 0.885642
O O15 0.012782 0.159648 0.791142
O O16 0.704576 0.072963 0.134583
O O17 0.500000 0.000000 0.000000
O O18 0.500000 0.500000 0.000000
#
# Coordination Sequence:
#
# PCOD9069272 Si02
#       8
#     2   2   2   2   2   2   2   2
#     4  12  25  41  61  92 131 171 199 253 327 380
#     4  12  24  40  62  97 126 158 208 272 313 352
#     4   9  17  37  63  94 118 164 210 259 304 372
#     4   9  19  35  64  93 125 154 209 267 314 351
#     4   9  17  37  62  89 125 164 209 246 315 378
#     4  12  23  41  66  92 122 162 220 256 304 372
#     4   9  18  37  67  92 117 163 216 263 295 369
#     4  12  23  39  64  92 127 162 212 250 307 385
#
# _framework density 23.267108
#
# number of rings (size 3 to 8) (size 9 to 14) (size 15 to 20)
#    0.000    1.500    2.500    6.750    0.000    0.500 
#    2.250    0.625    2.750    2.250    0.000    0.000 
#    0.000    0.000    0.000    0.000    0.000    0.000 
#
# Total GULP energy -89193.196447 kJ/mol
# GULP energy per Si atom -5574.574778 kJ/mol
# Density = 2.321415 g / cm^3
# Si number density = 23.267108 Si / 1000 Ang^3
#
#
#
# Elastic Constant Matrix: (Units=GPa)
#
#
# Indices 1 2 3 4 5 6 
#
# 1 170.8790 35.6006 31.4856 -16.2429 -4.9441 -24.1393
# 2 35.6006 46.2358 28.7778 -14.2559 6.3179 -10.6341
# 3 31.4856 28.7778 76.3398 -20.8129 1.5251 0.8057
# 4 -16.2429 -14.2559 -20.8129 42.5317 3.3427 -3.3499
# 5 -4.9441 6.3179 1.5251 3.3427 33.2672 -11.7383
# 6 -24.1393 -10.6341 0.8057 -3.3499 -11.7383 37.4373
#
#
#
# Elastic Compliance Matrix: (Units=1/GPa)
#
#
# Indices 1 2 3 4 5 6 
#
# 1 0.007955 -0.004144 -0.001580 0.000992 0.003800 0.005266
# 2 -0.004144 0.035004 -0.009733 0.006301 -0.005186 0.006418
# 3 -0.001580 -0.009733 0.018892 0.005151 -0.001221 -0.004112
# 4 0.000992 0.006301 0.005151 0.029060 -0.002777 0.004048
# 5 0.003800 -0.005186 -0.001221 -0.002777 0.036217 0.012111
# 6 0.005266 0.006418 -0.004112 0.004048 0.012111 0.036178
#
#
# Mechanical properties :
#
#
# Convention : Reuss Voigt Hill
#
# Bulk Modulus (GPa) = 32.32250 53.90918 43.11584
# Shear Modulus (GPa) = 24.44596 35.81995 30.13296
#
# Velocity S-wave (km/s) = 3.24491 3.92792 3.60264
# Velocity P-wave (km/s) = 5.28785 6.61750 5.98969
#
# Compressibility (1/GPa) = 0.03093821
#
# Stress axis : x y z
#
# Youngs Moduli (GPa) = 125.71193 28.56797 52.93216
#
# Poissons Ratio (x) = 0.11838 0.08362
# Poissons Ratio (y) = 0.52093 0.51518
# Poissons Ratio (z) = 0.19860 0.27805
#
# Static dielectric constant tensor:
#      x y z
#    x 1.506960 -0.087080 0.022680 
#    y -0.087080 1.935210 0.005040 
#    z 0.022680 0.005040 1.927230 
# 
# From -- ./inp_files/245211.got.cif
#   From: 2010.05.17/outbox.cif.g08.bks.cpg/sg2_123_cif.got.tgz:245211.got - 2010.06.03 11:33:40.
