data_PCOD9069856
_publ_section_title
;
Structure prediction by ZEFSAII (Michael W. Deem and Ramdas Pophale) SiO2 
 PCOD9069856
Probable space group: P -1
;
_chemical_formula_sum "Si O2"
_cell_formula_units_Z 16
_cell_length_a 23.630965
_cell_length_b 5.944363
_cell_length_c 9.080472
_cell_angle_alpha 52.019539
_cell_angle_beta 51.185532
_cell_angle_gamma 45.406348
_cell_volume 671.479659
_symmetry_space_group_name_H-M "P -1"
_symmetry_group_IT_number 2
_symmetry_cell_setting 'triclinic'
loop_
_space_group_symop_operation_xyz
x,y,z
-x,-y,-z
loop_
_atom_site_type_symbol
_atom_site_label
_atom_site_fract_x
_atom_site_fract_y
_atom_site_fract_z
Si Si1 0.447504 0.727246 0.359726
Si Si2 0.302645 0.088728 0.987291
Si Si3 0.159595 0.754549 0.791060
Si Si4 0.054493 0.105445 0.541325
Si Si5 0.507100 0.205164 0.204217
Si Si6 0.735921 0.897317 0.606140
Si Si7 0.939276 0.886508 0.918087
Si Si8 0.195670 0.843625 0.189574
O O1 0.500000 0.500000 0.500000
O O2 0.465895 0.430008 0.328747
O O3 0.474020 0.012149 0.231248
O O4 0.346739 0.954050 0.420299
O O5 0.291048 0.075442 0.187958
O O6 0.287772 0.797913 0.070141
O O7 0.228116 0.404998 0.894692
O O8 0.393088 0.042700 0.826741
O O9 0.108349 0.831774 0.691135
O O10 0.212548 0.931998 0.595929
O O11 0.085245 0.926722 0.962949
O O12 0.000000 0.500000 0.500000
O O13 0.126819 0.079108 0.326083
O O14 0.981567 0.012592 0.679343
O O15 0.500000 0.500000 0.000000
O O16 0.795620 0.505141 0.651709
O O17 0.847239 0.995718 0.959137
O O18 0.000000 0.500000 0.000000
#
# Coordination Sequence:
#
# PCOD9069856 Si02
#       8
#     2   2   2   2   2   2   2   2
#     4  12  28  49  78 115 153 198 255 309 376 450
#     4  12  26  47  74 105 149 191 242 307 367 442
#     4  12  25  46  70 105 141 189 242 295 372 439
#     4  12  24  44  70 101 143 186 238 303 367 436
#     4  12  26  48  79 110 152 203 250 304 381 450
#     4  12  26  48  73 105 151 187 242 310 365 443
#     4  12  24  42  67 104 138 181 244 298 355 444
#     4  12  25  45  73 103 142 192 241 298 377 433
#
# _framework density 23.827974999999999
#
# number of rings (size 3 to 8) (size 9 to 14) (size 15 to 20)
#    0.000    0.000    3.750    6.750    1.750    2.000 
#    0.000    0.000    0.000    0.000    0.000    0.000 
#    0.000    0.000    0.000    0.000    0.000    0.000 
#
# Total GULP energy -89139.755894 kJ/mol
# GULP energy per Si atom -5571.234743 kJ/mol
# Density = 2.377374 g / cm^3
# Si number density = 23.827975 Si / 1000 Ang^3
#
#
#
# Elastic Constant Matrix: (Units=GPa)
#
#
# Indices 1 2 3 4 5 6 
#
# 1 117.4677 14.9692 3.6336 -0.9111 -23.2631 -19.3070
# 2 14.9692 86.7087 15.2350 -17.4679 -4.6961 -15.8088
# 3 3.6336 15.2350 60.7295 -16.3261 -8.5262 7.5397
# 4 -0.9111 -17.4679 -16.3261 43.8584 -0.6814 2.9207
# 5 -23.2631 -4.6961 -8.5262 -0.6814 50.2758 -10.8925
# 6 -19.3070 -15.8088 7.5397 2.9207 -10.8925 41.9475
#
#
#
# Elastic Compliance Matrix: (Units=1/GPa)
#
#
# Indices 1 2 3 4 5 6 
#
# 1 0.010935 -0.000300 -0.000649 -0.000483 0.006372 0.006725
# 2 -0.000300 0.014122 -0.002847 0.004195 0.002040 0.005934
# 3 -0.000649 -0.002847 0.019863 0.006603 0.001824 -0.004928
# 4 -0.000483 0.004195 0.006603 0.027031 0.001361 -0.001357
# 5 0.006372 0.002040 0.001824 0.001361 0.025502 0.009901
# 6 0.006725 0.005934 -0.004928 -0.001357 0.009901 0.032722
#
#
# Mechanical properties :
#
#
# Convention : Reuss Voigt Hill
#
# Bulk Modulus (GPa) = 26.79027 36.95348 31.87188
# Shear Modulus (GPa) = 33.28687 42.62088 37.95387
#
# Velocity S-wave (km/s) = 3.74166 4.23388 3.99536
# Velocity P-wave (km/s) = 5.47122 6.28037 5.88971
#
# Compressibility (1/GPa) = 0.03732699
#
# Stress axis : x y z
#
# Youngs Moduli (GPa) = 91.45209 70.80975 50.34604
#
# Poissons Ratio (x) = 0.02123 0.03268
# Poissons Ratio (y) = 0.02741 0.14336
# Poissons Ratio (z) = 0.05936 0.20162
#
# Static dielectric constant tensor:
#      x y z
#    x 2.013450 0.155100 0.078830 
#    y 0.155100 1.867430 -0.026450 
#    z 0.078830 -0.026450 1.851520 
# 
# From -- ./inp_files/53630.got.cif
#   From: 2010.05.17/outbox.cif.g08.bks.cpg/sg2_27_cif.got.tgz:53630.got - 2010.06.03 11:33:40.
