data_PCOD9069486
_publ_section_title
;
Structure prediction by ZEFSAII (Michael W. Deem and Ramdas Pophale) SiO2 
 PCOD9069486
Probable space group: P -1
;
_chemical_formula_sum "Si O2"
_cell_formula_units_Z 16
_cell_length_a 8.581154
_cell_length_b 26.456974
_cell_length_c 25.536783
_cell_angle_alpha 169.484699
_cell_angle_beta 42.628789
_cell_angle_gamma 138.374904
_cell_volume 702.805002
_symmetry_space_group_name_H-M "P -1"
_symmetry_group_IT_number 2
_symmetry_cell_setting 'triclinic'
loop_
_space_group_symop_operation_xyz
x,y,z
-x,-y,-z
loop_
_atom_site_type_symbol
_atom_site_label
_atom_site_fract_x
_atom_site_fract_y
_atom_site_fract_z
Si Si1 0.465797 0.152169 0.609177
Si Si2 0.959154 0.195102 0.757900
Si Si3 0.051278 0.250324 0.198921
Si Si4 0.352899 0.332716 0.980634
Si Si5 0.678969 0.278570 0.226444
Si Si6 0.587323 0.508905 0.308368
Si Si7 0.174855 0.893816 0.099079
Si Si8 0.329824 0.348303 0.686886
O O1 0.500000 0.000000 0.500000
O O2 0.480414 0.892146 0.301307
O O3 0.634219 0.434953 0.832748
O O4 0.216246 0.243556 0.768261
O O5 0.761327 0.983871 0.623403
O O6 0.000000 0.000000 0.500000
O O7 0.872159 0.488860 0.076285
O O8 0.325571 0.331854 0.200812
O O9 0.000000 0.500000 0.500000
O O10 0.890663 0.267185 0.204028
O O11 0.000000 0.000000 0.000000
O O12 0.102609 0.137672 0.856374
O O13 0.450716 0.525731 0.202576
O O14 0.500000 0.500000 0.500000
O O15 0.773001 0.246638 0.111976
O O16 0.500000 0.000000 0.000000
O O17 0.618523 0.590906 0.324091
O O18 0.668823 0.792926 0.612582
O O19 0.754478 0.300444 0.071005
#
# Coordination Sequence:
#
# PCOD9069486 Si02
#       8
#     2   2   2   2   2   2   2   2
#     4  12  27  42  68  99 136 176 234 290 355 412
#     4  12  23  44  69  98 131 181 232 292 346 418
#     4  12  25  46  76 108 145 183 236 285 339 415
#     4  12  25  47  66  99 138 184 227 290 350 417
#     4  12  25  46  76 108 145 187 228 284 350 414
#     4  12  27  46  70 106 141 186 232 286 341 415
#     4  12  27  46  70 103 147 183 231 283 350 413
#     4  12  25  44  71  97 137 181 235 284 353 410
#
# _framework density 22.765916000000001
#
# number of rings (size 3 to 8) (size 9 to 14) (size 15 to 20)
#    0.000    0.000    2.500    8.250    5.250    0.000 
#    0.000    7.500    0.000    0.000    0.000    0.000 
#    0.000    0.000    0.000    0.000    0.000    0.000 
#
# Total GULP energy -89374.789592 kJ/mol
# GULP energy per Si atom -5585.924349 kJ/mol
# Density = 2.271410 g / cm^3
# Si number density = 22.765916 Si / 1000 Ang^3
#
#
#
# Elastic Constant Matrix: (Units=GPa)
#
#
# Indices 1 2 3 4 5 6 
#
# 1 131.0742 58.0307 22.4113 0.0002 3.4087 3.7466
# 2 58.0307 89.0087 15.2592 23.4443 8.5133 -4.7516
# 3 22.4113 15.2592 132.3485 18.4950 -4.3139 -1.1048
# 4 0.0002 23.4443 18.4950 36.9676 -3.9447 -2.1110
# 5 3.4087 8.5133 -4.3139 -3.9447 33.7752 -0.6829
# 6 3.7466 -4.7516 -1.1048 -2.1110 -0.6829 43.6099
#
#
#
# Elastic Compliance Matrix: (Units=1/GPa)
#
#
# Indices 1 2 3 4 5 6 
#
# 1 0.012365 -0.009942 -0.001932 0.007364 0.001835 -0.001809
# 2 -0.009942 0.022253 0.001055 -0.015160 -0.006191 0.002475
# 3 -0.001932 0.001055 0.008454 -0.004835 0.000449 0.000268
# 4 0.007364 -0.015160 -0.004835 0.039821 0.007104 -0.000368
# 5 0.001835 -0.006191 0.000449 0.007104 0.031870 0.000022
# 6 -0.001809 0.002475 0.000268 -0.000368 0.000022 0.023345
#
#
# Mechanical properties :
#
#
# Convention : Reuss Voigt Hill
#
# Bulk Modulus (GPa) = 46.65393 60.42597 53.53995
# Shear Modulus (GPa) = 29.95944 39.98591 34.97267
#
# Velocity S-wave (km/s) = 3.63158 4.19548 3.92367
# Velocity P-wave (km/s) = 6.17429 7.07597 6.64045
#
# Compressibility (1/GPa) = 0.02143442
#
# Stress axis : x y z
#
# Youngs Moduli (GPa) = 80.87078 44.93694 118.28836
#
# Poissons Ratio (x) = 0.44678 0.22853
# Poissons Ratio (y) = 0.80405 -0.12482
# Poissons Ratio (z) = 0.15624 -0.04742
#
# Static dielectric constant tensor:
#      x y z
#    x 1.869980 -0.026920 0.036180 
#    y -0.026920 2.192630 0.112260 
#    z 0.036180 0.112260 1.820060 
# 
# From -- ./inp_files/617705.got.cif
#   From: 2010.05.17/outbox.cif.g08.bks.cpg/sg2_309_cif.got.tgz:617705.got - 2010.06.03 11:33:40.
