data_PCOD9069712
_publ_section_title
;
Structure prediction by ZEFSAII (Michael W. Deem and Ramdas Pophale) SiO2 
 PCOD9069712
Probable space group: P -1
;
_chemical_formula_sum "Si O2"
_cell_formula_units_Z 16
_cell_length_a 12.882665
_cell_length_b 13.514382
_cell_length_c 18.037592
_cell_angle_alpha 31.526248
_cell_angle_beta 150.912810
_cell_angle_gamma 128.240003
_cell_volume 693.413053
_symmetry_space_group_name_H-M "P -1"
_symmetry_group_IT_number 2
_symmetry_cell_setting 'triclinic'
loop_
_space_group_symop_operation_xyz
x,y,z
-x,-y,-z
loop_
_atom_site_type_symbol
_atom_site_label
_atom_site_fract_x
_atom_site_fract_y
_atom_site_fract_z
Si Si1 0.738488 0.216163 0.203658
Si Si2 0.427938 0.008723 0.083676
Si Si3 0.980469 0.623743 0.485493
Si Si4 0.749786 0.637478 0.924503
Si Si5 0.284904 0.862644 0.235379
Si Si6 0.776634 0.751185 0.708376
Si Si7 0.705794 0.193415 0.368239
Si Si8 0.807116 0.519163 0.592091
O O1 0.685790 0.271876 0.221899
O O2 0.545531 0.154089 0.090514
O O3 0.746670 0.416430 0.043414
O O4 0.000000 0.000000 0.500000
O O5 0.293434 0.973019 0.092988
O O6 0.633374 0.771920 0.338175
O O7 0.251579 0.137635 0.824042
O O8 0.943428 0.504124 0.609108
O O9 0.000000 0.500000 0.500000
O O10 0.193452 0.679290 0.600804
O O11 0.706633 0.770586 0.738490
O O12 0.547823 0.756289 0.785365
O O13 0.005263 0.573681 0.163369
O O14 0.526669 0.823053 0.458608
O O15 0.328917 0.619863 0.407902
O O16 0.000000 0.000000 0.000000
O O17 0.861002 0.929789 0.630775
O O18 0.000000 0.500000 0.000000
#
# Coordination Sequence:
#
# PCOD9069712 Si02
#       8
#     2   2   2   2   2   2   2   2
#     4  12  23  47  75 105 143 188 241 303 363 432
#     4  12  26  47  74 105 145 193 241 295 367 436
#     4  12  28  46  72 107 145 190 243 298 364 432
#     4  12  26  44  75 106 144 188 242 303 363 428
#     4  12  28  48  75 107 152 195 242 301 368 439
#     4  12  28  49  77 108 145 194 251 301 365 434
#     4  12  26  47  73 104 145 188 243 301 358 434
#     4  12  27  47  71 107 147 190 240 300 368 433
#
# _framework density 23.074268
#
# number of rings (size 3 to 8) (size 9 to 14) (size 15 to 20)
#    0.000    0.000    3.750    5.250   10.500    0.000 
#    0.000    0.000    0.000    0.000    0.000    0.000 
#    0.000    0.000    0.000    0.000    0.000    0.000 
#
# Total GULP energy -89597.924531 kJ/mol
# GULP energy per Si atom -5599.870283 kJ/mol
# Density = 2.302175 g / cm^3
# Si number density = 23.074268 Si / 1000 Ang^3
#
#
#
# Elastic Constant Matrix: (Units=GPa)
#
#
# Indices 1 2 3 4 5 6 
#
# 1 81.8606 11.7408 8.0843 2.3611 -9.3891 2.1497
# 2 11.7408 159.5985 24.1897 -2.9633 -11.6789 -0.1168
# 3 8.0843 24.1897 77.9307 0.9423 -4.7499 -6.1127
# 4 2.3611 -2.9633 0.9423 29.8941 4.6539 3.0813
# 5 -9.3891 -11.6789 -4.7499 4.6539 44.5741 -16.2454
# 6 2.1497 -0.1168 -6.1127 3.0813 -16.2454 33.0329
#
#
#
# Elastic Compliance Matrix: (Units=1/GPa)
#
#
# Indices 1 2 3 4 5 6 
#
# 1 0.012743 -0.000626 -0.000901 -0.001523 0.002767 0.000505
# 2 -0.000626 0.006721 -0.001901 0.000495 0.001527 0.000417
# 3 -0.000901 -0.001901 0.013985 -0.001333 0.002374 0.003932
# 4 -0.001523 0.000495 -0.001333 0.035345 -0.006431 -0.006605
# 5 0.002767 0.001527 0.002374 -0.006431 0.030042 0.015639
# 6 0.000505 0.000417 0.003932 -0.006605 0.015639 0.039276
#
#
# Mechanical properties :
#
#
# Convention : Reuss Voigt Hill
#
# Bulk Modulus (GPa) = 37.60595 45.26882 41.43739
# Shear Modulus (GPa) = 32.50283 39.85855 36.18069
#
# Velocity S-wave (km/s) = 3.75723 4.16071 3.96411
# Velocity P-wave (km/s) = 5.92921 6.53784 6.24095
#
# Compressibility (1/GPa) = 0.02659154
#
# Stress axis : x y z
#
# Youngs Moduli (GPa) = 78.47622 148.78242 71.50605
#
# Poissons Ratio (x) = 0.09318 0.06442
# Poissons Ratio (y) = 0.04915 0.13597
# Poissons Ratio (z) = 0.07069 0.28291
#
# Static dielectric constant tensor:
#      x y z
#    x 1.842330 -0.025560 0.081190 
#    y -0.025560 1.798250 -0.025520 
#    z 0.081190 -0.025520 1.961510 
# 
# From -- ./inp_files/285870.got.cif
#   From: 2010.05.17/outbox.cif.g08.bks.cpg/sg2_143_cif.got.tgz:285870.got - 2010.06.03 11:33:40.
