data_PCOD9069043
_publ_section_title
;
Structure prediction by ZEFSAII (Michael W. Deem and Ramdas Pophale) SiO2 
 PCOD9069043
Probable space group: P -1
;
_chemical_formula_sum "Si O2"
_cell_formula_units_Z 15
_cell_length_a 12.180131
_cell_length_b 13.651779
_cell_length_c 10.812810
_cell_angle_alpha 32.301189
_cell_angle_beta 54.371752
_cell_angle_gamma 39.626692
_cell_volume 600.260568
_symmetry_space_group_name_H-M "P -1"
_symmetry_group_IT_number 2
_symmetry_cell_setting 'triclinic'
loop_
_space_group_symop_operation_xyz
x,y,z
-x,-y,-z
loop_
_atom_site_type_symbol
_atom_site_label
_atom_site_fract_x
_atom_site_fract_y
_atom_site_fract_z
Si Si1 0.092387 0.980474 0.589645
Si Si2 0.000000 0.500000 0.500000
Si Si3 0.625265 0.809507 0.514205
Si Si4 0.947328 0.567816 0.820807
Si Si5 0.414406 0.279205 0.031488
Si Si6 0.882682 0.867924 0.987656
Si Si7 0.496556 0.408714 0.316824
Si Si8 0.505783 0.775387 0.222292
O O1 0.296655 0.801794 0.612880
O O2 0.061137 0.207292 0.427120
O O3 0.000000 0.000000 0.500000
O O4 0.024218 0.892195 0.825670
O O5 0.166666 0.347312 0.453280
O O6 0.074628 0.244436 0.785716
O O7 0.596843 0.623333 0.695367
O O8 0.500000 0.000000 0.500000
O O9 0.540435 0.993646 0.256803
O O10 0.091211 0.338069 0.892130
O O11 0.759779 0.624059 0.882755
O O12 0.000000 0.500000 0.000000
O O13 0.521353 0.357979 0.930107
O O14 0.370497 0.371229 0.820664
O O15 0.689648 0.109253 0.821282
O O16 0.448298 0.368609 0.527093
O O17 0.500000 0.000000 0.000000
#
# Coordination Sequence:
#
# PCOD9069043 Si02
#       8
#     2   1   2   2   2   2   2   2
#     4  12  22  41  71 115 148 183 246 310 386 461
#     4  12  28  56  74 106 154 206 266 310 372 452
#     4  12  28  53  79 106 152 207 260 317 374 452
#     4  12  22  40  73 109 149 190 236 308 387 454
#     4  12  24  45  71 108 147 197 246 305 390 457
#     4  12  25  46  71 103 148 193 247 312 371 457
#     4  12  24  45  75 113 147 194 249 317 391 463
#     4  12  22  44  71 105 152 188 239 316 392 458
#
# _framework density 24.989148
#
# number of rings (size 3 to 8) (size 9 to 14) (size 15 to 20)
#    0.000    0.000    8.000    2.000    0.000    0.533 
#    4.800    1.333    0.000    0.000    0.000    0.000 
#    0.000    0.000    0.000    0.000    0.000    0.000 
#
# Total GULP energy -83670.061481 kJ/mol
# GULP energy per Si atom -5578.004099 kJ/mol
# Density = 2.493227 g / cm^3
# Si number density = 24.989148 Si / 1000 Ang^3
#
#
#
# Elastic Constant Matrix: (Units=GPa)
#
#
# Indices 1 2 3 4 5 6 
#
# 1 67.6037 29.1416 29.3936 9.0502 -24.4626 13.6132
# 2 29.1416 137.6086 13.5769 19.6872 -6.7369 -3.7143
# 3 29.3936 13.5769 98.7562 27.9955 -26.7294 8.0180
# 4 9.0502 19.6872 27.9955 47.0539 8.1053 1.1934
# 5 -24.4626 -6.7369 -26.7294 8.1053 47.8076 -15.3440
# 6 13.6132 -3.7143 8.0180 1.1934 -15.3440 27.1331
#
#
#
# Elastic Compliance Matrix: (Units=1/GPa)
#
#
# Indices 1 2 3 4 5 6 
#
# 1 0.021954 -0.003901 -0.002959 -0.001919 0.007277 -0.006475
# 2 -0.003901 0.008765 0.001352 -0.004171 0.002011 0.004078
# 3 -0.002959 0.001352 0.017105 -0.012244 0.011487 0.003650
# 4 -0.001919 -0.004171 -0.012244 0.033620 -0.016253 -0.006660
# 5 0.007277 0.002011 0.011487 -0.016253 0.039290 0.016163
# 6 -0.006475 0.004078 0.003650 -0.006660 0.016163 0.049017
#
#
# Mechanical properties :
#
#
# Convention : Reuss Voigt Hill
#
# Bulk Modulus (GPa) = 27.16866 49.79916 38.48391
# Shear Modulus (GPa) = 25.90184 39.85602 32.87893
#
# Velocity S-wave (km/s) = 3.22300 3.99799 3.63123
# Velocity P-wave (km/s) = 4.97455 6.42523 5.74585
#
# Compressibility (1/GPa) = 0.03680712
#
# Stress axis : x y z
#
# Youngs Moduli (GPa) = 45.54939 114.08958 58.46386
#
# Poissons Ratio (x) = 0.44510 0.17298
# Poissons Ratio (y) = 0.17770 -0.07902
# Poissons Ratio (z) = 0.13477 -0.15421
#
# Static dielectric constant tensor:
#      x y z
#    x 2.219040 0.111740 0.003720 
#    y 0.111740 2.061520 -0.038610 
#    z 0.003720 -0.038610 1.984730 
# 
# From -- ./inp_files/432222.got.cif
#   From: 2010.05.17/outbox.cif.g08.bks.cpg/sg2_217_cif.got.tgz:432222.got - 2010.06.03 11:33:40.
