data_PCOD9069661
_publ_section_title
;
Structure prediction by ZEFSAII (Michael W. Deem and Ramdas Pophale) SiO2 
 PCOD9069661
Probable space group: P -1
;
_chemical_formula_sum "Si O2"
_cell_formula_units_Z 14
_cell_length_a 11.965495
_cell_length_b 21.577652
_cell_length_c 8.969971
_cell_angle_alpha 143.214296
_cell_angle_beta 123.155778
_cell_angle_gamma 28.709683
_cell_volume 560.458613
_symmetry_space_group_name_H-M "P -1"
_symmetry_group_IT_number 2
_symmetry_cell_setting 'triclinic'
loop_
_space_group_symop_operation_xyz
x,y,z
-x,-y,-z
loop_
_atom_site_type_symbol
_atom_site_label
_atom_site_fract_x
_atom_site_fract_y
_atom_site_fract_z
Si Si1 0.915459 0.827516 0.963011
Si Si2 0.821441 0.472624 0.900008
Si Si3 0.859018 0.083845 0.400207
Si Si4 0.934676 0.632869 0.830575
Si Si5 0.454568 0.564922 0.347941
Si Si6 0.698243 0.942495 0.720751
Si Si7 0.329446 0.823592 0.002596
O O1 0.218731 0.668676 0.857356
O O2 0.922954 0.750710 0.962927
O O3 0.829935 0.823916 0.747728
O O4 0.732406 0.054864 0.257466
O O5 0.699202 0.439451 0.765689
O O6 0.604297 0.665829 0.994328
O O7 0.133426 0.246441 0.630397
O O8 0.850760 0.509059 0.149387
O O9 0.088693 0.956115 0.196790
O O10 0.000000 0.000000 0.500000
O O11 0.622263 0.324403 0.646999
O O12 0.000000 0.500000 0.500000
O O13 0.628134 0.833043 0.061184
O O14 0.387916 0.687842 0.673691
O O15 0.762486 0.015543 0.851954
#
# Coordination Sequence:
#
# PCOD9069661 Si02
#       7
#     2   2   2   2   2   2   2
#     4  12  26  48  79 106 151 199 241 318 380 441
#     4  12  26  47  80 111 150 197 255 314 373 448
#     4  12  26  40  71 117 156 189 236 305 389 459
#     4  12  31  54  73 105 155 210 258 310 366 441
#     4  12  23  46  76 118 150 185 248 308 390 447
#     4  12  26  52  77 108 150 208 257 297 370 459
#     4  12  24  45  78 115 152 190 244 314 382 452
#
# _framework density 24.979544000000001
#
# number of rings (size 3 to 8) (size 9 to 14) (size 15 to 20)
#    0.000    0.000    5.714    4.286    2.000    1.714 
#    2.571    0.000    0.000    0.000    0.000    0.000 
#    0.000    0.000    0.000    0.000    0.000    0.000 
#
# Total GULP energy -78429.323176 kJ/mol
# GULP energy per Si atom -5602.094513 kJ/mol
# Density = 2.492269 g / cm^3
# Si number density = 24.979544 Si / 1000 Ang^3
#
#
#
# Elastic Constant Matrix: (Units=GPa)
#
#
# Indices 1 2 3 4 5 6 
#
# 1 73.7282 10.5597 1.2130 3.8049 -20.2321 -0.4332
# 2 10.5597 158.7600 30.6478 -18.1877 -11.8151 2.4470
# 3 1.2130 30.6478 75.8450 -8.1741 -20.3738 -21.0337
# 4 3.8049 -18.1877 -8.1741 49.2516 1.7595 -2.4664
# 5 -20.2321 -11.8151 -20.3738 1.7595 22.5356 12.3439
# 6 -0.4332 2.4470 -21.0337 -2.4664 12.3439 38.5934
#
#
#
# Elastic Compliance Matrix: (Units=1/GPa)
#
#
# Indices 1 2 3 4 5 6 
#
# 1 0.020854 -0.000608 0.005232 -0.002177 0.026272 -0.005418
# 2 -0.000608 0.007319 -0.002923 0.002071 0.001873 -0.002531
# 3 0.005232 -0.002923 0.021174 0.001643 0.018995 0.005814
# 4 -0.002177 0.002071 0.001643 0.021757 -0.002727 0.003002
# 5 0.026272 0.001873 0.018995 -0.002727 0.097790 -0.020923
# 6 -0.005418 -0.002531 0.005814 0.003002 -0.020923 0.036063
#
#
# Mechanical properties :
#
#
# Convention : Reuss Voigt Hill
#
# Bulk Modulus (GPa) = 18.95737 43.68602 31.32170
# Shear Modulus (GPa) = 22.81653 39.80364 31.31009
#
# Velocity S-wave (km/s) = 3.02554 3.99613 3.54422
# Velocity P-wave (km/s) = 4.45094 6.23047 5.41432
#
# Compressibility (1/GPa) = 0.05274993
#
# Stress axis : x y z
#
# Youngs Moduli (GPa) = 47.95190 136.62569 47.22692
#
# Poissons Ratio (x) = 0.08305 -0.24710
# Poissons Ratio (y) = 0.02915 0.13806
# Poissons Ratio (z) = -0.25090 0.39941
#
# Static dielectric constant tensor:
#      x y z
#    x 1.941090 -0.028360 0.005290 
#    y -0.028360 1.999420 -0.006990 
#    z 0.005290 -0.006990 2.062720 
# 
# From -- ./inp_files/283419.got.cif
#   From: 2010.05.17/outbox.cif.g08.bks.cpg/sg2_142_cif.got.tgz:283419.got - 2010.06.03 11:33:40.
