data_PCOD9069189
_publ_section_title
;
Structure prediction by ZEFSAII (Michael W. Deem and Ramdas Pophale) SiO2 
 PCOD9069189
Probable space group: P -1
;
_chemical_formula_sum "Si O2"
_cell_formula_units_Z 14
_cell_length_a 8.159435
_cell_length_b 11.523819
_cell_length_c 20.058189
_cell_angle_alpha 39.204756
_cell_angle_beta 79.283208
_cell_angle_gamma 48.896807
_cell_volume 659.372727
_symmetry_space_group_name_H-M "P -1"
_symmetry_group_IT_number 2
_symmetry_cell_setting 'triclinic'
loop_
_space_group_symop_operation_xyz
x,y,z
-x,-y,-z
loop_
_atom_site_type_symbol
_atom_site_label
_atom_site_fract_x
_atom_site_fract_y
_atom_site_fract_z
Si Si1 0.712164 0.633212 0.653198
Si Si2 0.726115 0.770604 0.287839
Si Si3 0.521283 0.127976 0.882523
Si Si4 0.782763 0.220767 0.357351
Si Si5 0.383898 0.763332 0.842412
Si Si6 0.825572 0.292945 0.563274
Si Si7 0.095789 0.725219 0.077785
O O1 0.500860 0.648938 0.664002
O O2 0.888174 0.451391 0.790287
O O3 0.957579 0.432570 0.667640
O O4 0.500000 0.000000 0.500000
O O5 0.571988 0.848686 0.195106
O O6 0.780268 0.545882 0.431185
O O7 0.559502 0.087502 0.196484
O O8 0.321889 0.476256 0.768746
O O9 0.500000 0.000000 0.000000
O O10 0.858557 0.894477 0.963700
O O11 0.000000 0.000000 0.500000
O O12 0.976514 0.982335 0.386250
O O13 0.582934 0.554265 0.854750
O O14 0.500000 0.500000 0.000000
O O15 0.037284 0.075305 0.708629
O O16 0.500000 0.500000 0.500000
O O17 0.000000 0.000000 0.000000
#
# Coordination Sequence:
#
# PCOD9069189 Si02
#       7
#     2   2   2   2   2   2   2
#     4  12  22  44  76 103 140 187 249 296 356 432
#     4  12  27  48  71 109 147 195 242 299 373 436
#     4  12  26  43  74 112 144 183 245 305 359 435
#     4  12  25  46  76 108 141 189 247 302 361 427
#     4  12  29  48  72 107 150 195 244 299 373 437
#     4  12  28  50  73 106 152 192 241 304 368 441
#     4  12  24  47  74 102 144 192 241 301 363 433
#
# _framework density 21.232302000000001
#
# number of rings (size 3 to 8) (size 9 to 14) (size 15 to 20)
#    0.000    0.000    7.143    1.286    6.000    1.714 
#    0.000    0.000    0.000    0.000    0.000    0.000 
#    0.000    0.000    0.000    0.000    0.000    0.000 
#
# Total GULP energy -78259.042596 kJ/mol
# GULP energy per Si atom -5589.931614 kJ/mol
# Density = 2.118398 g / cm^3
# Si number density = 21.232302 Si / 1000 Ang^3
#
#
#
# Elastic Constant Matrix: (Units=GPa)
#
#
# Indices 1 2 3 4 5 6 
#
# 1 127.6392 56.9038 76.5109 -9.5319 6.1454 3.4584
# 2 56.9038 97.0558 45.8304 -16.6224 -11.7081 -4.7708
# 3 76.5109 45.8304 196.2539 -2.5640 -18.9854 9.4937
# 4 -9.5319 -16.6224 -2.5640 34.5552 -0.9752 -4.5107
# 5 6.1454 -11.7081 -18.9854 -0.9752 56.6616 -7.0567
# 6 3.4584 -4.7708 9.4937 -4.5107 -7.0567 45.2240
#
#
#
# Elastic Compliance Matrix: (Units=1/GPa)
#
#
# Indices 1 2 3 4 5 6 
#
# 1 0.013449 -0.006591 -0.004053 -0.000089 -0.004375 -0.001565
# 2 -0.006591 0.016471 -0.000949 0.006653 0.004387 0.003789
# 3 -0.004053 -0.000949 0.007174 -0.001104 0.002502 -0.001016
# 4 -0.000089 0.006653 -0.001104 0.032685 0.002142 0.004535
# 5 -0.004375 0.004387 0.002502 0.002142 0.020361 0.003663
# 6 -0.001565 0.003789 -0.001016 0.004535 0.003663 0.023869
#
#
# Mechanical properties :
#
#
# Convention : Reuss Voigt Hill
#
# Bulk Modulus (GPa) = 71.90122 86.60434 79.25278
# Shear Modulus (GPa) = 35.25389 43.40176 39.32782
#
# Velocity S-wave (km/s) = 4.07921 4.52612 4.30846
# Velocity P-wave (km/s) = 7.49161 8.25784 7.88403
#
# Compressibility (1/GPa) = 0.01390797
#
# Stress axis : x y z
#
# Youngs Moduli (GPa) = 74.35700 60.71431 139.40003
#
# Poissons Ratio (x) = 0.40018 0.56492
# Poissons Ratio (y) = 0.49011 0.13224
# Poissons Ratio (z) = 0.30133 0.05760
#
# Static dielectric constant tensor:
#      x y z
#    x 1.816090 -0.012670 0.017560 
#    y -0.012670 1.785310 0.035070 
#    z 0.017560 0.035070 1.942630 
# 
# From -- ./inp_files/559668.got.cif
#   From: 2010.05.17/outbox.cif.g08.bks.cpg/sg2_280_cif.got.tgz:559668.got - 2010.06.03 11:33:40.
