data_PCOD9069759
_publ_section_title
;
Structure prediction by ZEFSAII (Michael W. Deem and Ramdas Pophale) SiO2 
 PCOD9069759
Probable space group: P -1
;
_chemical_formula_sum "Si O2"
_cell_formula_units_Z 16
_cell_length_a 9.076020
_cell_length_b 11.406153
_cell_length_c 12.847579
_cell_angle_alpha 80.927068
_cell_angle_beta 40.029633
_cell_angle_gamma 58.499419
_cell_volume 654.261726
_symmetry_space_group_name_H-M "P -1"
_symmetry_group_IT_number 2
_symmetry_cell_setting 'triclinic'
loop_
_space_group_symop_operation_xyz
x,y,z
-x,-y,-z
loop_
_atom_site_type_symbol
_atom_site_label
_atom_site_fract_x
_atom_site_fract_y
_atom_site_fract_z
Si Si1 0.581401 0.907864 0.575707
Si Si2 0.069253 0.902599 0.873061
Si Si3 0.534953 0.441903 0.316012
Si Si4 0.067346 0.459845 0.274748
Si Si5 0.208123 0.419588 0.798209
Si Si6 0.650381 0.081131 0.685240
Si Si7 0.429248 0.837321 0.045643
Si Si8 0.262307 0.629065 0.239362
O O1 0.374578 0.863470 0.682178
O O2 0.914957 0.757368 0.423521
O O3 0.500000 0.000000 0.500000
O O4 0.552778 0.998223 0.682414
O O5 0.184498 0.730760 0.845618
O O6 0.815002 0.015009 0.911573
O O7 0.000000 0.000000 0.000000
O O8 0.669446 0.492374 0.316216
O O9 0.442236 0.561236 0.257167
O O10 0.230011 0.478299 0.510581
O O11 0.279476 0.487212 0.210638
O O12 0.978368 0.558267 0.203718
O O13 0.259262 0.280281 0.166045
O O14 0.468733 0.244525 0.705235
O O15 0.000000 0.500000 0.000000
O O16 0.563380 0.108354 0.850567
O O17 0.000000 0.000000 0.500000
O O18 0.342054 0.726660 0.126278
#
# Coordination Sequence:
#
# PCOD9069759 Si02
#       8
#     2   2   2   2   2   2   2   2
#     4  12  24  47  78 109 144 198 249 300 365 449
#     4  12  29  47  72 111 153 192 244 308 381 430
#     4  12  27  49  72 108 154 190 240 311 379 433
#     4  12  26  44  73 108 153 189 244 312 371 432
#     4  12  26  49  73 108 143 197 251 296 365 448
#     4  12  24  46  79 105 147 189 256 303 355 436
#     4  12  26  49  72 114 143 203 253 300 364 445
#     4  12  23  48  76 107 143 201 255 292 358 448
#
# _framework density 24.455045999999999
#
# number of rings (size 3 to 8) (size 9 to 14) (size 15 to 20)
#    0.000    0.000    6.250    2.625    5.250    0.000 
#    2.250    1.250    0.000    0.000    0.000    0.000 
#    0.000    0.000    0.000    0.000    0.000    0.000 
#
# Total GULP energy -89455.868466 kJ/mol
# GULP energy per Si atom -5590.991779 kJ/mol
# Density = 2.439939 g / cm^3
# Si number density = 24.455046 Si / 1000 Ang^3
#
#
#
# Elastic Constant Matrix: (Units=GPa)
#
#
# Indices 1 2 3 4 5 6 
#
# 1 89.2948 14.1370 6.3036 12.0747 1.8226 -11.5845
# 2 14.1370 94.2708 29.3264 27.1040 -12.0671 -31.0055
# 3 6.3036 29.3264 81.5628 20.8811 -8.3470 -12.9392
# 4 12.0747 27.1040 20.8811 44.4452 0.9751 -17.0278
# 5 1.8226 -12.0671 -8.3470 0.9751 40.3070 8.1912
# 6 -11.5845 -31.0055 -12.9392 -17.0278 8.1912 43.6736
#
#
#
# Elastic Compliance Matrix: (Units=1/GPa)
#
#
# Indices 1 2 3 4 5 6 
#
# 1 0.011869 -0.000665 0.000060 -0.002012 -0.001105 0.002116
# 2 -0.000665 0.016037 -0.002825 -0.005362 0.002800 0.007756
# 3 0.000060 -0.002825 0.014874 -0.005383 0.002388 -0.000130
# 4 -0.002012 -0.005362 -0.005383 0.031777 -0.004896 0.007373
# 5 -0.001105 0.002800 0.002388 -0.004896 0.027249 -0.004618
# 6 0.002116 0.007756 -0.000130 0.007373 -0.004618 0.032667
#
#
# Mechanical properties :
#
#
# Convention : Reuss Voigt Hill
#
# Bulk Modulus (GPa) = 27.84097 40.51805 34.17951
# Shear Modulus (GPa) = 32.61396 40.04260 36.32828
#
# Velocity S-wave (km/s) = 3.65585 4.05087 3.85842
# Velocity P-wave (km/s) = 5.40644 6.20352 5.81865
#
# Compressibility (1/GPa) = 0.03591829
#
# Stress axis : x y z
#
# Youngs Moduli (GPa) = 84.25196 62.35405 67.23274
#
# Poissons Ratio (x) = 0.04149 -0.00401
# Poissons Ratio (y) = 0.05606 0.18995
# Poissons Ratio (z) = -0.00503 0.17616
#
# Static dielectric constant tensor:
#      x y z
#    x 1.932290 0.102200 -0.066360 
#    y 0.102200 2.110400 -0.619150 
#    z -0.066360 -0.619150 3.696500 
# 
# From -- ./inp_files/190016.got.cif
#   From: 2010.05.17/outbox.cif.g08.bks.cpg/sg2_96_cif.got.tgz:190016.got - 2010.06.03 11:33:40.
