data_PCOD9069873
_publ_section_title
;
Structure prediction by ZEFSAII (Michael W. Deem and Ramdas Pophale) SiO2 
 PCOD9069873
Probable space group: P -1
;
_chemical_formula_sum "Si O2"
_cell_formula_units_Z 14
_cell_length_a 5.047345
_cell_length_b 14.036320
_cell_length_c 15.819914
_cell_angle_alpha 37.244201
_cell_angle_beta 71.514831
_cell_angle_gamma 64.991988
_cell_volume 614.330992
_symmetry_space_group_name_H-M "P -1"
_symmetry_group_IT_number 2
_symmetry_cell_setting 'triclinic'
loop_
_space_group_symop_operation_xyz
x,y,z
-x,-y,-z
loop_
_atom_site_type_symbol
_atom_site_label
_atom_site_fract_x
_atom_site_fract_y
_atom_site_fract_z
Si Si1 0.515793 0.977065 0.311795
Si Si2 0.752938 0.826820 0.094575
Si Si3 0.595759 0.223882 0.986072
Si Si4 0.091273 0.780649 0.484106
Si Si5 0.205485 0.467912 0.583202
Si Si6 0.141385 0.235663 0.298266
Si Si7 0.439347 0.554721 0.870986
O O1 0.834091 0.909648 0.367935
O O2 0.388226 0.828217 0.405079
O O3 0.530875 0.094102 0.149470
O O4 0.299084 0.084637 0.328568
O O5 0.756601 0.712545 0.255631
O O6 0.924687 0.157276 0.963886
O O7 0.649246 0.740094 0.086748
O O8 0.500000 0.000000 0.000000
O O9 0.569950 0.394018 0.915321
O O10 0.020042 0.798473 0.577942
O O11 0.096490 0.602328 0.574131
O O12 0.500000 0.500000 0.500000
O O13 0.000000 0.500000 0.500000
O O14 0.390375 0.311151 0.254032
O O15 0.898833 0.365067 0.174973
O O16 0.500000 0.500000 0.000000
#
# Coordination Sequence:
#
# PCOD9069873 Si02
#       7
#     2   2   2   2   2   2   2
#     4  12  26  43  74 109 146 198 235 298 360 444
#     4  12  29  51  79 110 143 188 249 316 367 432
#     4  12  26  46  75 107 150 187 248 295 375 427
#     4  12  26  46  71 104 150 190 245 297 368 435
#     4  12  28  50  79 106 144 192 249 302 374 435
#     4  12  25  45  71 105 148 191 246 294 362 426
#     4  12  24  42  71 103 142 190 239 297 355 438
#
# _framework density 22.789020000000001
#
# number of rings (size 3 to 8) (size 9 to 14) (size 15 to 20)
#    0.000    0.000    1.429    8.571    8.000    0.000 
#    0.000    0.000    0.000    0.000    0.000    0.000 
#    0.000    0.000    0.000    0.000    0.000    0.000 
#
# Total GULP energy -78486.474314 kJ/mol
# GULP energy per Si atom -5606.176737 kJ/mol
# Density = 2.273715 g / cm^3
# Si number density = 22.789020 Si / 1000 Ang^3
#
#
#
# Elastic Constant Matrix: (Units=GPa)
#
#
# Indices 1 2 3 4 5 6 
#
# 1 109.9445 11.1802 17.2320 17.2224 -1.4789 18.6518
# 2 11.1802 72.6967 28.4604 2.2026 -8.0988 10.3534
# 3 17.2320 28.4604 114.6260 16.5457 -1.2902 14.9392
# 4 17.2224 2.2026 16.5457 40.3016 6.0373 2.5907
# 5 -1.4789 -8.0988 -1.2902 6.0373 47.9877 4.3845
# 6 18.6518 10.3534 14.9392 2.5907 4.3845 33.0265
#
#
#
# Elastic Compliance Matrix: (Units=1/GPa)
#
#
# Indices 1 2 3 4 5 6 
#
# 1 0.010846 -0.000530 -0.000101 -0.004393 0.001319 -0.005744
# 2 -0.000530 0.016008 -0.003482 0.000585 0.002844 -0.003567
# 3 -0.000101 -0.003482 0.010630 -0.003987 0.000509 -0.003414
# 4 -0.004393 0.000585 -0.003987 0.028738 -0.003976 0.002375
# 5 0.001319 0.002844 0.000509 -0.003976 0.022286 -0.004513
# 6 -0.005744 -0.003567 -0.003414 0.002375 -0.004513 0.036598
#
#
# Mechanical properties :
#
#
# Convention : Reuss Voigt Hill
#
# Bulk Modulus (GPa) = 34.18138 45.66805 39.92472
# Shear Modulus (GPa) = 34.94434 40.28947 37.61690
#
# Velocity S-wave (km/s) = 3.92009 4.20924 4.06724
# Velocity P-wave (km/s) = 5.95996 6.61110 6.29396
#
# Compressibility (1/GPa) = 0.02925569
#
# Stress axis : x y z
#
# Youngs Moduli (GPa) = 92.20397 62.46962 94.07226
#
# Poissons Ratio (x) = 0.03312 0.00953
# Poissons Ratio (y) = 0.04889 0.32759
# Poissons Ratio (z) = 0.00934 0.21754
#
# Static dielectric constant tensor:
#      x y z
#    x 1.770900 -0.020480 -0.012640 
#    y -0.020480 1.869610 0.002070 
#    z -0.012640 0.002070 1.806200 
# 
# From -- ./inp_files/482542.got.cif
#   From: 2010.05.17/outbox.cif.g08.bks.cpg/sg2_242_cif.got.tgz:482542.got - 2010.06.03 11:33:40.
