data_PCOD9069623
_publ_section_title
;
Structure prediction by ZEFSAII (Michael W. Deem and Ramdas Pophale) SiO2 
 PCOD9069623
Probable space group: P -1
;
_chemical_formula_sum "Si O2"
_cell_formula_units_Z 12
_cell_length_a 8.881975
_cell_length_b 13.697345
_cell_length_c 9.971671
_cell_angle_alpha 142.765689
_cell_angle_beta 78.480926
_cell_angle_gamma 120.050053
_cell_volume 587.735995
_symmetry_space_group_name_H-M "P -1"
_symmetry_group_IT_number 2
_symmetry_cell_setting 'triclinic'
loop_
_space_group_symop_operation_xyz
x,y,z
-x,-y,-z
loop_
_atom_site_type_symbol
_atom_site_label
_atom_site_fract_x
_atom_site_fract_y
_atom_site_fract_z
Si Si1 0.888062 0.508542 0.402348
Si Si2 0.476091 0.882181 0.508013
Si Si3 0.093625 0.496595 0.118118
Si Si4 0.895328 0.031696 0.673312
Si Si5 0.823617 0.840038 0.770936
Si Si6 0.510132 0.882480 0.990084
O O1 0.814383 0.643971 0.581497
O O2 0.704778 0.301879 0.159425
O O3 0.000000 0.500000 0.500000
O O4 0.029376 0.584841 0.337711
O O5 0.319085 0.650972 0.253094
O O6 0.500000 0.000000 0.500000
O O7 0.680097 0.936133 0.566494
O O8 0.423315 0.977311 0.739181
O O9 0.000000 0.500000 0.000000
O O10 0.010966 0.270944 0.925505
O O11 0.871131 0.922386 0.699440
O O12 0.000000 0.000000 0.500000
O O13 0.644408 0.821776 0.847062
O O14 0.000000 0.000000 0.000000
O O15 0.500000 0.000000 0.000000
#
# Coordination Sequence:
#
# PCOD9069623 Si02
#       6
#     2   2   2   2   2   2
#     4  12  25  45  72 102 138 190 236 294 360 418
#     4  12  25  45  75 103 142 192 232 289 356 420
#     4  12  23  46  73 101 139 190 236 286 357 419
#     4  12  27  47  70 106 146 183 239 294 352 423
#     4  12  26  44  69 105 143 186 239 295 349 422
#     4  12  23  46  71 104 144 183 237 293 354 423
#
# _framework density 20.41733
#
# number of rings (size 3 to 8) (size 9 to 14) (size 15 to 20)
#    0.000    0.000    5.000    5.500    2.333    0.667 
#    3.000    0.000    0.000    0.000    0.000    0.000 
#    0.000    0.000    0.000    0.000    0.000    0.000 
#
# Total GULP energy -67031.277063 kJ/mol
# GULP energy per Si atom -5585.939755 kJ/mol
# Density = 2.037086 g / cm^3
# Si number density = 20.417330 Si / 1000 Ang^3
#
#
#
# Elastic Constant Matrix: (Units=GPa)
#
#
# Indices 1 2 3 4 5 6 
#
# 1 141.4030 56.6469 61.0037 -2.9750 -0.1039 1.1232
# 2 56.6469 103.8449 40.0755 -22.5116 11.4949 -10.3614
# 3 61.0037 40.0755 117.2327 2.7927 12.9637 1.7585
# 4 -2.9750 -22.5116 2.7927 58.5397 12.8414 8.6136
# 5 -0.1039 11.4949 12.9637 12.8414 52.7204 -0.0359
# 6 1.1232 -10.3614 1.7585 8.6136 -0.0359 45.7033
#
#
#
# Elastic Compliance Matrix: (Units=1/GPa)
#
#
# Indices 1 2 3 4 5 6 
#
# 1 0.010861 -0.005044 -0.004155 -0.001606 0.002533 -0.000946
# 2 -0.005044 0.015395 -0.002348 0.006359 -0.004337 0.002503
# 3 -0.004155 -0.002348 0.011766 -0.001111 -0.002119 -0.000675
# 4 -0.001606 0.006359 -0.001111 0.021245 -0.006293 -0.002485
# 5 0.002533 -0.004337 -0.002119 -0.006293 0.021973 0.000239
# 6 -0.000946 0.002503 -0.000675 -0.002485 0.000239 0.022965
#
#
# Mechanical properties :
#
#
# Convention : Reuss Voigt Hill
#
# Bulk Modulus (GPa) = 66.98536 75.32586 71.15561
# Shear Modulus (GPa) = 37.80015 45.04299 41.42157
#
# Velocity S-wave (km/s) = 4.30743 4.70203 4.50905
# Velocity P-wave (km/s) = 7.59065 8.15180 7.87622
#
# Compressibility (1/GPa) = 0.01492863
#
# Stress axis : x y z
#
# Youngs Moduli (GPa) = 92.07472 64.95416 84.99339
#
# Poissons Ratio (x) = 0.32763 0.35315
# Poissons Ratio (y) = 0.46442 0.19953
# Poissons Ratio (z) = 0.38257 0.15249
#
# Static dielectric constant tensor:
#      x y z
#    x 1.868060 0.217210 -0.113590 
#    y 0.217210 1.683150 0.020330 
#    z -0.113590 0.020330 1.610260 
# 
# From -- ./inp_files/152014.got.cif
#   From: 2010.05.17/outbox.cif.g08.bks.cpg/sg2_77_cif.got.tgz:152014.got - 2010.06.03 11:33:40.
