data_PCOD9069987
_publ_section_title
;
Structure prediction by ZEFSAII (Michael W. Deem and Ramdas Pophale) SiO2 
 PCOD9069987
Probable space group: P -1
;
_chemical_formula_sum "Si O2"
_cell_formula_units_Z 16
_cell_length_a 9.739826
_cell_length_b 8.156915
_cell_length_c 23.004533
_cell_angle_alpha 119.557788
_cell_angle_beta 42.750909
_cell_angle_gamma 86.787849
_cell_volume 761.724388
_symmetry_space_group_name_H-M "P -1"
_symmetry_group_IT_number 2
_symmetry_cell_setting 'triclinic'
loop_
_space_group_symop_operation_xyz
x,y,z
-x,-y,-z
loop_
_atom_site_type_symbol
_atom_site_label
_atom_site_fract_x
_atom_site_fract_y
_atom_site_fract_z
Si Si1 0.488584 0.039281 0.148500
Si Si2 0.512055 0.052360 0.646528
Si Si3 0.086632 0.580919 0.934439
Si Si4 0.836338 0.023018 0.434876
Si Si5 0.453093 0.433017 0.159410
Si Si6 0.643073 0.218711 0.934468
Si Si7 0.695862 0.186363 0.377697
Si Si8 0.902672 0.776567 0.587801
O O1 0.381841 0.305227 0.201179
O O2 0.286884 0.096667 0.272776
O O3 0.494161 0.874088 0.069011
O O4 0.801386 0.862992 0.047569
O O5 0.226263 0.357049 0.802696
O O6 0.653932 0.033011 0.540467
O O7 0.447033 0.874639 0.629832
O O8 0.718414 0.952942 0.619612
O O9 0.317381 0.579591 0.884634
O O10 0.000000 0.500000 0.000000
O O11 0.163235 0.735735 0.287619
O O12 0.727898 0.074958 0.412295
O O13 0.846134 0.238205 0.485127
O O14 0.584828 0.268075 0.029683
O O15 0.500000 0.500000 0.000000
O O16 0.982404 0.986210 0.774712
O O17 0.500000 0.500000 0.500000
O O18 0.000000 0.500000 0.500000
#
# Coordination Sequence:
#
# PCOD9069987 Si02
#       8
#     2   2   2   2   2   2   2   2
#     4  12  26  45  71 107 139 180 239 290 344 423
#     4  12  26  43  73 101 141 186 227 288 355 416
#     4  12  24  47  71 104 141 180 233 287 354 418
#     4  12  25  48  70 103 141 187 235 285 354 423
#     4  12  26  45  73 105 141 181 238 292 346 425
#     4  12  24  49  76  97 142 195 234 285 358 419
#     4  12  27  47  71 106 144 183 239 292 349 419
#     4  12  24  44  72 100 138 185 229 285 350 419
#
# _framework density 21.004974000000001
#
# number of rings (size 3 to 8) (size 9 to 14) (size 15 to 20)
#    0.000    0.000    5.000    5.250    3.500    1.000 
#    0.000    0.000    0.000    0.000    0.000    0.000 
#    0.000    0.000    0.000    0.000    0.000    0.000 
#
# Total GULP energy -89617.904305 kJ/mol
# GULP energy per Si atom -5601.119019 kJ/mol
# Density = 2.095717 g / cm^3
# Si number density = 21.004974 Si / 1000 Ang^3
#
#
#
# Elastic Constant Matrix: (Units=GPa)
#
#
# Indices 1 2 3 4 5 6 
#
# 1 102.0282 13.5292 14.0347 -3.6106 11.6582 13.4112
# 2 13.5292 75.3418 16.6232 -3.0592 -1.0603 -3.8626
# 3 14.0347 16.6232 97.1682 -1.4431 1.0182 -4.4644
# 4 -3.6106 -3.0592 -1.4431 37.1964 3.5210 8.9198
# 5 11.6582 -1.0603 1.0182 3.5210 24.3923 -3.5338
# 6 13.4112 -3.8626 -4.4644 8.9198 -3.5338 29.8255
#
#
#
# Elastic Compliance Matrix: (Units=1/GPa)
#
#
# Indices 1 2 3 4 5 6 
#
# 1 0.012390 -0.002238 -0.001645 0.003620 -0.007646 -0.008096
# 2 -0.002238 0.014294 -0.002016 -0.000001 0.002183 0.002815
# 3 -0.001645 -0.002016 0.010967 -0.000527 0.000658 0.002356
# 4 0.003620 -0.000001 -0.000527 0.030802 -0.007871 -0.011851
# 5 -0.007646 0.002183 0.000658 -0.007871 0.047565 0.011809
# 6 -0.008096 0.002815 0.002356 -0.011851 0.011809 0.042829
#
#
# Mechanical properties :
#
#
# Convention : Reuss Voigt Hill
#
# Bulk Modulus (GPa) = 38.67687 40.32358 39.50023
# Shear Modulus (GPa) = 27.89185 33.63957 30.76571
#
# Velocity S-wave (km/s) = 3.64795 4.00622 3.83127
# Velocity P-wave (km/s) = 6.01635 6.37484 6.19819
#
# Compressibility (1/GPa) = 0.02585525
#
# Stress axis : x y z
#
# Youngs Moduli (GPa) = 80.70963 69.95748 91.17945
#
# Poissons Ratio (x) = 0.15654 0.14998
# Poissons Ratio (y) = 0.18060 0.18380
# Poissons Ratio (z) = 0.13276 0.14102
#
# Static dielectric constant tensor:
#      x y z
#    x 1.732150 -0.001950 -0.008140 
#    y -0.001950 1.740530 0.014150 
#    z -0.008140 0.014150 1.738190 
# 
# From -- ./inp_files/226150.got.cif
#   From: 2010.05.17/outbox.cif.g08.bks.cpg/sg2_114_cif.got.tgz:226150.got - 2010.06.03 11:33:40.
