data_PCOD9069138
_publ_section_title
;
Structure prediction by ZEFSAII (Michael W. Deem and Ramdas Pophale) SiO2 
 PCOD9069138
Probable space group: P -1
;
_chemical_formula_sum "Si O2"
_cell_formula_units_Z 16
_cell_length_a 11.509523
_cell_length_b 8.614211
_cell_length_c 8.155792
_cell_angle_alpha 91.411542
_cell_angle_beta 125.867971
_cell_angle_gamma 92.328781
_cell_volume 653.558567
_symmetry_space_group_name_H-M "P -1"
_symmetry_group_IT_number 2
_symmetry_cell_setting 'triclinic'
loop_
_space_group_symop_operation_xyz
x,y,z
-x,-y,-z
loop_
_atom_site_type_symbol
_atom_site_label
_atom_site_fract_x
_atom_site_fract_y
_atom_site_fract_z
Si Si1 0.712709 0.895143 0.110692
Si Si2 0.144660 0.541183 0.523134
Si Si3 0.320403 0.607591 0.199967
Si Si4 0.894156 0.248414 0.776818
Si Si5 0.202017 0.263809 0.167331
Si Si6 0.117088 0.087241 0.405743
Si Si7 0.576658 0.629962 0.184885
Si Si8 0.806854 0.224289 0.181984
O O1 0.755933 0.815759 0.973386
O O2 0.823465 0.908053 0.358844
O O3 0.588683 0.785592 0.089934
O O4 0.699693 0.074307 0.059452
O O5 0.092945 0.589447 0.305670
O O6 0.263708 0.419771 0.641516
O O7 0.213155 0.704364 0.654721
O O8 0.000000 0.500000 0.500000
O O9 0.262224 0.740626 0.271321
O O10 0.481748 0.633398 0.269826
O O11 0.282969 0.434867 0.232703
O O12 0.225994 0.634450 0.960124
O O13 0.028952 0.261865 0.009634
O O14 0.907359 0.090016 0.683294
O O15 0.218022 0.170351 0.348670
O O16 0.966521 0.168665 0.290700
O O17 0.500000 0.500000 0.000000
#
# Coordination Sequence:
#
# PCOD9069138 Si02
#       8
#     2   2   2   2   2   2   2   2
#     4  12  25  45  75 105 147 197 245 307 372 433
#     4  12  26  44  77 108 141 192 248 307 365 438
#     4  12  27  45  71 103 145 199 244 298 369 442
#     4  12  24  45  68 109 152 188 248 303 367 441
#     4  12  24  44  74 110 150 192 246 307 365 433
#     4  12  25  43  72 115 150 189 245 310 366 438
#     4  12  26  51  71 106 147 196 251 302 373 443
#     4  12  22  43  72 107 144 189 242 300 370 431
#
# _framework density 24.481356999999999
#
# number of rings (size 3 to 8) (size 9 to 14) (size 15 to 20)
#    0.000    0.000    6.250    4.875    3.500    1.000 
#    0.000    0.625    0.000    0.000    0.000    0.000 
#    0.000    0.000    0.000    0.000    0.000    0.000 
#
# Total GULP energy -89448.742821 kJ/mol
# GULP energy per Si atom -5590.546426 kJ/mol
# Density = 2.442564 g / cm^3
# Si number density = 24.481357 Si / 1000 Ang^3
#
#
#
# Elastic Constant Matrix: (Units=GPa)
#
#
# Indices 1 2 3 4 5 6 
#
# 1 156.1716 42.3994 22.1903 -4.4208 -7.8335 -11.8783
# 2 42.3994 79.9693 5.9923 12.8459 -10.3242 6.5678
# 3 22.1903 5.9923 69.3004 -8.7243 -14.3240 -4.0730
# 4 -4.4208 12.8459 -8.7243 42.6970 3.2867 -8.6344
# 5 -7.8335 -10.3242 -14.3240 3.2867 40.3193 -5.5975
# 6 -11.8783 6.5678 -4.0730 -8.6344 -5.5975 50.9345
#
#
#
# Elastic Compliance Matrix: (Units=1/GPa)
#
#
# Indices 1 2 3 4 5 6 
#
# 1 0.008269 -0.004909 -0.001752 0.002557 -0.000086 0.002845
# 2 -0.004909 0.016980 -0.000320 -0.006772 0.003257 -0.004150
# 3 -0.001752 -0.000320 0.016710 0.003336 0.005540 0.002143
# 4 0.002557 -0.006772 0.003336 0.027788 -0.001444 0.006288
# 5 -0.000086 0.003257 0.005540 -0.001444 0.028100 0.002846
# 6 0.002845 -0.004150 0.002143 0.006288 0.002846 0.022382
#
#
# Mechanical properties :
#
#
# Convention : Reuss Voigt Hill
#
# Bulk Modulus (GPa) = 35.71669 49.62282 42.66975
# Shear Modulus (GPa) = 34.83773 42.44747 38.64260
#
# Velocity S-wave (km/s) = 3.77640 4.16849 3.97728
# Velocity P-wave (km/s) = 5.79965 6.59409 6.20959
#
# Compressibility (1/GPa) = 0.02799812
#
# Stress axis : x y z
#
# Youngs Moduli (GPa) = 120.92945 58.89137 59.84604
#
# Poissons Ratio (x) = 0.28907 0.10486
# Poissons Ratio (y) = 0.59359 0.01914
# Poissons Ratio (z) = 0.21188 0.01884
#
# Static dielectric constant tensor:
#      x y z
#    x 2.024890 0.029100 -0.044690 
#    y 0.029100 1.949590 0.026890 
#    z -0.044690 0.026890 1.992680 
# 
# From -- ./inp_files/239329.got.cif
#   From: 2010.05.17/outbox.cif.g08.bks.cpg/sg2_120_cif.got.tgz:239329.got - 2010.06.03 11:33:40.
