data_PCOD9069809
_publ_section_title
;
Structure prediction by ZEFSAII (Michael W. Deem and Ramdas Pophale) SiO2 
 PCOD9069809
Probable space group: P -1
;
_chemical_formula_sum "Si O2"
_cell_formula_units_Z 10
_cell_length_a 14.905206
_cell_length_b 7.426189
_cell_length_c 8.369087
_cell_angle_alpha 36.275176
_cell_angle_beta 126.879129
_cell_angle_gamma 111.758028
_cell_volume 425.715277
_symmetry_space_group_name_H-M "P -1"
_symmetry_group_IT_number 2
_symmetry_cell_setting 'triclinic'
loop_
_space_group_symop_operation_xyz
x,y,z
-x,-y,-z
loop_
_atom_site_type_symbol
_atom_site_label
_atom_site_fract_x
_atom_site_fract_y
_atom_site_fract_z
Si Si1 0.209787 0.650429 0.757108
Si Si2 0.769965 0.199709 0.991338
Si Si3 0.129675 0.019204 0.090163
Si Si4 0.522128 0.636189 0.759382
Si Si5 0.621575 0.751012 0.282792
O O1 0.199894 0.842859 0.443812
O O2 0.163700 0.824186 0.749943
O O3 0.346509 0.522457 0.028851
O O4 0.149298 0.367616 0.863974
O O5 0.834858 0.124043 0.945425
O O6 0.703882 0.571459 0.638672
O O7 0.693393 0.939944 0.116417
O O8 0.000000 0.000000 0.000000
O O9 0.425413 0.544772 0.613849
O O10 0.500000 0.000000 0.500000
O O11 0.500000 0.500000 0.000000
O O12 0.500000 0.000000 0.000000
#
# Coordination Sequence:
#
# PCOD9069809 Si02
#       5
#     2   2   2   2   2
#     4  12  26  46  72 104 142 187 245 291 361 433
#     4  12  26  46  74 106 147 190 238 295 354 434
#     4  12  28  50  73 102 139 186 249 314 361 412
#     4  12  24  39  66 103 146 186 230 280 343 430
#     4  12  24  42  69 107 149 190 228 279 354 436
#
# _framework density 23.489879999999999
#
# number of rings (size 3 to 8) (size 9 to 14) (size 15 to 20)
#    0.000    0.000    2.000    9.600    2.800    1.600 
#    0.000    0.000    0.000    0.000    0.000    0.000 
#    0.000    0.000    0.000    0.000    0.000    0.000 
#
# Total GULP energy -55883.050284 kJ/mol
# GULP energy per Si atom -5588.305028 kJ/mol
# Density = 2.343642 g / cm^3
# Si number density = 23.489880 Si / 1000 Ang^3
#
#
#
# Elastic Constant Matrix: (Units=GPa)
#
#
# Indices 1 2 3 4 5 6 
#
# 1 165.9470 43.1958 40.6905 11.5213 -26.4366 -11.1710
# 2 43.1958 80.8673 33.0220 -16.4822 -24.2197 -23.1310
# 3 40.6905 33.0220 93.6198 -17.4906 -35.7967 -9.2309
# 4 11.5213 -16.4822 -17.4906 42.5881 4.9468 -17.1386
# 5 -26.4366 -24.2197 -35.7967 4.9468 35.3484 5.3114
# 6 -11.1710 -23.1310 -9.2309 -17.1386 5.3114 43.6189
#
#
#
# Elastic Compliance Matrix: (Units=1/GPa)
#
#
# Indices 1 2 3 4 5 6 
#
# 1 0.008868 -0.006307 -0.003401 -0.008427 0.000829 -0.005205
# 2 -0.006307 0.028164 0.003318 0.020964 0.011879 0.020813
# 3 -0.003401 0.003318 0.020848 0.011785 0.018031 0.007735
# 4 -0.008427 0.020964 0.011785 0.049787 0.008524 0.029977
# 5 0.000829 0.011879 0.018031 0.008524 0.053031 0.007219
# 6 -0.005205 0.020813 0.007735 0.029977 0.007219 0.045166
#
#
# Mechanical properties :
#
#
# Convention : Reuss Voigt Hill
#
# Bulk Modulus (GPa) = 22.17219 63.80563 42.98891
# Shear Modulus (GPa) = 21.39706 39.21280 30.30493
#
# Velocity S-wave (km/s) = 3.02140 4.09020 3.59573
# Velocity P-wave (km/s) = 4.65095 7.03763 5.96488
#
# Compressibility (1/GPa) = 0.04510155
#
# Stress axis : x y z
#
# Youngs Moduli (GPa) = 112.76201 35.50679 47.96637
#
# Poissons Ratio (x) = 0.22393 0.16312
# Poissons Ratio (y) = 0.71114 -0.15915
# Poissons Ratio (z) = 0.38346 -0.11781
#
# Static dielectric constant tensor:
#      x y z
#    x 2.201020 -0.402410 -0.223160 
#    y -0.402410 2.130100 0.276480 
#    z -0.223160 0.276480 2.173460 
# 
# From -- ./inp_files/40386.got.cif
#   From: 2010.05.17/outbox.cif.g08.bks.cpg/sg2_21_cif.got.tgz:40386.got - 2010.06.03 11:33:40.
