data_PCOD9069568
_publ_section_title
;
Structure prediction by ZEFSAII (Michael W. Deem and Ramdas Pophale) SiO2 
 PCOD9069568
Probable space group: P -1
;
_chemical_formula_sum "Si O2"
_cell_formula_units_Z 14
_cell_length_a 16.404619
_cell_length_b 9.141322
_cell_length_c 8.941337
_cell_angle_alpha 31.083236
_cell_angle_beta 120.860208
_cell_angle_gamma 123.515536
_cell_volume 574.651604
_symmetry_space_group_name_H-M "P -1"
_symmetry_group_IT_number 2
_symmetry_cell_setting 'triclinic'
loop_
_space_group_symop_operation_xyz
x,y,z
-x,-y,-z
loop_
_atom_site_type_symbol
_atom_site_label
_atom_site_fract_x
_atom_site_fract_y
_atom_site_fract_z
Si Si1 0.008214 0.196395 0.691708
Si Si2 0.322387 0.067147 0.945869
Si Si3 0.732600 0.432868 0.115115
Si Si4 0.782615 0.465533 0.483710
Si Si5 0.756067 0.897255 0.478973
Si Si6 0.940372 0.742943 0.766169
Si Si7 0.487356 0.793864 0.810213
O O1 0.108233 0.326187 0.579356
O O2 0.000000 0.500000 0.500000
O O3 0.944254 0.926891 0.764077
O O4 0.000000 0.000000 0.000000
O O5 0.300453 0.374714 0.692780
O O6 0.311631 0.057042 0.764872
O O7 0.429064 0.080165 0.099520
O O8 0.243277 0.828626 0.181883
O O9 0.771686 0.447530 0.308270
O O10 0.619749 0.250835 0.180883
O O11 0.797328 0.239394 0.263362
O O12 0.725490 0.718575 0.762512
O O13 0.826905 0.705427 0.648137
O O14 0.000000 0.000000 0.500000
O O15 0.000000 0.500000 0.000000
O O16 0.500000 0.000000 0.500000
O O17 0.500000 0.500000 0.000000
#
# Coordination Sequence:
#
# PCOD9069568 Si02
#       7
#     2   2   2   2   2   2   2
#     4  12  25  44  70 106 145 187 251 316 368 436
#     4  12  25  45  70 106 144 188 246 304 360 460
#     4  12  24  44  72 103 147 190 242 310 373 440
#     4  12  24  44  73 102 138 198 248 299 369 442
#     4  12  27  44  69 109 147 187 244 309 381 431
#     4  12  26  48  73 102 149 203 247 305 375 457
#     4  12  23  45  73 106 141 190 250 297 371 452
#
# _framework density 24.362587000000001
#
# number of rings (size 3 to 8) (size 9 to 14) (size 15 to 20)
#    0.000    0.000    2.857    7.714    0.000    3.429 
#    0.000    0.000    0.000    0.000    0.000    0.000 
#    0.000    0.000    0.000    0.000    0.000    0.000 
#
# Total GULP energy -77937.306710 kJ/mol
# GULP energy per Si atom -5566.950479 kJ/mol
# Density = 2.430714 g / cm^3
# Si number density = 24.362587 Si / 1000 Ang^3
#
#
#
# Elastic Constant Matrix: (Units=GPa)
#
#
# Indices 1 2 3 4 5 6 
#
# 1 58.7491 8.9754 6.6948 6.9212 3.7310 10.2000
# 2 8.9754 141.3882 46.0227 20.8465 9.7060 -14.1820
# 3 6.6948 46.0227 204.6734 -6.0094 -11.4119 -9.9231
# 4 6.9212 20.8465 -6.0094 45.0489 -12.5315 -0.7055
# 5 3.7310 9.7060 -11.4119 -12.5315 48.6427 -4.5905
# 6 10.2000 -14.1820 -9.9231 -0.7055 -4.5905 50.5837
#
#
#
# Elastic Compliance Matrix: (Units=1/GPa)
#
#
# Indices 1 2 3 4 5 6 
#
# 1 0.018590 -0.000587 -0.000955 -0.003580 -0.002871 -0.004411
# 2 -0.000587 0.009067 -0.002284 -0.005358 -0.003509 0.001819
# 3 -0.000955 -0.002284 0.005705 0.002719 0.002658 0.000950
# 4 -0.003580 -0.005358 0.002719 0.028204 0.009341 0.000994
# 5 -0.002871 -0.003509 0.002658 0.009341 0.024744 0.002492
# 6 -0.004411 0.001819 0.000950 0.000994 0.002492 0.021595
#
#
# Mechanical properties :
#
#
# Convention : Reuss Voigt Hill
#
# Bulk Modulus (GPa) = 38.89658 58.68848 48.79253
# Shear Modulus (GPa) = 40.28131 51.72957 46.00544
#
# Velocity S-wave (km/s) = 4.07062 4.61295 4.35025
# Velocity P-wave (km/s) = 6.17201 7.24667 6.73082
#
# Compressibility (1/GPa) = 0.02570920
#
# Stress axis : x y z
#
# Youngs Moduli (GPa) = 53.79243 110.29224 175.29036
#
# Poissons Ratio (x) = 0.06470 0.16744
# Poissons Ratio (y) = 0.03156 0.40042
# Poissons Ratio (z) = 0.05138 0.25194
#
# Static dielectric constant tensor:
#      x y z
#    x 2.062060 -0.053420 0.093140 
#    y -0.053420 2.451470 0.102000 
#    z 0.093140 0.102000 1.953830 
# 
# From -- ./inp_files/225634.got.cif
#   From: 2010.05.17/outbox.cif.g08.bks.cpg/sg2_113_cif.got.tgz:225634.got - 2010.06.03 11:33:40.
