data_PCOD9069319
_publ_section_title
;
Structure prediction by ZEFSAII (Michael W. Deem and Ramdas Pophale) SiO2 
 PCOD9069319
Probable space group: P -1
;
_chemical_formula_sum "Si O2"
_cell_formula_units_Z 16
_cell_length_a 14.574186
_cell_length_b 12.005235
_cell_length_c 9.025336
_cell_angle_alpha 86.044729
_cell_angle_beta 104.267238
_cell_angle_gamma 147.968144
_cell_volume 781.061488
_symmetry_space_group_name_H-M "P -1"
_symmetry_group_IT_number 2
_symmetry_cell_setting 'triclinic'
loop_
_space_group_symop_operation_xyz
x,y,z
-x,-y,-z
loop_
_atom_site_type_symbol
_atom_site_label
_atom_site_fract_x
_atom_site_fract_y
_atom_site_fract_z
Si Si1 0.328692 0.650636 0.288030
Si Si2 0.650919 0.381804 0.358341
Si Si3 0.339149 0.155091 0.709641
Si Si4 0.501708 0.461733 0.175156
Si Si5 0.576230 0.029542 0.872416
Si Si6 0.013000 0.890578 0.435145
Si Si7 0.107914 0.819806 0.923653
Si Si8 0.104597 0.016039 0.133416
O O1 0.386841 0.688063 0.478711
O O2 0.462978 0.703004 0.244333
O O3 0.381206 0.826577 0.235676
O O4 0.107274 0.412698 0.190583
O O5 0.557086 0.391744 0.236398
O O6 0.856619 0.641433 0.432483
O O7 0.579687 0.207342 0.244478
O O8 0.365226 0.313149 0.723434
O O9 0.225536 0.991372 0.818516
O O10 0.203565 0.016423 0.528816
O O11 0.308646 0.273163 0.201146
O O12 0.500000 0.500000 0.000000
O O13 0.768455 0.159639 0.974562
O O14 0.500000 0.000000 0.000000
O O15 0.003781 0.903409 0.257483
O O16 0.000000 0.000000 0.500000
O O17 0.109633 0.907604 0.052776
O O18 0.000000 0.000000 0.000000
#
# Coordination Sequence:
#
# PCOD9069319 Si02
#       8
#     2   2   2   2   2   2   2   2
#     4  12  28  48  78 106 147 200 250 312 377 436
#     4  12  26  48  74 106 151 196 245 305 374 444
#     4  12  24  45  74 111 152 189 245 307 375 452
#     4  12  23  41  71 106 149 192 240 303 372 448
#     4  12  27  52  77 107 147 198 260 317 368 433
#     4  12  26  45  71 112 154 193 243 302 375 458
#     4  12  25  50  74 112 148 194 254 310 371 446
#     4  12  25  40  70 106 150 196 244 294 375 452
#
# _framework density 20.484943000000001
#
# number of rings (size 3 to 8) (size 9 to 14) (size 15 to 20)
#    0.000    0.000    6.250    3.750    3.500    1.000 
#    0.000    1.250    0.000    0.000    0.000    0.000 
#    0.000    0.000    0.000    0.000    0.000    0.000 
#
# Total GULP energy -89247.364032 kJ/mol
# GULP energy per Si atom -5577.960252 kJ/mol
# Density = 2.043832 g / cm^3
# Si number density = 20.484943 Si / 1000 Ang^3
#
#
#
# Elastic Constant Matrix: (Units=GPa)
#
#
# Indices 1 2 3 4 5 6 
#
# 1 124.1422 55.8431 55.0156 -5.0040 0.7002 -1.5418
# 2 55.8431 137.6850 48.6427 -3.3274 -6.7734 -16.3358
# 3 55.0156 48.6427 109.5223 -16.9588 -6.2650 -11.1428
# 4 -5.0040 -3.3274 -16.9588 48.8355 2.9228 9.4004
# 5 0.7002 -6.7734 -6.2650 2.9228 32.8192 -1.4722
# 6 -1.5418 -16.3358 -11.1428 9.4004 -1.4722 32.0715
#
#
#
# Elastic Compliance Matrix: (Units=1/GPa)
#
#
# Indices 1 2 3 4 5 6 
#
# 1 0.011717 -0.003532 -0.004734 0.000010 -0.002017 -0.002976
# 2 -0.003532 0.010160 -0.002376 -0.001527 0.002066 0.004722
# 3 -0.004734 -0.002376 0.013447 0.003460 0.001973 0.002311
# 4 0.000010 -0.001527 0.003460 0.022923 -0.001983 -0.006385
# 5 -0.002017 0.002066 0.001973 -0.001983 0.031658 0.003676
# 6 -0.002976 0.004722 0.002311 -0.006385 0.003676 0.036286
#
#
# Mechanical properties :
#
#
# Convention : Reuss Voigt Hill
#
# Bulk Modulus (GPa) = 71.22055 76.70580 73.96317
# Shear Modulus (GPa) = 32.86158 36.86846 34.86502
#
# Velocity S-wave (km/s) = 4.00957 4.24699 4.12998
# Velocity P-wave (km/s) = 7.50188 7.84700 7.67638
#
# Compressibility (1/GPa) = 0.01404089
#
# Stress axis : x y z
#
# Youngs Moduli (GPa) = 85.34949 98.42632 74.36415
#
# Poissons Ratio (x) = 0.34762 0.35200
# Poissons Ratio (y) = 0.30144 0.17670
# Poissons Ratio (z) = 0.40400 0.23387
#
# Static dielectric constant tensor:
#      x y z
#    x 3.520860 0.571150 -0.348980 
#    y 0.571150 1.943900 -0.068050 
#    z -0.348980 -0.068050 1.844480 
# 
# From -- ./inp_files/307400.got.cif
#   From: 2010.05.17/outbox.cif.g08.bks.cpg/sg2_154_cif.got.tgz:307400.got - 2010.06.03 11:33:40.
