data_PCOD9069920
_publ_section_title
;
Structure prediction by ZEFSAII (Michael W. Deem and Ramdas Pophale) SiO2 
 PCOD9069920
Probable space group: P -1
;
_chemical_formula_sum "Si O2"
_cell_formula_units_Z 16
_cell_length_a 15.340054
_cell_length_b 14.395242
_cell_length_c 6.844107
_cell_angle_alpha 136.094276
_cell_angle_beta 131.437844
_cell_angle_gamma 45.471958
_cell_volume 708.724218
_symmetry_space_group_name_H-M "P -1"
_symmetry_group_IT_number 2
_symmetry_cell_setting 'triclinic'
loop_
_space_group_symop_operation_xyz
x,y,z
-x,-y,-z
loop_
_atom_site_type_symbol
_atom_site_label
_atom_site_fract_x
_atom_site_fract_y
_atom_site_fract_z
Si Si1 0.704417 0.155032 0.439708
Si Si2 0.859291 0.305232 0.705145
Si Si3 0.222018 0.175615 0.544133
Si Si4 0.959506 0.910018 0.649926
Si Si5 0.761791 0.615883 0.808396
Si Si6 0.920609 0.642654 0.729051
Si Si7 0.507204 0.655899 0.269414
Si Si8 0.413337 0.908789 0.219905
O O1 0.751400 0.275276 0.609589
O O2 0.600652 0.237392 0.577459
O O3 0.834515 0.018198 0.503761
O O4 0.640950 0.099686 0.087060
O O5 0.810167 0.468722 0.789295
O O6 0.917428 0.182675 0.438303
O O7 0.984079 0.280026 0.981060
O O8 0.085371 0.200419 0.469445
O O9 0.201016 0.258500 0.433152
O O10 0.297603 0.004761 0.340969
O O11 0.281517 0.243342 0.896777
O O12 0.000000 0.000000 0.000000
O O13 0.872734 0.612056 0.819630
O O14 0.644324 0.626338 0.518216
O O15 0.000000 0.500000 0.500000
O O16 0.484943 0.745136 0.168564
O O17 0.500000 0.500000 0.000000
O O18 0.500000 0.000000 0.500000
#
# Coordination Sequence:
#
# PCOD9069920 Si02
#       8
#     2   2   2   2   2   2   2   2
#     4  12  28  50  74 110 150 194 252 307 373 449
#     4  12  25  46  75 108 154 194 243 306 379 448
#     4  12  24  44  73 106 145 186 245 301 374 439
#     4  12  25  45  75 106 148 193 243 304 375 445
#     4  12  27  46  73 110 148 193 252 308 369 452
#     4  12  24  43  71 111 148 193 242 308 378 443
#     4  12  30  50  76 107 151 202 253 313 374 443
#     4  12  27  48  78 107 146 200 255 307 372 440
#
# _framework density 22.575776000000001
#
# number of rings (size 3 to 8) (size 9 to 14) (size 15 to 20)
#    0.000    0.000    3.750    6.000    5.250    4.000 
#    0.000    0.000    0.000    0.000    0.000    0.000 
#    0.000    0.000    0.000    0.000    0.000    0.000 
#
# Total GULP energy -89603.265333 kJ/mol
# GULP energy per Si atom -5600.204083 kJ/mol
# Density = 2.252439 g / cm^3
# Si number density = 22.575776 Si / 1000 Ang^3
#
#
#
# Elastic Constant Matrix: (Units=GPa)
#
#
# Indices 1 2 3 4 5 6 
#
# 1 83.3738 1.3927 14.0394 -5.9484 5.6479 11.1980
# 2 1.3927 87.7805 28.4939 -4.6233 -7.6238 11.3903
# 3 14.0394 28.4939 161.4283 2.4684 1.8095 5.1539
# 4 -5.9484 -4.6233 2.4684 36.8794 -4.0423 -3.3951
# 5 5.6479 -7.6238 1.8095 -4.0423 36.1453 2.9090
# 6 11.1980 11.3903 5.1539 -3.3951 2.9090 37.7674
#
#
#
# Elastic Compliance Matrix: (Units=1/GPa)
#
#
# Indices 1 2 3 4 5 6 
#
# 1 0.012870 0.000601 -0.001123 0.001749 -0.001344 -0.003583
# 2 0.000601 0.013014 -0.002291 0.001885 0.003288 -0.003874
# 3 -0.001123 -0.002291 0.006718 -0.000994 -0.000762 0.000076
# 4 0.001749 0.001885 -0.000994 0.028176 0.003218 0.001333
# 5 -0.001344 0.003288 -0.000762 0.003218 0.029165 -0.002446
# 6 -0.003583 -0.003874 0.000076 0.001333 -0.002446 0.029007
#
#
# Mechanical properties :
#
#
# Convention : Reuss Voigt Hill
#
# Bulk Modulus (GPa) = 37.07071 46.71496 41.89283
# Shear Modulus (GPa) = 37.43411 41.40219 39.41815
#
# Velocity S-wave (km/s) = 4.07646 4.28708 4.18309
# Velocity P-wave (km/s) = 6.21393 6.72628 6.47517
#
# Compressibility (1/GPa) = 0.02697547
#
# Stress axis : x y z
#
# Youngs Moduli (GPa) = 77.69833 76.84086 148.85201
#
# Poissons Ratio (x) = -0.04615 0.16710
# Poissons Ratio (y) = -0.04666 0.34107
# Poissons Ratio (z) = 0.08723 0.17607
#
# Static dielectric constant tensor:
#      x y z
#    x 1.889470 -0.027160 0.013600 
#    y -0.027160 1.923400 -0.036420 
#    z 0.013600 -0.036420 1.833100 
# 
# From -- ./inp_files/98716.got.cif
#   From: 2010.05.17/outbox.cif.g08.bks.cpg/sg2_50_cif.got.tgz:98716.got - 2010.06.03 11:33:40.
