data_PCOD9069079
_publ_section_title
;
Structure prediction by ZEFSAII (Michael W. Deem and Ramdas Pophale) SiO2 
 PCOD9069079
Probable space group: P -1
;
_chemical_formula_sum "Si O2"
_cell_formula_units_Z 10
_cell_length_a 12.469903
_cell_length_b 12.241683
_cell_length_c 11.628234
_cell_angle_alpha 25.198892
_cell_angle_beta 39.620939
_cell_angle_gamma 35.389856
_cell_volume 433.839613
_symmetry_space_group_name_H-M "P -1"
_symmetry_group_IT_number 2
_symmetry_cell_setting 'triclinic'
loop_
_space_group_symop_operation_xyz
x,y,z
-x,-y,-z
loop_
_atom_site_type_symbol
_atom_site_label
_atom_site_fract_x
_atom_site_fract_y
_atom_site_fract_z
Si Si1 0.878999 0.834576 0.772537
Si Si2 0.567869 0.219130 0.790322
Si Si3 0.255967 0.102715 0.434795
Si Si4 0.068135 0.721099 0.288325
Si Si5 0.492292 0.440063 0.897564
O O1 0.781516 0.990291 0.823561
O O2 0.763229 0.889714 0.696018
O O3 0.000000 0.000000 0.500000
O O4 0.000000 0.500000 0.000000
O O5 0.500000 0.500000 0.500000
O O6 0.503778 0.340117 0.851897
O O7 0.500000 0.000000 0.000000
O O8 0.368082 0.775872 0.692047
O O9 0.049784 0.214762 0.555351
O O10 0.379123 0.273515 0.205781
O O11 0.000000 0.500000 0.500000
O O12 0.292264 0.618491 0.202790
O O13 0.000000 0.000000 0.000000
#
# Coordination Sequence:
#
# PCOD9069079 Si02
#       5
#     2   2   2   2   2
#     4  12  24  40  67 103 145 187 233 287 347 432
#     4  12  22  42  67 101 145 182 229 279 349 434
#     4  12  26  47  74 105 145 192 246 293 368 439
#     4  12  29  50  74 106 141 185 251 317 366 420
#     4  12  25  47  76 105 147 194 238 299 362 439
#
# _framework density 23.049992
#
# number of rings (size 3 to 8) (size 9 to 14) (size 15 to 20)
#    0.000    0.000    4.000    6.000    0.000    8.000 
#    0.000    0.000    0.000    0.000    0.000    0.000 
#    0.000    0.000    0.000    0.000    0.000    0.000 
#
# Total GULP energy -55735.490344 kJ/mol
# GULP energy per Si atom -5573.549034 kJ/mol
# Density = 2.299753 g / cm^3
# Si number density = 23.049992 Si / 1000 Ang^3
#
#
#
# Elastic Constant Matrix: (Units=GPa)
#
#
# Indices 1 2 3 4 5 6 
#
# 1 90.3772 11.6060 49.5731 1.1745 -30.7415 -6.5991
# 2 11.6060 95.9590 37.8437 -7.6808 -5.0663 0.4185
# 3 49.5731 37.8437 204.4892 -30.6542 -38.1045 -13.3105
# 4 1.1745 -7.6808 -30.6542 51.0835 -6.1953 1.7654
# 5 -30.7415 -5.0663 -38.1045 -6.1953 41.3404 11.2702
# 6 -6.5991 0.4185 -13.3105 1.7654 11.2702 43.5816
#
#
#
# Elastic Compliance Matrix: (Units=1/GPa)
#
#
# Indices 1 2 3 4 5 6 
#
# 1 0.015487 -0.000627 -0.001914 -0.000381 0.009825 -0.000759
# 2 -0.000627 0.011306 -0.002059 0.000412 -0.000737 -0.000658
# 3 -0.001914 -0.002059 0.007634 0.005037 0.006035 0.000297
# 4 -0.000381 0.000412 0.005037 0.023748 0.008422 -0.001663
# 5 0.009825 -0.000737 0.006035 0.008422 0.040250 -0.007412
# 6 -0.000759 -0.000658 0.000297 -0.001663 -0.007412 0.024912
#
#
# Mechanical properties :
#
#
# Convention : Reuss Voigt Hill
#
# Bulk Modulus (GPa) = 39.63916 65.43011 52.53463
# Shear Modulus (GPa) = 35.47481 46.65463 41.06472
#
# Velocity S-wave (km/s) = 3.92731 4.50384 4.22542
# Velocity P-wave (km/s) = 6.14812 7.44942 6.82984
#
# Compressibility (1/GPa) = 0.02522758
#
# Stress axis : x y z
#
# Youngs Moduli (GPa) = 64.57224 88.45026 130.98852
#
# Poissons Ratio (x) = 0.05543 0.25073
# Poissons Ratio (y) = 0.04046 0.26967
# Poissons Ratio (z) = 0.12360 0.18209
#
# Static dielectric constant tensor:
#      x y z
#    x 1.920990 -0.009380 -0.034980 
#    y -0.009380 1.895370 0.057880 
#    z -0.034980 0.057880 1.819670 
# 
# From -- ./inp_files/692.got.cif
#   From: 2010.05.17/outbox.cif.g08.bks.cpg/sg2_1_cif.got.tgz:692.got - 2010.06.03 11:33:40.
