data_PCOD9069372
_publ_section_title
;
Structure prediction by ZEFSAII (Michael W. Deem and Ramdas Pophale) SiO2 
 PCOD9069372
Probable space group: P -1
;
_chemical_formula_sum "Si O2"
_cell_formula_units_Z 12
_cell_length_a 6.126473
_cell_length_b 12.797777
_cell_length_c 8.598058
_cell_angle_alpha 76.650190
_cell_angle_beta 60.915556
_cell_angle_gamma 94.405610
_cell_volume 558.860330
_symmetry_space_group_name_H-M "P -1"
_symmetry_group_IT_number 2
_symmetry_cell_setting 'triclinic'
loop_
_space_group_symop_operation_xyz
x,y,z
-x,-y,-z
loop_
_atom_site_type_symbol
_atom_site_label
_atom_site_fract_x
_atom_site_fract_y
_atom_site_fract_z
Si Si1 0.866838 0.438447 0.416167
Si Si2 0.619607 0.227846 0.185059
Si Si3 0.683386 0.620747 0.911023
Si Si4 0.684254 0.000618 0.092830
Si Si5 0.148809 0.346666 0.819454
Si Si6 0.525539 0.776060 0.403905
O O1 0.771341 0.531850 0.320493
O O2 0.662997 0.329681 0.569767
O O3 0.000000 0.500000 0.500000
O O4 0.058534 0.397897 0.247341
O O5 0.387437 0.277690 0.188166
O O6 0.650745 0.110311 0.154354
O O7 0.576839 0.220834 0.387210
O O8 0.858818 0.314199 0.994424
O O9 0.500000 0.500000 0.000000
O O10 0.701787 0.654810 0.071596
O O11 0.550252 0.889968 0.268312
O O12 0.500000 0.000000 0.000000
O O13 0.000000 0.000000 0.000000
O O14 0.203851 0.260317 0.702312
#
# Coordination Sequence:
#
# PCOD9069372 Si02
#       6
#     2   2   2   2   2   2
#     4  12  25  42  73 111 152 197 249 311 383 462
#     4  12  26  48  75 107 147 197 250 312 379 458
#     4  12  23  42  72 104 149 197 241 308 382 451
#     4  12  29  53  83 110 153 207 257 323 388 450
#     4  12  24  46  70 104 154 188 243 309 386 446
#     4  12  26  48  74 110 149 198 256 316 377 462
#
# _framework density 21.472270000000002
#
# number of rings (size 3 to 8) (size 9 to 14) (size 15 to 20)
#    0.000    0.000    5.000    5.500    2.333    1.333 
#    0.000    2.500    0.000    0.000    0.000    0.000 
#    0.000    0.000    0.000    0.000    0.000    0.000 
#
# Total GULP energy -66927.227574 kJ/mol
# GULP energy per Si atom -5577.268964 kJ/mol
# Density = 2.142340 g / cm^3
# Si number density = 21.472270 Si / 1000 Ang^3
#
#
#
# Elastic Constant Matrix: (Units=GPa)
#
#
# Indices 1 2 3 4 5 6 
#
# 1 67.8571 43.4607 41.1326 -4.5230 19.1808 -2.2447
# 2 43.4607 149.9906 54.6226 -4.0275 12.2921 -22.7399
# 3 41.1326 54.6226 135.1654 -2.0958 -3.0591 2.8430
# 4 -4.5230 -4.0275 -2.0958 63.0504 -6.3934 3.5248
# 5 19.1808 12.2921 -3.0591 -6.3934 22.7854 4.8043
# 6 -2.2447 -22.7399 2.8430 3.5248 4.8043 37.2188
#
#
#
# Elastic Compliance Matrix: (Units=1/GPa)
#
#
# Indices 1 2 3 4 5 6 
#
# 1 0.028542 -0.002621 -0.008294 -0.001149 -0.024908 0.004077
# 2 -0.002621 0.010273 -0.003639 -0.000612 -0.005506 0.007165
# 3 -0.008294 -0.003639 0.011790 0.001069 0.011938 -0.005266
# 4 -0.001149 -0.000612 0.001069 0.016623 0.006731 -0.002968
# 5 -0.024908 -0.005506 0.011938 0.006731 0.074704 -0.016059
# 6 0.004077 0.007165 -0.005266 -0.002968 -0.016059 0.034248
#
#
# Mechanical properties :
#
#
# Convention : Reuss Voigt Hill
#
# Bulk Modulus (GPa) = 46.51609 70.16053 58.33831
# Shear Modulus (GPa) = 23.53472 38.86408 31.19940
#
# Velocity S-wave (km/s) = 3.31426 4.25899 3.81597
# Velocity P-wave (km/s) = 6.02960 7.54527 6.82961
#
# Compressibility (1/GPa) = 0.02149794
#
# Stress axis : x y z
#
# Youngs Moduli (GPa) = 35.03605 97.34495 84.81658
#
# Poissons Ratio (x) = 0.25516 0.70345
# Poissons Ratio (y) = 0.09184 0.30861
# Poissons Ratio (z) = 0.29058 0.35419
#
# Static dielectric constant tensor:
#      x y z
#    x 1.972200 0.023740 -0.164050 
#    y 0.023740 1.740720 0.040040 
#    z -0.164050 0.040040 1.886680 
# 
# From -- ./inp_files/21860.got.cif
#   From: 2010.05.17/outbox.cif.g08.bks.cpg/sg2_11_cif.got.tgz:21860.got - 2010.06.03 11:33:40.
