data_PCOD9069777
_publ_section_title
;
Structure prediction by ZEFSAII (Michael W. Deem and Ramdas Pophale) SiO2 
 PCOD9069777
Probable space group: P -1
;
_chemical_formula_sum "Si O2"
_cell_formula_units_Z 14
_cell_length_a 21.522548
_cell_length_b 5.398949
_cell_length_c 8.859685
_cell_angle_alpha 58.931925
_cell_angle_beta 40.098601
_cell_angle_gamma 68.783934
_cell_volume 566.971294
_symmetry_space_group_name_H-M "P -1"
_symmetry_group_IT_number 2
_symmetry_cell_setting 'triclinic'
loop_
_space_group_symop_operation_xyz
x,y,z
-x,-y,-z
loop_
_atom_site_type_symbol
_atom_site_label
_atom_site_fract_x
_atom_site_fract_y
_atom_site_fract_z
Si Si1 0.874018 0.867548 0.006774
Si Si2 0.697780 0.150242 0.617213
Si Si3 0.449710 0.365257 0.284949
Si Si4 0.634707 0.577067 0.031666
Si Si5 0.013061 0.561383 0.281568
Si Si6 0.696122 0.160649 0.276958
Si Si7 0.812722 0.444551 0.523445
O O1 0.922310 0.669389 0.852651
O O2 0.943776 0.105008 0.892782
O O3 0.832489 0.643609 0.278220
O O4 0.783680 0.036906 0.056616
O O5 0.641184 0.437235 0.604013
O O6 0.733450 0.119711 0.390634
O O7 0.783472 0.148607 0.581358
O O8 0.622763 0.909552 0.904617
O O9 0.402371 0.041880 0.476443
O O10 0.500000 0.500000 0.000000
O O11 0.532023 0.411180 0.242884
O O12 0.717540 0.501292 0.779799
O O13 0.673096 0.471612 0.154559
O O14 0.000000 0.500000 0.500000
O O15 0.908387 0.496703 0.423805
#
# Coordination Sequence:
#
# PCOD9069777 Si02
#       7
#     2   2   2   2   2   2   2
#     4  12  25  52  79 113 159 210 257 330 402 470
#     4  12  24  48  76 104 163 202 266 319 400 463
#     4  12  23  49  74 109 159 207 262 329 396 471
#     4  12  27  46  76 113 154 207 267 323 398 471
#     4  12  29  50  80 118 158 201 268 330 397 476
#     4  12  27  47  77 116 157 204 268 327 396 468
#     4  12  26  48  77 112 152 209 260 323 398 477
#
# _framework density 24.692608
#
# number of rings (size 3 to 8) (size 9 to 14) (size 15 to 20)
#    0.000    0.000    5.714    3.857    2.000    1.714 
#    5.143    0.000    0.000    0.000    0.000    0.000 
#    0.000    0.000    0.000    0.000    0.000    0.000 
#
# Total GULP energy -78166.802141 kJ/mol
# GULP energy per Si atom -5583.343010 kJ/mol
# Density = 2.463641 g / cm^3
# Si number density = 24.692608 Si / 1000 Ang^3
#
#
#
# Elastic Constant Matrix: (Units=GPa)
#
#
# Indices 1 2 3 4 5 6 
#
# 1 124.2578 25.3798 45.0684 8.7668 -10.3716 7.9207
# 2 25.3798 65.3003 38.0422 6.2127 7.0605 11.0884
# 3 45.0684 38.0422 97.4371 4.2419 -11.3982 8.7111
# 4 8.7668 6.2127 4.2419 34.0295 -3.9624 1.7619
# 5 -10.3716 7.0605 -11.3982 -3.9624 43.0377 -11.0979
# 6 7.9207 11.0884 8.7111 1.7619 -11.0979 33.1118
#
#
#
# Elastic Compliance Matrix: (Units=1/GPa)
#
#
# Indices 1 2 3 4 5 6 
#
# 1 0.009987 -0.001695 -0.003689 -0.001616 0.001491 -0.000265
# 2 -0.001695 0.023674 -0.008638 -0.003436 -0.008979 -0.008077
# 3 -0.003689 -0.008638 0.015781 0.001092 0.005140 0.001288
# 4 -0.001616 -0.003436 0.001092 0.030659 0.003489 0.000788
# 5 0.001491 -0.008979 0.005140 0.003489 0.029595 0.011031
# 6 -0.000265 -0.008077 0.001288 0.000788 0.011031 0.036285
#
#
# Mechanical properties :
#
#
# Convention : Reuss Voigt Hill
#
# Bulk Modulus (GPa) = 46.73334 55.99732 51.36533
# Shear Modulus (GPa) = 27.60026 33.93614 30.76820
#
# Velocity S-wave (km/s) = 3.34691 3.71124 3.53377
# Velocity P-wave (km/s) = 5.82262 6.41025 6.12349
#
# Compressibility (1/GPa) = 0.02139800
#
# Stress axis : x y z
#
# Youngs Moduli (GPa) = 100.12545 42.24079 63.36920
#
# Poissons Ratio (x) = 0.07158 0.23380
# Poissons Ratio (y) = 0.16968 0.54737
# Poissons Ratio (z) = 0.36941 0.36487
#
# Static dielectric constant tensor:
#      x y z
#    x 0.882040 -1.049400 0.475170 
#    y -1.049400 0.991130 0.577440 
#    z 0.475170 0.577440 1.731360 
# 
# From -- ./inp_files/340077.got.cif
#   From: 2010.05.17/outbox.cif.g08.bks.cpg/sg2_171_cif.got.tgz:340077.got - 2010.06.03 11:33:40.
