data_PCOD9069926
_publ_section_title
;
Structure prediction by ZEFSAII (Michael W. Deem and Ramdas Pophale) SiO2 
 PCOD9069926
Probable space group: P -1
;
_chemical_formula_sum "Si O2"
_cell_formula_units_Z 16
_cell_length_a 11.402717
_cell_length_b 10.639283
_cell_length_c 16.665995
_cell_angle_alpha 79.350790
_cell_angle_beta 159.656861
_cell_angle_gamma 98.346178
_cell_volume 688.435513
_symmetry_space_group_name_H-M "P -1"
_symmetry_group_IT_number 2
_symmetry_cell_setting 'triclinic'
loop_
_space_group_symop_operation_xyz
x,y,z
-x,-y,-z
loop_
_atom_site_type_symbol
_atom_site_label
_atom_site_fract_x
_atom_site_fract_y
_atom_site_fract_z
Si Si1 0.909060 0.969967 0.271813
Si Si2 0.402994 0.613698 0.987078
Si Si3 0.717123 0.774479 0.491536
Si Si4 0.777039 0.781685 0.096247
Si Si5 0.341386 0.404802 0.222799
Si Si6 0.287295 0.760246 0.649926
Si Si7 0.394333 0.646315 0.437664
Si Si8 0.314745 0.377997 0.657966
O O1 0.115581 0.093272 0.403697
O O2 0.985101 0.898102 0.243939
O O3 0.044169 0.869104 0.438366
O O4 0.500000 0.000000 0.000000
O O5 0.021901 0.666559 0.719045
O O6 0.500000 0.500000 0.000000
O O7 0.635832 0.722971 0.093262
O O8 0.467276 0.600199 0.124893
O O9 0.444402 0.743403 0.386352
O O10 0.589773 0.745222 0.323650
O O11 0.009924 0.669866 0.216432
O O12 0.466843 0.817878 0.834580
O O13 0.424298 0.301051 0.218360
O O14 0.389655 0.332899 0.346520
O O15 0.631660 0.502199 0.379597
O O16 0.000000 0.500000 0.000000
O O17 0.059322 0.648721 0.548702
O O18 0.500000 0.500000 0.500000
#
# Coordination Sequence:
#
# PCOD9069926 Si02
#       8
#     2   2   2   2   2   2   2   2
#     4  12  25  50  73 106 146 192 247 300 354 425
#     4  12  24  43  72 107 141 179 239 308 364 422
#     4  12  27  44  72 105 137 197 240 287 364 429
#     4  12  25  46  72 104 147 191 239 297 364 421
#     4  12  25  44  73 108 145 185 235 302 370 434
#     4  12  25  45  75 107 141 190 241 298 360 426
#     4  12  24  47  71 103 154 184 235 305 366 433
#     4  12  24  44  72 108 142 183 244 296 363 431
#
# _framework density 23.241102999999999
#
# number of rings (size 3 to 8) (size 9 to 14) (size 15 to 20)
#    0.000    0.000    6.250    3.375    1.750    3.500 
#    0.000    0.625    0.000    0.000    0.000    0.000 
#    0.000    0.000    0.000    0.000    0.000    0.000 
#
# Total GULP energy -89460.441544 kJ/mol
# GULP energy per Si atom -5591.277596 kJ/mol
# Density = 2.318821 g / cm^3
# Si number density = 23.241103 Si / 1000 Ang^3
#
#
#
# Elastic Constant Matrix: (Units=GPa)
#
#
# Indices 1 2 3 4 5 6 
#
# 1 126.7990 31.5374 29.9021 3.5087 -12.1153 -1.0577
# 2 31.5374 108.8871 28.2744 11.7684 -18.7422 -9.0808
# 3 29.9021 28.2744 79.8763 -13.3275 -21.7835 6.5515
# 4 3.5087 11.7684 -13.3275 38.6348 -9.2555 -4.9018
# 5 -12.1153 -18.7422 -21.7835 -9.2555 48.9305 9.7899
# 6 -1.0577 -9.0808 6.5515 -4.9018 9.7899 24.6084
#
#
#
# Elastic Compliance Matrix: (Units=1/GPa)
#
#
# Indices 1 2 3 4 5 6 
#
# 1 0.009059 -0.001662 -0.003086 -0.001358 -0.000098 0.000366
# 2 -0.001662 0.011743 -0.004526 -0.004335 0.000359 0.004460
# 3 -0.003086 -0.004526 0.020583 0.010067 0.010458 -0.009438
# 4 -0.001358 -0.004335 0.010067 0.032772 0.008959 -0.001375
# 5 -0.000098 0.000359 0.010458 0.008959 0.029417 -0.012574
# 6 0.000366 0.004460 -0.009438 -0.001375 -0.012574 0.049539
#
#
# Mechanical properties :
#
#
# Convention : Reuss Voigt Hill
#
# Bulk Modulus (GPa) = 43.78970 54.99890 49.39430
# Shear Modulus (GPa) = 27.89059 37.49132 32.69095
#
# Velocity S-wave (km/s) = 3.46794 4.02076 3.75454
# Velocity P-wave (km/s) = 5.90913 6.72839 6.33202
#
# Compressibility (1/GPa) = 0.02283642
#
# Stress axis : x y z
#
# Youngs Moduli (GPa) = 110.38812 85.15937 48.58484
#
# Poissons Ratio (x) = 0.14152 0.14994
# Poissons Ratio (y) = 0.18345 0.21988
# Poissons Ratio (z) = 0.34069 0.38541
#
# Static dielectric constant tensor:
#      x y z
#    x 1.917110 -0.048460 -0.000670 
#    y -0.048460 1.946060 0.004560 
#    z -0.000670 0.004560 1.927000 
# 
# From -- ./inp_files/569175.got.cif
#   From: 2010.05.17/outbox.cif.g08.bks.cpg/sg2_285_cif.got.tgz:569175.got - 2010.06.03 11:33:40.
