data_PCOD9069369
_publ_section_title
;
Structure prediction by ZEFSAII (Michael W. Deem and Ramdas Pophale) SiO2 
 PCOD9069369
Probable space group: P -1
;
_chemical_formula_sum "Si O2"
_cell_formula_units_Z 12
_cell_length_a 8.273478
_cell_length_b 16.726315
_cell_length_c 13.209290
_cell_angle_alpha 155.428183
_cell_angle_beta 132.374498
_cell_angle_gamma 59.551888
_cell_volume 526.938969
_symmetry_space_group_name_H-M "P -1"
_symmetry_group_IT_number 2
_symmetry_cell_setting 'triclinic'
loop_
_space_group_symop_operation_xyz
x,y,z
-x,-y,-z
loop_
_atom_site_type_symbol
_atom_site_label
_atom_site_fract_x
_atom_site_fract_y
_atom_site_fract_z
Si Si1 0.931023 0.965055 0.181243
Si Si2 0.849644 0.392930 0.909796
Si Si3 0.077658 0.593371 0.820342
Si Si4 0.139062 0.863391 0.854810
Si Si5 0.615519 0.704398 0.153851
Si Si6 0.646461 0.928405 0.224643
O O1 0.780591 0.925667 0.174518
O O2 0.819944 0.059122 0.154722
O O3 0.185390 0.129406 0.505366
O O4 0.963508 0.754428 0.918436
O O5 0.758657 0.151360 0.578636
O O6 0.987860 0.448802 0.137476
O O7 0.642021 0.486194 0.934115
O O8 0.000000 0.500000 0.000000
O O9 0.005080 0.378577 0.485431
O O10 0.356904 0.698821 0.059495
O O11 0.379816 0.895418 0.049366
O O12 0.000000 0.000000 0.000000
O O13 0.665439 0.766803 0.129233
#
# Coordination Sequence:
#
# PCOD9069369 Si02
#       6
#     2   2   2   2   2   2
#     4  12  25  45  72 100 139 180 228 284 339 402
#     4  12  23  42  72 103 134 177 229 279 337 403
#     4  12  26  43  72 102 137 181 230 277 343 405
#     4  12  28  47  68 100 142 181 226 283 343 405
#     4  12  24  42  73 103 136 177 229 285 332 402
#     4  12  26  45  71 105 138 177 228 284 340 405
#
# _framework density 22.773036999999999
#
# number of rings (size 3 to 8) (size 9 to 14) (size 15 to 20)
#    0.000    0.000    5.000    5.000    2.333    4.667 
#    0.000    0.000    0.000    0.000    0.000    0.000 
#    0.000    0.000    0.000    0.000    0.000    0.000 
#
# Total GULP energy -67280.087764 kJ/mol
# GULP energy per Si atom -5606.673980 kJ/mol
# Density = 2.272120 g / cm^3
# Si number density = 22.773037 Si / 1000 Ang^3
#
#
#
# Elastic Constant Matrix: (Units=GPa)
#
#
# Indices 1 2 3 4 5 6 
#
# 1 57.8770 -7.5670 27.0023 6.7181 -9.0100 0.7194
# 2 -7.5670 103.3579 18.6391 12.5391 -5.5362 -1.1244
# 3 27.0023 18.6391 82.5296 -3.2262 -13.0490 -12.9339
# 4 6.7181 12.5391 -3.2262 37.3545 -6.0985 -1.5499
# 5 -9.0100 -5.5362 -13.0490 -6.0985 28.9209 4.7590
# 6 0.7194 -1.1244 -12.9339 -1.5499 4.7590 45.6029
#
#
#
# Elastic Compliance Matrix: (Units=1/GPa)
#
#
# Indices 1 2 3 4 5 6 
#
# 1 0.023129 0.004122 -0.008711 -0.005883 0.003364 -0.003285
# 2 0.004122 0.011343 -0.004170 -0.004836 0.000753 -0.001211
# 3 -0.008711 -0.004170 0.017623 0.005471 0.004817 0.004716
# 4 -0.005883 -0.004836 0.005471 0.030972 0.005918 0.001960
# 5 0.003364 0.000753 0.004817 0.005918 0.039619 -0.002602
# 6 -0.003285 -0.001211 0.004716 0.001960 -0.002602 0.023626
#
#
# Mechanical properties :
#
#
# Convention : Reuss Voigt Hill
#
# Bulk Modulus (GPa) = 28.92115 35.54593 32.23354
# Shear Modulus (GPa) = 28.51351 36.08836 32.30093
#
# Velocity S-wave (km/s) = 3.54230 3.98514 3.77023
# Velocity P-wave (km/s) = 5.42751 6.06777 5.75655
#
# Compressibility (1/GPa) = 0.03457677
#
# Stress axis : x y z
#
# Youngs Moduli (GPa) = 43.23666 88.16094 56.74261
#
# Poissons Ratio (x) = -0.36343 0.49429
# Poissons Ratio (y) = -0.17824 0.23663
# Poissons Ratio (z) = 0.37664 0.36765
#
# Static dielectric constant tensor:
#      x y z
#    x 1.883290 0.021860 -0.010150 
#    y 0.021860 1.816010 0.013200 
#    z -0.010150 0.013200 1.799820 
# 
# From -- ./inp_files/87741.got.cif
#   From: 2010.05.17/outbox.cif.g08.bks.cpg/sg2_44_cif.got.tgz:87741.got - 2010.06.03 11:33:40.
