data_PCOD9069972
_publ_section_title
;
Structure prediction by ZEFSAII (Michael W. Deem and Ramdas Pophale) SiO2 
 PCOD9069972
Probable space group: P -1
;
_chemical_formula_sum "Si O2"
_cell_formula_units_Z 16
_cell_length_a 18.131496
_cell_length_b 7.489453
_cell_length_c 4.897368
_cell_angle_alpha 114.360855
_cell_angle_beta 87.452502
_cell_angle_gamma 98.103784
_cell_volume 599.708053
_symmetry_space_group_name_H-M "P -1"
_symmetry_group_IT_number 2
_symmetry_cell_setting 'triclinic'
loop_
_space_group_symop_operation_xyz
x,y,z
-x,-y,-z
loop_
_atom_site_type_symbol
_atom_site_label
_atom_site_fract_x
_atom_site_fract_y
_atom_site_fract_z
Si Si1 0.431974 0.406931 0.651528
Si Si2 0.005922 0.795963 0.206824
Si Si3 0.449108 0.776820 0.274144
Si Si4 0.143290 0.305233 0.192540
Si Si5 0.674549 0.374628 0.460079
Si Si6 0.693866 0.158553 0.823098
Si Si7 0.906036 0.292162 0.394444
Si Si8 0.192829 0.093919 0.581799
O O1 0.500000 0.500000 0.500000
O O2 0.464112 0.219059 0.669611
O O3 0.354101 0.425229 0.517516
O O4 0.429637 0.564032 0.994386
O O5 0.846602 0.821246 0.618747
O O6 0.931244 0.752290 0.013054
O O7 0.000000 0.000000 0.500000
O O8 0.068314 0.768594 0.948581
O O9 0.404953 0.762426 0.556881
O O10 0.395951 0.901279 0.189600
O O11 0.137969 0.521537 0.448711
O O12 0.976552 0.337777 0.622874
O O13 0.203535 0.251616 0.926058
O O14 0.709324 0.342925 0.725817
O O15 0.718409 0.257515 0.165788
O O16 0.734146 0.984692 0.595204
O O17 0.856880 0.100187 0.409844
#
# Coordination Sequence:
#
# PCOD9069972 Si02
#       8
#     2   2   2   2   2   2   2   2
#     4   8  10  18  33  57  91 135 178 230 283 346
#     4  12  24  44  69  96 123 155 194 248 308 359
#     4   7  13  20  35  59  92 137 184 221 292 334
#     4  12  26  44  65  94 122 159 198 247 303 362
#     4   8  14  23  38  60  96 137 186 228 293 332
#     4   9  17  29  43  69  99 145 188 234 280 340
#     4  12  26  44  68  92 126 158 195 246 305 361
#     4  12  25  40  64  87 123 161 206 244 295 357
#
# _framework density 26.679649000000001
#
# number of rings (size 3 to 8) (size 9 to 14) (size 15 to 20)
#    0.750    1.250    1.250    4.125    0.000    0.000 
#    0.000    0.000    0.000    0.000    0.000    0.000 
#    0.000    0.000    0.000   63.000    0.000    0.750 
#
# Total GULP energy -89151.769010 kJ/mol
# GULP energy per Si atom -5571.985563 kJ/mol
# Density = 2.661892 g / cm^3
# Si number density = 26.679649 Si / 1000 Ang^3
#
#
#
# Elastic Constant Matrix: (Units=GPa)
#
#
# Indices 1 2 3 4 5 6 
#
# 1 16.6496 46.9493 42.9708 26.7017 24.1082 10.1420
# 2 46.9493 124.0618 75.5603 11.0769 0.3113 -17.5348
# 3 42.9708 75.5603 254.4528 4.2900 -6.0455 0.5530
# 4 26.7017 11.0769 4.2900 51.4664 -20.7963 1.4226
# 5 24.1082 0.3113 -6.0455 -20.7963 32.2614 9.4941
# 6 10.1420 -17.5348 0.5530 1.4226 9.4941 19.1970
#
#
#
# Elastic Compliance Matrix: (Units=1/GPa)
#
#
# Indices 1 2 3 4 5 6 
#
# 1 -0.016299 0.002858 0.002197 0.017685 0.024654 -0.002345
# 2 0.002858 0.013806 -0.004825 -0.011205 -0.016324 0.020143
# 3 0.002197 -0.004825 0.005035 0.000209 0.001368 -0.006405
# 4 0.017685 -0.011205 0.000209 0.014311 0.002612 -0.021936
# 5 0.024654 -0.016324 0.001368 0.002612 0.026871 -0.041458
# 6 -0.002345 0.020143 -0.006405 -0.021936 -0.041458 0.094043
#
#
# Mechanical properties :
#
#
# Convention : Reuss Voigt Hill
#
# Bulk Modulus (GPa) = 333.26735 80.68058 206.97396
# Shear Modulus (GPa) = 36.15105 35.89720 36.02413
#
# Velocity S-wave (km/s) = 3.68503 3.67207 3.67856
# Velocity P-wave (km/s) = 11.97045 6.94874 9.78715
#
# Compressibility (1/GPa) = 0.00300059
#
# Stress axis : x y z
#
# Youngs Moduli (GPa) = -61.35296 72.43185 198.61816
#
# Poissons Ratio (x) = -0.20701 -0.43627
# Poissons Ratio (y) = 0.17535 0.95835
# Poissons Ratio (z) = 0.13476 0.34949
#
# Static dielectric constant tensor:
#      x y z
#    x 2.339710 -0.009660 -0.035650 
#    y -0.009660 2.188670 0.014500 
#    z -0.035650 0.014500 2.042750 
# 
# From -- ./inp_files/126151.got.cif
#   From: 2010.05.17/outbox.cif.g08.bks.cpg/sg2_64_cif.got.tgz:126151.got - 2010.06.03 11:33:40.
