data_PCOD9069810
_publ_section_title
;
Structure prediction by ZEFSAII (Michael W. Deem and Ramdas Pophale) SiO2 
 PCOD9069810
Probable space group: P -1
;
_chemical_formula_sum "Si O2"
_cell_formula_units_Z 14
_cell_length_a 20.894700
_cell_length_b 14.902020
_cell_length_c 9.368522
_cell_angle_alpha 131.399079
_cell_angle_beta 31.103892
_cell_angle_gamma 153.071977
_cell_volume 614.039595
_symmetry_space_group_name_H-M "P -1"
_symmetry_group_IT_number 2
_symmetry_cell_setting 'triclinic'
loop_
_space_group_symop_operation_xyz
x,y,z
-x,-y,-z
loop_
_atom_site_type_symbol
_atom_site_label
_atom_site_fract_x
_atom_site_fract_y
_atom_site_fract_z
Si Si1 0.032772 0.777461 0.468902
Si Si2 0.563972 0.374314 0.775211
Si Si3 0.837261 0.484667 0.782906
Si Si4 0.676815 0.054701 0.295663
Si Si5 0.169683 0.139915 0.457996
Si Si6 0.510699 0.975080 0.119042
Si Si7 0.821946 0.588836 0.221314
O O1 0.811488 0.568179 0.578010
O O2 0.959582 0.689735 0.678843
O O3 0.118137 0.980232 0.482391
O O4 0.235066 0.846713 0.127952
O O5 0.392033 0.123896 0.833842
O O6 0.627766 0.436172 0.551400
O O7 0.418892 0.344515 0.122104
O O8 0.627366 0.261712 0.858291
O O9 0.000000 0.500000 0.500000
O O10 0.766746 0.473056 0.060988
O O11 0.500000 0.000000 0.500000
O O12 0.609350 0.020972 0.554155
O O13 0.949334 0.286432 0.017978
O O14 0.126764 0.229662 0.715919
O O15 0.000000 0.000000 0.500000
O O16 0.500000 0.000000 0.000000
#
# Coordination Sequence:
#
# PCOD9069810 Si02
#       7
#     2   2   2   2   2   2   2
#     4  12  26  46  75 103 150 191 233 300 355 420
#     4  12  25  44  74 104 141 189 240 298 357 412
#     4  12  25  47  72 104 145 187 235 289 364 424
#     4  12  24  39  66 107 143 179 236 289 357 423
#     4  12  25  49  72 104 146 185 246 296 350 420
#     4  12  24  45  69 102 149 186 231 291 350 430
#     4  12  26  45  72 107 140 191 238 293 356 426
#
# _framework density 22.799831000000001
#
# number of rings (size 3 to 8) (size 9 to 14) (size 15 to 20)
#    0.000    0.000    5.714    4.714    0.000    1.714 
#    0.000    2.857    0.000    0.000    0.000    0.000 
#    0.000    0.000    0.000    0.000    0.000    0.000 
#
# Total GULP energy -78224.688761 kJ/mol
# GULP energy per Si atom -5587.477769 kJ/mol
# Density = 2.274794 g / cm^3
# Si number density = 22.799831 Si / 1000 Ang^3
#
#
#
# Elastic Constant Matrix: (Units=GPa)
#
#
# Indices 1 2 3 4 5 6 
#
# 1 79.1724 14.0370 44.1048 1.1289 16.4619 -10.7744
# 2 14.0370 59.0906 26.9712 8.3420 3.0770 11.7088
# 3 44.1048 26.9712 114.6602 0.8733 2.3741 7.9559
# 4 1.1289 8.3420 0.8733 45.7371 6.1496 3.0162
# 5 16.4619 3.0770 2.3741 6.1496 38.2416 -10.1417
# 6 -10.7744 11.7088 7.9559 3.0162 -10.1417 45.1901
#
#
#
# Elastic Compliance Matrix: (Units=1/GPa)
#
#
# Indices 1 2 3 4 5 6 
#
# 1 0.018830 -0.001982 -0.006981 0.000568 -0.006339 0.004772
# 2 -0.001982 0.020633 -0.003669 -0.003095 -0.001487 -0.005300
# 3 -0.006981 -0.003669 0.012405 0.000534 0.001772 -0.002536
# 4 0.000568 -0.003095 0.000534 0.023073 -0.004172 -0.001633
# 5 -0.006339 -0.001487 0.001772 -0.004172 0.031102 0.005821
# 6 0.004772 -0.005300 -0.002536 -0.001633 0.005821 0.026501
#
#
# Mechanical properties :
#
#
# Convention : Reuss Voigt Hill
#
# Bulk Modulus (GPa) = 37.58842 47.01658 42.30250
# Shear Modulus (GPa) = 29.99799 37.02112 33.50955
#
# Velocity S-wave (km/s) = 3.63121 4.03394 3.83786
# Velocity P-wave (km/s) = 5.83977 6.50870 6.18329
#
# Compressibility (1/GPa) = 0.02660394
#
# Stress axis : x y z
#
# Youngs Moduli (GPa) = 53.10561 48.46561 80.61284
#
# Poissons Ratio (x) = 0.09607 0.56277
# Poissons Ratio (y) = 0.10527 0.29576
# Poissons Ratio (z) = 0.37074 0.17781
#
# Static dielectric constant tensor:
#      x y z
#    x 1.900910 -0.062020 -0.013890 
#    y -0.062020 1.911950 -0.001180 
#    z -0.013890 -0.001180 1.961340 
# 
# From -- ./inp_files/90424.got.cif
#   From: 2010.05.17/outbox.cif.g08.bks.cpg/sg2_46_cif.got.tgz:90424.got - 2010.06.03 11:33:40.
