data_PCOD9069407
_publ_section_title
;
Structure prediction by ZEFSAII (Michael W. Deem and Ramdas Pophale) SiO2 
 PCOD9069407
Probable space group: P -1
;
_chemical_formula_sum "Si O2"
_cell_formula_units_Z 14
_cell_length_a 13.776857
_cell_length_b 13.365512
_cell_length_c 8.983594
_cell_angle_alpha 122.955461
_cell_angle_beta 136.424944
_cell_angle_gamma 30.331277
_cell_volume 559.887771
_symmetry_space_group_name_H-M "P -1"
_symmetry_group_IT_number 2
_symmetry_cell_setting 'triclinic'
loop_
_space_group_symop_operation_xyz
x,y,z
-x,-y,-z
loop_
_atom_site_type_symbol
_atom_site_label
_atom_site_fract_x
_atom_site_fract_y
_atom_site_fract_z
Si Si1 0.875951 0.267133 0.546639
Si Si2 0.162068 0.405949 0.956627
Si Si3 0.409646 0.679084 0.956314
Si Si4 0.737848 0.892173 0.349492
Si Si5 0.528604 0.705900 0.572610
Si Si6 0.934919 0.141323 0.847704
Si Si7 0.081756 0.612060 0.776560
O O1 0.115209 0.112580 0.590281
O O2 0.741177 0.486556 0.551672
O O3 0.525449 0.116863 0.367594
O O4 0.706334 0.210741 0.651819
O O5 0.288851 0.201821 0.865741
O O6 0.066713 0.801470 0.274838
O O7 0.009723 0.568789 0.788062
O O8 0.000000 0.500000 0.000000
O O9 0.642605 0.601714 0.137441
O O10 0.183265 0.900930 0.956877
O O11 0.500000 0.500000 0.000000
O O12 0.300324 0.708400 0.702063
O O13 0.367567 0.358859 0.196190
O O14 0.906475 0.734191 0.542502
O O15 0.913776 0.260971 0.039710
#
# Coordination Sequence:
#
# PCOD9069407 Si02
#       7
#     2   2   2   2   2   2   2
#     4  12  23  43  68 104 143 178 232 285 345 414
#     4  12  26  51  72  96 140 189 242 286 331 412
#     4  12  25  42  72 110 148 176 221 292 360 419
#     4  12  27  45  70 101 142 187 232 281 347 413
#     4  12  24  44  76  99 140 184 234 288 348 403
#     4  12  25  42  73 109 140 177 234 284 357 418
#     4  12  26  46  72 105 143 183 225 291 353 411
#
# _framework density 25.005011
#
# number of rings (size 3 to 8) (size 9 to 14) (size 15 to 20)
#    0.000    0.000    7.143    2.571    4.000    1.143 
#    2.571    0.714    0.000    0.000    0.000    0.000 
#    0.000    0.000    0.000    0.000    0.000    0.000 
#
# Total GULP energy -78388.982388 kJ/mol
# GULP energy per Si atom -5599.213028 kJ/mol
# Density = 2.494810 g / cm^3
# Si number density = 25.005011 Si / 1000 Ang^3
#
#
#
# Elastic Constant Matrix: (Units=GPa)
#
#
# Indices 1 2 3 4 5 6 
#
# 1 84.2963 20.3208 13.2080 -12.1332 -15.5729 1.3994
# 2 20.3208 159.0048 33.4630 6.5915 8.2131 -10.3284
# 3 13.2080 33.4630 98.2019 14.9063 -11.2413 0.3601
# 4 -12.1332 6.5915 14.9063 45.9202 9.9176 5.7703
# 5 -15.5729 8.2131 -11.2413 9.9176 29.2303 -5.6573
# 6 1.3994 -10.3284 0.3601 5.7703 -5.6573 25.6100
#
#
#
# Elastic Compliance Matrix: (Units=1/GPa)
#
#
# Indices 1 2 3 4 5 6 
#
# 1 0.014194 -0.002154 -0.000868 0.003011 0.006649 -0.000842
# 2 -0.002154 0.007482 -0.002649 -0.000288 -0.003703 0.002419
# 3 -0.000868 -0.002649 0.012972 -0.005938 0.007638 0.001822
# 4 0.003011 -0.000288 -0.005938 0.028287 -0.011980 -0.009217
# 5 0.006649 -0.003703 0.007638 -0.011980 0.047990 0.011336
# 6 -0.000842 0.002419 0.001822 -0.009217 0.011336 0.044624
#
#
# Mechanical properties :
#
#
# Convention : Reuss Voigt Hill
#
# Bulk Modulus (GPa) = 42.90825 52.83184 47.87005
# Shear Modulus (GPa) = 28.62705 38.45284 33.53994
#
# Velocity S-wave (km/s) = 3.38724 3.92574 3.66639
# Velocity P-wave (km/s) = 5.70043 6.45933 6.09171
#
# Compressibility (1/GPa) = 0.02330554
#
# Stress axis : x y z
#
# Youngs Moduli (GPa) = 70.45261 133.64927 77.09188
#
# Poissons Ratio (x) = 0.28792 0.06690
# Poissons Ratio (y) = 0.15178 0.20422
# Poissons Ratio (z) = 0.06114 0.35404
#
# Static dielectric constant tensor:
#      x y z
#    x 1.962810 0.018350 0.012960 
#    y 0.018350 2.001430 -0.001230 
#    z 0.012960 -0.001230 1.953470 
# 
# From -- ./inp_files/259595.got.cif
#   From: 2010.05.17/outbox.cif.g08.bks.cpg/sg2_130_cif.got.tgz:259595.got - 2010.06.03 11:33:40.
