data_PCOD9069580
_publ_section_title
;
Structure prediction by ZEFSAII (Michael W. Deem and Ramdas Pophale) SiO2 
 PCOD9069580
Probable space group: P -1
;
_chemical_formula_sum "Si O2"
_cell_formula_units_Z 16
_cell_length_a 9.260408
_cell_length_b 9.286895
_cell_length_c 14.098523
_cell_angle_alpha 111.693416
_cell_angle_beta 107.406003
_cell_angle_gamma 42.300606
_cell_volume 757.585445
_symmetry_space_group_name_H-M "P -1"
_symmetry_group_IT_number 2
_symmetry_cell_setting 'triclinic'
loop_
_space_group_symop_operation_xyz
x,y,z
-x,-y,-z
loop_
_atom_site_type_symbol
_atom_site_label
_atom_site_fract_x
_atom_site_fract_y
_atom_site_fract_z
Si Si1 0.303792 0.035434 0.004202
Si Si2 0.574508 0.184923 0.681614
Si Si3 0.493341 0.348279 0.901839
Si Si4 0.993842 0.956072 0.596781
Si Si5 0.964135 0.481155 0.154353
Si Si6 0.766607 0.964531 0.212304
Si Si7 0.659277 0.785139 0.688538
Si Si8 0.201623 0.470348 0.531362
O O1 0.113113 0.287790 0.059285
O O2 0.376889 0.875230 0.066746
O O3 0.248546 0.975534 0.885913
O O4 0.500000 0.000000 0.000000
O O5 0.581967 0.294879 0.799554
O O6 0.350617 0.338882 0.619921
O O7 0.753965 0.101738 0.621676
O O8 0.619996 0.982760 0.684737
O O9 0.251357 0.462849 0.867602
O O10 0.500000 0.500000 0.000000
O O11 0.118452 0.704831 0.571937
O O12 0.000000 0.000000 0.500000
O O13 0.102921 0.008574 0.694109
O O14 0.885666 0.711822 0.173733
O O15 0.114639 0.378875 0.251819
O O16 0.532829 0.113088 0.251316
O O17 0.669859 0.660414 0.571945
O O18 0.000000 0.500000 0.500000
#
# Coordination Sequence:
#
# PCOD9069580 Si02
#       8
#     2   2   2   2   2   2   2   2
#     4  12  24  47  71 109 142 192 246 294 356 436
#     4  12  26  49  73 107 146 192 245 294 361 443
#     4  12  29  45  72 109 150 189 246 302 358 432
#     4  12  30  49  72 114 148 185 244 307 368 428
#     4  12  23  45  75 101 148 193 244 289 369 418
#     4  12  27  44  75 107 150 191 243 302 364 429
#     4  12  24  46  77 106 143 191 248 295 356 446
#     4  12  27  46  81 103 142 193 241 299 369 429
#
# _framework density 21.119731000000002
#
# number of rings (size 3 to 8) (size 9 to 14) (size 15 to 20)
#    0.000    0.000    6.250    3.000    5.250    3.500 
#    0.000    0.000    0.000    0.000    0.000    0.000 
#    0.000    0.000    0.000    0.000    0.000    0.000 
#
# Total GULP energy -89607.060665 kJ/mol
# GULP energy per Si atom -5600.441292 kJ/mol
# Density = 2.107166 g / cm^3
# Si number density = 21.119731 Si / 1000 Ang^3
#
#
#
# Elastic Constant Matrix: (Units=GPa)
#
#
# Indices 1 2 3 4 5 6 
#
# 1 67.1723 37.1721 36.8540 -1.1932 -0.9987 -4.9086
# 2 37.1721 115.0456 53.5906 -6.1094 -2.4073 -10.3060
# 3 36.8540 53.5906 176.9427 -6.0935 -4.5036 -5.9057
# 4 -1.1932 -6.1094 -6.0935 53.2552 -3.0812 0.7526
# 5 -0.9987 -2.4073 -4.5036 -3.0812 44.1736 6.5516
# 6 -4.9086 -10.3060 -5.9057 0.7526 6.5516 21.3813
#
#
#
# Elastic Compliance Matrix: (Units=1/GPa)
#
#
# Indices 1 2 3 4 5 6 
#
# 1 0.019045 -0.004912 -0.002455 -0.000457 -0.000334 0.001445
# 2 -0.004912 0.011788 -0.002391 0.000900 -0.000233 0.003934
# 3 -0.002455 -0.002391 0.006918 0.000494 0.000553 0.000008
# 4 -0.000457 0.000900 0.000494 0.019024 0.001515 -0.000669
# 5 -0.000334 -0.000233 0.000553 0.001515 0.023878 -0.007406
# 6 0.001445 0.003934 0.000008 -0.000669 -0.007406 0.051293
#
#
# Mechanical properties :
#
#
# Convention : Reuss Voigt Hill
#
# Bulk Modulus (GPa) = 54.83690 68.26596 61.55143
# Shear Modulus (GPa) = 31.73788 39.19827 35.46808
#
# Velocity S-wave (km/s) = 3.88075 4.31281 4.10247
# Velocity P-wave (km/s) = 6.78980 7.56267 7.18663
#
# Compressibility (1/GPa) = 0.01823590
#
# Stress axis : x y z
#
# Youngs Moduli (GPa) = 52.50831 84.83027 144.54210
#
# Poissons Ratio (x) = 0.41666 0.35486
# Poissons Ratio (y) = 0.25790 0.34559
# Poissons Ratio (z) = 0.12891 0.20282
#
# Static dielectric constant tensor:
#      x y z
#    x 1.734020 -0.013690 -0.025330 
#    y -0.013690 1.746230 0.001200 
#    z -0.025330 0.001200 1.783480 
# 
# From -- ./inp_files/46769.got.cif
#   From: 2010.05.17/outbox.cif.g08.bks.cpg/sg2_24_cif.got.tgz:46769.got - 2010.06.03 11:33:40.
