data_PCOD9069929
_publ_section_title
;
Structure prediction by ZEFSAII (Michael W. Deem and Ramdas Pophale) SiO2 
 PCOD9069929
Probable space group: P -1
;
_chemical_formula_sum "Si O2"
_cell_formula_units_Z 14
_cell_length_a 26.535101
_cell_length_b 11.712166
_cell_length_c 11.999188
_cell_angle_alpha 37.336243
_cell_angle_beta 19.684086
_cell_angle_gamma 27.501602
_cell_volume 560.451903
_symmetry_space_group_name_H-M "P -1"
_symmetry_group_IT_number 2
_symmetry_cell_setting 'triclinic'
loop_
_space_group_symop_operation_xyz
x,y,z
-x,-y,-z
loop_
_atom_site_type_symbol
_atom_site_label
_atom_site_fract_x
_atom_site_fract_y
_atom_site_fract_z
Si Si1 0.038350 0.720806 0.908285
Si Si2 0.699493 0.197050 0.806182
Si Si3 0.399965 0.531038 0.802437
Si Si4 0.199443 0.958725 0.635893
Si Si5 0.791459 0.002439 0.004172
Si Si6 0.232227 0.331298 0.181480
Si Si7 0.637205 0.809214 0.222128
O O1 0.163288 0.807071 0.563200
O O2 0.184823 0.439388 0.880029
O O3 0.851323 0.926446 0.221245
O O4 0.956200 0.749158 0.931945
O O5 0.500000 0.500000 0.000000
O O6 0.821002 0.066835 0.770996
O O7 0.654928 0.018894 0.007188
O O8 0.500000 0.500000 0.500000
O O9 0.267685 0.779073 0.958940
O O10 0.613064 0.322148 0.581823
O O11 0.272773 0.454063 0.094111
O O12 0.274452 0.090970 0.325767
O O13 0.000000 0.000000 0.000000
O O14 0.585648 0.054988 0.376271
O O15 0.000000 0.500000 0.500000
O O16 0.344115 0.285281 0.869478
#
# Coordination Sequence:
#
# PCOD9069929 Si02
#       7
#     2   2   2   2   2   2   2
#     4  12  26  48  75 108 149 199 248 308 373 440
#     4  12  29  52  77 108 147 202 256 309 374 442
#     4  12  24  45  72 110 154 188 244 308 378 449
#     4  12  24  43  72 110 151 197 246 305 380 448
#     4  12  27  50  76 111 152 196 251 311 369 449
#     4  12  25  43  72 111 148 193 245 305 377 452
#     4  12  26  51  76 109 151 197 252 310 376 443
#
# _framework density 24.979842000000001
#
# number of rings (size 3 to 8) (size 9 to 14) (size 15 to 20)
#    0.000    0.000    5.714    3.857    4.000    0.571 
#    2.571    0.000    0.000    0.000    0.000    0.000 
#    0.000    0.000    0.000    0.000    0.000    0.000 
#
# Total GULP energy -78190.810900 kJ/mol
# GULP energy per Si atom -5585.057921 kJ/mol
# Density = 2.492299 g / cm^3
# Si number density = 24.979842 Si / 1000 Ang^3
#
#
#
# Elastic Constant Matrix: (Units=GPa)
#
#
# Indices 1 2 3 4 5 6 
#
# 1 123.3939 44.7961 18.3616 -9.9271 -6.8149 -8.5173
# 2 44.7961 130.1293 41.7042 -24.7744 -7.5738 11.8823
# 3 18.3616 41.7042 91.5909 -10.4232 -0.8727 -10.8507
# 4 -9.9271 -24.7744 -10.4232 35.3762 -4.5746 -3.2008
# 5 -6.8149 -7.5738 -0.8727 -4.5746 57.9172 -11.1888
# 6 -8.5173 11.8823 -10.8507 -3.2008 -11.1888 37.4573
#
#
#
# Elastic Compliance Matrix: (Units=1/GPa)
#
#
# Indices 1 2 3 4 5 6 
#
# 1 0.009785 -0.003548 0.000237 0.000886 0.001524 0.003950
# 2 -0.003548 0.012013 -0.004754 0.005594 0.000486 -0.005372
# 3 0.000237 -0.004754 0.013924 0.001497 0.000891 0.005990
# 4 0.000886 0.005594 0.001497 0.033671 0.004089 0.002959
# 5 0.001524 0.000486 0.000891 0.004089 0.019102 0.006506
# 6 0.003950 -0.005372 0.005990 0.002959 0.006506 0.033230
#
#
# Mechanical properties :
#
#
# Convention : Reuss Voigt Hill
#
# Bulk Modulus (GPa) = 51.04012 61.64868 56.34440
# Shear Modulus (GPa) = 34.62956 42.16696 38.39826
#
# Velocity S-wave (km/s) = 3.72734 4.11303 3.92493
# Velocity P-wave (km/s) = 6.24508 6.87670 6.56849
#
# Compressibility (1/GPa) = 0.01959243
#
# Stress axis : x y z
#
# Youngs Moduli (GPa) = 102.19877 83.24196 71.82034
#
# Poissons Ratio (x) = 0.29532 -0.01702
# Poissons Ratio (y) = 0.36257 0.34143
# Poissons Ratio (z) = -0.02422 0.39573
#
# Static dielectric constant tensor:
#      x y z
#    x 1.828810 0.177470 -0.012780 
#    y 0.177470 1.720660 -0.056920 
#    z -0.012780 -0.056920 2.147690 
# 
# From -- ./inp_files/476620.got.cif
#   From: 2010.05.17/outbox.cif.g08.bks.cpg/sg2_239_cif.got.tgz:476620.got - 2010.06.03 11:33:40.
