data_PCOD9069789
_publ_section_title
;
Structure prediction by ZEFSAII (Michael W. Deem and Ramdas Pophale) SiO2 
 PCOD9069789
Probable space group: P -1
;
_chemical_formula_sum "Si O2"
_cell_formula_units_Z 12
_cell_length_a 9.762396
_cell_length_b 14.152513
_cell_length_c 7.713499
_cell_angle_alpha 125.032221
_cell_angle_beta 106.688082
_cell_angle_gamma 37.132700
_cell_volume 494.456403
_symmetry_space_group_name_H-M "P -1"
_symmetry_group_IT_number 2
_symmetry_cell_setting 'triclinic'
loop_
_space_group_symop_operation_xyz
x,y,z
-x,-y,-z
loop_
_atom_site_type_symbol
_atom_site_label
_atom_site_fract_x
_atom_site_fract_y
_atom_site_fract_z
Si Si1 0.257548 0.398448 0.976889
Si Si2 0.961498 0.774819 0.091340
Si Si3 0.569167 0.587754 0.593052
Si Si4 0.731308 0.959889 0.562932
Si Si5 0.059698 0.325995 0.357726
Si Si6 0.039481 0.981266 0.787979
O O1 0.190602 0.548865 0.989361
O O2 0.343582 0.398776 0.190379
O O3 0.170439 0.200486 0.092422
O O4 0.000000 0.500000 0.000000
O O5 0.779508 0.893453 0.313111
O O6 0.055180 0.840100 0.141677
O O7 0.500000 0.500000 0.500000
O O8 0.794281 0.443351 0.396855
O O9 0.324119 0.803928 0.666312
O O10 0.528166 0.819201 0.249452
O O11 0.802648 0.812263 0.569105
O O12 0.919817 0.942911 0.636425
O O13 0.000000 0.500000 0.500000
O O14 0.000000 0.000000 0.000000
#
# Coordination Sequence:
#
# PCOD9069789 Si02
#       6
#     2   2   2   2   2   2
#     4  12  28  50  79 119 164 207 265 340 407 483
#     4  12  27  48  79 116 154 210 267 331 406 472
#     4  12  23  49  84 111 161 213 272 330 398 484
#     4  12  27  52  81 115 164 207 271 333 407 484
#     4  12  27  50  81 117 163 218 266 330 410 486
#     4  12  23  49  78 117 155 208 268 339 399 477
#
# _framework density 24.269076999999999
#
# number of rings (size 3 to 8) (size 9 to 14) (size 15 to 20)
#    0.000    0.000    6.667    1.500    2.333    2.667 
#    0.000    3.333    0.000    0.000    0.000    0.000 
#    0.000    0.000    0.000    0.000    0.000    0.000 
#
# Total GULP energy -67239.698353 kJ/mol
# GULP energy per Si atom -5603.308196 kJ/mol
# Density = 2.421384 g / cm^3
# Si number density = 24.269077 Si / 1000 Ang^3
#
#
#
# Elastic Constant Matrix: (Units=GPa)
#
#
# Indices 1 2 3 4 5 6 
#
# 1 137.7783 77.1992 52.7968 1.9025 20.9785 3.1714
# 2 77.1992 143.4034 70.4945 18.1751 -5.7576 30.3872
# 3 52.7968 70.4945 191.3297 -21.7910 -7.1075 4.5194
# 4 1.9025 18.1751 -21.7910 52.3143 -7.9572 3.1993
# 5 20.9785 -5.7576 -7.1075 -7.9572 43.0405 9.5549
# 6 3.1714 30.3872 4.5194 3.1993 9.5549 57.9174
#
#
#
# Elastic Compliance Matrix: (Units=1/GPa)
#
#
# Indices 1 2 3 4 5 6 
#
# 1 0.013536 -0.008192 -0.001149 0.000196 -0.008983 0.005117
# 2 -0.008192 0.015957 -0.003793 -0.005344 0.006374 -0.008384
# 3 -0.001149 -0.003793 0.007534 0.004745 0.001980 0.000876
# 4 0.000196 -0.005344 0.004745 0.023560 0.004235 0.000422
# 5 -0.008983 0.006374 0.001980 0.004235 0.031446 -0.008429
# 6 0.005117 -0.008384 0.000876 0.000422 -0.008429 0.022683
#
#
# Mechanical properties :
#
#
# Convention : Reuss Voigt Hill
#
# Bulk Modulus (GPa) = 92.93435 97.05471 94.99453
# Shear Modulus (GPa) = 34.58520 48.78918 41.68719
#
# Velocity S-wave (km/s) = 3.77911 4.48855 4.14902
# Velocity P-wave (km/s) = 7.57751 8.18173 7.88541
#
# Compressibility (1/GPa) = 0.01076028
#
# Stress axis : x y z
#
# Youngs Moduli (GPa) = 73.87950 62.66675 132.72399
#
# Poissons Ratio (x) = 0.51334 0.15253
# Poissons Ratio (y) = 0.60519 0.50339
# Poissons Ratio (z) = 0.08490 0.23768
#
# Static dielectric constant tensor:
#      x y z
#    x 1.956020 -0.023000 0.041320 
#    y -0.023000 1.963600 -0.000130 
#    z 0.041320 -0.000130 2.013720 
# 
# From -- ./inp_files/182479.got.cif
#   From: 2010.05.17/outbox.cif.g08.bks.cpg/sg2_92_cif.got.tgz:182479.got - 2010.06.03 11:33:40.
