data_PCOD9069682
_publ_section_title
;
Structure prediction by ZEFSAII (Michael W. Deem and Ramdas Pophale) SiO2 
 PCOD9069682
Probable space group: P -1
;
_chemical_formula_sum "Si O2"
_cell_formula_units_Z 12
_cell_length_a 10.012604
_cell_length_b 12.006993
_cell_length_c 9.570881
_cell_angle_alpha 37.812157
_cell_angle_beta 134.667166
_cell_angle_gamma 130.228762
_cell_volume 490.778297
_symmetry_space_group_name_H-M "P -1"
_symmetry_group_IT_number 2
_symmetry_cell_setting 'triclinic'
loop_
_space_group_symop_operation_xyz
x,y,z
-x,-y,-z
loop_
_atom_site_type_symbol
_atom_site_label
_atom_site_fract_x
_atom_site_fract_y
_atom_site_fract_z
Si Si1 0.014360 0.716593 0.566844
Si Si2 0.540341 0.591581 0.786786
Si Si3 0.801336 0.339739 0.717935
Si Si4 0.722287 0.916851 0.053888
Si Si5 0.322775 0.703370 0.020197
Si Si6 0.292959 0.055126 0.300353
O O1 0.982087 0.510419 0.683834
O O2 0.122261 0.728907 0.781384
O O3 0.144886 0.869421 0.414343
O O4 0.811948 0.780257 0.352608
O O5 0.345803 0.633738 0.537149
O O6 0.689181 0.784804 0.730223
O O7 0.500000 0.500000 0.000000
O O8 0.614782 0.453336 0.873965
O O9 0.828425 0.129518 0.939195
O O10 0.703911 0.352572 0.784329
O O11 0.500000 0.000000 0.500000
O O12 0.745756 0.870430 0.954610
O O13 0.495262 0.882788 0.951669
#
# Coordination Sequence:
#
# PCOD9069682 Si02
#       6
#     2   2   2   2   2   2
#     4  12  27  47  73 108 150 189 248 300 360 437
#     4  12  23  46  81 103 145 197 239 300 366 427
#     4  12  27  48  75 110 148 194 241 302 364 435
#     4  12  26  48  77 107 148 192 247 296 368 431
#     4  12  26  50  73 109 152 190 242 300 368 433
#     4  12  23  48  71 109 145 190 244 305 360 428
#
# _framework density 24.450959999999998
#
# number of rings (size 3 to 8) (size 9 to 14) (size 15 to 20)
#    0.000    0.000    6.667    2.000    2.333    1.333 
#    0.000    0.000    0.000    0.000    0.000    0.000 
#    0.000    0.000    0.000    0.000    0.000    0.000 
#
# Total GULP energy -67290.728025 kJ/mol
# GULP energy per Si atom -5607.560669 kJ/mol
# Density = 2.439531 g / cm^3
# Si number density = 24.450960 Si / 1000 Ang^3
#
#
#
# Elastic Constant Matrix: (Units=GPa)
#
#
# Indices 1 2 3 4 5 6 
#
# 1 37.1308 30.9361 13.5895 11.0079 -14.7517 3.5492
# 2 30.9361 164.1637 36.1191 -9.4996 -4.3777 27.0557
# 3 13.5895 36.1191 122.1821 13.3796 4.2977 8.6724
# 4 11.0079 -9.4996 13.3796 41.1606 1.6367 -0.2367
# 5 -14.7517 -4.3777 4.2977 1.6367 38.7058 -0.5808
# 6 3.5492 27.0557 8.6724 -0.2367 -0.5808 49.8309
#
#
#
# Elastic Compliance Matrix: (Units=1/GPa)
#
#
# Indices 1 2 3 4 5 6 
#
# 1 0.046080 -0.009045 -0.001612 -0.014566 0.017365 0.002043
# 2 -0.009045 0.009101 -0.001885 0.005208 -0.002489 -0.003973
# 3 -0.001612 -0.001885 0.009345 -0.002975 -0.001747 -0.000523
# 4 -0.014566 0.005208 -0.002975 0.030589 -0.005943 -0.001197
# 5 0.017365 -0.002489 -0.001747 -0.005943 0.032629 0.000771
# 6 0.002043 -0.003973 -0.000523 -0.001197 0.000771 0.022174
#
#
# Mechanical properties :
#
#
# Convention : Reuss Voigt Hill
#
# Bulk Modulus (GPa) = 25.35425 53.86288 39.60857
# Shear Modulus (GPa) = 26.57451 42.12827 34.35139
#
# Velocity S-wave (km/s) = 3.30032 4.15537 3.75228
# Velocity P-wave (km/s) = 4.99147 6.71562 5.91668
#
# Compressibility (1/GPa) = 0.03944112
#
# Stress axis : x y z
#
# Youngs Moduli (GPa) = 21.70145 109.88228 107.00458
#
# Poissons Ratio (x) = 0.99394 0.17248
# Poissons Ratio (y) = 0.19630 0.20171
# Poissons Ratio (z) = 0.03498 0.20713
#
# Static dielectric constant tensor:
#      x y z
#    x 1.941020 0.024190 0.047710 
#    y 0.024190 1.946900 -0.009340 
#    z 0.047710 -0.009340 1.925750 
# 
# From -- ./inp_files/302231.got.cif
#   From: 2010.05.17/outbox.cif.g08.bks.cpg/sg2_152_cif.got.tgz:302231.got - 2010.06.03 11:33:40.
