data_PCOD9069085
_publ_section_title
;
Structure prediction by ZEFSAII (Michael W. Deem and Ramdas Pophale) SiO2 
 PCOD9069085
Probable space group: P -1
;
_chemical_formula_sum "Si O2"
_cell_formula_units_Z 12
_cell_length_a 10.850479
_cell_length_b 11.949047
_cell_length_c 12.032923
_cell_angle_alpha 22.473270
_cell_angle_beta 52.104111
_cell_angle_gamma 52.999954
_cell_volume 467.558753
_symmetry_space_group_name_H-M "P -1"
_symmetry_group_IT_number 2
_symmetry_cell_setting 'triclinic'
loop_
_space_group_symop_operation_xyz
x,y,z
-x,-y,-z
loop_
_atom_site_type_symbol
_atom_site_label
_atom_site_fract_x
_atom_site_fract_y
_atom_site_fract_z
Si Si1 0.102757 0.198543 0.984398
Si Si2 0.619080 0.854937 0.278149
Si Si3 0.896570 0.232907 0.423171
Si Si4 0.814156 0.938587 0.305895
Si Si5 0.321314 0.488287 0.073566
Si Si6 0.391839 0.392820 0.884272
O O1 0.021335 0.502114 0.806637
O O2 0.250431 0.277153 0.760068
O O3 0.991679 0.017860 0.134321
O O4 0.154248 0.973424 0.261346
O O5 0.717824 0.988435 0.199863
O O6 0.523422 0.616608 0.607153
O O7 0.493284 0.089778 0.071045
O O8 0.752160 0.428000 0.264870
O O9 0.000000 0.000000 0.500000
O O10 0.777494 0.633165 0.659942
O O11 0.741386 0.173011 0.222263
O O12 0.500000 0.500000 0.000000
O O13 0.328466 0.321255 0.106719
#
# Coordination Sequence:
#
# PCOD9069085 Si02
#       6
#     2   2   2   2   2   2
#     4  12  28  47  75 105 147 198 237 294 366 434
#     4  12  25  46  72 111 148 188 240 294 366 435
#     4  12  28  52  73 103 144 191 251 301 357 432
#     4  12  24  44  72 108 149 188 239 298 356 432
#     4  12  22  42  70 106 144 187 239 296 360 414
#     4  12  26  44  75 106 145 191 243 302 354 425
#
# _framework density 25.665222
#
# number of rings (size 3 to 8) (size 9 to 14) (size 15 to 20)
#    0.000    0.000    3.333    6.500    0.000    6.667 
#    0.000    5.000    0.000    0.000    0.000    0.000 
#    0.000    0.000    0.000    0.000    0.000    0.000 
#
# Total GULP energy -67147.923528 kJ/mol
# GULP energy per Si atom -5595.660294 kJ/mol
# Density = 2.560681 g / cm^3
# Si number density = 25.665222 Si / 1000 Ang^3
#
#
#
# Elastic Constant Matrix: (Units=GPa)
#
#
# Indices 1 2 3 4 5 6 
#
# 1 131.3553 29.3253 39.2631 7.4824 4.3186 -8.4184
# 2 29.3253 100.0340 35.3510 6.7157 -0.6984 -5.9968
# 3 39.2631 35.3510 126.0279 -9.5574 -2.0702 -1.6362
# 4 7.4824 6.7157 -9.5574 32.9087 -1.6952 -1.4675
# 5 4.3186 -0.6984 -2.0702 -1.6952 38.2155 -4.5884
# 6 -8.4184 -5.9968 -1.6362 -1.4675 -4.5884 28.8465
#
#
#
# Elastic Compliance Matrix: (Units=1/GPa)
#
#
# Indices 1 2 3 4 5 6 
#
# 1 0.009005 -0.001458 -0.002577 -0.002469 -0.001067 0.001883
# 2 -0.001458 0.011800 -0.003045 -0.002867 0.000299 0.001757
# 3 -0.002577 -0.003045 0.009912 0.004111 0.000898 -0.000471
# 4 -0.002469 -0.002867 0.004111 0.032872 0.002017 0.000910
# 5 -0.001067 0.000299 0.000898 0.002017 0.026935 0.004189
# 6 0.001883 0.001757 -0.000471 0.000910 0.004189 0.036267
#
#
# Mechanical properties :
#
#
# Convention : Reuss Voigt Hill
#
# Bulk Modulus (GPa) = 60.39789 62.81068 61.60428
# Shear Modulus (GPa) = 34.13657 36.89267 35.51462
#
# Velocity S-wave (km/s) = 3.65097 3.79549 3.72393
# Velocity P-wave (km/s) = 6.43093 6.61316 6.52268
#
# Compressibility (1/GPa) = 0.01655687
#
# Stress axis : x y z
#
# Youngs Moduli (GPa) = 111.04771 84.74479 100.88549
#
# Poissons Ratio (x) = 0.12356 0.25997
# Poissons Ratio (y) = 0.16191 0.30724
# Poissons Ratio (z) = 0.28615 0.25808
#
# Static dielectric constant tensor:
#      x y z
#    x 2.147090 -0.028290 -0.076620 
#    y -0.028290 1.985580 -0.001400 
#    z -0.076620 -0.001400 1.944270 
# 
# From -- ./inp_files/424736.got.cif
#   From: 2010.05.17/outbox.cif.g08.bks.cpg/sg2_213_cif.got.tgz:424736.got - 2010.06.03 11:33:40.
