data_PCOD9069793
_publ_section_title
;
Structure prediction by ZEFSAII (Michael W. Deem and Ramdas Pophale) SiO2 
 PCOD9069793
Probable space group: P -1
;
_chemical_formula_sum "Si O2"
_cell_formula_units_Z 16
_cell_length_a 5.793536
_cell_length_b 9.042514
_cell_length_c 17.734498
_cell_angle_alpha 88.764071
_cell_angle_beta 92.381572
_cell_angle_gamma 130.406275
_cell_volume 706.833266
_symmetry_space_group_name_H-M "P -1"
_symmetry_group_IT_number 2
_symmetry_cell_setting 'triclinic'
loop_
_space_group_symop_operation_xyz
x,y,z
-x,-y,-z
loop_
_atom_site_type_symbol
_atom_site_label
_atom_site_fract_x
_atom_site_fract_y
_atom_site_fract_z
Si Si1 0.633417 0.014890 0.769651
Si Si2 0.861903 0.010189 0.573798
Si Si3 0.621922 0.635377 0.927071
Si Si4 0.352850 0.380251 0.776751
Si Si5 0.350373 0.862206 0.926593
Si Si6 0.875099 0.371228 0.573085
Si Si7 0.397880 0.167069 0.675182
Si Si8 0.579680 0.330727 0.327254
O O1 0.489519 0.039848 0.695712
O O2 0.987624 0.206672 0.778325
O O3 0.475770 0.977633 0.847946
O O4 0.531884 0.808415 0.744999
O O5 0.863078 0.188361 0.564083
O O6 0.053581 0.048547 0.650781
O O7 0.560767 0.796948 0.596890
O O8 0.000000 0.000000 0.500000
O O9 0.478721 0.499685 0.852931
O O10 0.483021 0.746214 0.928961
O O11 0.988214 0.753833 0.926374
O O12 0.500000 0.500000 0.000000
O O13 0.478514 0.274656 0.754335
O O14 0.469973 0.523909 0.704848
O O15 0.500000 0.000000 0.000000
O O16 0.547448 0.282043 0.598390
O O17 0.000000 0.500000 0.500000
O O18 0.070404 0.506539 0.646273
#
# Coordination Sequence:
#
# PCOD9069793 Si02
#       8
#     2   2   2   2   2   2   2   2
#     4  12  27  48  75 111 150 195 259 315 380 456
#     4  12  28  47  68 104 142 191 250 315 384 464
#     4  12  29  51  82 119 163 210 256 317 385 458
#     4  12  27  48  75 111 150 195 259 315 380 456
#     4  12  29  51  82 119 163 210 256 317 385 458
#     4  12  28  47  68 104 142 191 250 315 384 464
#     4  12  25  46  73 102 146 194 246 324 375 452
#     4  12  23  50  69 102 148 188 256 306 385 454
#
# _framework density 22.636172999999999
#
# number of rings (size 3 to 8) (size 9 to 14) (size 15 to 20)
#    0.000    0.000    6.250    2.250   12.250    2.000 
#    0.000    0.000    0.000    0.000    0.000    0.000 
#    0.000    0.000    0.000    0.000    0.000    0.000 
#
# Total GULP energy -89131.733730 kJ/mol
# GULP energy per Si atom -5570.733358 kJ/mol
# Density = 2.258465 g / cm^3
# Si number density = 22.636173 Si / 1000 Ang^3
#
#
#
# Elastic Constant Matrix: (Units=GPa)
#
#
# Indices 1 2 3 4 5 6 
#
# 1 107.6247 54.3620 39.5068 3.0149 -11.0198 1.3828
# 2 54.3620 109.6755 52.0707 -0.1935 -8.4206 6.5622
# 3 39.5068 52.0707 149.3159 -2.0289 -18.3681 4.2117
# 4 3.0149 -0.1935 -2.0289 61.0969 -0.3337 7.1417
# 5 -11.0198 -8.4206 -18.3681 -0.3337 40.0388 -2.0127
# 6 1.3828 6.5622 4.2117 7.1417 -2.0127 28.3428
#
#
#
# Elastic Compliance Matrix: (Units=1/GPa)
#
#
# Indices 1 2 3 4 5 6 
#
# 1 0.012817 -0.005707 -0.001222 -0.000823 0.001821 0.001214
# 2 -0.005707 0.013590 -0.003187 0.000515 -0.000298 -0.002545
# 3 -0.001222 -0.003187 0.008502 0.000390 0.002879 -0.000360
# 4 -0.000823 0.000515 0.000390 0.016938 -0.000020 -0.004406
# 5 0.001821 -0.000298 0.002879 -0.000020 0.026808 0.001461
# 6 0.001214 -0.002545 -0.000360 -0.004406 0.001461 0.037080
#
#
# Mechanical properties :
#
#
# Convention : Reuss Voigt Hill
#
# Bulk Modulus (GPa) = 68.14058 73.16612 70.65335
# Shear Modulus (GPa) = 35.49671 40.60749 38.05210
#
# Velocity S-wave (km/s) = 3.96427 4.24006 4.10449
# Velocity P-wave (km/s) = 7.14995 7.50758 7.33094
#
# Compressibility (1/GPa) = 0.01467554
#
# Stress axis : x y z
#
# Youngs Moduli (GPa) = 78.02359 73.58433 117.62367
#
# Poissons Ratio (x) = 0.41992 0.14379
# Poissons Ratio (y) = 0.44525 0.37489
# Poissons Ratio (z) = 0.09538 0.23453
#
# Static dielectric constant tensor:
#      x y z
#    x 1.895530 0.066250 0.029970 
#    y 0.066250 1.965570 0.047510 
#    z 0.029970 0.047510 1.824960 
# 
# From -- ./inp_files/125827.got.cif
#   From: 2010.05.17/outbox.cif.g08.bks.cpg/sg2_63_cif.got.tgz:125827.got - 2010.06.03 11:33:40.
