data_PCOD9069753
_publ_section_title
;
Structure prediction by ZEFSAII (Michael W. Deem and Ramdas Pophale) SiO2 
 PCOD9069753
Probable space group: P -1
;
_chemical_formula_sum "Si O2"
_cell_formula_units_Z 16
_cell_length_a 9.093241
_cell_length_b 11.557521
_cell_length_c 20.832471
_cell_angle_alpha 43.243979
_cell_angle_beta 148.737595
_cell_angle_gamma 126.234959
_cell_volume 775.345636
_symmetry_space_group_name_H-M "P -1"
_symmetry_group_IT_number 2
_symmetry_cell_setting 'triclinic'
loop_
_space_group_symop_operation_xyz
x,y,z
-x,-y,-z
loop_
_atom_site_type_symbol
_atom_site_label
_atom_site_fract_x
_atom_site_fract_y
_atom_site_fract_z
Si Si1 0.332586 0.025876 0.117736
Si Si2 0.808031 0.488655 0.870863
Si Si3 0.398569 0.819653 0.556640
Si Si4 0.907051 0.875490 0.460067
Si Si5 0.793623 0.586955 0.071707
Si Si6 0.502033 0.133560 0.889949
Si Si7 0.158292 0.496446 0.371109
Si Si8 0.055195 0.645346 0.410419
O O1 0.583124 0.924167 0.294021
O O2 0.409487 0.977398 0.093553
O O3 0.320293 0.218090 0.058066
O O4 0.000000 0.000000 0.000000
O O5 0.603846 0.664928 0.726140
O O6 0.661272 0.307808 0.888631
O O7 0.005203 0.481646 0.883877
O O8 0.000000 0.500000 0.000000
O O9 0.335836 0.725454 0.504357
O O10 0.132455 0.858437 0.491303
O O11 0.500000 0.000000 0.500000
O O12 0.910217 0.695136 0.568187
O O13 0.000000 0.000000 0.500000
O O14 0.991649 0.570136 0.216430
O O15 0.500000 0.500000 0.000000
O O16 0.184089 0.205778 0.729262
O O17 0.500000 0.000000 0.000000
O O18 0.500000 0.500000 0.500000
O O19 0.048384 0.587932 0.358405
O O20 0.000000 0.500000 0.500000
#
# Coordination Sequence:
#
# PCOD9069753 Si02
#       8
#     2   2   2   2   2   2   2   2
#     4  12  25  49  74 109 151 194 249 309 372 441
#     4  12  30  50  75 109 155 196 249 311 379 449
#     4  12  29  49  77 111 150 200 253 308 377 450
#     4  12  28  47  74 109 154 194 247 313 375 445
#     4  12  29  47  75 108 156 196 244 309 380 450
#     4  12  26  46  76 108 143 195 249 305 371 443
#     4  12  26  47  77 108 140 200 253 305 376 444
#     4  12  23  48  76 102 148 192 251 309 363 434
#
# _framework density 20.635957999999999
#
# number of rings (size 3 to 8) (size 9 to 14) (size 15 to 20)
#    0.000    0.000    5.000    3.000   14.000    0.000 
#    0.000    0.000    0.000    0.000    0.000    0.000 
#    0.000    0.000    0.000    0.000    0.000    0.000 
#
# Total GULP energy -89253.431583 kJ/mol
# GULP energy per Si atom -5578.339474 kJ/mol
# Density = 2.058899 g / cm^3
# Si number density = 20.635958 Si / 1000 Ang^3
#
#
#
# Elastic Constant Matrix: (Units=GPa)
#
#
# Indices 1 2 3 4 5 6 
#
# 1 114.0901 2.6686 42.4790 -0.6577 1.6982 -24.4124
# 2 2.6686 84.5629 -4.3958 -1.5560 -0.3243 -1.8537
# 3 42.4790 -4.3958 128.4119 0.9680 1.7105 -6.3344
# 4 -0.6577 -1.5560 0.9680 43.3118 -10.3183 -6.9336
# 5 1.6982 -0.3243 1.7105 -10.3183 39.7059 3.5116
# 6 -24.4124 -1.8537 -6.3344 -6.9336 3.5116 41.2532
#
#
#
# Elastic Compliance Matrix: (Units=1/GPa)
#
#
# Indices 1 2 3 4 5 6 
#
# 1 0.011476 -0.000383 -0.003490 0.001127 -0.000624 0.006481
# 2 -0.000383 0.011887 0.000550 0.000528 0.000186 0.000465
# 3 -0.003490 0.000550 0.008932 -0.000413 -0.000275 -0.000715
# 4 0.001127 0.000528 -0.000413 0.025299 0.006163 0.004355
# 5 -0.000624 0.000186 -0.000275 0.006163 0.026974 -0.001663
# 6 0.006481 0.000465 -0.000715 0.004355 -0.001663 0.028860
#
#
# Mechanical properties :
#
#
# Convention : Reuss Voigt Hill
#
# Bulk Modulus (GPa) = 38.98775 45.39651 42.19213
# Shear Modulus (GPa) = 38.87312 43.94171 41.40742
#
# Velocity S-wave (km/s) = 4.34494 4.61952 4.48433
# Velocity P-wave (km/s) = 6.64119 7.10632 6.87769
#
# Compressibility (1/GPa) = 0.02564909
#
# Stress axis : x y z
#
# Youngs Moduli (GPa) = 87.13995 84.12682 111.95401
#
# Poissons Ratio (x) = 0.03223 0.39070
# Poissons Ratio (y) = 0.03339 -0.06159
# Poissons Ratio (z) = 0.30411 -0.04628
#
# Static dielectric constant tensor:
#      x y z
#    x 1.679320 0.061880 -0.092380 
#    y 0.061880 1.725620 -0.126130 
#    z -0.092380 -0.126130 1.921740 
# 
# From -- ./inp_files/338047.got.cif
#   From: 2010.05.17/outbox.cif.g08.bks.cpg/sg2_170_cif.got.tgz:338047.got - 2010.06.03 11:33:40.
