data_PCOD9069280
_publ_section_title
;
Structure prediction by ZEFSAII (Michael W. Deem and Ramdas Pophale) SiO2 
 PCOD9069280
Probable space group: P -1
;
_chemical_formula_sum "Si O2"
_cell_formula_units_Z 14
_cell_length_a 13.792753
_cell_length_b 8.635388
_cell_length_c 14.019590
_cell_angle_alpha 84.765524
_cell_angle_beta 20.782102
_cell_angle_gamma 84.043676
_cell_volume 589.197136
_symmetry_space_group_name_H-M "P -1"
_symmetry_group_IT_number 2
_symmetry_cell_setting 'triclinic'
loop_
_space_group_symop_operation_xyz
x,y,z
-x,-y,-z
loop_
_atom_site_type_symbol
_atom_site_label
_atom_site_fract_x
_atom_site_fract_y
_atom_site_fract_z
Si Si1 0.659471 0.482679 0.455858
Si Si2 0.473444 0.805950 0.698437
Si Si3 0.760129 0.609836 0.759675
Si Si4 0.703959 0.932467 0.674217
Si Si5 0.117333 0.137651 0.825912
Si Si6 0.812506 0.855387 0.847234
Si Si7 0.794872 0.704572 0.066267
O O1 0.500000 0.500000 0.500000
O O2 0.605488 0.638296 0.556643
O O3 0.511052 0.350082 0.658574
O O4 0.973227 0.431693 0.154965
O O5 0.576533 0.868847 0.698237
O O6 0.619123 0.906548 0.477516
O O7 0.147183 0.801734 0.994661
O O8 0.738694 0.775156 0.713219
O O9 0.000000 0.500000 0.500000
O O10 0.500000 0.500000 0.000000
O O11 0.825581 0.681073 0.799958
O O12 0.483116 0.062791 0.907419
O O13 0.972178 0.026823 0.399334
O O14 0.180222 0.249660 0.848972
O O15 0.000000 0.000000 0.000000
O O16 0.844303 0.834106 0.933745
#
# Coordination Sequence:
#
# PCOD9069280 Si02
#       7
#     2   2   2   2   2   2   2
#     4  12  23  42  61  96 135 191 225 292 345 403
#     4  12  25  39  67  94 138 177 236 276 348 402
#     4  12  28  50  79 112 140 180 230 292 356 426
#     4  12  26  49  74 107 142 188 231 290 354 421
#     4  12  23  40  60  94 133 182 226 287 327 412
#     4  12  27  49  76 105 143 186 233 290 356 419
#     4  12  24  40  67  95 139 178 238 277 351 406
#
# _framework density 23.761147000000001
#
# number of rings (size 3 to 8) (size 9 to 14) (size 15 to 20)
#    0.000    0.000    2.857    7.714    4.000    0.000 
#    0.000    0.000    0.000    0.000    0.000    0.000 
#    0.000    0.000    0.000    0.000    0.000    0.000 
#
# Total GULP energy -78332.410677 kJ/mol
# GULP energy per Si atom -5595.172191 kJ/mol
# Density = 2.370707 g / cm^3
# Si number density = 23.761147 Si / 1000 Ang^3
#
#
#
# Elastic Constant Matrix: (Units=GPa)
#
#
# Indices 1 2 3 4 5 6 
#
# 1 84.6959 10.6930 14.6099 -3.0839 13.4217 9.6089
# 2 10.6930 80.5040 5.9045 -13.5983 4.2498 8.8830
# 3 14.6099 5.9045 114.4964 -20.1390 -2.8122 -2.2499
# 4 -3.0839 -13.5983 -20.1390 59.2885 3.5092 2.7524
# 5 13.4217 4.2498 -2.8122 3.5092 22.9763 0.6917
# 6 9.6089 8.8830 -2.2499 2.7524 0.6917 46.5849
#
#
#
# Elastic Compliance Matrix: (Units=1/GPa)
#
#
# Indices 1 2 3 4 5 6 
#
# 1 0.013861 -0.000894 -0.001891 0.000481 -0.008156 -0.002687
# 2 -0.000894 0.013512 -0.000116 0.003275 -0.002414 -0.002555
# 3 -0.001891 -0.000116 0.009564 0.002985 0.001821 0.000671
# 4 0.000481 0.003275 0.002985 0.018932 -0.003363 -0.001648
# 5 -0.008156 -0.002414 0.001821 -0.003363 0.049419 0.001695
# 6 -0.002687 -0.002555 0.000671 -0.001648 0.001695 0.022612
#
#
# Mechanical properties :
#
#
# Convention : Reuss Voigt Hill
#
# Bulk Modulus (GPa) = 32.11957 38.01236 35.06596
# Shear Modulus (GPa) = 34.70273 42.33586 38.51930
#
# Velocity S-wave (km/s) = 3.82577 4.22563 4.03066
# Velocity P-wave (km/s) = 5.74999 6.31192 6.03750
#
# Compressibility (1/GPa) = 0.03113367
#
# Stress axis : x y z
#
# Youngs Moduli (GPa) = 72.14584 74.01081 104.55769
#
# Poissons Ratio (x) = 0.06617 0.19773
# Poissons Ratio (y) = 0.06450 0.01215
# Poissons Ratio (z) = 0.13643 0.00860
#
# Static dielectric constant tensor:
#      x y z
#    x 1.907810 -0.111900 -0.000340 
#    y -0.111900 1.837790 -0.116910 
#    z -0.000340 -0.116910 1.915190 
# 
# From -- ./inp_files/528550.got.cif
#   From: 2010.05.17/outbox.cif.g08.bks.cpg/sg2_265_cif.got.tgz:528550.got - 2010.06.03 11:33:40.
