data_PCOD9069232
_publ_section_title
;
Structure prediction by ZEFSAII (Michael W. Deem and Ramdas Pophale) SiO2 
 PCOD9069232
Probable space group: P -1
;
_chemical_formula_sum "Si O2"
_cell_formula_units_Z 13
_cell_length_a 14.924365
_cell_length_b 16.141984
_cell_length_c 6.652874
_cell_angle_alpha 124.934828
_cell_angle_beta 67.436475
_cell_angle_gamma 152.643744
_cell_volume 569.630838
_symmetry_space_group_name_H-M "P -1"
_symmetry_group_IT_number 2
_symmetry_cell_setting 'triclinic'
loop_
_space_group_symop_operation_xyz
x,y,z
-x,-y,-z
loop_
_atom_site_type_symbol
_atom_site_label
_atom_site_fract_x
_atom_site_fract_y
_atom_site_fract_z
Si Si1 0.298570 0.116997 0.448639
Si Si2 0.705521 0.192430 0.956946
Si Si3 0.361108 0.652867 0.836947
Si Si4 0.989634 0.371998 0.282311
Si Si5 0.165090 0.353374 0.918365
Si Si6 0.687012 0.025034 0.397567
Si Si7 0.500000 0.500000 0.000000
O O1 0.477135 0.235620 0.314453
O O2 0.283717 0.036122 0.550762
O O3 0.369111 0.292864 0.697525
O O4 0.072060 0.904534 0.241685
O O5 0.770225 0.369380 0.146029
O O6 0.863020 0.263514 0.031813
O O7 0.664273 0.106743 0.657748
O O8 0.500000 0.000000 0.000000
O O9 0.230657 0.443910 0.760153
O O10 0.498507 0.824639 0.137491
O O11 0.870735 0.209440 0.338902
O O12 0.000000 0.500000 0.500000
O O13 0.172027 0.464306 0.196218
O O14 0.329313 0.429112 0.977387
#
# Coordination Sequence:
#
# PCOD9069232 Si02
#       7
#     2   2   2   2   2   2   1
#     4  12  27  54  75 116 151 199 269 323 389 455
#     4  12  23  41  70 114 156 206 246 302 381 467
#     4  12  26  46  79 112 156 204 254 316 386 471
#     4  12  28  43  73 119 159 204 251 311 385 471
#     4  12  27  53  77 115 154 200 265 318 389 464
#     4  12  22  47  72 108 162 206 249 313 384 454
#     4  12  30  52  88 106 148 210 260 338 394 448
#
# _framework density 22.821798999999999
#
# number of rings (size 3 to 8) (size 9 to 14) (size 15 to 20)
#    0.000    0.000    7.692    1.846    6.462    1.846 
#    0.000    3.846    0.000    0.000    0.000    0.000 
#    0.000    0.000    0.000    0.000    0.000    0.000 
#
# Total GULP energy -72483.133088 kJ/mol
# GULP energy per Si atom -5575.625622 kJ/mol
# Density = 2.276986 g / cm^3
# Si number density = 22.821799 Si / 1000 Ang^3
#
#
#
# Elastic Constant Matrix: (Units=GPa)
#
#
# Indices 1 2 3 4 5 6 
#
# 1 187.4199 38.1050 58.0014 -12.6735 -25.1974 12.3040
# 2 38.1050 113.4837 50.5078 -26.1281 -11.7011 2.8724
# 3 58.0014 50.5078 111.1024 7.7945 -9.4594 -9.8058
# 4 -12.6735 -26.1281 7.7945 40.6040 -4.4812 7.3313
# 5 -25.1974 -11.7011 -9.4594 -4.4812 39.4714 11.4699
# 6 12.3040 2.8724 -9.8058 7.3313 11.4699 9.0065
#
#
#
# Elastic Compliance Matrix: (Units=1/GPa)
#
#
# Indices 1 2 3 4 5 6 
#
# 1 0.000941 -0.007382 0.005489 -0.012103 -0.010408 0.030152
# 2 -0.007382 0.004939 0.004375 -0.008486 -0.014330 0.038430
# 3 0.005489 0.004375 0.000808 0.014726 0.019810 -0.045229
# 4 -0.012103 -0.008486 0.014726 -0.004473 -0.029414 0.076373
# 5 -0.010408 -0.014330 0.019810 -0.029414 -0.004499 0.070030
# 6 0.030152 0.038430 -0.045229 0.076373 0.070030 -0.143012
#
#
# Mechanical properties :
#
#
# Convention : Reuss Voigt Hill
#
# Bulk Modulus (GPa) = 85.81892 78.35937 82.08914
# Shear Modulus (GPa) = -34.15816 35.50917 0.67550
#
# Velocity S-wave (km/s) = -3.87296 3.94881 0.54464
# Velocity P-wave (km/s) = 4.20545 7.42971 6.03682
#
# Compressibility (1/GPa) = 0.01165244
#
# Stress axis : x y z
#
# Youngs Moduli (GPa) = 1063.17311 202.47326 1237.99362
#
# Poissons Ratio (x) = 1.49457 -6.79507
# Poissons Ratio (y) = 7.84789 -5.41671
# Poissons Ratio (z) = -5.83552 -0.88590
#
# Static dielectric constant tensor:
#      x y z
#    x 1.831390 -0.016820 0.028880 
#    y -0.016820 1.910980 0.036810 
#    z 0.028880 0.036810 1.918650 
# 
# From -- ./inp_files/97333.got.cif
#   From: 2010.05.17/outbox.cif.g08.bks.cpg/sg2_49_cif.got.tgz:97333.got - 2010.06.03 11:33:40.
