data_PCOD9069311
_publ_section_title
;
Structure prediction by ZEFSAII (Michael W. Deem and Ramdas Pophale) SiO2 
 PCOD9069311
Probable space group: P -1
;
_chemical_formula_sum "Si O2"
_cell_formula_units_Z 16
_cell_length_a 22.344865
_cell_length_b 9.186419
_cell_length_c 9.243705
_cell_angle_alpha 30.366518
_cell_angle_beta 119.242764
_cell_angle_gamma 132.778438
_cell_volume 679.321199
_symmetry_space_group_name_H-M "P -1"
_symmetry_group_IT_number 2
_symmetry_cell_setting 'triclinic'
loop_
_space_group_symop_operation_xyz
x,y,z
-x,-y,-z
loop_
_atom_site_type_symbol
_atom_site_label
_atom_site_fract_x
_atom_site_fract_y
_atom_site_fract_z
Si Si1 0.135511 0.834127 0.627020
Si Si2 0.454108 0.172554 0.340853
Si Si3 0.922906 0.683375 0.770601
Si Si4 0.716948 0.151248 0.738660
Si Si5 0.080959 0.325034 0.735645
Si Si6 0.874238 0.194240 0.859908
Si Si7 0.480376 0.752426 0.327349
Si Si8 0.707252 0.728967 0.362751
O O1 0.130976 0.656246 0.622249
O O2 0.122982 0.148395 0.358053
O O3 0.224843 0.993884 0.677388
O O4 0.062294 0.495150 0.925782
O O5 0.465165 0.159434 0.537075
O O6 0.500000 0.000000 0.500000
O O7 0.357557 0.966136 0.358922
O O8 0.500000 0.500000 0.000000
O O9 0.880185 0.356774 0.885565
O O10 0.000000 0.000000 0.500000
O O11 0.785121 0.114335 0.775036
O O12 0.745895 0.534472 0.502793
O O13 0.689162 0.910449 0.057088
O O14 0.058433 0.480096 0.443283
O O15 0.123392 0.140186 0.876431
O O16 0.000000 0.000000 0.000000
O O17 0.500000 0.500000 0.500000
O O18 0.383382 0.566847 0.420824
O O19 0.500000 0.000000 0.000000
#
# Coordination Sequence:
#
# PCOD9069311 Si02
#       8
#     2   2   2   2   2   2   2   2
#     4  12  24  44  68 101 139 191 235 285 381 430
#     4  12  23  44  74 103 139 196 244 291 365 440
#     4  12  23  41  70 102 134 181 245 296 342 435
#     4  12  23  44  73 105 137 184 248 308 351 424
#     4  12  26  45  67 101 150 190 227 296 371 436
#     4  12  24  43  70 102 139 181 245 295 351 427
#     4  12  26  44  71 108 148 186 242 298 368 441
#     4  12  23  45  71 100 144 188 236 311 365 424
#
# _framework density 23.552924000000001
#
# number of rings (size 3 to 8) (size 9 to 14) (size 15 to 20)
#    0.000    0.000    5.000    6.000    0.000    1.000 
#    0.000    2.500    0.000    0.000    0.000    0.000 
#    0.000    0.000    0.000    0.000    0.000    0.000 
#
# Total GULP energy -89318.548187 kJ/mol
# GULP energy per Si atom -5582.409262 kJ/mol
# Density = 2.349932 g / cm^3
# Si number density = 23.552924 Si / 1000 Ang^3
#
#
#
# Elastic Constant Matrix: (Units=GPa)
#
#
# Indices 1 2 3 4 5 6 
#
# 1 115.2847 59.9806 43.3119 -2.5841 26.2591 -21.2277
# 2 59.9806 191.0936 58.9222 19.4188 15.1290 -32.2887
# 3 43.3119 58.9222 191.7579 15.3629 22.4330 -23.8802
# 4 -2.5841 19.4188 15.3629 38.3904 -10.1250 -0.8748
# 5 26.2591 15.1290 22.4330 -10.1250 58.5882 -7.3100
# 6 -21.2277 -32.2887 -23.8802 -0.8748 -7.3100 45.1951
#
#
#
# Elastic Compliance Matrix: (Units=1/GPa)
#
#
# Indices 1 2 3 4 5 6 
#
# 1 0.011911 -0.002868 -0.001258 0.001888 -0.003496 0.002351
# 2 -0.002868 0.007365 -0.000853 -0.003635 -0.000505 0.003312
# 3 -0.001258 -0.000853 0.006429 -0.002689 -0.001913 0.001835
# 4 0.001888 -0.003635 -0.002689 0.030700 0.006237 -0.001528
# 5 -0.003496 -0.000505 -0.001913 0.006237 0.020632 0.000444
# 6 0.002351 0.003312 0.001835 -0.001528 0.000444 0.026609
#
#
# Mechanical properties :
#
#
# Convention : Reuss Voigt Hill
#
# Bulk Modulus (GPa) = 63.50509 91.39616 77.45062
# Shear Modulus (GPa) = 42.06880 50.82951 46.44915
#
# Velocity S-wave (km/s) = 4.23086 4.65057 4.44567
# Velocity P-wave (km/s) = 7.13359 8.22958 7.70111
#
# Compressibility (1/GPa) = 0.01574677
#
# Stress axis : x y z
#
# Youngs Moduli (GPa) = 83.95658 135.77281 155.54831
#
# Poissons Ratio (x) = 0.38944 0.19573
# Poissons Ratio (y) = 0.24081 0.13261
# Poissons Ratio (z) = 0.10564 0.11575
#
# Static dielectric constant tensor:
#      x y z
#    x 1.872740 0.048320 -0.043660 
#    y 0.048320 1.935430 -0.053840 
#    z -0.043660 -0.053840 1.889930 
# 
# From -- ./inp_files/351972.got.cif
#   From: 2010.05.17/outbox.cif.g08.bks.cpg/sg2_176_cif.got.tgz:351972.got - 2010.06.03 11:33:40.
