data_PCOD9069723
_publ_section_title
;
Structure prediction by ZEFSAII (Michael W. Deem and Ramdas Pophale) SiO2 
 PCOD9069723
Probable space group: P -1
;
_chemical_formula_sum "Si O2"
_cell_formula_units_Z 12
_cell_length_a 14.018372
_cell_length_b 17.315074
_cell_length_c 11.604445
_cell_angle_alpha 28.560203
_cell_angle_beta 32.227569
_cell_angle_gamma 22.666444
_cell_volume 509.243111
_symmetry_space_group_name_H-M "P -1"
_symmetry_group_IT_number 2
_symmetry_cell_setting 'triclinic'
loop_
_space_group_symop_operation_xyz
x,y,z
-x,-y,-z
loop_
_atom_site_type_symbol
_atom_site_label
_atom_site_fract_x
_atom_site_fract_y
_atom_site_fract_z
Si Si1 0.223485 0.986189 0.269516
Si Si2 0.933385 0.008517 0.923735
Si Si3 0.303266 0.119615 0.779236
Si Si4 0.522038 0.325519 0.280919
Si Si5 0.851271 0.744056 0.780012
Si Si6 0.354601 0.520516 0.448747
O O1 0.462858 0.713612 0.358177
O O2 0.228125 0.091340 0.244235
O O3 0.000000 0.000000 0.500000
O O4 0.198763 0.125749 0.003942
O O5 0.687426 0.259668 0.796167
O O6 0.182082 0.899723 0.741042
O O7 0.867823 0.863488 0.160000
O O8 0.000000 0.000000 0.000000
O O9 0.345027 0.282798 0.496297
O O10 0.593036 0.876165 0.805277
O O11 0.457994 0.416873 0.354338
O O12 0.500000 0.500000 0.000000
O O13 0.066234 0.659226 0.581806
O O14 0.000000 0.500000 0.000000
#
# Coordination Sequence:
#
# PCOD9069723 Si02
#       6
#     2   2   2   2   2   2
#     4  12  26  46  76 118 159 196 248 319 393 464
#     4  12  28  51  73 110 154 206 263 314 374 456
#     4  12  26  48  78 112 155 202 251 318 393 448
#     4  12  26  51  74 109 151 201 263 319 368 458
#     4  12  24  43  73 114 152 194 249 305 389 468
#     4  12  23  47  76 105 162 193 251 321 373 460
#
# _framework density 23.564384
#
# number of rings (size 3 to 8) (size 9 to 14) (size 15 to 20)
#    0.000    0.000    6.667    3.500    2.333    2.667 
#    3.000    0.000    0.000    0.000    0.000    0.000 
#    0.000    0.000    0.000    0.000    0.000    0.000 
#
# Total GULP energy -66928.802333 kJ/mol
# GULP energy per Si atom -5577.400194 kJ/mol
# Density = 2.351075 g / cm^3
# Si number density = 23.564384 Si / 1000 Ang^3
#
#
#
# Elastic Constant Matrix: (Units=GPa)
#
#
# Indices 1 2 3 4 5 6 
#
# 1 114.3490 24.0188 57.6673 18.5383 -7.1700 3.5239
# 2 24.0188 144.5137 41.0082 4.2058 0.1968 11.1674
# 3 57.6673 41.0082 170.0161 0.1463 -11.8670 7.2148
# 4 18.5383 4.2058 0.1463 53.6325 -11.7050 -2.8731
# 5 -7.1700 0.1968 -11.8670 -11.7050 37.6109 2.2360
# 6 3.5239 11.1674 7.2148 -2.8731 2.2360 16.7462
#
#
#
# Elastic Compliance Matrix: (Units=1/GPa)
#
#
# Indices 1 2 3 4 5 6 
#
# 1 0.011401 -0.000657 -0.003672 -0.003969 -0.000155 -0.001039
# 2 -0.000657 0.007828 -0.001518 -0.000757 -0.000614 -0.004476
# 3 -0.003672 -0.001518 0.007725 0.001808 0.002400 -0.001554
# 4 -0.003969 -0.000757 0.001808 0.021641 0.006349 0.003426
# 5 -0.000155 -0.000614 0.002400 0.006349 0.029500 -0.003441
# 6 -0.001039 -0.004476 -0.001554 0.003426 -0.003441 0.064636
#
#
# Mechanical properties :
#
#
# Convention : Reuss Voigt Hill
#
# Bulk Modulus (GPa) = 65.52471 74.91861 70.22166
# Shear Modulus (GPa) = 31.34604 42.01021 36.67812
#
# Velocity S-wave (km/s) = 3.65119 4.22688 3.94954
# Velocity P-wave (km/s) = 6.75588 7.46219 7.11780
#
# Compressibility (1/GPa) = 0.01526142
#
# Stress axis : x y z
#
# Youngs Moduli (GPa) = 87.71509 127.74074 129.44610
#
# Poissons Ratio (x) = 0.08391 0.47530
# Poissons Ratio (y) = 0.05762 0.19646
# Poissons Ratio (z) = 0.32207 0.19387
#
# Static dielectric constant tensor:
#      x y z
#    x 1.917610 -0.015450 0.004830 
#    y -0.015450 1.949880 -0.178380 
#    z 0.004830 -0.178380 2.187250 
# 
# From -- ./inp_files/456890.got.cif
#   From: 2010.05.17/outbox.cif.g08.bks.cpg/sg2_229_cif.got.tgz:456890.got - 2010.06.03 11:33:40.
