data_PCOD9069636
_publ_section_title
;
Structure prediction by ZEFSAII (Michael W. Deem and Ramdas Pophale) SiO2 
 PCOD9069636
Probable space group: P -1
;
_chemical_formula_sum "Si O2"
_cell_formula_units_Z 16
_cell_length_a 9.160911
_cell_length_b 9.448604
_cell_length_c 24.557925
_cell_angle_alpha 44.263277
_cell_angle_beta 42.797436
_cell_angle_gamma 30.628227
_cell_volume 713.379206
_symmetry_space_group_name_H-M "P -1"
_symmetry_group_IT_number 2
_symmetry_cell_setting 'triclinic'
loop_
_space_group_symop_operation_xyz
x,y,z
-x,-y,-z
loop_
_atom_site_type_symbol
_atom_site_label
_atom_site_fract_x
_atom_site_fract_y
_atom_site_fract_z
Si Si1 0.664167 0.203213 0.510171
Si Si2 0.639147 0.686189 0.549433
Si Si3 0.325244 0.051503 0.694829
Si Si4 0.253789 0.344571 0.860666
Si Si5 0.571368 0.379371 0.075624
Si Si6 0.348489 0.533953 0.277731
Si Si7 0.624713 0.793962 0.970405
Si Si8 0.902700 0.748911 0.179198
O O1 0.500000 0.500000 0.500000
O O2 0.549394 0.292822 0.454033
O O3 0.534678 0.074360 0.601240
O O4 0.000000 0.000000 0.500000
O O5 0.589194 0.595238 0.643545
O O6 0.000000 0.500000 0.500000
O O7 0.500000 0.000000 0.500000
O O8 0.251578 0.176282 0.741070
O O9 0.006978 0.238904 0.699333
O O10 0.485569 0.727736 0.737232
O O11 0.516005 0.332834 0.801389
O O12 0.189244 0.354770 0.812015
O O13 0.957609 0.608749 0.903691
O O14 0.376353 0.040866 0.927727
O O15 0.263389 0.494226 0.152138
O O16 0.819889 0.036931 0.105492
O O17 0.500000 0.500000 0.000000
O O18 0.633965 0.546623 0.044271
O O19 0.500000 0.000000 0.000000
#
# Coordination Sequence:
#
# PCOD9069636 Si02
#       8
#     2   2   2   2   2   2   2   2
#     4  12  26  46  74 109 145 184 246 303 355 425
#     4  12  23  48  75 102 141 196 240 292 358 435
#     4  12  27  48  70 106 146 188 237 293 362 441
#     4  12  26  47  66 105 141 182 236 296 358 431
#     4  12  23  46  72  95 136 189 235 295 355 428
#     4  12  26  47  72 102 147 190 236 294 362 437
#     4  12  27  44  70 102 138 180 242 298 354 422
#     4  12  26  45  71 102 139 187 237 292 370 425
#
# _framework density 22.428464000000002
#
# number of rings (size 3 to 8) (size 9 to 14) (size 15 to 20)
#    0.000    0.000    5.000    4.500    7.000    0.000 
#    2.250    0.000    0.000    0.000    0.000    0.000 
#    0.000    0.000    0.000    0.000    0.000    0.000 
#
# Total GULP energy -89437.311687 kJ/mol
# GULP energy per Si atom -5589.831980 kJ/mol
# Density = 2.237742 g / cm^3
# Si number density = 22.428464 Si / 1000 Ang^3
#
#
#
# Elastic Constant Matrix: (Units=GPa)
#
#
# Indices 1 2 3 4 5 6 
#
# 1 150.6597 49.1914 29.9214 17.1138 -0.3740 2.1446
# 2 49.1914 131.6944 4.8784 0.5098 -9.6035 -14.3113
# 3 29.9214 4.8784 54.7055 12.4995 12.1951 -1.0914
# 4 17.1138 0.5098 12.4995 35.2426 3.3469 -6.3987
# 5 -0.3740 -9.6035 12.1951 3.3469 41.9584 -5.9973
# 6 2.1446 -14.3113 -1.0914 -6.3987 -5.9973 40.4512
#
#
#
# Elastic Compliance Matrix: (Units=1/GPa)
#
#
# Indices 1 2 3 4 5 6 
#
# 1 0.008945 -0.003397 -0.003961 -0.003337 0.000398 -0.002252
# 2 -0.003397 0.009501 0.000061 0.002017 0.002572 0.004244
# 3 -0.003961 0.000061 0.023200 -0.005881 -0.006442 -0.001028
# 4 -0.003337 0.002017 -0.005881 0.033111 0.000361 0.006023
# 5 0.000398 0.002572 -0.006442 0.000361 0.026950 0.004768
# 6 -0.002252 0.004244 -0.001028 0.006023 0.004768 0.027974
#
#
# Mechanical properties :
#
#
# Convention : Reuss Voigt Hill
#
# Bulk Modulus (GPa) = 36.96530 56.11579 46.54054
# Shear Modulus (GPa) = 32.61731 40.40166 36.50949
#
# Velocity S-wave (km/s) = 3.81764 4.24884 4.03900
# Velocity P-wave (km/s) = 5.99581 7.01031 6.52281
#
# Compressibility (1/GPa) = 0.02705240
#
# Stress axis : x y z
#
# Youngs Moduli (GPa) = 111.78828 105.25191 43.10359
#
# Poissons Ratio (x) = 0.35759 0.17073
# Poissons Ratio (y) = 0.37980 -0.00265
# Poissons Ratio (z) = 0.44279 -0.00647
#
# Static dielectric constant tensor:
#      x y z
#    x 1.661500 0.038360 0.036000 
#    y 0.038360 1.767600 0.020540 
#    z 0.036000 0.020540 1.831280 
# 
# From -- ./inp_files/352531.got.cif
#   From: 2010.05.17/outbox.cif.g08.bks.cpg/sg2_177_cif.got.tgz:352531.got - 2010.06.03 11:33:40.
