data_PCOD9069105
_publ_section_title
;
Structure prediction by ZEFSAII (Michael W. Deem and Ramdas Pophale) SiO2 
 PCOD9069105
Probable space group: P -1
;
_chemical_formula_sum "Si O2"
_cell_formula_units_Z 14
_cell_length_a 19.756728
_cell_length_b 10.784135
_cell_length_c 5.610506
_cell_angle_alpha 59.769526
_cell_angle_beta 105.165304
_cell_angle_gamma 148.112328
_cell_volume 508.272530
_symmetry_space_group_name_H-M "P -1"
_symmetry_group_IT_number 2
_symmetry_cell_setting 'triclinic'
loop_
_space_group_symop_operation_xyz
x,y,z
-x,-y,-z
loop_
_atom_site_type_symbol
_atom_site_label
_atom_site_fract_x
_atom_site_fract_y
_atom_site_fract_z
Si Si1 0.143842 0.045849 0.678210
Si Si2 0.426040 0.671607 0.873154
Si Si3 0.854978 0.199883 0.759128
Si Si4 0.635757 0.740970 0.636401
Si Si5 0.844435 0.692446 0.234269
Si Si6 0.437234 0.082290 0.739000
Si Si7 0.842378 0.445393 0.794003
O O1 0.992800 0.758336 0.711378
O O2 0.259830 0.169726 0.516051
O O3 0.175238 0.262408 0.571566
O O4 0.141099 0.958116 0.011974
O O5 0.268678 0.444038 0.914826
O O6 0.498762 0.847967 0.523050
O O7 0.438342 0.518699 0.039347
O O8 0.487455 0.828325 0.031275
O O9 0.838513 0.269371 0.907614
O O10 0.000000 0.500000 0.500000
O O11 0.732973 0.000579 0.655827
O O12 0.558515 0.733619 0.436796
O O13 0.820163 0.485099 0.482153
O O14 0.000000 0.000000 0.000000
O O15 0.282264 0.753026 0.948691
#
# Coordination Sequence:
#
# PCOD9069105 Si02
#       7
#     2   2   2   2   2   2   2
#     4  12  24  47  78 116 152 200 264 324 394 460
#     4  12  28  51  78 112 158 213 266 318 390 483
#     4  12  22  42  74 116 157 191 255 331 393 445
#     4  12  24  47  79 115 158 201 267 327 394 458
#     4  12  28  52  80 114 154 207 263 326 399 474
#     4  12  28  48  79 116 160 212 260 326 390 471
#     4  12  26  47  75 120 161 206 258 325 397 465
#
# _framework density 27.544280000000001
#
# number of rings (size 3 to 8) (size 9 to 14) (size 15 to 20)
#    0.000    0.000    4.286    6.000    0.000    3.429 
#    0.000    0.000    0.000    0.000    0.000    0.000 
#    0.000    0.000    0.000    0.000    0.000    0.000 
#
# Total GULP energy -78605.458490 kJ/mol
# GULP energy per Si atom -5614.675606 kJ/mol
# Density = 2.748159 g / cm^3
# Si number density = 27.544280 Si / 1000 Ang^3
#
#
#
# Elastic Constant Matrix: (Units=GPa)
#
#
# Indices 1 2 3 4 5 6 
#
# 1 109.1193 50.2595 37.3069 4.6983 -7.5997 7.6568
# 2 50.2595 145.7750 49.7744 24.1980 -21.6090 20.9811
# 3 37.3069 49.7744 174.3467 -1.8678 -9.7313 29.1963
# 4 4.6983 24.1980 -1.8678 51.6753 7.1945 2.8571
# 5 -7.5997 -21.6090 -9.7313 7.1945 54.2565 0.8822
# 6 7.6568 20.9811 29.1963 2.8571 0.8822 52.5865
#
#
#
# Elastic Compliance Matrix: (Units=1/GPa)
#
#
# Indices 1 2 3 4 5 6 
#
# 1 0.011241 -0.003583 -0.001486 0.000599 -0.000208 0.000589
# 2 -0.003583 0.010460 -0.001619 -0.005059 0.004086 -0.002546
# 3 -0.001486 -0.001619 0.007072 0.001281 0.000296 -0.003138
# 4 0.000599 -0.005059 0.001281 0.022358 -0.004667 0.000084
# 5 -0.000208 0.004086 0.000296 -0.004667 0.020731 -0.001859
# 6 0.000589 -0.002546 -0.003138 0.000084 -0.001859 0.021716
#
#
# Mechanical properties :
#
#
# Convention : Reuss Voigt Hill
#
# Bulk Modulus (GPa) = 64.95302 78.21361 71.58331
# Shear Modulus (GPa) = 44.60816 51.16368 47.88592
#
# Velocity S-wave (km/s) = 4.02868 4.31456 4.17406
# Velocity P-wave (km/s) = 6.72851 7.29916 7.01964
#
# Compressibility (1/GPa) = 0.01539574
#
# Stress axis : x y z
#
# Youngs Moduli (GPa) = 88.95831 95.60145 141.40558
#
# Poissons Ratio (x) = 0.34256 0.21017
# Poissons Ratio (y) = 0.31875 0.22897
# Poissons Ratio (z) = 0.13222 0.15480
#
# Static dielectric constant tensor:
#      x y z
#    x 2.195410 -0.023380 -0.097730 
#    y -0.023380 2.124800 0.070540 
#    z -0.097730 0.070540 2.180240 
# 
# From -- ./inp_files/118546.got.cif
#   From: 2010.05.17/outbox.cif.g08.bks.cpg/sg2_60_cif.got.tgz:118546.got - 2010.06.03 11:33:40.
