data_PCOD9069854
_publ_section_title
;
Structure prediction by ZEFSAII (Michael W. Deem and Ramdas Pophale) SiO2 
 PCOD9069854
Probable space group: P -1
;
_chemical_formula_sum "Si O2"
_cell_formula_units_Z 14
_cell_length_a 8.194627
_cell_length_b 18.400630
_cell_length_c 7.832570
_cell_angle_alpha 58.991755
_cell_angle_beta 145.460338
_cell_angle_gamma 120.367307
_cell_volume 565.864435
_symmetry_space_group_name_H-M "P -1"
_symmetry_group_IT_number 2
_symmetry_cell_setting 'triclinic'
loop_
_space_group_symop_operation_xyz
x,y,z
-x,-y,-z
loop_
_atom_site_type_symbol
_atom_site_label
_atom_site_fract_x
_atom_site_fract_y
_atom_site_fract_z
Si Si1 0.813691 0.637060 0.408466
Si Si2 0.395462 0.084130 0.231740
Si Si3 0.964750 0.650059 0.920828
Si Si4 0.502325 0.239390 0.587135
Si Si5 0.720142 0.471700 0.085950
Si Si6 0.927206 0.187181 0.728042
Si Si7 0.257030 0.057058 0.754711
O O1 0.892103 0.643670 0.666557
O O2 0.497234 0.582181 0.172033
O O3 0.850900 0.731521 0.247414
O O4 0.057262 0.589316 0.585284
O O5 0.698067 0.151152 0.424104
O O6 0.500000 0.000000 0.500000
O O7 0.259341 0.067619 0.947431
O O8 0.130294 0.120467 0.052707
O O9 0.730717 0.702243 0.743266
O O10 0.914095 0.555230 0.070295
O O11 0.282664 0.703130 0.165174
O O12 0.712984 0.212902 0.655753
O O13 0.332242 0.152595 0.628260
O O14 0.500000 0.500000 0.000000
O O15 0.000000 0.000000 0.500000
O O16 0.500000 0.000000 0.000000
#
# Coordination Sequence:
#
# PCOD9069854 Si02
#       7
#     2   2   2   2   2   2   2
#     4  12  24  43  68  98 136 181 228 283 343 412
#     4  12  26  46  71 102 139 182 231 289 350 417
#     4  12  24  43  67  99 135 180 230 283 343 411
#     4  12  25  44  69  99 135 179 228 285 344 412
#     4  12  24  42  66  99 137 179 227 284 343 409
#     4  12  25  45  69 102 138 182 232 288 349 415
#     4  12  26  47  71 101 137 181 229 284 347 416
#
# _framework density 24.74091
#
# number of rings (size 3 to 8) (size 9 to 14) (size 15 to 20)
#    0.000    0.000    0.000   11.143    0.000    2.286 
#    0.000    0.000    0.000    0.000    0.000    0.000 
#    0.000    0.000    0.000    0.000    0.000    0.000 
#
# Total GULP energy -78540.531629 kJ/mol
# GULP energy per Si atom -5610.037974 kJ/mol
# Density = 2.468460 g / cm^3
# Si number density = 24.740910 Si / 1000 Ang^3
#
#
#
# Elastic Constant Matrix: (Units=GPa)
#
#
# Indices 1 2 3 4 5 6 
#
# 1 68.2537 24.7460 6.8243 2.6889 -8.4988 -8.0972
# 2 24.7460 175.5541 64.0434 28.6365 -9.3006 24.8040
# 3 6.8243 64.0434 150.4530 25.4010 17.4246 -1.9948
# 4 2.6889 28.6365 25.4010 62.7912 -12.7961 6.2584
# 5 -8.4988 -9.3006 17.4246 -12.7961 50.0681 -8.6600
# 6 -8.0972 24.8040 -1.9948 6.2584 -8.6600 38.4038
#
#
#
# Elastic Compliance Matrix: (Units=1/GPa)
#
#
# Indices 1 2 3 4 5 6 
#
# 1 0.016997 -0.003308 0.000182 0.000786 0.003514 0.006394
# 2 -0.003308 0.008542 -0.003375 -0.001643 0.000750 -0.005953
# 3 0.000182 -0.003375 0.009142 -0.003253 -0.004216 0.002272
# 4 0.000786 -0.001643 -0.003253 0.019203 0.005733 -0.000779
# 5 0.003514 0.000750 -0.004216 0.005733 0.024439 0.004614
# 6 0.006394 -0.005953 0.002272 -0.000779 0.004614 0.032518
#
#
# Mechanical properties :
#
#
# Convention : Reuss Voigt Hill
#
# Bulk Modulus (GPa) = 46.12198 65.05424 55.58811
# Shear Modulus (GPa) = 38.14740 50.16243 44.15491
#
# Velocity S-wave (km/s) = 3.93093 4.50767 4.22915
# Velocity P-wave (km/s) = 6.26781 7.31050 6.80914
#
# Compressibility (1/GPa) = 0.02168164
#
# Stress axis : x y z
#
# Youngs Moduli (GPa) = 58.83226 117.06185 109.38027
#
# Poissons Ratio (x) = 0.38722 -0.01993
# Poissons Ratio (y) = 0.19461 0.36913
# Poissons Ratio (z) = -0.01072 0.39505
#
# Static dielectric constant tensor:
#      x y z
#    x 1.942550 -0.065920 0.024680 
#    y -0.065920 1.977000 0.012570 
#    z 0.024680 0.012570 1.888910 
# 
# From -- ./inp_files/217218.got.cif
#   From: 2010.05.17/outbox.cif.g08.bks.cpg/sg2_109_cif.got.tgz:217218.got - 2010.06.03 11:33:40.
