data_PCOD9069941
_publ_section_title
;
Structure prediction by ZEFSAII (Michael W. Deem and Ramdas Pophale) SiO2 
 PCOD9069941
Probable space group: P -1
;
_chemical_formula_sum "Si O2"
_cell_formula_units_Z 14
_cell_length_a 7.306313
_cell_length_b 9.372931
_cell_length_c 12.188382
_cell_angle_alpha 118.886241
_cell_angle_beta 60.719132
_cell_angle_gamma 121.864847
_cell_volume 589.139804
_symmetry_space_group_name_H-M "P -1"
_symmetry_group_IT_number 2
_symmetry_cell_setting 'triclinic'
loop_
_space_group_symop_operation_xyz
x,y,z
-x,-y,-z
loop_
_atom_site_type_symbol
_atom_site_label
_atom_site_fract_x
_atom_site_fract_y
_atom_site_fract_z
Si Si1 0.569503 0.855072 0.368321
Si Si2 0.317373 0.772534 0.190842
Si Si3 0.964913 0.404661 0.168885
Si Si4 0.579438 0.550248 0.373036
Si Si5 0.103125 0.371649 0.362352
Si Si6 0.929695 0.991777 0.735533
Si Si7 0.224858 0.989679 0.983705
O O1 0.385456 0.767298 0.295891
O O2 0.610822 0.748957 0.418982
O O3 0.373673 0.455850 0.315627
O O4 0.500000 0.000000 0.500000
O O5 0.156081 0.884587 0.267286
O O6 0.187754 0.566247 0.117810
O O7 0.548238 0.888748 0.101472
O O8 0.788514 0.498795 0.268492
O O9 0.839528 0.221982 0.073591
O O10 0.012512 0.346324 0.255308
O O11 0.500000 0.500000 0.500000
O O12 0.814312 0.910220 0.259660
O O13 0.000000 0.500000 0.500000
O O14 0.055123 0.190766 0.376581
O O15 0.762890 0.945227 0.871213
O O16 0.000000 0.000000 0.000000
#
# Coordination Sequence:
#
# PCOD9069941 Si02
#       7
#     2   2   2   2   2   2   2
#     4  12  27  45  73 110 152 193 249 309 370 454
#     4  12  27  49  77 112 149 201 253 308 385 444
#     4  12  26  48  74 109 152 195 253 310 376 445
#     4  12  26  44  70 109 150 193 247 304 373 450
#     4  12  24  43  74 107 146 198 244 302 382 447
#     4  12  27  50  74 108 152 197 252 312 377 446
#     4  12  26  51  78 109 152 198 255 319 369 445
#
# _framework density 23.763461
#
# number of rings (size 3 to 8) (size 9 to 14) (size 15 to 20)
#    0.000    0.000    7.143    2.143    4.000    1.714 
#    2.571    0.000    0.000    0.000    0.000    0.000 
#    0.000    0.000    0.000    0.000    0.000    0.000 
#
# Total GULP energy -78223.034941 kJ/mol
# GULP energy per Si atom -5587.359639 kJ/mol
# Density = 2.370937 g / cm^3
# Si number density = 23.763461 Si / 1000 Ang^3
#
#
#
# Elastic Constant Matrix: (Units=GPa)
#
#
# Indices 1 2 3 4 5 6 
#
# 1 129.4341 36.4829 18.8008 -7.3752 -19.9169 -13.2891
# 2 36.4829 152.7959 44.6773 5.7988 -27.2225 -17.4816
# 3 18.8008 44.6773 71.9750 1.8652 -7.9721 -7.2975
# 4 -7.3752 5.7988 1.8652 30.1061 -4.4671 -3.7362
# 5 -19.9169 -27.2225 -7.9721 -4.4671 23.6783 0.4839
# 6 -13.2891 -17.4816 -7.2975 -3.7362 0.4839 50.3031
#
#
#
# Elastic Compliance Matrix: (Units=1/GPa)
#
#
# Indices 1 2 3 4 5 6 
#
# 1 0.009740 -0.000397 -0.001263 0.004038 0.008022 0.002475
# 2 -0.000397 0.010042 -0.004810 0.000004 0.009540 0.002596
# 3 -0.001263 -0.004810 0.017167 -0.000527 -0.000921 0.000455
# 4 0.004038 0.000004 -0.000527 0.036161 0.009973 0.003582
# 5 0.008022 0.009540 -0.000921 0.009973 0.061408 0.005451
# 6 0.002475 0.002596 0.000455 0.003582 0.005451 0.021715
#
#
# Mechanical properties :
#
#
# Convention : Reuss Voigt Hill
#
# Bulk Modulus (GPa) = 41.65108 61.56966 51.61037
# Shear Modulus (GPa) = 28.22034 37.76712 32.99373
#
# Velocity S-wave (km/s) = 3.44983 3.99092 3.73020
# Velocity P-wave (km/s) = 5.78220 6.87039 6.34965
#
# Compressibility (1/GPa) = 0.02400898
#
# Stress axis : x y z
#
# Youngs Moduli (GPa) = 102.67049 99.57688 58.25064
#
# Poissons Ratio (x) = 0.03956 0.07356
# Poissons Ratio (y) = 0.04078 0.28020
# Poissons Ratio (z) = 0.12965 0.47899
#
# Static dielectric constant tensor:
#      x y z
#    x 1.875480 0.043040 0.004360 
#    y 0.043040 2.073220 0.008980 
#    z 0.004360 0.008980 1.857740 
# 
# From -- ./inp_files/383157.got.cif
#   From: 2010.05.17/outbox.cif.g08.bks.cpg/sg2_192_cif.got.tgz:383157.got - 2010.06.03 11:33:40.
