data_PCOD9069596
_publ_section_title
;
Structure prediction by ZEFSAII (Michael W. Deem and Ramdas Pophale) SiO2 
 PCOD9069596
Probable space group: P -1
;
_chemical_formula_sum "Si O2"
_cell_formula_units_Z 16
_cell_length_a 11.785203
_cell_length_b 12.655192
_cell_length_c 9.481824
_cell_angle_alpha 98.621589
_cell_angle_beta 64.890017
_cell_angle_gamma 48.376799
_cell_volume 737.180628
_symmetry_space_group_name_H-M "P -1"
_symmetry_group_IT_number 2
_symmetry_cell_setting 'triclinic'
loop_
_space_group_symop_operation_xyz
x,y,z
-x,-y,-z
loop_
_atom_site_type_symbol
_atom_site_label
_atom_site_fract_x
_atom_site_fract_y
_atom_site_fract_z
Si Si1 0.429525 0.841957 0.842300
Si Si2 0.696644 0.324746 0.765488
Si Si3 0.461655 0.579898 0.686705
Si Si4 0.120991 0.147603 0.600488
Si Si5 0.564300 0.185667 0.836994
Si Si6 0.814041 0.541777 0.125793
Si Si7 0.992297 0.824475 0.025695
Si Si8 0.641836 0.820624 0.485236
O O1 0.510517 0.670389 0.708504
O O2 0.539158 0.859198 0.695512
O O3 0.467848 0.823937 0.985669
O O4 0.176356 0.026181 0.974602
O O5 0.614240 0.403346 0.669157
O O6 0.715022 0.186660 0.756885
O O7 0.902083 0.253024 0.675518
O O8 0.500000 0.500000 0.000000
O O9 0.500000 0.500000 0.500000
O O10 0.210376 0.741288 0.893673
O O11 0.139921 0.262252 0.627205
O O12 0.311634 0.983844 0.361209
O O13 0.129021 0.090651 0.741819
O O14 0.341507 0.364971 0.908621
O O15 0.922419 0.355395 0.072015
O O16 0.674111 0.690271 0.354403
O O17 0.000000 0.500000 0.000000
O O18 0.500000 0.000000 0.500000
#
# Coordination Sequence:
#
# PCOD9069596 Si02
#       8
#     2   2   2   2   2   2   2   2
#     4  12  27  46  70 109 148 185 242 301 359 422
#     4  12  24  48  73 105 143 189 236 302 363 423
#     4  12  27  44  73 106 149 185 244 298 361 426
#     4  12  25  45  76 101 141 194 241 285 362 433
#     4  12  26  46  75 107 145 187 240 301 357 425
#     4  12  23  45  77 104 138 194 239 284 359 430
#     4  12  24  46  73 104 143 193 240 293 356 434
#     4  12  24  49  71 103 144 193 236 291 358 438
#
# _framework density 21.704315999999999
#
# number of rings (size 3 to 8) (size 9 to 14) (size 15 to 20)
#    0.000    0.000    7.500    1.500    3.500    0.500 
#    0.000    1.250    0.000    0.000    0.000    0.000 
#    0.000    0.000    0.000    0.000    0.000    0.000 
#
# Total GULP energy -89492.306905 kJ/mol
# GULP energy per Si atom -5593.269182 kJ/mol
# Density = 2.165492 g / cm^3
# Si number density = 21.704316 Si / 1000 Ang^3
#
#
#
# Elastic Constant Matrix: (Units=GPa)
#
#
# Indices 1 2 3 4 5 6 
#
# 1 103.4795 19.7443 38.2241 -17.7300 -3.1014 -4.3650
# 2 19.7443 84.0101 41.7477 -16.1892 17.7773 -1.7267
# 3 38.2241 41.7477 101.2741 -13.9124 20.5236 5.4575
# 4 -17.7300 -16.1892 -13.9124 34.5397 2.2762 2.1869
# 5 -3.1014 17.7773 20.5236 2.2762 54.8561 0.0676
# 6 -4.3650 -1.7267 5.4575 2.1869 0.0676 38.1141
#
#
#
# Elastic Compliance Matrix: (Units=1/GPa)
#
#
# Indices 1 2 3 4 5 6 
#
# 1 0.012221 -0.000309 -0.004491 0.004054 0.002301 0.001792
# 2 -0.000309 0.016441 -0.005216 0.005613 -0.003628 0.001141
# 3 -0.004491 -0.005216 0.014980 0.001752 -0.004237 -0.002989
# 4 0.004054 0.005613 0.001752 0.034709 -0.003684 -0.001517
# 5 0.002301 -0.003628 -0.004237 -0.003684 0.021273 0.000879
# 6 0.001792 0.001141 -0.002989 -0.001517 0.000879 0.027007
#
#
# Mechanical properties :
#
#
# Convention : Reuss Voigt Hill
#
# Bulk Modulus (GPa) = 42.35549 54.24401 48.29975
# Shear Modulus (GPa) = 32.35580 38.10515 35.23048
#
# Velocity S-wave (km/s) = 3.86522 4.19459 4.03327
# Velocity P-wave (km/s) = 6.28307 6.96462 6.63261
#
# Compressibility (1/GPa) = 0.02360969
#
# Stress axis : x y z
#
# Youngs Moduli (GPa) = 81.82722 60.82421 66.75718
#
# Poissons Ratio (x) = 0.01881 0.29981
# Poissons Ratio (y) = 0.02530 0.34818
# Poissons Ratio (z) = 0.36748 0.31723
#
# Static dielectric constant tensor:
#      x y z
#    x 1.844680 0.026610 0.019790 
#    y 0.026610 1.689890 0.049890 
#    z 0.019790 0.049890 1.864900 
# 
# From -- ./inp_files/262497.got.cif
#   From: 2010.05.17/outbox.cif.g08.bks.cpg/sg2_132_cif.got.tgz:262497.got - 2010.06.03 11:33:40.
