data_PCOD9069582
_publ_section_title
;
Structure prediction by ZEFSAII (Michael W. Deem and Ramdas Pophale) SiO2 
 PCOD9069582
Probable space group: P -1
;
_chemical_formula_sum "Si O2"
_cell_formula_units_Z 16
_cell_length_a 14.172408
_cell_length_b 9.224983
_cell_length_c 8.847340
_cell_angle_alpha 75.309773
_cell_angle_beta 137.581769
_cell_angle_gamma 95.580410
_cell_volume 747.524924
_symmetry_space_group_name_H-M "P -1"
_symmetry_group_IT_number 2
_symmetry_cell_setting 'triclinic'
loop_
_space_group_symop_operation_xyz
x,y,z
-x,-y,-z
loop_
_atom_site_type_symbol
_atom_site_label
_atom_site_fract_x
_atom_site_fract_y
_atom_site_fract_z
Si Si1 0.918071 0.401093 0.307588
Si Si2 0.460297 0.156235 0.000407
Si Si3 0.654122 0.541439 0.359727
Si Si4 0.101397 0.368181 0.236024
Si Si5 0.760179 0.240757 0.390832
Si Si6 0.621503 0.881377 0.744609
Si Si7 0.604226 0.537724 0.755409
Si Si8 0.145012 0.045693 0.210454
O O1 0.872623 0.262135 0.388180
O O2 0.000000 0.500000 0.500000
O O3 0.031445 0.358258 0.320883
O O4 0.766590 0.469746 0.023781
O O5 0.606316 0.224371 0.154151
O O6 0.401675 0.121275 0.103794
O O7 0.354570 0.295293 0.772063
O O8 0.500000 0.000000 0.000000
O O9 0.748130 0.569641 0.607660
O O10 0.741425 0.399578 0.416329
O O11 0.500131 0.499461 0.222522
O O12 0.120728 0.204806 0.226182
O O13 0.000000 0.500000 0.000000
O O14 0.790990 0.093725 0.571740
O O15 0.607391 0.716029 0.709251
O O16 0.763640 0.931406 0.835532
O O17 0.500000 0.000000 0.500000
O O18 0.500000 0.500000 0.500000
O O19 0.000000 0.000000 0.000000
#
# Coordination Sequence:
#
# PCOD9069582 Si02
#       8
#     2   2   2   2   2   2   2   2
#     4  12  27  47  79 111 150 200 253 307 380 450
#     4  12  26  44  73 109 151 187 247 314 373 443
#     4  12  23  45  75 104 146 191 247 311 368 440
#     4  12  27  48  74 109 152 200 250 309 375 451
#     4  12  24  47  72 107 147 193 246 312 373 440
#     4  12  26  46  73 106 143 195 246 305 380 437
#     4  12  26  45  77 111 146 195 255 307 372 448
#     4  12  28  47  71 106 152 195 249 308 375 450
#
# _framework density 21.403967000000002
#
# number of rings (size 3 to 8) (size 9 to 14) (size 15 to 20)
#    0.000    0.000    5.000    4.875    3.500    2.500 
#    0.000    0.000    0.000    0.000    0.000    0.000 
#    0.000    0.000    0.000    0.000    0.000    0.000 
#
# Total GULP energy -89250.856684 kJ/mol
# GULP energy per Si atom -5578.178543 kJ/mol
# Density = 2.135525 g / cm^3
# Si number density = 21.403967 Si / 1000 Ang^3
#
#
#
# Elastic Constant Matrix: (Units=GPa)
#
#
# Indices 1 2 3 4 5 6 
#
# 1 142.0079 32.6126 0.2574 14.6326 10.6492 26.8763
# 2 32.6126 140.6381 31.3657 -2.7016 6.8405 4.9579
# 3 0.2574 31.3657 79.6227 0.1173 17.6780 16.1360
# 4 14.6326 -2.7016 0.1173 47.5548 10.4377 -0.9542
# 5 10.6492 6.8405 17.6780 10.4377 39.0718 3.9457
# 6 26.8763 4.9579 16.1360 -0.9542 3.9457 43.9682
#
#
#
# Elastic Compliance Matrix: (Units=1/GPa)
#
#
# Indices 1 2 3 4 5 6 
#
# 1 0.009193 -0.002456 0.002623 -0.002677 -0.001922 -0.006191
# 2 -0.002456 0.008465 -0.003808 0.001198 0.000395 0.001935
# 3 0.002623 -0.003808 0.017012 0.000370 -0.007161 -0.006766
# 4 -0.002677 0.001198 0.000370 0.023311 -0.006120 0.002420
# 5 -0.001922 0.000395 -0.007161 -0.006120 0.030837 0.000858
# 6 -0.006191 0.001935 -0.006766 0.002420 0.000858 0.028768
#
#
# Mechanical properties :
#
#
# Convention : Reuss Voigt Hill
#
# Bulk Modulus (GPa) = 36.51481 54.52666 45.52074
# Shear Modulus (GPa) = 37.31426 45.98786 41.65106
#
# Velocity S-wave (km/s) = 4.17985 4.64029 4.41608
# Velocity P-wave (km/s) = 6.35545 7.36479 6.87866
#
# Compressibility (1/GPa) = 0.02738615
#
# Stress axis : x y z
#
# Youngs Moduli (GPa) = 108.78035 118.13342 58.78376
#
# Poissons Ratio (x) = 0.29019 -0.15420
# Poissons Ratio (y) = 0.26721 0.22387
# Poissons Ratio (z) = -0.28535 0.44989
#
# Static dielectric constant tensor:
#      x y z
#    x 1.775060 -0.004830 -0.067750 
#    y -0.004830 1.699490 0.132270 
#    z -0.067750 0.132270 1.694810 
# 
# From -- ./inp_files/298037.got.cif
#   From: 2010.05.17/outbox.cif.g08.bks.cpg/sg2_150_cif.got.tgz:298037.got - 2010.06.03 11:33:40.
