data_PCOD9069633
_publ_section_title
;
Structure prediction by ZEFSAII (Michael W. Deem and Ramdas Pophale) SiO2 
 PCOD9069633
Probable space group: P -1
;
_chemical_formula_sum "Si O2"
_cell_formula_units_Z 15
_cell_length_a 11.867392
_cell_length_b 8.205609
_cell_length_c 17.628488
_cell_angle_alpha 141.349771
_cell_angle_beta 38.170781
_cell_angle_gamma 141.717139
_cell_volume 594.044210
_symmetry_space_group_name_H-M "P -1"
_symmetry_group_IT_number 2
_symmetry_cell_setting 'triclinic'
loop_
_space_group_symop_operation_xyz
x,y,z
-x,-y,-z
loop_
_atom_site_type_symbol
_atom_site_label
_atom_site_fract_x
_atom_site_fract_y
_atom_site_fract_z
Si Si1 0.360773 0.325623 0.580956
Si Si2 0.679671 0.389903 0.548329
Si Si3 0.030177 0.409126 0.276130
Si Si4 0.350043 0.890731 0.832482
Si Si5 0.447990 0.651277 0.225665
Si Si6 0.000000 0.000000 0.000000
Si Si7 0.072740 0.927598 0.338156
Si Si8 0.621066 0.221752 0.951190
O O1 0.500000 0.500000 0.500000
O O2 0.488731 0.232033 0.536542
O O3 0.143257 0.095636 0.582170
O O4 0.319351 0.565987 0.736360
O O5 0.614994 0.359066 0.658462
O O6 0.858463 0.313040 0.397042
O O7 0.767734 0.739503 0.614199
O O8 0.243314 0.455529 0.216471
O O9 0.975173 0.202995 0.157430
O O10 0.049496 0.718435 0.345650
O O11 0.462933 0.036469 0.747025
O O12 0.497682 0.094854 0.893164
O O13 0.140932 0.910418 0.948422
O O14 0.619057 0.531969 0.079180
O O15 0.167184 0.791247 0.175718
O O16 0.500000 0.000000 0.000000
#
# Coordination Sequence:
#
# PCOD9069633 Si02
#       8
#     2   2   2   2   2   1   2   2
#     4  12  25  46  73 108 143 195 251 299 368 438
#     4  12  26  49  70 112 151 189 247 310 366 446
#     4  12  24  45  76 104 141 197 246 296 376 435
#     4  12  24  44  72 100 148 190 242 303 365 436
#     4  12  25  45  74 104 147 196 241 300 381 441
#     4  12  24  44  68 110 144 186 254 300 358 448
#     4  12  24  44  80 102 144 194 252 302 364 437
#     4  12  23  46  72 106 142 191 250 305 363 438
#
# _framework density 25.250644999999999
#
# number of rings (size 3 to 8) (size 9 to 14) (size 15 to 20)
#    0.000    0.000    8.000    2.000    1.867    0.000 
#    4.800    2.667    0.000    0.000    0.000    0.000 
#    0.000    0.000    0.000    0.000    0.000    0.000 
#
# Total GULP energy -83900.528724 kJ/mol
# GULP energy per Si atom -5593.368582 kJ/mol
# Density = 2.519317 g / cm^3
# Si number density = 25.250645 Si / 1000 Ang^3
#
#
#
# Elastic Constant Matrix: (Units=GPa)
#
#
# Indices 1 2 3 4 5 6 
#
# 1 120.2337 17.4304 23.5994 -10.5994 10.9790 21.1170
# 2 17.4304 55.8926 29.8086 7.5768 10.7900 4.1436
# 3 23.5994 29.8086 127.5879 3.4412 8.0386 3.3766
# 4 -10.5994 7.5768 3.4412 50.8552 1.9165 2.8228
# 5 10.9790 10.7900 8.0386 1.9165 54.9883 -14.6588
# 6 21.1170 4.1436 3.3766 2.8228 -14.6588 47.6912
#
#
#
# Elastic Compliance Matrix: (Units=1/GPa)
#
#
# Indices 1 2 3 4 5 6 
#
# 1 0.010331 -0.001997 -0.001188 0.002947 -0.003047 -0.005428
# 2 -0.001997 0.022139 -0.004445 -0.003186 -0.003624 -0.001650
# 3 -0.001188 -0.004445 0.009105 -0.000209 -0.000152 0.000233
# 4 0.002947 -0.003186 -0.000209 0.020967 -0.001378 -0.002678
# 5 -0.003047 -0.003624 -0.000152 -0.001378 0.021833 0.008467
# 6 -0.005428 -0.001650 0.000233 -0.002678 0.008467 0.026259
#
#
# Mechanical properties :
#
#
# Convention : Reuss Voigt Hill
#
# Bulk Modulus (GPa) = 38.00202 49.48790 43.74496
# Shear Modulus (GPa) = 37.12881 46.23199 41.68040
#
# Velocity S-wave (km/s) = 3.83875 4.28357 4.06725
# Velocity P-wave (km/s) = 5.89327 6.64127 6.27842
#
# Compressibility (1/GPa) = 0.02631439
#
# Stress axis : x y z
#
# Youngs Moduli (GPa) = 96.79388 45.16975 109.82924
#
# Poissons Ratio (x) = 0.09021 0.13050
# Poissons Ratio (y) = 0.19331 0.48819
# Poissons Ratio (z) = 0.11501 0.20078
#
# Static dielectric constant tensor:
#      x y z
#    x 1.887130 0.178500 -0.128140 
#    y 0.178500 2.538190 0.335290 
#    z -0.128140 0.335290 1.669030 
# 
# From -- ./inp_files/567037.got.cif
#   From: 2010.05.17/outbox.cif.g08.bks.cpg/sg2_284_cif.got.tgz:567037.got - 2010.06.03 11:33:40.
