data_PCOD9069947
_publ_section_title
;
Structure prediction by ZEFSAII (Michael W. Deem and Ramdas Pophale) SiO2 
 PCOD9069947
Probable space group: P -1
;
_chemical_formula_sum "Si O2"
_cell_formula_units_Z 16
_cell_length_a 14.276793
_cell_length_b 5.636075
_cell_length_c 17.022846
_cell_angle_alpha 111.985951
_cell_angle_beta 34.040641
_cell_angle_gamma 118.329053
_cell_volume 674.434039
_symmetry_space_group_name_H-M "P -1"
_symmetry_group_IT_number 2
_symmetry_cell_setting 'triclinic'
loop_
_space_group_symop_operation_xyz
x,y,z
-x,-y,-z
loop_
_atom_site_type_symbol
_atom_site_label
_atom_site_fract_x
_atom_site_fract_y
_atom_site_fract_z
Si Si1 0.690436 0.922271 0.822708
Si Si2 0.030397 0.309186 0.673258
Si Si3 0.069097 0.234632 0.915858
Si Si4 0.408002 0.892547 0.252971
Si Si5 0.647311 0.523017 0.001375
Si Si6 0.208128 0.427876 0.406542
Si Si7 0.980650 0.115231 0.248988
Si Si8 0.411435 0.549348 0.790672
O O1 0.503186 0.734593 0.962437
O O2 0.798488 0.727436 0.690264
O O3 0.647249 0.015396 0.779145
O O4 0.817382 0.172453 0.812705
O O5 0.068441 0.294810 0.552617
O O6 0.094167 0.632698 0.685054
O O7 0.094772 0.104672 0.657001
O O8 0.278664 0.349419 0.800394
O O9 0.023997 0.074945 0.845883
O O10 0.000000 0.500000 0.000000
O O11 0.000000 0.000000 0.000000
O O12 0.230907 0.729600 0.401026
O O13 0.531894 0.148680 0.244202
O O14 0.531198 0.717861 0.124003
O O15 0.813853 0.701648 0.858701
O O16 0.686872 0.462191 0.057656
O O17 0.398130 0.480808 0.325817
#
# Coordination Sequence:
#
# PCOD9069947 Si02
#       8
#     2   2   2   2   2   2   2   2
#     4   9  21  38  67  92 119 175 229 257 308 368
#     4  12  28  43  59  93 142 175 203 268 316 380
#     4  12  24  43  74  99 125 162 216 266 319 389
#     4   8  17  35  67  92 116 159 228 272 295 369
#     4   9  19  38  61  95 125 159 219 259 324 378
#     4   9  21  41  66  92 123 173 230 255 304 373
#     4  12  28  42  61  97 139 166 204 263 340 384
#     4   9  19  37  69  96 117 160 218 278 307 359
#
# _framework density 23.723595
#
# number of rings (size 3 to 8) (size 9 to 14) (size 15 to 20)
#    0.000    2.500    1.250    1.875   12.250    1.500 
#    0.000    1.250    0.000    0.000    0.000    0.000 
#    0.000    0.000    0.000    0.000    0.000    0.000 
#
# Total GULP energy -89180.795499 kJ/mol
# GULP energy per Si atom -5573.799719 kJ/mol
# Density = 2.366960 g / cm^3
# Si number density = 23.723595 Si / 1000 Ang^3
#
#
#
# Elastic Constant Matrix: (Units=GPa)
#
#
# Indices 1 2 3 4 5 6 
#
# 1 50.6555 35.6939 10.7498 0.0210 5.8863 9.3767
# 2 35.6939 171.9681 26.1453 -12.6284 21.0668 -2.8528
# 3 10.7498 26.1453 82.4688 -12.1417 20.8022 -6.5949
# 4 0.0210 -12.6284 -12.1417 38.8710 -1.8422 10.1021
# 5 5.8863 21.0668 20.8022 -1.8422 33.8676 -7.0315
# 6 9.3767 -2.8528 -6.5949 10.1021 -7.0315 39.2398
#
#
#
# Elastic Compliance Matrix: (Units=1/GPa)
#
#
# Indices 1 2 3 4 5 6 
#
# 1 0.025018 -0.004854 -0.001943 -0.000502 -0.001577 -0.006811
# 2 -0.004854 0.007459 -0.000591 0.001953 -0.003218 0.000524
# 3 -0.001943 -0.000591 0.015319 0.004082 -0.008390 0.000442
# 4 -0.000502 0.001953 0.004082 0.029350 -0.003542 -0.007243
# 5 -0.001577 -0.003218 -0.008390 -0.003542 0.038107 0.006473
# 6 -0.006811 0.000524 0.000442 -0.007243 0.006473 0.030249
#
#
# Mechanical properties :
#
#
# Convention : Reuss Voigt Hill
#
# Bulk Modulus (GPa) = 30.28478 50.03006 40.15742
# Shear Modulus (GPa) = 29.19117 37.89592 33.54355
#
# Velocity S-wave (km/s) = 3.51161 4.00108 3.76431
# Velocity P-wave (km/s) = 5.40697 6.51762 5.98810
#
# Compressibility (1/GPa) = 0.03301988
#
# Stress axis : x y z
#
# Youngs Moduli (GPa) = 39.97105 134.07193 65.27822
#
# Poissons Ratio (x) = 0.65079 0.12684
# Poissons Ratio (y) = 0.19402 0.03857
# Poissons Ratio (z) = 0.07767 0.07921
#
# Static dielectric constant tensor:
#      x y z
#    x 1.954950 -0.145160 -0.058300 
#    y -0.145160 2.119510 -0.001330 
#    z -0.058300 -0.001330 1.951640 
# 
# From -- ./inp_files/108883.got.cif
#   From: 2010.05.17/outbox.cif.g08.bks.cpg/sg2_55_cif.got.tgz:108883.got - 2010.06.03 11:33:40.
