data_PCOD9069872
_publ_section_title
;
Structure prediction by ZEFSAII (Michael W. Deem and Ramdas Pophale) SiO2 
 PCOD9069872
Probable space group: P -1
;
_chemical_formula_sum "Si O2"
_cell_formula_units_Z 16
_cell_length_a 9.289081
_cell_length_b 14.116179
_cell_length_c 11.888382
_cell_angle_alpha 150.529598
_cell_angle_beta 94.891245
_cell_angle_gamma 77.891965
_cell_volume 734.350044
_symmetry_space_group_name_H-M "P -1"
_symmetry_group_IT_number 2
_symmetry_cell_setting 'triclinic'
loop_
_space_group_symop_operation_xyz
x,y,z
-x,-y,-z
loop_
_atom_site_type_symbol
_atom_site_label
_atom_site_fract_x
_atom_site_fract_y
_atom_site_fract_z
Si Si1 0.848294 0.135759 0.684663
Si Si2 0.832515 0.336782 0.137929
Si Si3 0.345613 0.165852 0.648215
Si Si4 0.603340 0.011325 0.126455
Si Si5 0.437058 0.327780 0.603688
Si Si6 0.846398 0.592611 0.744888
Si Si7 0.725440 0.466753 0.822492
Si Si8 0.674018 0.349626 0.349125
O O1 0.777447 0.301395 0.754199
O O2 0.762860 0.967636 0.525779
O O3 0.852279 0.240817 0.914614
O O4 0.000000 0.000000 0.500000
O O5 0.706222 0.549694 0.347313
O O6 0.744295 0.238608 0.122898
O O7 0.993846 0.362470 0.208737
O O8 0.373439 0.309453 0.702119
O O9 0.500000 0.000000 0.500000
O O10 0.296565 0.312159 0.900566
O O11 0.504763 0.112229 0.330225
O O12 0.683006 0.177515 0.263080
O O13 0.500000 0.000000 0.000000
O O14 0.717991 0.804427 0.955197
O O15 0.567907 0.439795 0.737371
O O16 0.838700 0.463676 0.723821
O O17 0.789650 0.473622 0.519875
O O18 0.500000 0.500000 0.500000
#
# Coordination Sequence:
#
# PCOD9069872 Si02
#       8
#     2   2   2   2   2   2   2   2
#     4  12  29  47  70 109 152 197 246 299 372 433
#     4  12  27  47  73 108 149 191 241 304 367 430
#     4  12  24  42  71 102 138 190 250 299 353 429
#     4  12  26  46  76 107 141 191 245 296 371 440
#     4  12  24  45  72 104 145 192 245 300 360 431
#     4  12  27  46  75 107 146 191 242 302 369 435
#     4  12  25  48  73 102 151 194 247 303 363 434
#     4  12  24  50  77 105 145 190 239 305 367 433
#
# _framework density 21.787973999999998
#
# number of rings (size 3 to 8) (size 9 to 14) (size 15 to 20)
#    0.000    0.000    6.250    3.000    5.250    1.500 
#    0.000    0.000    0.000    0.000    0.000    0.000 
#    0.000    0.000    0.000    0.000    0.000    0.000 
#
# Total GULP energy -89328.664707 kJ/mol
# GULP energy per Si atom -5583.041544 kJ/mol
# Density = 2.173838 g / cm^3
# Si number density = 21.787974 Si / 1000 Ang^3
#
#
#
# Elastic Constant Matrix: (Units=GPa)
#
#
# Indices 1 2 3 4 5 6 
#
# 1 120.8692 7.8743 37.2661 -14.3636 -0.8177 -2.6656
# 2 7.8743 66.9818 15.0666 -15.4613 -8.8426 9.1060
# 3 37.2661 15.0666 106.8854 -9.7615 -0.1867 -10.2426
# 4 -14.3636 -15.4613 -9.7615 40.3415 6.8004 -5.5024
# 5 -0.8177 -8.8426 -0.1867 6.8004 32.7831 -4.6904
# 6 -2.6656 9.1060 -10.2426 -5.5024 -4.6904 36.7274
#
#
#
# Elastic Compliance Matrix: (Units=1/GPa)
#
#
# Indices 1 2 3 4 5 6 
#
# 1 0.009546 0.000151 -0.003079 0.002785 -0.000291 0.000177
# 2 0.000151 0.017582 -0.002424 0.005155 0.003111 -0.003854
# 3 -0.003079 -0.002424 0.011235 0.001259 -0.000406 0.003648
# 4 0.002785 0.005155 0.001259 0.029184 -0.004140 0.003119
# 5 -0.000291 0.003111 -0.000406 -0.004140 0.032569 0.002633
# 6 0.000177 -0.003854 0.003648 0.003119 0.002633 0.030017
#
#
# Mechanical properties :
#
#
# Convention : Reuss Voigt Hill
#
# Bulk Modulus (GPa) = 36.15570 46.12782 41.14176
# Shear Modulus (GPa) = 33.32118 37.60568 35.46343
#
# Velocity S-wave (km/s) = 3.91492 4.15900 4.03880
# Velocity P-wave (km/s) = 6.08817 6.65434 6.37754
#
# Compressibility (1/GPa) = 0.02765815
#
# Stress axis : x y z
#
# Youngs Moduli (GPa) = 104.75983 56.87738 89.00998
#
# Poissons Ratio (x) = -0.00857 0.27403
# Poissons Ratio (y) = -0.01578 0.21576
# Poissons Ratio (z) = 0.32251 0.13787
#
# Static dielectric constant tensor:
#      x y z
#    x 1.753420 0.009090 -0.002370 
#    y 0.009090 1.786720 -0.063360 
#    z -0.002370 -0.063360 1.784130 
# 
# From -- ./inp_files/400043.got.cif
#   From: 2010.05.17/outbox.cif.g08.bks.cpg/sg2_201_cif.got.tgz:400043.got - 2010.06.03 11:33:40.
