data_PCOD9069443
_publ_section_title
;
Structure prediction by ZEFSAII (Michael W. Deem and Ramdas Pophale) SiO2 
 PCOD9069443
Probable space group: P -1
;
_chemical_formula_sum "Si O2"
_cell_formula_units_Z 14
_cell_length_a 14.106274
_cell_length_b 11.862664
_cell_length_c 10.182953
_cell_angle_alpha 129.692086
_cell_angle_beta 120.292086
_cell_angle_gamma 27.934684
_cell_volume 605.730612
_symmetry_space_group_name_H-M "P -1"
_symmetry_group_IT_number 2
_symmetry_cell_setting 'triclinic'
loop_
_space_group_symop_operation_xyz
x,y,z
-x,-y,-z
loop_
_atom_site_type_symbol
_atom_site_label
_atom_site_fract_x
_atom_site_fract_y
_atom_site_fract_z
Si Si1 0.802066 0.964776 0.594872
Si Si2 0.626910 0.859243 0.851980
Si Si3 0.601111 0.436992 0.657503
Si Si4 0.802954 0.945262 0.107645
Si Si5 0.992443 0.834824 0.894514
Si Si6 0.923169 0.266316 0.618144
Si Si7 0.343424 0.198094 0.657739
O O1 0.775562 0.824029 0.435885
O O2 0.836577 0.945563 0.759187
O O3 0.989313 0.820897 0.533393
O O4 0.622902 0.274488 0.649031
O O5 0.724217 0.592211 0.705743
O O6 0.479931 0.063378 0.781996
O O7 0.806520 0.773732 0.936699
O O8 0.500000 0.000000 0.000000
O O9 0.500000 0.500000 0.500000
O O10 0.821393 0.248887 0.619329
O O11 0.436536 0.736814 0.822921
O O12 0.907441 0.855534 0.254671
O O13 0.922154 0.895653 0.040555
O O14 0.194891 0.505942 0.770208
O O15 0.000000 0.000000 0.000000
O O16 0.500000 0.000000 0.500000
#
# Coordination Sequence:
#
# PCOD9069443 Si02
#       7
#     2   2   2   2   2   2   2
#     4  12  26  47  75 104 150 197 247 298 367 447
#     4  12  23  43  74 105 142 185 241 301 369 426
#     4  12  26  44  74 110 144 194 247 301 366 439
#     4  12  26  46  72 108 152 184 246 310 370 427
#     4  12  29  47  74 109 148 193 245 312 369 426
#     4  12  24  47  74 107 146 191 245 303 362 445
#     4  12  27  50  74 106 149 201 250 296 367 451
#
# _framework density 23.112586
#
# number of rings (size 3 to 8) (size 9 to 14) (size 15 to 20)
#    0.000    0.000    2.857    7.286    6.000    0.571 
#    0.000    0.000    0.000    0.000    0.000    0.000 
#    0.000    0.000    0.000    0.000    0.000    0.000 
#
# Total GULP energy -78272.849088 kJ/mol
# GULP energy per Si atom -5590.917792 kJ/mol
# Density = 2.305998 g / cm^3
# Si number density = 23.112586 Si / 1000 Ang^3
#
#
#
# Elastic Constant Matrix: (Units=GPa)
#
#
# Indices 1 2 3 4 5 6 
#
# 1 91.8217 10.3136 7.8112 19.5474 8.6934 9.6532
# 2 10.3136 85.0964 16.3003 -8.2934 -14.4011 13.8872
# 3 7.8112 16.3003 75.9490 -11.6578 -8.4242 2.6749
# 4 19.5474 -8.2934 -11.6578 54.1167 -7.6879 -2.4982
# 5 8.6934 -14.4011 -8.4242 -7.6879 45.0957 -0.4731
# 6 9.6532 13.8872 2.6749 -2.4982 -0.4731 34.1909
#
#
#
# Elastic Compliance Matrix: (Units=1/GPa)
#
#
# Indices 1 2 3 4 5 6 
#
# 1 0.013541 -0.002110 -0.002373 -0.006573 -0.004883 -0.003328
# 2 -0.002110 0.014271 -0.001631 0.003108 0.005139 -0.004775
# 3 -0.002373 -0.001631 0.014784 0.004305 0.003438 0.000538
# 4 -0.006573 0.003108 0.004305 0.023356 0.007067 0.002061
# 5 -0.004883 0.005139 0.003438 0.007067 0.026604 -0.000093
# 6 -0.003328 -0.004775 0.000538 0.002061 -0.000093 0.032234
#
#
# Mechanical properties :
#
#
# Convention : Reuss Voigt Hill
#
# Bulk Modulus (GPa) = 32.92922 35.74637 34.33780
# Shear Modulus (GPa) = 33.98101 41.24345 37.61223
#
# Velocity S-wave (km/s) = 3.83853 4.22887 4.03842
# Velocity P-wave (km/s) = 5.82443 6.27250 6.05261
#
# Compressibility (1/GPa) = 0.03036816
#
# Stress axis : x y z
#
# Youngs Moduli (GPa) = 73.84916 70.07008 67.64060
#
# Poissons Ratio (x) = 0.14788 0.16052
# Poissons Ratio (y) = 0.15586 0.11030
# Poissons Ratio (z) = 0.17525 0.11426
#
# Static dielectric constant tensor:
#      x y z
#    x 2.035500 0.010880 0.062930 
#    y 0.010880 1.872880 0.071640 
#    z 0.062930 0.071640 1.857000 
# 
# From -- ./inp_files/308585.got.cif
#   From: 2010.05.17/outbox.cif.g08.bks.cpg/sg2_155_cif.got.tgz:308585.got - 2010.06.03 11:33:40.
