data_PCOD9069689
_publ_section_title
;
Structure prediction by ZEFSAII (Michael W. Deem and Ramdas Pophale) SiO2 
 PCOD9069689
Probable space group: P -1
;
_chemical_formula_sum "Si O2"
_cell_formula_units_Z 16
_cell_length_a 8.556117
_cell_length_b 5.678653
_cell_length_c 19.639651
_cell_angle_alpha 69.093254
_cell_angle_beta 123.218293
_cell_angle_gamma 122.505154
_cell_volume 670.600806
_symmetry_space_group_name_H-M "P -1"
_symmetry_group_IT_number 2
_symmetry_cell_setting 'triclinic'
loop_
_space_group_symop_operation_xyz
x,y,z
-x,-y,-z
loop_
_atom_site_type_symbol
_atom_site_label
_atom_site_fract_x
_atom_site_fract_y
_atom_site_fract_z
Si Si1 0.276761 0.491261 0.462543
Si Si2 0.264700 0.380449 0.626304
Si Si3 0.016952 0.730405 0.840962
Si Si4 0.615269 0.340872 0.003082
Si Si5 0.599770 0.962136 0.638725
Si Si6 0.046581 0.107555 0.329240
Si Si7 0.620346 0.186717 0.765922
Si Si8 0.835501 0.852041 0.914431
O O1 0.500000 0.500000 0.500000
O O2 0.219503 0.364026 0.536923
O O3 0.097040 0.308589 0.385445
O O4 0.349415 0.817641 0.432222
O O5 0.376849 0.714956 0.629252
O O6 0.411603 0.230803 0.700293
O O7 0.056996 0.208526 0.635822
O O8 0.182181 0.619686 0.911364
O O9 0.082262 0.874930 0.768157
O O10 0.795316 0.470459 0.807182
O O11 0.979178 0.900407 0.876610
O O12 0.500000 0.500000 0.000000
O O13 0.706100 0.524026 0.937405
O O14 0.500000 0.000000 0.000000
O O15 0.730343 0.802497 0.661251
O O16 0.679060 0.133023 0.709096
O O17 0.659262 0.960087 0.844956
O O18 0.000000 0.000000 0.000000
#
# Coordination Sequence:
#
# PCOD9069689 Si02
#       8
#     2   2   2   2   2   2   2   2
#     4  12  23  47  75 101 152 199 249 308 381 455
#     4  12  27  45  74 113 147 196 255 317 372 455
#     4  12  25  50  76 105 155 201 254 310 391 462
#     4  12  30  49  76 121 157 195 258 331 390 466
#     4  12  23  47  71 106 146 198 249 309 384 449
#     4  12  27  46  74 110 149 197 250 312 379 452
#     4  12  24  47  77 104 148 200 257 302 389 455
#     4  12  26  48  83 106 144 206 254 310 392 475
#
# _framework density 23.859202
#
# number of rings (size 3 to 8) (size 9 to 14) (size 15 to 20)
#    0.000    0.000    7.500    1.875    3.500    2.500 
#    0.000    0.000    0.000    0.000    0.000    0.000 
#    0.000    0.000    0.000    0.000    0.000    0.000 
#
# Total GULP energy -89288.235132 kJ/mol
# GULP energy per Si atom -5580.514696 kJ/mol
# Density = 2.380490 g / cm^3
# Si number density = 23.859202 Si / 1000 Ang^3
#
#
#
# Elastic Constant Matrix: (Units=GPa)
#
#
# Indices 1 2 3 4 5 6 
#
# 1 59.3814 30.5913 49.0577 -1.6670 -0.4751 -3.7037
# 2 30.5913 123.0219 63.9616 -20.1595 -3.1519 9.4363
# 3 49.0577 63.9616 160.4592 -10.1926 -10.4549 -2.4752
# 4 -1.6670 -20.1595 -10.1926 51.9634 -5.8329 -13.4926
# 5 -0.4751 -3.1519 -10.4549 -5.8329 26.3029 -10.1971
# 6 -3.7037 9.4363 -2.4752 -13.4926 -10.1971 34.8787
#
#
#
# Elastic Compliance Matrix: (Units=1/GPa)
#
#
# Indices 1 2 3 4 5 6 
#
# 1 0.023582 -0.003069 -0.006182 -0.001421 -0.002035 0.001751
# 2 -0.003069 0.011367 -0.003482 0.002881 -0.000474 -0.002672
# 3 -0.006182 -0.003482 0.010005 0.001810 0.005083 0.003182
# 4 -0.001421 0.002881 0.001810 0.025123 0.011354 0.012236
# 5 -0.002035 -0.000474 0.005083 0.011354 0.049931 0.019263
# 6 0.001751 -0.002672 0.003182 0.012236 0.019263 0.040171
#
#
# Mechanical properties :
#
#
# Convention : Reuss Voigt Hill
#
# Bulk Modulus (GPa) = 51.31339 70.00930 60.66135
# Shear Modulus (GPa) = 26.02236 35.91246 30.96741
#
# Velocity S-wave (km/s) = 3.30610 3.88388 3.60658
# Velocity P-wave (km/s) = 6.01059 7.03698 6.54394
#
# Compressibility (1/GPa) = 0.01948809
#
# Stress axis : x y z
#
# Youngs Moduli (GPa) = 42.40563 87.97322 99.94572
#
# Poissons Ratio (x) = 0.26999 0.61789
# Poissons Ratio (y) = 0.13014 0.34800
# Poissons Ratio (z) = 0.26216 0.30632
#
# Static dielectric constant tensor:
#      x y z
#    x 1.964160 -0.033720 0.029230 
#    y -0.033720 1.890210 0.135670 
#    z 0.029230 0.135670 1.614200 
# 
# From -- ./inp_files/553382.got.cif
#   From: 2010.05.17/outbox.cif.g08.bks.cpg/sg2_277_cif.got.tgz:553382.got - 2010.06.03 11:33:40.
