data_PCOD9069998
_publ_section_title
;
Structure prediction by ZEFSAII (Michael W. Deem and Ramdas Pophale) SiO2 
 PCOD9069998
Probable space group: P -1
;
_chemical_formula_sum "Si O2"
_cell_formula_units_Z 9
_cell_length_a 14.671218
_cell_length_b 5.490254
_cell_length_c 11.922706
_cell_angle_alpha 97.559246
_cell_angle_beta 149.223194
_cell_angle_gamma 105.480296
_cell_volume 322.761544
_symmetry_space_group_name_H-M "P -1"
_symmetry_group_IT_number 2
_symmetry_cell_setting 'triclinic'
loop_
_space_group_symop_operation_xyz
x,y,z
-x,-y,-z
loop_
_atom_site_type_symbol
_atom_site_label
_atom_site_fract_x
_atom_site_fract_y
_atom_site_fract_z
Si Si1 0.956219 0.723869 0.741095
Si Si2 0.559160 0.662453 0.241903
Si Si3 0.021613 0.368185 0.627846
Si Si4 0.611186 0.433950 0.709174
Si Si5 0.000000 0.500000 0.000000
O O1 0.669430 0.502170 0.369462
O O2 0.092072 0.647093 0.811427
O O3 0.926180 0.629415 0.832845
O O4 0.141990 0.154374 0.953807
O O5 0.593177 0.812631 0.415814
O O6 0.257311 0.410612 0.871194
O O7 0.748644 0.975492 0.366740
O O8 0.000000 0.500000 0.500000
O O9 0.500000 0.500000 0.500000
O O10 0.749200 0.336815 0.801358
#
# Coordination Sequence:
#
# PCOD9069998 Si02
#       5
#     2   2   2   2   1
#     4  12  27  46  78 113 155 204 251 310 378 460
#     4  12  26  51  76 113 153 198 258 312 381 447
#     4  12  30  53  79 110 151 202 261 322 378 442
#     4  12  27  45  75 115 156 202 249 307 382 460
#     4  12  24  44  72 106 158 196 242 300 380 446
#
# _framework density 27.884361999999999
#
# number of rings (size 3 to 8) (size 9 to 14) (size 15 to 20)
#    0.000    0.000    6.667    1.333    6.222    4.444 
#    0.000    0.000    0.000    0.000    0.000    0.000 
#    0.000    0.000    0.000    0.000    0.000    0.000 
#
# Total GULP energy -50282.661974 kJ/mol
# GULP energy per Si atom -5586.962442 kJ/mol
# Density = 2.782090 g / cm^3
# Si number density = 27.884362 Si / 1000 Ang^3
#
#
#
# Elastic Constant Matrix: (Units=GPa)
#
#
# Indices 1 2 3 4 5 6 
#
# 1 133.3446 50.6094 49.2481 -5.2920 28.3182 37.8777
# 2 50.6094 142.5766 71.9114 -24.1574 18.7004 73.7672
# 3 49.2481 71.9114 137.1878 -18.8174 39.6548 26.3096
# 4 -5.2920 -24.1574 -18.8174 65.9680 8.8299 -8.6310
# 5 28.3182 18.7004 39.6548 8.8299 43.0875 -11.3244
# 6 37.8777 73.7672 26.3096 -8.6310 -11.3244 80.0426
#
#
#
# Elastic Compliance Matrix: (Units=1/GPa)
#
#
# Indices 1 2 3 4 5 6 
#
# 1 0.011781 0.002656 -0.000136 0.002215 -0.011693 -0.009393
# 2 0.002656 0.022472 -0.002712 0.006896 -0.016367 -0.022647
# 3 -0.000136 -0.002712 0.013811 0.004260 -0.013206 -0.003384
# 4 0.002215 0.006896 0.004260 0.019907 -0.014747 -0.008744
# 5 -0.011693 -0.016367 -0.013206 -0.014747 0.061605 0.032084
# 6 -0.009393 -0.022647 -0.003384 -0.008744 0.032084 0.042519
#
#
# Mechanical properties :
#
#
# Convention : Reuss Voigt Hill
#
# Bulk Modulus (GPa) = 20.97435 84.07185 52.52310
# Shear Modulus (GPa) = 26.54314 53.90898 40.22606
#
# Velocity S-wave (km/s) = 3.08864 4.40171 3.80228
# Velocity P-wave (km/s) = 4.50087 7.48659 6.17684
#
# Compressibility (1/GPa) = 0.04767728
#
# Stress axis : x y z
#
# Youngs Moduli (GPa) = 84.88256 44.50059 72.40790
#
# Poissons Ratio (x) = -0.11818 0.00986
# Poissons Ratio (y) = -0.22541 0.19640
# Poissons Ratio (z) = 0.01156 0.12070
#
# Static dielectric constant tensor:
#      x y z
#    x 2.270260 -0.154700 -0.253420 
#    y -0.154700 2.295010 0.299400 
#    z -0.253420 0.299400 2.558290 
# 
# From -- ./inp_files/1594.got.cif
#   From: 2010.05.17/outbox.cif.g08.bks.cpg/sg2_1_cif.got.tgz:1594.got - 2010.06.03 11:33:40.
