data_PCOD9069534
_publ_section_title
;
Structure prediction by ZEFSAII (Michael W. Deem and Ramdas Pophale) SiO2 
 PCOD9069534
Probable space group: P -1
;
_chemical_formula_sum "Si O2"
_cell_formula_units_Z 14
_cell_length_a 9.616671
_cell_length_b 9.766044
_cell_length_c 26.107763
_cell_angle_alpha 146.786433
_cell_angle_beta 153.417391
_cell_angle_gamma 43.119490
_cell_volume 599.344545
_symmetry_space_group_name_H-M "P -1"
_symmetry_group_IT_number 2
_symmetry_cell_setting 'triclinic'
loop_
_space_group_symop_operation_xyz
x,y,z
-x,-y,-z
loop_
_atom_site_type_symbol
_atom_site_label
_atom_site_fract_x
_atom_site_fract_y
_atom_site_fract_z
Si Si1 0.198401 0.070077 0.953821
Si Si2 0.833136 0.738498 0.460368
Si Si3 0.793209 0.111526 0.739519
Si Si4 0.146577 0.151961 0.767741
Si Si5 0.638047 0.544863 0.503216
Si Si6 0.405502 0.252851 0.184107
Si Si7 0.027747 0.396505 0.197690
O O1 0.067211 0.813803 0.858014
O O2 0.955716 0.172564 0.866012
O O3 0.500000 0.000000 0.000000
O O4 0.291819 0.256266 0.089307
O O5 0.568753 0.840427 0.368635
O O6 0.667381 0.483140 0.349657
O O7 0.136006 0.662733 0.505803
O O8 0.932473 0.945923 0.600421
O O9 0.965326 0.230570 0.783535
O O10 0.824910 0.814363 0.649153
O O11 0.208970 0.395724 0.829082
O O12 0.438528 0.007347 0.836499
O O13 0.500000 0.500000 0.500000
O O14 0.342499 0.544129 0.368568
O O15 0.136373 0.271864 0.142472
#
# Coordination Sequence:
#
# PCOD9069534 Si02
#       7
#     2   2   2   2   2   2   2
#     4  12  27  51  72  99 151 196 237 293 357 427
#     4  12  24  43  78 109 144 185 234 297 366 422
#     4  12  24  45  74 109 144 187 236 295 363 423
#     4  12  23  44  77 110 137 184 241 298 356 421
#     4  12  24  44  71 109 149 181 235 303 361 420
#     4  12  25  46  74 105 146 194 236 287 358 430
#     4  12  26  47  74 107 142 186 245 298 350 429
#
# _framework density 23.358851000000001
#
# number of rings (size 3 to 8) (size 9 to 14) (size 15 to 20)
#    0.000    0.000    8.571    2.143    0.000    1.714 
#    2.571    0.000    0.000    0.000    0.000    0.000 
#    0.000    0.000    0.000    0.000    0.000    0.000 
#
# Total GULP energy -78449.883712 kJ/mol
# GULP energy per Si atom -5603.563122 kJ/mol
# Density = 2.330569 g / cm^3
# Si number density = 23.358851 Si / 1000 Ang^3
#
#
#
# Elastic Constant Matrix: (Units=GPa)
#
#
# Indices 1 2 3 4 5 6 
#
# 1 134.4400 38.5408 26.4067 -9.3896 -8.7629 9.3355
# 2 38.5408 114.4398 17.0234 -23.1303 -8.1393 1.6704
# 3 26.4067 17.0234 81.8856 -15.4005 -21.4917 6.9093
# 4 -9.3896 -23.1303 -15.4005 46.4682 10.0757 0.2198
# 5 -8.7629 -8.1393 -21.4917 10.0757 36.6943 -2.9279
# 6 9.3355 1.6704 6.9093 0.2198 -2.9279 28.2575
#
#
#
# Elastic Compliance Matrix: (Units=1/GPa)
#
#
# Indices 1 2 3 4 5 6 
#
# 1 0.008753 -0.002647 -0.002091 -0.000270 0.000177 -0.002204
# 2 -0.002647 0.010630 -0.000470 0.004549 0.000229 0.000349
# 3 -0.002091 -0.000470 0.015732 0.002916 0.007622 -0.002361
# 4 -0.000270 0.004549 0.002916 0.025685 -0.004525 -0.001561
# 5 0.000177 0.000229 0.007622 -0.004525 0.033174 0.001537
# 6 -0.002204 0.000349 -0.002361 -0.001561 0.001537 0.036845
#
#
# Mechanical properties :
#
#
# Convention : Reuss Voigt Hill
#
# Bulk Modulus (GPa) = 40.48529 54.96747 47.72638
# Shear Modulus (GPa) = 33.45178 38.87032 36.16105
#
# Velocity S-wave (km/s) = 3.78839 4.08370 3.93882
# Velocity P-wave (km/s) = 6.04197 6.76893 6.41575
#
# Compressibility (1/GPa) = 0.02470033
#
# Stress axis : x y z
#
# Youngs Moduli (GPa) = 114.24095 94.07155 63.56397
#
# Poissons Ratio (x) = 0.24898 0.13291
# Poissons Ratio (y) = 0.30236 0.02988
# Poissons Ratio (z) = 0.23887 0.04423
#
# Static dielectric constant tensor:
#      x y z
#    x 1.835380 0.016450 -0.003920 
#    y 0.016450 1.879680 0.012230 
#    z -0.003920 0.012230 1.908400 
# 
# From -- ./inp_files/226754.got.cif
#   From: 2010.05.17/outbox.cif.g08.bks.cpg/sg2_114_cif.got.tgz:226754.got - 2010.06.03 11:33:40.
