data_PCOD9069898
_publ_section_title
;
Structure prediction by ZEFSAII (Michael W. Deem and Ramdas Pophale) SiO2 
 PCOD9069898
Probable space group: P -1
;
_chemical_formula_sum "Si O2"
_cell_formula_units_Z 14
_cell_length_a 28.273555
_cell_length_b 5.561339
_cell_length_c 25.661700
_cell_angle_alpha 68.198881
_cell_angle_beta 9.097529
_cell_angle_gamma 69.010330
_cell_volume 591.370730
_symmetry_space_group_name_H-M "P -1"
_symmetry_group_IT_number 2
_symmetry_cell_setting 'triclinic'
loop_
_space_group_symop_operation_xyz
x,y,z
-x,-y,-z
loop_
_atom_site_type_symbol
_atom_site_label
_atom_site_fract_x
_atom_site_fract_y
_atom_site_fract_z
Si Si1 0.034771 0.494362 0.900833
Si Si2 0.503042 0.816196 0.119488
Si Si3 0.346879 0.567582 0.107308
Si Si4 0.982757 0.164672 0.818610
Si Si5 0.568976 0.220958 0.364247
Si Si6 0.495340 0.883483 0.313242
Si Si7 0.161871 0.351705 0.131060
O O1 0.257259 0.260975 0.670821
O O2 0.238283 0.734007 0.638620
O O3 0.000000 0.500000 0.000000
O O4 0.724428 0.451647 0.211759
O O5 0.151262 0.818822 0.516162
O O6 0.535345 0.628920 0.049054
O O7 0.699086 0.678521 0.961006
O O8 0.608344 0.121521 0.976467
O O9 0.000000 0.500000 0.500000
O O10 0.500000 0.500000 0.000000
O O11 0.935432 0.381141 0.809520
O O12 0.808579 0.197920 0.059570
O O13 0.329481 0.136249 0.455520
O O14 0.800638 0.919608 0.010360
O O15 0.500000 0.000000 0.500000
O O16 0.582086 0.736871 0.179165
#
# Coordination Sequence:
#
# PCOD9069898 Si02
#       7
#     2   2   2   2   2   2   2
#     4  12  24  43  66  97 134 178 247 313 381 453
#     4  12  28  47  82 118 158 208 251 310 369 452
#     4  12  26  52  82 118 159 200 253 308 369 436
#     4  12  26  45  71  99 144 193 243 312 381 443
#     4  12  24  43  66  97 134 178 247 313 381 453
#     4  12  26  45  71  99 144 193 243 312 381 443
#     4  12  28  47  70 112 157 194 256 296 372 460
#
# _framework density 23.673815000000001
#
# number of rings (size 3 to 8) (size 9 to 14) (size 15 to 20)
#    0.000    0.000    1.429    8.571    8.000    0.000 
#    0.000    0.000    0.000    0.000    0.000    0.000 
#    0.000    0.000    0.000    0.000    0.000    0.000 
#
# Total GULP energy -78308.728156 kJ/mol
# GULP energy per Si atom -5593.480583 kJ/mol
# Density = 2.361993 g / cm^3
# Si number density = 23.673815 Si / 1000 Ang^3
#
#
#
# Elastic Constant Matrix: (Units=GPa)
#
#
# Indices 1 2 3 4 5 6 
#
# 1 143.8907 49.3563 17.8541 -12.4930 -11.3888 -14.9913
# 2 49.3563 107.8724 25.0893 -13.2464 18.0852 -15.1451
# 3 17.8541 25.0893 94.1358 -14.8396 -16.6965 -11.5901
# 4 -12.4930 -13.2464 -14.8396 44.3924 -6.3870 -5.0941
# 5 -11.3888 18.0852 -16.6965 -6.3870 32.5747 4.9112
# 6 -14.9913 -15.1451 -11.5901 -5.0941 4.9112 42.0338
#
#
#
# Elastic Compliance Matrix: (Units=1/GPa)
#
#
# Indices 1 2 3 4 5 6 
#
# 1 0.009634 -0.005519 0.001610 0.002852 0.007614 0.001347
# 2 -0.005519 0.015905 -0.005217 -0.000120 -0.014054 0.003951
# 3 0.001610 -0.005217 0.015029 0.005893 0.011994 0.002151
# 4 0.002852 -0.000120 0.005893 0.027067 0.008658 0.004868
# 5 0.007614 -0.014054 0.011994 0.008658 0.049579 -0.003785
# 6 0.001347 0.003951 0.002151 0.004868 -0.003785 0.027320
#
#
# Mechanical properties :
#
#
# Convention : Reuss Voigt Hill
#
# Bulk Modulus (GPa) = 44.81395 58.94427 51.87911
# Shear Modulus (GPa) = 29.37272 40.70680 35.03976
#
# Velocity S-wave (km/s) = 3.52622 4.15117 3.85139
# Velocity P-wave (km/s) = 5.96236 6.92306 6.46060
#
# Compressibility (1/GPa) = 0.02231448
#
# Stress axis : x y z
#
# Youngs Moduli (GPa) = 103.80098 62.87270 66.53685
#
# Poissons Ratio (x) = 0.34702 -0.10711
# Poissons Ratio (y) = 0.57292 0.34714
# Poissons Ratio (z) = -0.16710 0.32803
#
# Static dielectric constant tensor:
#      x y z
#    x 1.878550 0.013430 0.018220 
#    y 0.013430 2.035400 0.020670 
#    z 0.018220 0.020670 1.875500 
# 
# From -- ./inp_files/127658.got.cif
#   From: 2010.05.17/outbox.cif.g08.bks.cpg/sg2_64_cif.got.tgz:127658.got - 2010.06.03 11:33:40.
