data_PCOD9069080
_publ_section_title
;
Structure prediction by ZEFSAII (Michael W. Deem and Ramdas Pophale) SiO2 
 PCOD9069080
Probable space group: P -1
;
_chemical_formula_sum "Si O2"
_cell_formula_units_Z 15
_cell_length_a 12.300278
_cell_length_b 11.948033
_cell_length_c 11.860918
_cell_angle_alpha 92.788332
_cell_angle_beta 63.181688
_cell_angle_gamma 38.714926
_cell_volume 677.399398
_symmetry_space_group_name_H-M "P -1"
_symmetry_group_IT_number 2
_symmetry_cell_setting 'triclinic'
loop_
_space_group_symop_operation_xyz
x,y,z
-x,-y,-z
loop_
_atom_site_type_symbol
_atom_site_label
_atom_site_fract_x
_atom_site_fract_y
_atom_site_fract_z
Si Si1 0.669418 0.975291 0.405007
Si Si2 0.982723 0.255649 0.399220
Si Si3 0.215016 0.536545 0.265779
Si Si4 0.866406 0.733661 0.067884
Si Si5 0.690269 0.210599 0.679516
Si Si6 0.661577 0.827263 0.805087
Si Si7 0.713551 0.506455 0.318716
Si Si8 0.500000 0.500000 0.000000
O O1 0.850322 0.811538 0.197892
O O2 0.893925 0.813997 0.389413
O O3 0.500000 0.000000 0.500000
O O4 0.448269 0.258672 0.530445
O O5 0.767211 0.438521 0.612028
O O6 0.850762 0.322006 0.346967
O O7 0.082869 0.300257 0.335892
O O8 0.245827 0.963828 0.302985
O O9 0.271086 0.358352 0.223362
O O10 0.403600 0.456180 0.094520
O O11 0.547145 0.985950 0.192048
O O12 0.000000 0.500000 0.000000
O O13 0.038944 0.654845 0.886522
O O14 0.511025 0.357835 0.656400
O O15 0.548157 0.404312 0.848760
O O16 0.000000 0.000000 0.500000
O O17 0.500000 0.000000 0.000000
#
# Coordination Sequence:
#
# PCOD9069080 Si02
#       8
#     2   2   2   2   2   2   2   1
#     4  12  22  42  69 104 151 190 240 300 367 444
#     4  12  24  47  74 110 148 191 244 311 376 441
#     4  12  25  46  74 107 146 203 247 305 373 440
#     4  12  23  40  66 104 148 197 237 292 369 442
#     4  12  26  52  75 103 145 196 250 307 370 438
#     4  12  23  42  68 110 152 186 243 306 371 443
#     4  12  25  44  73 107 142 192 246 303 368 439
#     4  12  26  50  78 100 144 202 252 296 372 444
#
# _framework density 22.143508000000001
#
# number of rings (size 3 to 8) (size 9 to 14) (size 15 to 20)
#    0.000    0.000    5.333    6.000    0.000    0.533 
#    0.000    0.667    0.000    0.000    0.000    0.000 
#    0.000    0.000    0.000    0.000    0.000    0.000 
#
# Total GULP energy -83672.583502 kJ/mol
# GULP energy per Si atom -5578.172233 kJ/mol
# Density = 2.209311 g / cm^3
# Si number density = 22.143508 Si / 1000 Ang^3
#
#
#
# Elastic Constant Matrix: (Units=GPa)
#
#
# Indices 1 2 3 4 5 6 
#
# 1 96.5192 45.9824 30.4289 -12.6982 8.1320 -13.7316
# 2 45.9824 98.6910 22.8066 -11.0785 -6.6081 -18.7847
# 3 30.4289 22.8066 108.3646 -33.4276 15.9039 -7.1162
# 4 -12.6982 -11.0785 -33.4276 42.9632 1.8937 4.3155
# 5 8.1320 -6.6081 15.9039 1.8937 43.9596 -3.6121
# 6 -13.7316 -18.7847 -7.1162 4.3155 -3.6121 52.4939
#
#
#
# Elastic Compliance Matrix: (Units=1/GPa)
#
#
# Indices 1 2 3 4 5 6 
#
# 1 0.014436 -0.006150 -0.001888 0.001236 -0.002881 0.001020
# 2 -0.006150 0.014349 -0.001657 0.000048 0.004187 0.003586
# 3 -0.001888 -0.001657 0.014030 0.010211 -0.005448 -0.000399
# 4 0.001236 0.000048 0.010211 0.031964 -0.005397 -0.001274
# 5 -0.002881 0.004187 -0.005448 -0.005397 0.026300 0.002259
# 6 0.001020 0.003586 -0.000399 -0.001274 0.002259 0.020806
#
#
# Mechanical properties :
#
#
# Convention : Reuss Voigt Hill
#
# Bulk Modulus (GPa) = 42.68853 55.77896 49.23375
# Shear Modulus (GPa) = 33.53800 41.50713 37.52256
#
# Velocity S-wave (km/s) = 3.89598 4.33420 4.12092
# Velocity P-wave (km/s) = 6.28953 7.09165 6.70260
#
# Compressibility (1/GPa) = 0.02342550
#
# Stress axis : x y z
#
# Youngs Moduli (GPa) = 69.27007 69.69026 71.27404
#
# Poissons Ratio (x) = 0.42859 0.13457
# Poissons Ratio (y) = 0.42600 0.11811
# Poissons Ratio (z) = 0.13079 0.11549
#
# Static dielectric constant tensor:
#      x y z
#    x 1.813860 -0.037150 -0.025880 
#    y -0.037150 1.890660 -0.002910 
#    z -0.025880 -0.002910 1.798050 
# 
# From -- ./inp_files/260921.got.cif
#   From: 2010.05.17/outbox.cif.g08.bks.cpg/sg2_131_cif.got.tgz:260921.got - 2010.06.03 11:33:40.
