data_PCOD9069895
_publ_section_title
;
Structure prediction by ZEFSAII (Michael W. Deem and Ramdas Pophale) SiO2 
 PCOD9069895
Probable space group: P -1
;
_chemical_formula_sum "Si O2"
_cell_formula_units_Z 15
_cell_length_a 12.191678
_cell_length_b 12.957115
_cell_length_c 11.821326
_cell_angle_alpha 144.128867
_cell_angle_beta 41.736077
_cell_angle_gamma 140.853998
_cell_volume 654.842818
_symmetry_space_group_name_H-M "P -1"
_symmetry_group_IT_number 2
_symmetry_cell_setting 'triclinic'
loop_
_space_group_symop_operation_xyz
x,y,z
-x,-y,-z
loop_
_atom_site_type_symbol
_atom_site_label
_atom_site_fract_x
_atom_site_fract_y
_atom_site_fract_z
Si Si1 0.811657 0.522795 0.157537
Si Si2 0.150019 0.068743 0.612250
Si Si3 0.517043 0.058285 0.403325
Si Si4 0.819382 0.689981 0.528405
Si Si5 0.114191 0.582775 0.598213
Si Si6 0.500000 0.500000 0.000000
Si Si7 0.520341 0.716830 0.947475
Si Si8 0.087116 0.165289 0.986560
O O1 0.831381 0.725489 0.265955
O O2 0.738626 0.535058 0.350636
O O3 0.665405 0.348585 0.040112
O O4 0.000000 0.500000 0.000000
O O5 0.341566 0.057382 0.473380
O O6 0.084334 0.052651 0.776709
O O7 0.985214 0.880997 0.517492
O O8 0.677575 0.277002 0.469837
O O9 0.500000 0.000000 0.500000
O O10 0.565579 0.909640 0.159528
O O11 0.904582 0.591478 0.462566
O O12 0.673709 0.732541 0.751745
O O13 0.000000 0.500000 0.500000
O O14 0.031282 0.716435 0.837051
O O15 0.517176 0.449456 0.076805
O O16 0.290825 0.321340 0.999496
O O17 0.000000 0.000000 0.000000
#
# Coordination Sequence:
#
# PCOD9069895 Si02
#       8
#     2   2   2   2   2   1   2   2
#     4  12  27  51  78 110 150 208 261 312 385 468
#     4  12  25  47  74 107 150 195 260 317 384 463
#     4  12  27  44  74 113 152 200 252 318 395 463
#     4  12  27  48  74 112 150 202 257 320 386 463
#     4  12  26  43  70 108 151 192 254 319 391 457
#     4  12  24  42  78 102 152 196 258 308 402 442
#     4  12  27  48  74 108 153 199 256 315 387 459
#     4  12  25  44  69 110 151 201 252 326 390 470
#
# _framework density 22.906261000000001
#
# number of rings (size 3 to 8) (size 9 to 14) (size 15 to 20)
#    0.000    0.000    1.333    9.600    7.467    0.000 
#    0.000    2.000    0.000    0.000    0.000    0.000 
#    0.000    0.000    0.000    0.000    0.000    0.000 
#
# Total GULP energy -83718.471721 kJ/mol
# GULP energy per Si atom -5581.231448 kJ/mol
# Density = 2.285413 g / cm^3
# Si number density = 22.906261 Si / 1000 Ang^3
#
#
#
# Elastic Constant Matrix: (Units=GPa)
#
#
# Indices 1 2 3 4 5 6 
#
# 1 125.0093 37.8778 37.9602 -3.6131 4.4994 8.1073
# 2 37.8778 118.7335 21.7619 5.3427 -10.0505 4.6021
# 3 37.9602 21.7619 119.6653 5.0503 -1.4526 -3.6408
# 4 -3.6131 5.3427 5.0503 24.8562 -7.0122 0.5882
# 5 4.4994 -10.0505 -1.4526 -7.0122 49.1428 -0.2388
# 6 8.1073 4.6021 -3.6408 0.5882 -0.2388 47.7615
#
#
#
# Elastic Compliance Matrix: (Units=1/GPa)
#
#
# Indices 1 2 3 4 5 6 
#
# 1 0.009915 -0.002794 -0.002800 0.002300 -0.001242 -0.001662
# 2 -0.002794 0.009725 -0.000799 -0.001768 0.001967 -0.000492
# 3 -0.002800 -0.000799 0.009523 -0.002181 0.000070 0.001305
# 4 0.002300 -0.001768 -0.002181 0.042958 0.005489 -0.000888
# 5 -0.001242 0.001967 0.000070 0.005489 0.021650 0.000067
# 6 -0.001662 -0.000492 0.001305 -0.000888 0.000067 0.021378
#
#
# Mechanical properties :
#
#
# Convention : Reuss Voigt Hill
#
# Bulk Modulus (GPa) = 61.05918 62.06755 61.56336
# Shear Modulus (GPa) = 37.48299 42.07263 39.77781
#
# Velocity S-wave (km/s) = 4.04959 4.29036 4.17171
# Velocity P-wave (km/s) = 6.96990 7.19014 7.08088
#
# Compressibility (1/GPa) = 0.01637755
#
# Stress axis : x y z
#
# Youngs Moduli (GPa) = 100.85556 102.82711 105.01241
#
# Poissons Ratio (x) = 0.28731 0.29402
# Poissons Ratio (y) = 0.28180 0.08387
# Poissons Ratio (z) = 0.28238 0.08213
#
# Static dielectric constant tensor:
#      x y z
#    x 1.830960 -0.028010 0.030980 
#    y -0.028010 1.768280 0.067570 
#    z 0.030980 0.067570 1.842440 
# 
# From -- ./inp_files/429021.got.cif
#   From: 2010.05.17/outbox.cif.g08.bks.cpg/sg2_215_cif.got.tgz:429021.got - 2010.06.03 11:33:40.
