data_PCOD9069346
_publ_section_title
;
Structure prediction by ZEFSAII (Michael W. Deem and Ramdas Pophale) SiO2 
 PCOD9069346
Probable space group: P -1
;
_chemical_formula_sum "Si O2"
_cell_formula_units_Z 12
_cell_length_a 16.022424
_cell_length_b 9.354418
_cell_length_c 15.866376
_cell_angle_alpha 51.882468
_cell_angle_beta 162.256375
_cell_angle_gamma 129.435696
_cell_volume 558.976636
_symmetry_space_group_name_H-M "P -1"
_symmetry_group_IT_number 2
_symmetry_cell_setting 'triclinic'
loop_
_space_group_symop_operation_xyz
x,y,z
-x,-y,-z
loop_
_atom_site_type_symbol
_atom_site_label
_atom_site_fract_x
_atom_site_fract_y
_atom_site_fract_z
Si Si1 0.803973 0.299940 0.394240
Si Si2 0.763106 0.766721 0.038586
Si Si3 0.435383 0.577948 0.147290
Si Si4 0.466720 0.385218 0.422971
Si Si5 0.958581 0.206480 0.394671
Si Si6 0.100153 0.882096 0.062735
O O1 0.486115 0.296088 0.112616
O O2 0.824457 0.212208 0.355305
O O3 0.000000 0.500000 0.500000
O O4 0.945295 0.211936 0.639807
O O5 0.719035 0.605287 0.984866
O O6 0.743908 0.960610 0.907349
O O7 0.459822 0.522414 0.287652
O O8 0.742989 0.653265 0.377737
O O9 0.248743 0.730729 0.895352
O O10 0.500000 0.500000 0.500000
O O11 0.701959 0.263305 0.674002
O O12 0.175919 0.239562 0.198624
O O13 0.000000 0.000000 0.500000
O O14 0.000000 0.000000 0.000000
#
# Coordination Sequence:
#
# PCOD9069346 Si02
#       6
#     2   2   2   2   2   2
#     4  12  23  42  68 100 133 178 233 284 336 409
#     4  12  24  41  74 103 135 180 237 286 344 407
#     4  12  24  45  73  96 139 187 228 284 363 410
#     4  12  28  48  74 107 149 187 235 298 364 429
#     4  12  27  44  68 101 140 181 230 286 349 424
#     4  12  26  46  75 108 140 187 247 294 346 427
#
# _framework density 21.467801999999999
#
# number of rings (size 3 to 8) (size 9 to 14) (size 15 to 20)
#    0.000    0.000    5.000    5.000    2.333    4.000 
#    0.000    0.000    0.000    0.000    0.000    0.000 
#    0.000    0.000    0.000    0.000    0.000    0.000 
#
# Total GULP energy -67181.967870 kJ/mol
# GULP energy per Si atom -5598.497322 kJ/mol
# Density = 2.141894 g / cm^3
# Si number density = 21.467802 Si / 1000 Ang^3
#
#
#
# Elastic Constant Matrix: (Units=GPa)
#
#
# Indices 1 2 3 4 5 6 
#
# 1 122.0529 61.5945 36.4154 -16.8238 -16.8587 -9.0709
# 2 61.5945 88.0970 42.9869 -8.8258 -11.9050 -9.7017
# 3 36.4154 42.9869 137.7457 -21.8536 -2.8425 -0.8733
# 4 -16.8238 -8.8258 -21.8536 43.6172 12.7161 10.4553
# 5 -16.8587 -11.9050 -2.8425 12.7161 36.6135 0.3434
# 6 -9.0709 -9.7017 -0.8733 10.4553 0.3434 25.6989
#
#
#
# Elastic Compliance Matrix: (Units=1/GPa)
#
#
# Indices 1 2 3 4 5 6 
#
# 1 0.013299 -0.008446 -0.000454 0.002335 0.002527 0.000507
# 2 -0.008446 0.020275 -0.004615 -0.004000 0.003678 0.006095
# 3 -0.000454 -0.004615 0.009598 0.005416 -0.002811 -0.003742
# 4 0.002335 -0.004000 0.005416 0.032105 -0.010830 -0.013419
# 5 0.002527 0.003678 -0.002811 -0.010830 0.033157 0.006147
# 6 0.000507 0.006095 -0.003742 -0.013419 0.006147 0.046642
#
#
# Mechanical properties :
#
#
# Convention : Reuss Voigt Hill
#
# Bulk Modulus (GPa) = 61.94790 69.98767 65.96778
# Shear Modulus (GPa) = 26.66860 34.97917 30.82389
#
# Velocity S-wave (km/s) = 3.52840 4.04093 3.79333
# Velocity P-wave (km/s) = 6.74672 7.37863 7.06974
#
# Compressibility (1/GPa) = 0.01614260
#
# Stress axis : x y z
#
# Youngs Moduli (GPa) = 75.19168 49.32158 104.19300
#
# Poissons Ratio (x) = 0.41655 0.04735
# Poissons Ratio (y) = 0.63503 0.48082
# Poissons Ratio (z) = 0.03417 0.22761
#
# Static dielectric constant tensor:
#      x y z
#    x 0.156060 1.084680 -0.106670 
#    y 1.084680 1.100060 0.006540 
#    z -0.106670 0.006540 1.808490 
# 
# From -- ./inp_files/23564.got.cif
#   From: 2010.05.17/outbox.cif.g08.bks.cpg/sg2_12_cif.got.tgz:23564.got - 2010.06.03 11:33:40.
