data_PCOD9069889
_publ_section_title
;
Structure prediction by ZEFSAII (Michael W. Deem and Ramdas Pophale) SiO2 
 PCOD9069889
Probable space group: P -1
;
_chemical_formula_sum "Si O2"
_cell_formula_units_Z 13
_cell_length_a 8.967059
_cell_length_b 7.631222
_cell_length_c 14.566536
_cell_angle_alpha 122.675407
_cell_angle_beta 137.999046
_cell_angle_gamma 49.166404
_cell_volume 501.776895
_symmetry_space_group_name_H-M "P -1"
_symmetry_group_IT_number 2
_symmetry_cell_setting 'triclinic'
loop_
_space_group_symop_operation_xyz
x,y,z
-x,-y,-z
loop_
_atom_site_type_symbol
_atom_site_label
_atom_site_fract_x
_atom_site_fract_y
_atom_site_fract_z
Si Si1 0.864235 0.122009 0.767542
Si Si2 0.879732 0.620962 0.133880
Si Si3 0.960650 0.682830 0.613708
Si Si4 0.379335 0.326788 0.381735
Si Si5 0.000000 0.000000 0.000000
Si Si6 0.491691 0.432248 0.180021
Si Si7 0.520155 0.012956 0.203908
O O1 0.608970 0.350062 0.735776
O O2 0.069090 0.211955 0.865222
O O3 0.859643 0.962771 0.636382
O O4 0.925470 0.986776 0.853131
O O5 0.151392 0.437577 0.235874
O O6 0.733501 0.771678 0.195903
O O7 0.724437 0.507196 0.978784
O O8 0.761995 0.677639 0.592500
O O9 0.000000 0.500000 0.500000
O O10 0.245892 0.613180 0.755444
O O11 0.500000 0.500000 0.500000
O O12 0.563298 0.091823 0.346882
O O13 0.268376 0.986178 0.085157
O O14 0.514828 0.207835 0.183824
#
# Coordination Sequence:
#
# PCOD9069889 Si02
#       7
#     2   2   2   2   1   2   2
#     4  12  25  46  76 113 153 199 246 316 380 443
#     4  12  26  46  80 112 150 202 247 311 390 447
#     4  12  29  51  73 109 150 202 257 308 377 456
#     4  12  29  51  72 107 151 201 257 317 376 450
#     4  12  24  42  74 118 156 190 246 314 376 440
#     4  12  25  47  78 113 151 200 243 314 384 452
#     4  12  24  46  73 114 155 193 251 311 378 454
#
# _framework density 25.907927000000001
#
# number of rings (size 3 to 8) (size 9 to 14) (size 15 to 20)
#    0.000    0.000    6.154    3.692    2.154    1.846 
#    0.000    0.000    0.000    0.000    0.000    0.000 
#    0.000    0.000    0.000    0.000    0.000    0.000 
#
# Total GULP energy -72608.132129 kJ/mol
# GULP energy per Si atom -5585.240933 kJ/mol
# Density = 2.584896 g / cm^3
# Si number density = 25.907927 Si / 1000 Ang^3
#
#
#
# Elastic Constant Matrix: (Units=GPa)
#
#
# Indices 1 2 3 4 5 6 
#
# 1 137.8347 24.4432 37.1573 7.8716 14.5332 -23.8435
# 2 24.4432 80.8714 35.5940 35.2643 -3.2161 -30.4330
# 3 37.1573 35.5940 107.3789 6.6361 2.5104 1.0373
# 4 7.8716 35.2643 6.6361 38.4920 -6.4560 -8.2307
# 5 14.5332 -3.2161 2.5104 -6.4560 53.9489 7.1796
# 6 -23.8435 -30.4330 1.0373 -8.2307 7.1796 48.8375
#
#
#
# Elastic Compliance Matrix: (Units=1/GPa)
#
#
# Indices 1 2 3 4 5 6 
#
# 1 0.009442 0.001934 -0.003744 -0.002335 -0.003331 0.005991
# 2 0.001934 0.035926 -0.010952 -0.027904 -0.003793 0.019419
# 3 -0.003744 -0.010952 0.013848 0.006970 0.001611 -0.008009
# 4 -0.002335 -0.027904 0.006970 0.049432 0.006052 -0.011235
# 5 -0.003331 -0.003793 0.001611 0.006052 0.020660 -0.006042
# 6 0.005991 0.019419 -0.008009 -0.011235 -0.006042 0.034667
#
#
# Mechanical properties :
#
#
# Convention : Reuss Voigt Hill
#
# Bulk Modulus (GPa) = 29.68132 57.83045 43.75589
# Shear Modulus (GPa) = 24.90900 43.51506 34.21203
#
# Velocity S-wave (km/s) = 3.10408 4.10274 3.63784
# Velocity P-wave (km/s) = 4.93238 6.69428 5.87970
#
# Compressibility (1/GPa) = 0.03369122
#
# Stress axis : x y z
#
# Youngs Moduli (GPa) = 105.90607 27.83520 72.21277
#
# Poissons Ratio (x) = -0.05384 0.27039
# Poissons Ratio (y) = -0.20486 0.79091
# Poissons Ratio (z) = 0.39654 0.30486
#
# Static dielectric constant tensor:
#      x y z
#    x 1.948420 0.073810 -0.094170 
#    y 0.073810 2.184650 0.005900 
#    z -0.094170 0.005900 1.903230 
# 
# From -- ./inp_files/204007.got.cif
#   From: 2010.05.17/outbox.cif.g08.bks.cpg/sg2_103_cif.got.tgz:204007.got - 2010.06.03 11:33:40.
