data_PCOD9069799
_publ_section_title
;
Structure prediction by ZEFSAII (Michael W. Deem and Ramdas Pophale) SiO2 
 PCOD9069799
Probable space group: P -1
;
_chemical_formula_sum "Si O2"
_cell_formula_units_Z 10
_cell_length_a 14.679943
_cell_length_b 9.561601
_cell_length_c 11.708629
_cell_angle_alpha 40.820106
_cell_angle_beta 149.959695
_cell_angle_gamma 153.086319
_cell_volume 371.576024
_symmetry_space_group_name_H-M "P -1"
_symmetry_group_IT_number 2
_symmetry_cell_setting 'triclinic'
loop_
_space_group_symop_operation_xyz
x,y,z
-x,-y,-z
loop_
_atom_site_type_symbol
_atom_site_label
_atom_site_fract_x
_atom_site_fract_y
_atom_site_fract_z
Si Si1 0.095458 0.969205 0.006897
Si Si2 0.339066 0.005252 0.914787
Si Si3 0.241867 0.622525 0.386027
Si Si4 0.532334 0.522033 0.653712
Si Si5 0.244197 0.549125 0.704733
O O1 0.808646 0.636643 0.875924
O O2 0.193558 0.254183 0.864122
O O3 0.260734 0.895304 0.234835
O O4 0.000000 0.000000 0.000000
O O5 0.345960 0.238629 0.713003
O O6 0.513994 0.176346 0.115484
O O7 0.031637 0.678679 0.788583
O O8 0.500000 0.000000 0.000000
O O9 0.488923 0.725450 0.525859
O O10 0.236027 0.547314 0.558749
O O11 0.500000 0.500000 0.500000
O O12 0.000000 0.500000 0.500000
#
# Coordination Sequence:
#
# PCOD9069799 Si02
#       5
#     2   2   2   2   2
#     4  12  24  51  75 117 157 195 264 317 380 478
#     4  12  23  50  78 114 154 203 262 316 388 472
#     4  12  28  52  79 114 157 210 255 320 398 450
#     4  12  28  50  79 110 157 206 263 325 384 459
#     4  12  24  49  83 111 159 206 250 327 391 459
#
# _framework density 26.912393000000002
#
# number of rings (size 3 to 8) (size 9 to 14) (size 15 to 20)
#    0.000    0.000    8.000    1.800    0.000    2.400 
#    7.200    0.000    0.000    0.000    0.000    0.000 
#    0.000    0.000    0.000    0.000    0.000    0.000 
#
# Total GULP energy -55841.261921 kJ/mol
# GULP energy per Si atom -5584.126192 kJ/mol
# Density = 2.685114 g / cm^3
# Si number density = 26.912393 Si / 1000 Ang^3
#
#
#
# Elastic Constant Matrix: (Units=GPa)
#
#
# Indices 1 2 3 4 5 6 
#
# 1 194.3529 24.0268 86.0631 -14.1253 -7.0152 -22.9663
# 2 24.0268 132.1636 75.4471 2.7711 -8.0961 1.0603
# 3 86.0631 75.4471 159.1042 -31.6814 4.8990 -9.4571
# 4 -14.1253 2.7711 -31.6814 68.9475 -5.2532 9.5397
# 5 -7.0152 -8.0961 4.8990 -5.2532 62.4169 -4.2245
# 6 -22.9663 1.0603 -9.4571 9.5397 -4.2245 34.6550
#
#
#
# Elastic Compliance Matrix: (Units=1/GPa)
#
#
# Indices 1 2 3 4 5 6 
#
# 1 0.007566 0.001469 -0.004825 -0.001182 0.001603 0.004173
# 2 0.001469 0.011431 -0.006914 -0.003168 0.001913 -0.000158
# 3 -0.004825 -0.006914 0.013242 0.005367 -0.002102 -0.001106
# 4 -0.001182 -0.003168 0.005367 0.017425 0.000232 -0.003990
# 5 0.001603 0.001913 -0.002102 0.000232 0.016797 0.002414
# 6 0.004173 -0.000158 -0.001106 -0.003990 0.002414 0.032717
#
#
# Mechanical properties :
#
#
# Convention : Reuss Voigt Hill
#
# Bulk Modulus (GPa) = 85.49512 95.18829 90.34171
# Shear Modulus (GPa) = 40.44694 53.20945 46.82820
#
# Velocity S-wave (km/s) = 3.88095 4.45132 4.17588
# Velocity P-wave (km/s) = 7.20550 7.86546 7.54270
#
# Compressibility (1/GPa) = 0.01169657
#
# Stress axis : x y z
#
# Youngs Moduli (GPa) = 132.17806 87.47817 75.51826
#
# Poissons Ratio (x) = -0.12848 0.36441
# Poissons Ratio (y) = -0.19414 0.52216
# Poissons Ratio (z) = 0.63782 0.60486
#
# Static dielectric constant tensor:
#      x y z
#    x 2.032870 -0.061300 -0.052630 
#    y -0.061300 2.235410 0.041000 
#    z -0.052630 0.041000 2.066960 
# 
# From -- ./inp_files/271431.got.cif
#   From: 2010.05.17/outbox.cif.g08.bks.cpg/sg2_136_cif.got.tgz:271431.got - 2010.06.03 11:33:40.
