data_PCOD9069250
_publ_section_title
;
Structure prediction by ZEFSAII (Michael W. Deem and Ramdas Pophale) SiO2 
 PCOD9069250
Probable space group: P -1
;
_chemical_formula_sum "Si O2"
_cell_formula_units_Z 12
_cell_length_a 8.748209
_cell_length_b 7.609483
_cell_length_c 16.186821
_cell_angle_alpha 145.887437
_cell_angle_beta 53.090473
_cell_angle_gamma 121.385288
_cell_volume 482.529158
_symmetry_space_group_name_H-M "P -1"
_symmetry_group_IT_number 2
_symmetry_cell_setting 'triclinic'
loop_
_space_group_symop_operation_xyz
x,y,z
-x,-y,-z
loop_
_atom_site_type_symbol
_atom_site_label
_atom_site_fract_x
_atom_site_fract_y
_atom_site_fract_z
Si Si1 0.676338 0.373406 0.343066
Si Si2 0.017686 0.250802 0.518835
Si Si3 0.936768 0.166297 0.810153
Si Si4 0.370784 0.291027 0.683432
Si Si5 0.707333 0.689061 0.807683
Si Si6 0.295586 0.319329 0.998682
O O1 0.500000 0.500000 0.500000
O O2 0.852963 0.460737 0.378010
O O3 0.691123 0.558871 0.324552
O O4 0.672304 0.012654 0.181781
O O5 0.820791 0.400244 0.621908
O O6 0.100865 0.080705 0.348208
O O7 0.000000 0.000000 0.500000
O O8 0.167918 0.194423 0.756577
O O9 0.802396 0.008880 0.863195
O O10 0.859962 0.490514 0.926624
O O11 0.493995 0.562487 0.800219
O O12 0.500000 0.000000 0.500000
O O13 0.254987 0.296043 0.100735
O O14 0.500000 0.500000 0.000000
#
# Coordination Sequence:
#
# PCOD9069250 Si02
#       6
#     2   2   2   2   2   2
#     4  12  28  49  82 110 149 211 270 323 404 478
#     4  12  22  48  79 111 157 207 257 322 385 470
#     4  12  27  51  83 118 161 211 262 331 397 465
#     4  12  26  47  81 120 157 206 267 320 391 480
#     4  12  27  49  79 118 163 205 269 323 394 477
#     4  12  29  53  80 115 163 209 264 339 399 465
#
# _framework density 24.868964999999999
#
# number of rings (size 3 to 8) (size 9 to 14) (size 15 to 20)
#    0.000    0.000    5.000    3.500    4.667    5.333 
#    0.000    2.500    0.000    0.000    0.000    0.000 
#    0.000    0.000    0.000    0.000    0.000    0.000 
#
# Total GULP energy -67267.414108 kJ/mol
# GULP energy per Si atom -5605.617842 kJ/mol
# Density = 2.481236 g / cm^3
# Si number density = 24.868965 Si / 1000 Ang^3
#
#
#
# Elastic Constant Matrix: (Units=GPa)
#
#
# Indices 1 2 3 4 5 6 
#
# 1 106.8445 63.6791 47.5500 13.6754 -3.1894 28.6687
# 2 63.6791 170.9100 64.1463 4.2724 0.4814 0.8657
# 3 47.5500 64.1463 185.4850 8.4170 2.1161 5.4831
# 4 13.6754 4.2724 8.4170 21.5764 7.9758 4.0025
# 5 -3.1894 0.4814 2.1161 7.9758 44.1556 2.7925
# 6 28.6687 0.8657 5.4831 4.0025 2.7925 54.4135
#
#
#
# Elastic Compliance Matrix: (Units=1/GPa)
#
#
# Indices 1 2 3 4 5 6 
#
# 1 0.016700 -0.005276 -0.001868 -0.008576 0.003413 -0.008071
# 2 -0.005276 0.008396 -0.001720 0.002205 -0.000960 0.002706
# 3 -0.001868 -0.001720 0.006500 -0.000991 -0.000277 0.000444
# 4 -0.008576 0.002205 -0.000991 0.055487 -0.010685 0.001050
# 5 0.003413 -0.000960 -0.000277 -0.010685 0.024990 -0.002251
# 6 -0.008071 0.002706 0.000444 0.001050 -0.002251 0.022581
#
#
# Mechanical properties :
#
#
# Convention : Reuss Voigt Hill
#
# Bulk Modulus (GPa) = 72.10477 90.44337 81.27407
# Shear Modulus (GPa) = 31.84625 43.22003 37.53314
#
# Velocity S-wave (km/s) = 3.58238 4.17335 3.88910
# Velocity P-wave (km/s) = 6.79471 7.72459 7.27452
#
# Compressibility (1/GPa) = 0.01386871
#
# Stress axis : x y z
#
# Youngs Moduli (GPa) = 59.88039 119.10158 153.84410
#
# Poissons Ratio (x) = 0.62832 0.28736
# Poissons Ratio (y) = 0.31590 0.26467
# Poissons Ratio (z) = 0.11185 0.20490
#
# Static dielectric constant tensor:
#      x y z
#    x 2.045340 0.116290 -0.074120 
#    y 0.116290 2.085280 -0.095160 
#    z -0.074120 -0.095160 1.968940 
# 
# From -- ./inp_files/173189.got.cif
#   From: 2010.05.17/outbox.cif.g08.bks.cpg/sg2_87_cif.got.tgz:173189.got - 2010.06.03 11:33:40.
