data_PCOD9069721
_publ_section_title
;
Structure prediction by ZEFSAII (Michael W. Deem and Ramdas Pophale) SiO2 
 PCOD9069721
Probable space group: P -1
;
_chemical_formula_sum "Si O2"
_cell_formula_units_Z 16
_cell_length_a 16.685823
_cell_length_b 19.592831
_cell_length_c 8.836156
_cell_angle_alpha 38.172790
_cell_angle_beta 41.077513
_cell_angle_gamma 21.223230
_cell_volume 643.447676
_symmetry_space_group_name_H-M "P -1"
_symmetry_group_IT_number 2
_symmetry_cell_setting 'triclinic'
loop_
_space_group_symop_operation_xyz
x,y,z
-x,-y,-z
loop_
_atom_site_type_symbol
_atom_site_label
_atom_site_fract_x
_atom_site_fract_y
_atom_site_fract_z
Si Si1 0.037755 0.841500 0.205805
Si Si2 0.458586 0.159119 0.828857
Si Si3 0.531164 0.218477 0.308482
Si Si4 0.278819 0.228713 0.468932
Si Si5 0.897243 0.798252 0.982982
Si Si6 0.839324 0.537276 0.031744
Si Si7 0.582331 0.522592 0.473134
Si Si8 0.725989 0.366225 0.090524
O O1 0.190325 0.682299 0.403599
O O2 0.159837 0.727910 0.071157
O O3 0.783394 0.991552 0.306539
O O4 0.000000 0.000000 0.000000
O O5 0.486235 0.216783 0.546516
O O6 0.225578 0.363510 0.885915
O O7 0.500000 0.000000 0.000000
O O8 0.658347 0.029922 0.886691
O O9 0.360310 0.276387 0.353979
O O10 0.466765 0.394310 0.064205
O O11 0.138125 0.262443 0.725595
O O12 0.500000 0.000000 0.500000
O O13 0.160851 0.358512 0.260768
O O14 0.086301 0.737594 0.876751
O O15 0.966132 0.685301 0.926321
O O16 0.636616 0.600547 0.190595
O O17 0.500000 0.500000 0.500000
O O18 0.392088 0.654072 0.643077
#
# Coordination Sequence:
#
# PCOD9069721 Si02
#       8
#     2   2   2   2   2   2   2   2
#     4  12  28  47  75 107 144 194 246 296 366 437
#     4  12  27  47  70 110 149 189 246 309 363 435
#     4  12  25  48  72 106 147 190 242 300 367 435
#     4  12  23  47  76 104 146 192 244 299 359 441
#     4  12  25  47  76 107 143 193 250 291 376 431
#     4  12  26  45  76 105 148 193 243 307 365 435
#     4  12  25  51  75 110 151 190 244 303 367 438
#     4  12  27  48  76 106 147 198 243 299 367 444
#
# _framework density 24.866046000000001
#
# number of rings (size 3 to 8) (size 9 to 14) (size 15 to 20)
#    0.000    0.000    6.250    3.000    1.750    0.500 
#    0.000    1.250    0.000    0.000    0.000    0.000 
#    0.000    0.000    0.000    0.000    0.000    0.000 
#
# Total GULP energy -89593.813149 kJ/mol
# GULP energy per Si atom -5599.613322 kJ/mol
# Density = 2.480945 g / cm^3
# Si number density = 24.866046 Si / 1000 Ang^3
#
#
#
# Elastic Constant Matrix: (Units=GPa)
#
#
# Indices 1 2 3 4 5 6 
#
# 1 90.8048 40.6001 8.7024 -5.7671 14.6776 0.4505
# 2 40.6001 158.6645 22.3220 24.0141 12.6282 -3.4944
# 3 8.7024 22.3220 113.1921 25.5531 14.9663 -1.7677
# 4 -5.7671 24.0141 25.5531 43.3491 2.0101 5.6939
# 5 14.6776 12.6282 14.9663 2.0101 38.6882 -5.2241
# 6 0.4505 -3.4944 -1.7677 5.6939 -5.2241 47.9991
#
#
#
# Elastic Compliance Matrix: (Units=1/GPa)
#
#
# Indices 1 2 3 4 5 6 
#
# 1 0.013796 -0.003850 -0.000884 0.004871 -0.004086 -0.001465
# 2 -0.003850 0.008155 -0.000036 -0.005124 -0.000765 0.001153
# 3 -0.000884 -0.000036 0.010821 -0.006423 -0.003398 0.000796
# 4 0.004871 -0.005124 -0.006423 0.030902 0.000122 -0.004308
# 5 -0.004086 -0.000765 -0.003398 0.000122 0.029366 0.003039
# 6 -0.001465 0.001153 0.000796 -0.004308 0.003039 0.021803
#
#
# Mechanical properties :
#
#
# Convention : Reuss Voigt Hill
#
# Bulk Modulus (GPa) = 43.04355 56.21226 49.62790
# Shear Modulus (GPa) = 37.84249 45.40974 41.62612
#
# Velocity S-wave (km/s) = 3.90533 4.27801 4.09591
# Velocity P-wave (km/s) = 6.13866 6.85981 6.50923
#
# Compressibility (1/GPa) = 0.02323229
#
# Stress axis : x y z
#
# Youngs Moduli (GPa) = 72.48533 122.62758 92.40945
#
# Poissons Ratio (x) = 0.47213 0.08165
# Poissons Ratio (y) = 0.27908 0.00334
# Poissons Ratio (z) = 0.06405 0.00443
#
# Static dielectric constant tensor:
#      x y z
#    x 2.023850 -0.005670 -0.011200 
#    y -0.005670 1.950950 0.016510 
#    z -0.011200 0.016510 1.920730 
# 
# From -- ./inp_files/338069.got.cif
#   From: 2010.05.17/outbox.cif.g08.bks.cpg/sg2_170_cif.got.tgz:338069.got - 2010.06.03 11:33:40.
