data_PCOD9069409
_publ_section_title
;
Structure prediction by ZEFSAII (Michael W. Deem and Ramdas Pophale) SiO2 
 PCOD9069409
Probable space group: P -1
;
_chemical_formula_sum "Si O2"
_cell_formula_units_Z 16
_cell_length_a 9.058428
_cell_length_b 8.524589
_cell_length_c 18.012944
_cell_angle_alpha 62.965707
_cell_angle_beta 101.907603
_cell_angle_gamma 50.327774
_cell_volume 657.647229
_symmetry_space_group_name_H-M "P -1"
_symmetry_group_IT_number 2
_symmetry_cell_setting 'triclinic'
loop_
_space_group_symop_operation_xyz
x,y,z
-x,-y,-z
loop_
_atom_site_type_symbol
_atom_site_label
_atom_site_fract_x
_atom_site_fract_y
_atom_site_fract_z
Si Si1 0.641983 0.109113 0.333599
Si Si2 0.707939 0.304330 0.731857
Si Si3 0.296165 0.283219 0.476053
Si Si4 0.311615 0.161837 0.735858
Si Si5 0.752146 0.108999 0.932442
Si Si6 0.293607 0.622978 0.888977
Si Si7 0.740099 0.440904 0.459010
Si Si8 0.226642 0.290600 0.003065
O O1 0.390724 0.434877 0.284466
O O2 0.734566 0.836163 0.439533
O O3 0.559112 0.121216 0.240942
O O4 0.935230 0.926125 0.413679
O O5 0.728073 0.137134 0.834877
O O6 0.454693 0.515580 0.604931
O O7 0.002065 0.010646 0.783991
O O8 0.370779 0.378531 0.512341
O O9 0.002728 0.591687 0.339891
O O10 0.500000 0.000000 0.500000
O O11 0.297411 0.361014 0.647018
O O12 0.475977 0.015380 0.860008
O O13 0.470388 0.454309 0.867642
O O14 0.806770 0.854201 0.017519
O O15 0.000000 0.000000 0.000000
O O16 0.500000 0.500000 0.000000
O O17 0.218810 0.489714 0.922333
O O18 0.000000 0.500000 0.000000
#
# Coordination Sequence:
#
# PCOD9069409 Si02
#       8
#     2   2   2   2   2   2   2   2
#     4   9  21  36  65  90 125 174 215 267 337 401
#     4  12  23  43  68  93 137 177 219 280 338 397
#     4   9  19  38  60  92 133 160 216 281 320 399
#     4   9  19  37  64  90 120 175 217 261 336 401
#     4  12  26  48  68  96 138 181 227 289 338 395
#     4  12  27  45  66 103 138 173 234 281 331 415
#     4   9  18  41  62  93 125 169 223 264 333 402
#     4  12  23  43  72  98 133 180 225 279 342 401
#
# _framework density 24.329153000000002
#
# number of rings (size 3 to 8) (size 9 to 14) (size 15 to 20)
#    0.000    1.500    3.750    2.250    3.500    2.000 
#    2.250    0.625    0.000    0.000    0.000    0.000 
#    0.000    0.000    0.000    0.000    0.000    0.000 
#
# Total GULP energy -89431.151912 kJ/mol
# GULP energy per Si atom -5589.446995 kJ/mol
# Density = 2.427378 g / cm^3
# Si number density = 24.329153 Si / 1000 Ang^3
#
#
#
# Elastic Constant Matrix: (Units=GPa)
#
#
# Indices 1 2 3 4 5 6 
#
# 1 100.4102 35.2894 30.9693 -5.2719 -5.7336 9.0415
# 2 35.2894 136.4681 22.3390 -31.8808 24.3135 -5.6322
# 3 30.9693 22.3390 63.5327 -4.9830 5.1290 8.6877
# 4 -5.2719 -31.8808 -4.9830 40.4962 12.7061 1.1959
# 5 -5.7336 24.3135 5.1290 12.7061 37.1973 0.4888
# 6 9.0415 -5.6322 8.6877 1.1959 0.4888 41.4737
#
#
#
# Elastic Compliance Matrix: (Units=1/GPa)
#
#
# Indices 1 2 3 4 5 6 
#
# 1 0.014228 -0.005928 -0.005712 -0.006274 0.009033 -0.002636
# 2 -0.005928 0.016220 -0.000505 0.017297 -0.017398 0.003307
# 3 -0.005712 -0.000505 0.019650 0.002660 -0.004130 -0.002967
# 4 -0.006274 0.017297 0.002660 0.046742 -0.028635 0.002149
# 5 0.009033 -0.017398 -0.004130 -0.028635 0.050041 -0.003231
# 6 -0.002636 0.003307 -0.002967 0.002149 -0.003231 0.025733
#
#
# Mechanical properties :
#
#
# Convention : Reuss Voigt Hill
#
# Bulk Modulus (GPa) = 38.74722 53.06737 45.90730
# Shear Modulus (GPa) = 24.33011 37.95432 31.14221
#
# Velocity S-wave (km/s) = 3.16577 3.95401 3.58164
# Velocity P-wave (km/s) = 5.41513 6.53492 6.00120
#
# Compressibility (1/GPa) = 0.02580830
#
# Stress axis : x y z
#
# Youngs Moduli (GPa) = 70.28353 61.65140 50.89177
#
# Poissons Ratio (x) = 0.36547 0.29069
# Poissons Ratio (y) = 0.41665 0.02568
# Poissons Ratio (z) = 0.40146 0.03111
#
# Static dielectric constant tensor:
#      x y z
#    x 2.034600 -0.014370 -0.059370 
#    y -0.014370 1.940710 0.004710 
#    z -0.059370 0.004710 1.941700 
# 
# From -- ./inp_files/587907.got.cif
#   From: 2010.05.17/outbox.cif.g08.bks.cpg/sg2_294_cif.got.tgz:587907.got - 2010.06.03 11:33:40.
