data_PCOD9069428
_publ_section_title
;
Structure prediction by ZEFSAII (Michael W. Deem and Ramdas Pophale) SiO2 
 PCOD9069428
Probable space group: P -1
;
_chemical_formula_sum "Si O2"
_cell_formula_units_Z 15
_cell_length_a 11.465151
_cell_length_b 8.938092
_cell_length_c 12.355019
_cell_angle_alpha 50.749052
_cell_angle_beta 140.940388
_cell_angle_gamma 115.919587
_cell_volume 613.985030
_symmetry_space_group_name_H-M "P -1"
_symmetry_group_IT_number 2
_symmetry_cell_setting 'triclinic'
loop_
_space_group_symop_operation_xyz
x,y,z
-x,-y,-z
loop_
_atom_site_type_symbol
_atom_site_label
_atom_site_fract_x
_atom_site_fract_y
_atom_site_fract_z
Si Si1 0.413935 0.723774 0.335955
Si Si2 0.759991 0.706417 0.086339
Si Si3 0.780528 0.631402 0.379302
Si Si4 0.617576 0.076724 0.356900
Si Si5 0.220979 0.801311 0.385018
Si Si6 0.613701 0.182594 0.966368
Si Si7 0.000000 0.000000 0.000000
Si Si8 0.877626 0.262572 0.312652
O O1 0.500000 0.500000 0.500000
O O2 0.258152 0.775035 0.293711
O O3 0.332226 0.803097 0.126499
O O4 0.575400 0.857071 0.419168
O O5 0.808101 0.721367 0.241123
O O6 0.787838 0.480552 0.177559
O O7 0.545300 0.793956 0.882923
O O8 0.871977 0.827810 0.028811
O O9 0.841196 0.401188 0.528744
O O10 0.559387 0.647156 0.230843
O O11 0.902107 0.726702 0.514065
O O12 0.612846 0.154594 0.439745
O O13 0.808190 0.121107 0.418758
O O14 0.084630 0.997066 0.187878
O O15 0.782624 0.204830 0.159147
O O16 0.500000 0.000000 0.000000
#
# Coordination Sequence:
#
# PCOD9069428 Si02
#       8
#     2   2   2   2   2   2   1   2
#     4  12  26  45  71 101 146 192 238 298 357 423
#     4  12  23  43  72 109 146 179 237 305 362 426
#     4  12  24  46  74 104 145 188 239 300 359 430
#     4  12  24  45  75 107 140 191 244 297 368 425
#     4  12  25  47  71 106 145 188 240 303 364 423
#     4  12  26  48  68 100 146 195 242 289 353 441
#     4  12  26  40  68 106 150 176 228 310 358 416
#     4  12  24  42  76 108 135 189 243 295 359 429
#
# _framework density 24.430564
#
# number of rings (size 3 to 8) (size 9 to 14) (size 15 to 20)
#    0.000    0.000    8.000    2.800    0.000    0.533 
#    0.000    0.667    0.000    0.000    0.000    0.000 
#    0.000    0.000    0.000    0.000    0.000    0.000 
#
# Total GULP energy -83666.424100 kJ/mol
# GULP energy per Si atom -5577.761607 kJ/mol
# Density = 2.437496 g / cm^3
# Si number density = 24.430564 Si / 1000 Ang^3
#
#
#
# Elastic Constant Matrix: (Units=GPa)
#
#
# Indices 1 2 3 4 5 6 
#
# 1 92.1112 29.6254 32.2907 9.7101 -24.2614 6.1286
# 2 29.6254 144.8193 54.2231 13.2524 -18.5405 11.0003
# 3 32.2907 54.2231 145.9795 23.0798 -33.5746 -0.1602
# 4 9.7101 13.2524 23.0798 55.6962 -5.3241 -6.5650
# 5 -24.2614 -18.5405 -33.5746 -5.3241 40.4781 -2.9333
# 6 6.1286 11.0003 -0.1602 -6.5650 -2.9333 37.9491
#
#
#
# Elastic Compliance Matrix: (Units=1/GPa)
#
#
# Indices 1 2 3 4 5 6 
#
# 1 0.013539 -0.001416 -0.000763 -0.001256 0.006560 -0.001489
# 2 -0.001416 0.008496 -0.002552 -0.000935 0.000632 -0.002358
# 3 -0.000763 -0.002552 0.009818 -0.002622 0.006240 0.000933
# 4 -0.001256 -0.000935 -0.002622 0.019894 -0.000458 0.003869
# 5 0.006560 0.000632 0.006240 -0.000458 0.034139 0.001343
# 6 -0.001489 -0.002358 0.000933 0.003869 0.001343 0.028052
#
#
# Mechanical properties :
#
#
# Convention : Reuss Voigt Hill
#
# Bulk Modulus (GPa) = 44.66252 68.35427 56.50840
# Shear Modulus (GPa) = 38.20788 44.60939 41.40863
#
# Velocity S-wave (km/s) = 3.95896 4.27777 4.12145
# Velocity P-wave (km/s) = 6.26250 7.24146 6.76970
#
# Compressibility (1/GPa) = 0.02239014
#
# Stress axis : x y z
#
# Youngs Moduli (GPa) = 73.86219 117.70438 101.85795
#
# Poissons Ratio (x) = 0.16667 0.07773
# Poissons Ratio (y) = 0.10459 0.25993
# Poissons Ratio (z) = 0.05637 0.30037
#
# Static dielectric constant tensor:
#      x y z
#    x 2.048180 -0.001040 0.045410 
#    y -0.001040 1.924170 0.083230 
#    z 0.045410 0.083230 1.858630 
# 
# From -- ./inp_files/419039.got.cif
#   From: 2010.05.17/outbox.cif.g08.bks.cpg/sg2_210_cif.got.tgz:419039.got - 2010.06.03 11:33:40.
