data_PCOD9069537
_publ_section_title
;
Structure prediction by ZEFSAII (Michael W. Deem and Ramdas Pophale) SiO2 
 PCOD9069537
Probable space group: P -1
;
_chemical_formula_sum "Si O2"
_cell_formula_units_Z 16
_cell_length_a 8.485619
_cell_length_b 9.917912
_cell_length_c 11.494944
_cell_angle_alpha 42.840794
_cell_angle_beta 87.443046
_cell_angle_gamma 79.421635
_cell_volume 640.735960
_symmetry_space_group_name_H-M "P -1"
_symmetry_group_IT_number 2
_symmetry_cell_setting 'triclinic'
loop_
_space_group_symop_operation_xyz
x,y,z
-x,-y,-z
loop_
_atom_site_type_symbol
_atom_site_label
_atom_site_fract_x
_atom_site_fract_y
_atom_site_fract_z
Si Si1 0.360136 0.878942 0.076584
Si Si2 0.506096 0.263948 0.183038
Si Si3 0.771550 0.952454 0.246648
Si Si4 0.087850 0.737001 0.512937
Si Si5 0.996109 0.456961 0.892050
Si Si6 0.670860 0.559349 0.470285
Si Si7 0.760465 0.942590 0.798773
Si Si8 0.654083 0.514451 0.758658
O O1 0.215399 0.960278 0.938110
O O2 0.439710 0.663755 0.148863
O O3 0.500000 0.000000 0.000000
O O4 0.295586 0.892530 0.201132
O O5 0.372893 0.167134 0.182377
O O6 0.460975 0.288078 0.306584
O O7 0.676838 0.124115 0.228721
O O8 0.500000 0.500000 0.000000
O O9 0.656345 0.799034 0.317991
O O10 0.930948 0.827070 0.381805
O O11 0.204161 0.553269 0.556637
O O12 0.953705 0.368069 0.300140
O O13 0.172191 0.931307 0.385070
O O14 0.810745 0.459973 0.867747
O O15 0.000000 0.500000 0.000000
O O16 0.113071 0.233928 0.024822
O O17 0.500000 0.500000 0.500000
O O18 0.728717 0.517859 0.626751
#
# Coordination Sequence:
#
# PCOD9069537 Si02
#       8
#     2   2   2   2   2   2   2   2
#     4  12  23  44  78 116 156 216 279 337 404 490
#     4  12  26  50  77 118 168 219 275 339 411 496
#     4  12  25  45  80 116 163 217 273 341 417 487
#     4  12  28  51  83 124 165 211 283 347 416 493
#     4  12  28  53  80 119 169 222 276 347 420 499
#     4  12  26  49  78 120 163 209 270 344 408 491
#     4  12  26  48  83 119 163 221 280 339 419 494
#     4  12  25  49  76 111 163 208 270 333 411 484
#
# _framework density 24.971285000000002
#
# number of rings (size 3 to 8) (size 9 to 14) (size 15 to 20)
#    0.000    0.000    6.250    3.375    1.750    3.000 
#    0.000    1.250    0.000    0.000    0.000    0.000 
#    0.000    0.000    0.000    0.000    0.000    0.000 
#
# Total GULP energy -89445.020511 kJ/mol
# GULP energy per Si atom -5590.313782 kJ/mol
# Density = 2.491445 g / cm^3
# Si number density = 24.971285 Si / 1000 Ang^3
#
#
#
# Elastic Constant Matrix: (Units=GPa)
#
#
# Indices 1 2 3 4 5 6 
#
# 1 101.8610 61.8736 47.7424 -4.9610 -2.2860 0.2066
# 2 61.8736 160.0516 53.6943 -3.3921 0.8322 1.3064
# 3 47.7424 53.6943 123.4658 0.0672 -5.8130 1.4949
# 4 -4.9610 -3.3921 0.0672 48.1211 -0.9203 2.2016
# 5 -2.2860 0.8322 -5.8130 -0.9203 53.6016 -6.4876
# 6 0.2066 1.3064 1.4949 2.2016 -6.4876 36.3114
#
#
#
# Elastic Compliance Matrix: (Units=1/GPa)
#
#
# Indices 1 2 3 4 5 6 
#
# 1 0.014148 -0.004235 -0.003617 0.001162 0.000322 0.000208
# 2 -0.004235 0.008609 -0.002130 0.000176 -0.000580 -0.000312
# 3 -0.003617 -0.002130 0.010473 -0.000513 0.000991 -0.000126
# 4 0.001162 0.000176 -0.000513 0.020974 0.000203 -0.001227
# 5 0.000322 -0.000580 0.000991 0.000203 0.019201 0.003397
# 6 0.000208 -0.000312 -0.000126 -0.001227 0.003397 0.028236
#
#
# Mechanical properties :
#
#
# Convention : Reuss Voigt Hill
#
# Bulk Modulus (GPa) = 75.38032 79.11099 77.24566
# Shear Modulus (GPa) = 39.67383 42.41137 41.04260
#
# Velocity S-wave (km/s) = 3.99027 4.12564 4.05852
# Velocity P-wave (km/s) = 7.17510 7.37863 7.27757
#
# Compressibility (1/GPa) = 0.01326606
#
# Stress axis : x y z
#
# Youngs Moduli (GPa) = 70.67899 116.15750 95.48400
#
# Poissons Ratio (x) = 0.49190 0.34540
# Poissons Ratio (y) = 0.29931 0.20339
# Poissons Ratio (z) = 0.25567 0.24742
#
# Static dielectric constant tensor:
#      x y z
#    x 2.006950 -0.061520 -0.021840 
#    y -0.061520 2.000090 0.009020 
#    z -0.021840 0.009020 2.368980 
# 
# From -- ./inp_files/419536.got.cif
#   From: 2010.05.17/outbox.cif.g08.bks.cpg/sg2_210_cif.got.tgz:419536.got - 2010.06.03 11:33:40.
