data_PCOD9069026
_publ_section_title
;
Structure prediction by ZEFSAII (Michael W. Deem and Ramdas Pophale) SiO2 
 PCOD9069026
Probable space group: P -1
;
_chemical_formula_sum "Si O2"
_cell_formula_units_Z 14
_cell_length_a 11.955998
_cell_length_b 11.234995
_cell_length_c 13.182225
_cell_angle_alpha 76.969308
_cell_angle_beta 115.833148
_cell_angle_gamma 154.768597
_cell_volume 610.178175
_symmetry_space_group_name_H-M "P -1"
_symmetry_group_IT_number 2
_symmetry_cell_setting 'triclinic'
loop_
_space_group_symop_operation_xyz
x,y,z
-x,-y,-z
loop_
_atom_site_type_symbol
_atom_site_label
_atom_site_fract_x
_atom_site_fract_y
_atom_site_fract_z
Si Si1 0.676125 0.757692 0.809298
Si Si2 0.308004 0.415851 0.517757
Si Si3 0.862591 0.652659 0.889354
Si Si4 0.580171 0.810024 0.383522
Si Si5 0.563487 0.197094 0.019745
Si Si6 0.878995 0.632025 0.219784
Si Si7 0.767689 0.184896 0.500953
O O1 0.468418 0.553095 0.663799
O O2 0.827407 0.761940 0.888161
O O3 0.437445 0.581011 0.836390
O O4 0.905502 0.078696 0.813479
O O5 0.500000 0.500000 0.500000
O O6 0.407647 0.628846 0.458060
O O7 0.927737 0.065566 0.447904
O O8 0.658844 0.449841 0.745930
O O9 0.723329 0.425849 0.953563
O O10 0.222967 0.947119 0.954649
O O11 0.645917 0.012279 0.382693
O O12 0.784994 0.425131 0.160737
O O13 0.500000 0.000000 0.000000
O O14 0.044090 0.742434 0.368865
O O15 0.000000 0.500000 0.500000
O O16 0.500000 0.000000 0.500000
#
# Coordination Sequence:
#
# PCOD9069026 Si02
#       7
#     2   2   2   2   2   2   2
#     4  12  24  45  74 110 146 178 239 293 369 431
#     4  12  22  40  67 108 149 183 211 284 366 431
#     4  12  28  46  76 108 138 192 239 294 356 426
#     4  12  25  42  69 107 145 180 236 285 362 422
#     4  12  30  53  72 100 141 192 249 293 353 422
#     4  12  27  48  74 103 147 190 233 303 358 415
#     4  12  26  43  70 104 143 188 239 292 355 425
#
# _framework density 22.944119000000001
#
# number of rings (size 3 to 8) (size 9 to 14) (size 15 to 20)
#    0.000    0.000    4.286    5.143    6.000    3.429 
#    0.000    0.000    0.000    0.000    0.000    0.000 
#    0.000    0.000    0.000    0.000    0.000    0.000 
#
# Total GULP energy -78325.275858 kJ/mol
# GULP energy per Si atom -5594.662561 kJ/mol
# Density = 2.289190 g / cm^3
# Si number density = 22.944119 Si / 1000 Ang^3
#
#
#
# Elastic Constant Matrix: (Units=GPa)
#
#
# Indices 1 2 3 4 5 6 
#
# 1 118.4864 -2.3970 10.0812 20.9091 -3.2806 -5.7476
# 2 -2.3970 124.6757 11.1689 17.0675 23.2514 3.9319
# 3 10.0812 11.1689 75.6853 14.4152 -11.8655 -1.5683
# 4 20.9091 17.0675 14.4152 35.9795 -3.7530 4.2354
# 5 -3.2806 23.2514 -11.8655 -3.7530 43.8733 9.9313
# 6 -5.7476 3.9319 -1.5683 4.2354 9.9313 48.4451
#
#
#
# Elastic Compliance Matrix: (Units=1/GPa)
#
#
# Indices 1 2 3 4 5 6 
#
# 1 0.009679 0.001215 -0.000371 -0.006365 -0.000971 0.001793
# 2 0.001215 0.010127 -0.001559 -0.005684 -0.006430 0.001087
# 3 -0.000371 -0.001559 0.015075 -0.004625 0.004466 0.000059
# 4 -0.006365 -0.005684 -0.004625 0.037191 0.005561 -0.004835
# 5 -0.000971 -0.006430 0.004466 0.005561 0.029150 -0.005911
# 6 0.001793 0.001087 0.000059 -0.004835 -0.005911 0.022403
#
#
# Mechanical properties :
#
#
# Convention : Reuss Voigt Hill
#
# Bulk Modulus (GPa) = 29.89533 39.61706 34.75620
# Shear Modulus (GPa) = 36.70930 45.65920 41.18425
#
# Velocity S-wave (km/s) = 4.00427 4.46580 4.24132
# Velocity P-wave (km/s) = 5.86829 6.62536 6.25828
#
# Compressibility (1/GPa) = 0.03345004
#
# Stress axis : x y z
#
# Youngs Moduli (GPa) = 103.31309 98.74726 66.33691
#
# Poissons Ratio (x) = -0.12001 0.02464
# Poissons Ratio (y) = -0.12555 0.10344
# Poissons Ratio (z) = 0.03837 0.15397
#
# Static dielectric constant tensor:
#      x y z
#    x 1.929200 -0.092120 0.001330 
#    y -0.092120 1.878910 -0.012010 
#    z 0.001330 -0.012010 1.880990 
# 
# From -- ./inp_files/68704.got.cif
#   From: 2010.05.17/outbox.cif.g08.bks.cpg/sg2_35_cif.got.tgz:68704.got - 2010.06.03 11:33:40.
