data_PCOD9069384
_publ_section_title
;
Structure prediction by ZEFSAII (Michael W. Deem and Ramdas Pophale) SiO2 
 PCOD9069384
Probable space group: P -1
;
_chemical_formula_sum "Si O2"
_cell_formula_units_Z 14
_cell_length_a 9.573637
_cell_length_b 16.029670
_cell_length_c 9.045463
_cell_angle_alpha 141.382035
_cell_angle_beta 103.689682
_cell_angle_gamma 54.910973
_cell_volume 644.643783
_symmetry_space_group_name_H-M "P -1"
_symmetry_group_IT_number 2
_symmetry_cell_setting 'triclinic'
loop_
_space_group_symop_operation_xyz
x,y,z
-x,-y,-z
loop_
_atom_site_type_symbol
_atom_site_label
_atom_site_fract_x
_atom_site_fract_y
_atom_site_fract_z
Si Si1 0.167526 0.420009 0.319362
Si Si2 0.375484 0.512050 0.115750
Si Si3 0.487765 0.630129 0.571075
Si Si4 0.362060 0.034607 0.881330
Si Si5 0.013056 0.330133 0.663870
Si Si6 0.582644 0.818441 0.353745
Si Si7 0.161291 0.012512 0.050631
O O1 0.308839 0.427802 0.459213
O O2 0.000000 0.500000 0.500000
O O3 0.094524 0.527744 0.298712
O O4 0.270415 0.218519 0.037902
O O5 0.400636 0.613686 0.383560
O O6 0.149332 0.625355 0.204332
O O7 0.500000 0.500000 0.000000
O O8 0.448803 0.315777 0.897883
O O9 0.500000 0.500000 0.500000
O O10 0.353708 0.822613 0.869508
O O11 0.483328 0.883429 0.581137
O O12 0.199419 0.051916 0.952254
O O13 0.500000 0.000000 0.000000
O O14 0.191231 0.299130 0.735619
O O15 0.111845 0.151388 0.351227
O O16 0.500000 0.000000 0.500000
O O17 0.000000 0.000000 0.000000
#
# Coordination Sequence:
#
# PCOD9069384 Si02
#       7
#     2   2   2   2   2   2   2
#     4  12  23  42  76 113 136 182 248 301 355 422
#     4  12  28  47  71 107 152 194 232 301 371 435
#     4  12  25  45  73 105 144 186 245 300 360 420
#     4  12  23  44  76 104 138 188 246 297 344 428
#     4  12  25  48  74 105 144 197 239 300 364 439
#     4  12  28  51  73 104 152 196 240 296 371 446
#     4  12  23  42  73 107 140 179 244 306 350 407
#
# _framework density 21.717420000000001
#
# number of rings (size 3 to 8) (size 9 to 14) (size 15 to 20)
#    0.000    0.000    7.143    2.143    4.000    0.000 
#    0.000    0.714    0.000    0.000    0.000    0.000 
#    0.000    0.000    0.000    0.000    0.000    0.000 
#
# Total GULP energy -78202.952608 kJ/mol
# GULP energy per Si atom -5585.925186 kJ/mol
# Density = 2.166799 g / cm^3
# Si number density = 21.717420 Si / 1000 Ang^3
#
#
#
# Elastic Constant Matrix: (Units=GPa)
#
#
# Indices 1 2 3 4 5 6 
#
# 1 196.8168 28.5146 42.1167 3.2077 -7.9590 -5.2338
# 2 28.5146 62.1801 26.0004 26.2098 6.7541 -1.0725
# 3 42.1167 26.0004 128.5505 15.0250 -5.4835 4.7111
# 4 3.2077 26.2098 15.0250 37.3320 10.0147 0.6221
# 5 -7.9590 6.7541 -5.4835 10.0147 40.1725 0.3318
# 6 -5.2338 -1.0725 4.7111 0.6221 0.3318 35.6109
#
#
#
# Elastic Compliance Matrix: (Units=1/GPa)
#
#
# Indices 1 2 3 4 5 6 
#
# 1 0.005870 -0.002938 -0.001545 0.001906 0.000963 0.000936
# 2 -0.002938 0.025460 -0.002352 -0.016395 -0.001104 0.000943
# 3 -0.001545 -0.002352 0.009181 -0.002410 0.001956 -0.001489
# 4 0.001906 -0.016395 -0.002410 0.041108 -0.007438 -0.000544
# 5 0.000963 -0.001104 0.001956 -0.007438 0.027393 -0.000276
# 6 0.000936 0.000943 -0.001489 -0.000544 -0.000276 0.028456
#
#
# Mechanical properties :
#
#
# Convention : Reuss Voigt Hill
#
# Bulk Modulus (GPa) = 37.25690 64.53452 50.89571
# Shear Modulus (GPa) = 31.23342 42.01745 36.62544
#
# Velocity S-wave (km/s) = 3.79644 4.40333 4.11110
# Velocity P-wave (km/s) = 6.03406 7.45872 6.78389
#
# Compressibility (1/GPa) = 0.02684066
#
# Stress axis : x y z
#
# Youngs Moduli (GPa) = 170.36197 39.27703 108.92361
#
# Poissons Ratio (x) = 0.11538 0.16828
# Poissons Ratio (y) = 0.50046 0.25624
# Poissons Ratio (z) = 0.26320 0.09240
#
# Static dielectric constant tensor:
#      x y z
#    x 1.897950 0.063040 -0.084670 
#    y 0.063040 1.796180 -0.011360 
#    z -0.084670 -0.011360 1.915160 
# 
# From -- ./inp_files/209412.got.cif
#   From: 2010.05.17/outbox.cif.g08.bks.cpg/sg2_105_cif.got.tgz:209412.got - 2010.06.03 11:33:40.
