data_PCOD9069595
_publ_section_title
;
Structure prediction by ZEFSAII (Michael W. Deem and Ramdas Pophale) SiO2 
 PCOD9069595
Probable space group: P -1
;
_chemical_formula_sum "Si O2"
_cell_formula_units_Z 12
_cell_length_a 5.110771
_cell_length_b 11.928825
_cell_length_c 9.068397
_cell_angle_alpha 96.062621
_cell_angle_beta 58.605894
_cell_angle_gamma 99.857351
_cell_volume 464.867334
_symmetry_space_group_name_H-M "P -1"
_symmetry_group_IT_number 2
_symmetry_cell_setting 'triclinic'
loop_
_space_group_symop_operation_xyz
x,y,z
-x,-y,-z
loop_
_atom_site_type_symbol
_atom_site_label
_atom_site_fract_x
_atom_site_fract_y
_atom_site_fract_z
Si Si1 0.848493 0.204821 0.731810
Si Si2 0.081101 0.372954 0.925274
Si Si3 0.683236 0.953450 0.297951
Si Si4 0.342515 0.262884 0.349412
Si Si5 0.364303 0.506326 0.377652
Si Si6 0.037985 0.809206 0.808866
O O1 0.542257 0.134262 0.746081
O O2 0.850507 0.304719 0.864458
O O3 0.045929 0.111904 0.730194
O O4 0.059556 0.258384 0.542791
O O5 0.424722 0.394456 0.755497
O O6 0.000000 0.500000 0.000000
O O7 0.074362 0.285029 0.049822
O O8 0.500000 0.000000 0.500000
O O9 0.825090 0.062396 0.175508
O O10 0.411120 0.386581 0.274549
O O11 0.644792 0.237393 0.343342
O O12 0.216207 0.182410 0.241019
O O13 0.500000 0.500000 0.500000
O O14 0.000000 0.500000 0.500000
#
# Coordination Sequence:
#
# PCOD9069595 Si02
#       6
#     2   2   2   2   2   2
#     4  12  26  46  81 114 151 207 264 312 384 474
#     4  12  30  54  75 120 165 208 255 331 397 460
#     4  12  24  47  81 115 151 201 266 322 381 463
#     4  12  23  45  76 113 146 204 261 314 379 465
#     4  12  27  47  79 109 147 206 268 315 380 471
#     4  12  27  46  79 114 158 199 254 326 397 453
#
# _framework density 25.813817
#
# number of rings (size 3 to 8) (size 9 to 14) (size 15 to 20)
#    0.000    0.000    6.667    2.500    2.333    4.667 
#    0.000    0.000    0.000    0.000    0.000    0.000 
#    0.000    0.000    0.000    0.000    0.000    0.000 
#
# Total GULP energy -67234.632078 kJ/mol
# GULP energy per Si atom -5602.886007 kJ/mol
# Density = 2.575506 g / cm^3
# Si number density = 25.813817 Si / 1000 Ang^3
#
#
#
# Elastic Constant Matrix: (Units=GPa)
#
#
# Indices 1 2 3 4 5 6 
#
# 1 155.0666 45.5555 32.9041 -0.4878 5.0250 15.3411
# 2 45.5555 195.2791 63.4129 -11.7110 0.9499 10.6431
# 3 32.9041 63.4129 108.3436 -9.1787 5.5865 6.2667
# 4 -0.4878 -11.7110 -9.1787 56.0696 3.8286 5.7793
# 5 5.0250 0.9499 5.5865 3.8286 37.2896 2.1140
# 6 15.3411 10.6431 6.2667 5.7793 2.1140 43.6928
#
#
#
# Elastic Compliance Matrix: (Units=1/GPa)
#
#
# Indices 1 2 3 4 5 6 
#
# 1 0.007305 -0.001140 -0.001415 -0.000155 -0.000612 -0.002034
# 2 -0.001140 0.006591 -0.003412 0.000865 0.000456 -0.000852
# 3 -0.001415 -0.003412 0.011885 0.001381 -0.001617 -0.000481
# 4 -0.000155 0.000865 0.001381 0.018656 -0.001969 -0.002727
# 5 -0.000612 0.000456 -0.001617 -0.001969 0.027374 -0.000728
# 6 -0.002034 -0.000852 -0.000481 -0.002727 -0.000728 0.024274
#
#
# Mechanical properties :
#
#
# Convention : Reuss Voigt Hill
#
# Bulk Modulus (GPa) = 72.22462 82.49271 77.35866
# Shear Modulus (GPa) = 44.39149 48.53153 46.46151
#
# Velocity S-wave (km/s) = 4.15140 4.34067 4.24709
# Velocity P-wave (km/s) = 7.14273 7.55963 7.35414
#
# Compressibility (1/GPa) = 0.01384569
#
# Stress axis : x y z
#
# Youngs Moduli (GPa) = 136.90013 151.72138 84.13875
#
# Poissons Ratio (x) = 0.17296 0.11906
# Poissons Ratio (y) = 0.15606 0.28712
# Poissons Ratio (z) = 0.19373 0.51774
#
# Static dielectric constant tensor:
#      x y z
#    x 2.025050 -0.019480 -0.036550 
#    y -0.019480 2.046160 0.028310 
#    z -0.036550 0.028310 2.076180 
# 
# From -- ./inp_files/131709.got.cif
#   From: 2010.05.17/outbox.cif.g08.bks.cpg/sg2_66_cif.got.tgz:131709.got - 2010.06.03 11:33:40.
