data_PCOD9069055
_publ_section_title
;
Structure prediction by ZEFSAII (Michael W. Deem and Ramdas Pophale) SiO2 
 PCOD9069055
Probable space group: P -1
;
_chemical_formula_sum "Si O2"
_cell_formula_units_Z 16
_cell_length_a 15.888163
_cell_length_b 16.551643
_cell_length_c 16.135747
_cell_angle_alpha 17.477960
_cell_angle_beta 34.411283
_cell_angle_gamma 32.258071
_cell_volume 675.713837
_symmetry_space_group_name_H-M "P -1"
_symmetry_group_IT_number 2
_symmetry_cell_setting 'triclinic'
loop_
_space_group_symop_operation_xyz
x,y,z
-x,-y,-z
loop_
_atom_site_type_symbol
_atom_site_label
_atom_site_fract_x
_atom_site_fract_y
_atom_site_fract_z
Si Si1 0.566586 0.610518 0.543461
Si Si2 0.993329 0.522584 0.780428
Si Si3 0.335180 0.907858 0.299089
Si Si4 0.202201 0.878097 0.263654
Si Si5 0.816919 0.125335 0.054907
Si Si6 0.464532 0.817797 0.892007
Si Si7 0.841014 0.472352 0.117312
Si Si8 0.239097 0.311358 0.343856
O O1 0.486655 0.731875 0.401737
O O2 0.721068 0.342116 0.656666
O O3 0.575668 0.882855 0.319303
O O4 0.475211 0.453049 0.829561
O O5 0.066964 0.756571 0.523492
O O6 0.903928 0.627775 0.664827
O O7 0.869332 0.488157 0.981700
O O8 0.127132 0.207223 0.975342
O O9 0.323916 0.859024 0.258421
O O10 0.199013 0.802753 0.553085
O O11 0.296798 0.243069 0.017808
O O12 0.694319 0.191901 0.013320
O O13 0.773214 0.907987 0.362840
O O14 0.783498 0.403118 0.866443
O O15 0.000000 0.000000 0.000000
O O16 0.598182 0.792101 0.739489
O O17 0.000000 0.500000 0.000000
#
# Coordination Sequence:
#
# PCOD9069055 Si02
#       8
#     2   2   2   2   2   2   2   2
#     4  12  27  44  72 101 145 188 249 289 358 429
#     4  12  25  40  69 101 142 185 240 291 355 408
#     4  12  23  43  66  97 140 193 243 291 357 408
#     4  12  25  42  64 100 145 193 233 303 345 412
#     4  12  28  49  81 112 146 182 229 299 369 442
#     4  12  27  51  76 107 145 190 237 300 362 428
#     4  12  22  41  65  99 135 186 241 299 347 413
#     4  12  26  49  76 111 145 187 240 288 361 440
#
# _framework density 23.678661999999999
#
# number of rings (size 3 to 8) (size 9 to 14) (size 15 to 20)
#    0.000    0.000    2.500    7.875    5.250    0.000 
#    0.000    3.750    0.000    0.000    0.000    0.000 
#    0.000    0.000    0.000    0.000    0.000    0.000 
#
# Total GULP energy -89679.839506 kJ/mol
# GULP energy per Si atom -5604.989969 kJ/mol
# Density = 2.362477 g / cm^3
# Si number density = 23.678662 Si / 1000 Ang^3
#
#
#
# Elastic Constant Matrix: (Units=GPa)
#
#
# Indices 1 2 3 4 5 6 
#
# 1 122.9257 29.2323 5.0540 -14.3027 2.9887 3.2006
# 2 29.2323 99.8530 10.4047 -9.8987 -8.9318 10.3386
# 3 5.0540 10.4047 95.8002 -12.2302 1.3697 8.9137
# 4 -14.3027 -9.8987 -12.2302 46.5531 7.2466 -7.6468
# 5 2.9887 -8.9318 1.3697 7.2466 35.7989 -4.8477
# 6 3.2006 10.3386 8.9137 -7.6468 -4.8477 37.3784
#
#
#
# Elastic Compliance Matrix: (Units=1/GPa)
#
#
# Indices 1 2 3 4 5 6 
#
# 1 0.009095 -0.002611 0.000146 0.002608 -0.001918 0.000193
# 2 -0.002611 0.011400 -0.000850 0.000613 0.002665 -0.002256
# 3 0.000146 -0.000850 0.011076 0.002663 -0.001467 -0.002064
# 4 0.002608 0.000613 0.002663 0.024387 -0.004648 0.003358
# 5 -0.001918 0.002665 -0.001467 -0.004648 0.030126 0.002733
# 6 0.000193 -0.002256 -0.002064 0.003358 0.002733 0.028894
#
#
# Mechanical properties :
#
#
# Convention : Reuss Voigt Hill
#
# Bulk Modulus (GPa) = 40.09443 45.32900 42.71171
# Shear Modulus (GPa) = 38.48428 42.20528 40.34478
#
# Velocity S-wave (km/s) = 4.03584 4.22645 4.13224
# Velocity P-wave (km/s) = 6.21987 6.55760 6.39097
#
# Compressibility (1/GPa) = 0.02494112
#
# Stress axis : x y z
#
# Youngs Moduli (GPa) = 109.95197 87.71604 90.28486
#
# Poissons Ratio (x) = 0.22901 -0.01319
# Poissons Ratio (y) = 0.28707 0.07678
# Poissons Ratio (z) = -0.01607 0.07459
#
# Static dielectric constant tensor:
#      x y z
#    x 1.886560 -0.032290 0.001610 
#    y -0.032290 1.924010 0.056560 
#    z 0.001610 0.056560 1.858720 
# 
# From -- ./inp_files/534006.got.cif
#   From: 2010.05.17/outbox.cif.g08.bks.cpg/sg2_268_cif.got.tgz:534006.got - 2010.06.03 11:33:40.
