data_PCOD9069815
_publ_section_title
;
Structure prediction by ZEFSAII (Michael W. Deem and Ramdas Pophale) SiO2 
 PCOD9069815
Probable space group: P -1
;
_chemical_formula_sum "Si O2"
_cell_formula_units_Z 14
_cell_length_a 6.835620
_cell_length_b 7.402269
_cell_length_c 14.186646
_cell_angle_alpha 90.004602
_cell_angle_beta 132.875134
_cell_angle_gamma 87.720111
_cell_volume 525.280874
_symmetry_space_group_name_H-M "P -1"
_symmetry_group_IT_number 2
_symmetry_cell_setting 'triclinic'
loop_
_space_group_symop_operation_xyz
x,y,z
-x,-y,-z
loop_
_atom_site_type_symbol
_atom_site_label
_atom_site_fract_x
_atom_site_fract_y
_atom_site_fract_z
Si Si1 0.285129 0.822090 0.157576
Si Si2 0.542413 0.739435 0.424633
Si Si3 0.671995 0.316373 0.038642
Si Si4 0.545571 0.133499 0.178373
Si Si5 0.896378 0.320912 0.416964
Si Si6 0.088402 0.554191 0.239197
Si Si7 0.965246 0.158190 0.635519
O O1 0.534795 0.795483 0.312215
O O2 0.320481 0.737434 0.066855
O O3 0.288935 0.036910 0.135574
O O4 0.079666 0.704532 0.150565
O O5 0.401708 0.546027 0.371425
O O6 0.313372 0.863708 0.399804
O O7 0.839215 0.736401 0.557694
O O8 0.542951 0.179613 0.067891
O O9 0.500000 0.500000 0.000000
O O10 0.964267 0.372221 0.168136
O O11 0.802540 0.992247 0.271864
O O12 0.633929 0.305778 0.267883
O O13 0.878581 0.187051 0.499686
O O14 0.000000 0.500000 0.500000
O O15 0.950947 0.655928 0.284124
#
# Coordination Sequence:
#
# PCOD9069815 Si02
#       7
#     2   2   2   2   2   2   2
#     4   9  21  42  65  91 133 172 224 270 326 390
#     4   8  22  41  70  93 135 170 222 265 339 381
#     4  12  24  40  68  95 136 177 222 278 332 391
#     4  12  24  40  68 102 126 181 224 270 339 396
#     4  12  24  41  69  98 142 173 217 275 336 404
#     4   8  20  42  67  92 130 175 221 268 333 393
#     4   9  20  43  65  91 142 161 224 270 327 394
#
# _framework density 26.652405999999999
#
# number of rings (size 3 to 8) (size 9 to 14) (size 15 to 20)
#    1.714    0.000    1.429    3.000    2.000    1.143 
#    2.571    9.286    0.000    0.000    0.000    0.000 
#    0.000    0.000    0.000    0.000    0.000    0.000 
#
# Total GULP energy -78125.707373 kJ/mol
# GULP energy per Si atom -5580.407670 kJ/mol
# Density = 2.659174 g / cm^3
# Si number density = 26.652406 Si / 1000 Ang^3
#
#
#
# Elastic Constant Matrix: (Units=GPa)
#
#
# Indices 1 2 3 4 5 6 
#
# 1 86.7007 21.6610 48.0031 -8.2122 -11.5955 13.7972
# 2 21.6610 63.7388 23.0838 4.1648 -12.8334 10.6603
# 3 48.0031 23.0838 111.5847 19.1815 -11.3460 17.1973
# 4 -8.2122 4.1648 19.1815 43.3411 8.9579 -9.2728
# 5 -11.5955 -12.8334 -11.3460 8.9579 45.0924 -4.6621
# 6 13.7972 10.6603 17.1973 -9.2728 -4.6621 41.1588
#
#
#
# Elastic Compliance Matrix: (Units=1/GPa)
#
#
# Indices 1 2 3 4 5 6 
#
# 1 0.017570 -0.003514 -0.008075 0.007236 0.000052 0.000030
# 2 -0.003514 0.018974 -0.000656 -0.003995 0.004729 -0.003827
# 3 -0.008075 -0.000656 0.015477 -0.010134 0.003073 -0.005525
# 4 0.007236 -0.003995 -0.010134 0.032851 -0.007379 0.009408
# 5 0.000052 0.004729 0.003073 -0.007379 0.025642 -0.001284
# 6 0.000030 -0.003827 -0.005525 0.009408 -0.001284 0.029560
#
#
# Mechanical properties :
#
#
# Convention : Reuss Voigt Hill
#
# Bulk Modulus (GPa) = 36.32226 49.72443 43.02334
# Shear Modulus (GPa) = 28.77821 37.20355 32.99088
#
# Velocity S-wave (km/s) = 3.28954 3.74020 3.52208
# Velocity P-wave (km/s) = 5.29960 6.11141 5.71992
#
# Compressibility (1/GPa) = 0.02753133
#
# Stress axis : x y z
#
# Youngs Moduli (GPa) = 56.91443 52.70333 64.61022
#
# Poissons Ratio (x) = 0.18520 0.52173
# Poissons Ratio (y) = 0.20000 0.04239
# Poissons Ratio (z) = 0.45958 0.03458
#
# Static dielectric constant tensor:
#      x y z
#    x 2.171540 0.013010 0.072450 
#    y 0.013010 2.222380 0.067350 
#    z 0.072450 0.067350 2.134880 
# 
# From -- ./inp_files/554528.got.cif
#   From: 2010.05.17/outbox.cif.g08.bks.cpg/sg2_278_cif.got.tgz:554528.got - 2010.06.03 11:33:40.
