data_PCOD9069028
_publ_section_title
;
Structure prediction by ZEFSAII (Michael W. Deem and Ramdas Pophale) SiO2 
 PCOD9069028
Probable space group: P -1
;
_chemical_formula_sum "Si O2"
_cell_formula_units_Z 16
_cell_length_a 16.737242
_cell_length_b 14.058206
_cell_length_c 17.817121
_cell_angle_alpha 142.401236
_cell_angle_beta 163.983192
_cell_angle_gamma 38.681950
_cell_volume 701.207758
_symmetry_space_group_name_H-M "P -1"
_symmetry_group_IT_number 2
_symmetry_cell_setting 'triclinic'
loop_
_space_group_symop_operation_xyz
x,y,z
-x,-y,-z
loop_
_atom_site_type_symbol
_atom_site_label
_atom_site_fract_x
_atom_site_fract_y
_atom_site_fract_z
Si Si1 0.682108 0.296210 0.466465
Si Si2 0.651522 0.256078 0.587249
Si Si3 0.623479 0.425657 0.931582
Si Si4 0.993477 0.085457 0.308472
Si Si5 0.713780 0.841149 0.091728
Si Si6 0.957359 0.602280 0.850644
Si Si7 0.966753 0.657440 0.618939
Si Si8 0.371177 0.217758 0.851793
O O1 0.625641 0.316613 0.516109
O O2 0.404520 0.258381 0.144939
O O3 0.815356 0.443105 0.641383
O O4 0.943483 0.152524 0.606299
O O5 0.320685 0.266341 0.324214
O O6 0.828356 0.084080 0.640889
O O7 0.836083 0.361242 0.871376
O O8 0.323491 0.355221 0.602376
O O9 0.558405 0.612001 0.004792
O O10 0.848523 0.406762 0.054349
O O11 0.765940 0.346880 0.085634
O O12 0.059008 0.192836 0.364428
O O13 0.645343 0.089260 0.002134
O O14 0.095108 0.172089 0.528794
O O15 0.677780 0.768866 0.095723
O O16 0.500000 0.000000 0.000000
O O17 0.000000 0.500000 0.500000
#
# Coordination Sequence:
#
# PCOD9069028 Si02
#       8
#     2   2   2   2   2   2   2   2
#     4  12  24  43  69  96 132 178 232 266 321 395
#     4  12  26  47  66  97 133 181 228 276 322 384
#     4  12  24  42  68 101 130 168 223 273 329 392
#     4  12  25  42  69  98 136 174 219 275 339 398
#     4  12  24  39  63 103 142 172 210 271 342 402
#     4  12  26  46  69  95 134 181 231 271 317 390
#     4  12  23  42  68 103 132 169 216 272 338 407
#     4  12  22  40  67  97 138 169 211 273 344 396
#
# _framework density 22.817772999999999
#
# number of rings (size 3 to 8) (size 9 to 14) (size 15 to 20)
#    0.000    0.000    3.750    7.500    1.750    0.000 
#    0.000    3.750    0.000    0.000    0.000    0.000 
#    0.000    0.000    0.000    0.000    0.000    0.000 
#
# Total GULP energy -89700.636008 kJ/mol
# GULP energy per Si atom -5606.289750 kJ/mol
# Density = 2.276584 g / cm^3
# Si number density = 22.817773 Si / 1000 Ang^3
#
#
#
# Elastic Constant Matrix: (Units=GPa)
#
#
# Indices 1 2 3 4 5 6 
#
# 1 95.4609 33.5460 0.7271 -7.2867 -1.8840 3.1420
# 2 33.5460 81.8172 -1.3810 -22.2363 -7.6500 1.6666
# 3 0.7271 -1.3810 84.0560 -10.9254 -17.3407 -1.7244
# 4 -7.2867 -22.2363 -10.9254 33.7486 -9.5781 6.0511
# 5 -1.8840 -7.6500 -17.3407 -9.5781 43.6579 -12.8417
# 6 3.1420 1.6666 -1.7244 6.0511 -12.8417 38.0628
#
#
#
# Elastic Compliance Matrix: (Units=1/GPa)
#
#
# Indices 1 2 3 4 5 6 
#
# 1 0.012332 -0.005551 -0.000673 -0.001403 -0.001318 -0.001027
# 2 -0.005551 0.019462 0.004028 0.015219 0.008144 0.000117
# 3 -0.000673 0.004028 0.015248 0.009749 0.009529 0.002235
# 4 -0.001403 0.015219 0.009749 0.047517 0.016263 -0.002176
# 5 -0.001318 0.008144 0.009529 0.016263 0.034329 0.009180
# 6 -0.001027 0.000117 0.002235 -0.002176 0.009180 0.029897
#
#
# Mechanical properties :
#
#
# Convention : Reuss Voigt Hill
#
# Bulk Modulus (GPa) = 23.44687 36.34646 29.89667
# Shear Modulus (GPa) = 28.18614 38.32334 33.25474
#
# Velocity S-wave (km/s) = 3.51846 4.10266 3.82174
# Velocity P-wave (km/s) = 5.17726 6.19726 5.71008
#
# Compressibility (1/GPa) = 0.04264961
#
# Stress axis : x y z
#
# Youngs Moduli (GPa) = 81.08931 51.38312 65.58360
#
# Poissons Ratio (x) = 0.28524 0.04414
# Poissons Ratio (y) = 0.45014 -0.26419
# Poissons Ratio (z) = 0.05458 -0.20699
#
# Static dielectric constant tensor:
#      x y z
#    x 1.831590 -0.012900 0.014240 
#    y -0.012900 1.895260 -0.019170 
#    z 0.014240 -0.019170 1.797310 
# 
# From -- ./inp_files/534482.got.cif
#   From: 2010.05.17/outbox.cif.g08.bks.cpg/sg2_268_cif.got.tgz:534482.got - 2010.06.03 11:33:40.
