data_PCOD9069880
_publ_section_title
;
Structure prediction by ZEFSAII (Michael W. Deem and Ramdas Pophale) SiO2 
 PCOD9069880
Probable space group: P -1
;
_chemical_formula_sum "Si O2"
_cell_formula_units_Z 15
_cell_length_a 9.066418
_cell_length_b 13.015171
_cell_length_c 22.350958
_cell_angle_alpha 29.643813
_cell_angle_beta 35.325164
_cell_angle_gamma 56.323994
_cell_volume 634.565249
_symmetry_space_group_name_H-M "P -1"
_symmetry_group_IT_number 2
_symmetry_cell_setting 'triclinic'
loop_
_space_group_symop_operation_xyz
x,y,z
-x,-y,-z
loop_
_atom_site_type_symbol
_atom_site_label
_atom_site_fract_x
_atom_site_fract_y
_atom_site_fract_z
Si Si1 0.196278 0.959392 0.283400
Si Si2 0.096400 0.225106 0.397666
Si Si3 0.000000 0.500000 0.500000
Si Si4 0.264173 0.662109 0.878395
Si Si5 0.142461 0.358991 0.880037
Si Si6 0.093092 0.688651 0.143171
Si Si7 0.363288 0.077228 0.560042
Si Si8 0.151543 0.896390 0.150582
O O1 0.148907 0.719415 0.388396
O O2 0.044608 0.882603 0.437086
O O3 0.988938 0.034320 0.279391
O O4 0.550102 0.156638 0.068062
O O5 0.461663 0.375493 0.201862
O O6 0.990150 0.404729 0.322589
O O7 0.000000 0.000000 0.500000
O O8 0.973791 0.689613 0.364077
O O9 0.395383 0.946863 0.673199
O O10 0.000000 0.500000 0.000000
O O11 0.116728 0.612887 0.017607
O O12 0.452625 0.625416 0.649678
O O13 0.078346 0.284750 0.869450
O O14 0.142986 0.142202 0.024913
O O15 0.065382 0.775570 0.174093
O O16 0.500000 0.000000 0.500000
O O17 0.500000 0.000000 0.000000
#
# Coordination Sequence:
#
# PCOD9069880 Si02
#       8
#     2   2   1   2   2   2   2   2
#     4  12  25  45  74 108 143 196 250 305 370 447
#     4  12  26  44  71 105 151 196 244 298 374 449
#     4  12  24  48  80 106 140 192 252 310 368 440
#     4  12  24  42  72 108 146 198 252 303 364 442
#     4  12  28  48  73 112 151 196 251 313 374 447
#     4  12  28  47  76 108 155 196 241 315 381 444
#     4  12  24  44  72 104 150 198 249 307 368 437
#     4  12  26  50  78 108 144 195 254 309 377 451
#
# _framework density 23.638231999999999
#
# number of rings (size 3 to 8) (size 9 to 14) (size 15 to 20)
#    0.000    0.000    5.333    4.400    1.867    1.067 
#    0.000    0.667    0.000    0.000    0.000    0.000 
#    0.000    0.000    0.000    0.000    0.000    0.000 
#
# Total GULP energy -83766.229242 kJ/mol
# GULP energy per Si atom -5584.415283 kJ/mol
# Density = 2.358443 g / cm^3
# Si number density = 23.638232 Si / 1000 Ang^3
#
#
#
# Elastic Constant Matrix: (Units=GPa)
#
#
# Indices 1 2 3 4 5 6 
#
# 1 95.2691 27.9563 36.8491 -8.3519 14.8976 18.2439
# 2 27.9563 62.7816 45.0332 -13.8109 -1.2835 23.1752
# 3 36.8491 45.0332 98.7430 -16.8762 9.7334 7.5046
# 4 -8.3519 -13.8109 -16.8762 49.9621 -0.6586 4.5742
# 5 14.8976 -1.2835 9.7334 -0.6586 44.5946 -7.6965
# 6 18.2439 23.1752 7.5046 4.5742 -7.6965 51.8553
#
#
#
# Elastic Compliance Matrix: (Units=1/GPa)
#
#
# Indices 1 2 3 4 5 6 
#
# 1 0.014064 -0.002222 -0.003276 0.000959 -0.004771 -0.004274
# 2 -0.002222 0.030636 -0.011607 0.005246 0.002275 -0.011355
# 3 -0.003276 -0.011607 0.016887 0.001605 -0.002313 0.003412
# 4 0.000959 0.005246 0.001605 0.022618 -0.001060 -0.005067
# 5 -0.004771 0.002275 -0.002313 -0.001060 0.025412 0.004861
# 6 -0.004274 -0.011355 0.003412 -0.005067 0.004861 0.026538
#
#
# Mechanical properties :
#
#
# Convention : Reuss Voigt Hill
#
# Bulk Modulus (GPa) = 36.52868 52.94121 44.73494
# Shear Modulus (GPa) = 27.85671 39.07942 33.46807
#
# Velocity S-wave (km/s) = 3.43659 4.07040 3.76685
# Velocity P-wave (km/s) = 5.58871 6.67353 6.15506
#
# Compressibility (1/GPa) = 0.02737575
#
# Stress axis : x y z
#
# Youngs Moduli (GPa) = 71.10232 32.64153 59.21800
#
# Poissons Ratio (x) = 0.07252 0.19402
# Poissons Ratio (y) = 0.15796 0.68737
# Poissons Ratio (z) = 0.23296 0.37889
#
# Static dielectric constant tensor:
#      x y z
#    x 1.879750 -0.040770 0.002210 
#    y -0.040770 1.906230 0.010530 
#    z 0.002210 0.010530 1.916530 
# 
# From -- ./inp_files/283350.got.cif
#   From: 2010.05.17/outbox.cif.g08.bks.cpg/sg2_142_cif.got.tgz:283350.got - 2010.06.03 11:33:40.
