data_PCOD9069640
_publ_section_title
;
Structure prediction by ZEFSAII (Michael W. Deem and Ramdas Pophale) SiO2 
 PCOD9069640
Probable space group: P -1
;
_chemical_formula_sum "Si O2"
_cell_formula_units_Z 15
_cell_length_a 15.604545
_cell_length_b 12.707039
_cell_length_c 9.068862
_cell_angle_alpha 56.131098
_cell_angle_beta 129.780269
_cell_angle_gamma 151.710954
_cell_volume 654.843756
_symmetry_space_group_name_H-M "P -1"
_symmetry_group_IT_number 2
_symmetry_cell_setting 'triclinic'
loop_
_space_group_symop_operation_xyz
x,y,z
-x,-y,-z
loop_
_atom_site_type_symbol
_atom_site_label
_atom_site_fract_x
_atom_site_fract_y
_atom_site_fract_z
Si Si1 0.572512 0.406795 0.899838
Si Si2 0.500000 0.500000 0.500000
Si Si3 0.441277 0.068242 0.788956
Si Si4 0.258715 0.012329 0.071241
Si Si5 0.016650 0.314407 0.449093
Si Si6 0.928271 0.812964 0.656884
Si Si7 0.006984 0.156335 0.857558
Si Si8 0.339883 0.807488 0.355261
O O1 0.498251 0.471379 0.703570
O O2 0.499919 0.244684 0.814642
O O3 0.800192 0.610931 0.029521
O O4 0.457887 0.257027 0.038058
O O5 0.722376 0.656437 0.620258
O O6 0.208814 0.853384 0.676046
O O7 0.555466 0.169782 0.680482
O O8 0.500000 0.000000 0.000000
O O9 0.257071 0.861396 0.155326
O O10 0.194029 0.973029 0.198714
O O11 0.089528 0.926526 0.864540
O O12 0.076444 0.307405 0.366673
O O13 0.027967 0.219815 0.663055
O O14 0.169090 0.570993 0.433399
O O15 0.000000 0.000000 0.500000
O O16 0.000000 0.000000 0.000000
O O17 0.500000 0.000000 0.500000
#
# Coordination Sequence:
#
# PCOD9069640 Si02
#       8
#     2   1   2   2   2   2   2   2
#     4  12  26  47  76 110 149 195 255 313 365 454
#     4  12  24  40  78 100 146 192 244 308 362 426
#     4  12  26  48  81 113 149 199 256 304 376 447
#     4  12  25  48  76 105 152 195 255 304 376 444
#     4  12  28  48  77 110 151 199 249 310 383 446
#     4  12  23  46  73 110 143 193 250 309 365 443
#     4  12  30  50  74 109 154 201 249 311 386 443
#     4  12  28  49  76 114 155 197 248 315 379 450
#
# _framework density 22.906227999999999
#
# number of rings (size 3 to 8) (size 9 to 14) (size 15 to 20)
#    0.000    0.000    5.333    3.200    3.733    2.667 
#    2.400    0.000    0.000    0.000    0.000    0.000 
#    0.000    0.000    0.000    0.000    0.000    0.000 
#
# Total GULP energy -83734.330341 kJ/mol
# GULP energy per Si atom -5582.288689 kJ/mol
# Density = 2.285409 g / cm^3
# Si number density = 22.906228 Si / 1000 Ang^3
#
#
#
# Elastic Constant Matrix: (Units=GPa)
#
#
# Indices 1 2 3 4 5 6 
#
# 1 96.3293 46.8399 -1.0195 14.6346 0.1674 34.2153
# 2 46.8399 150.2833 35.9203 -4.1471 7.0550 33.4713
# 3 -1.0195 35.9203 95.0887 2.1729 12.9646 15.2772
# 4 14.6346 -4.1471 2.1729 30.5790 4.9185 -6.7617
# 5 0.1674 7.0550 12.9646 4.9185 41.6738 1.0530
# 6 34.2153 33.4713 15.2772 -6.7617 1.0530 31.8881
#
#
#
# Elastic Compliance Matrix: (Units=1/GPa)
#
#
# Indices 1 2 3 4 5 6 
#
# 1 0.027720 -0.003427 0.007407 -0.022139 0.001648 -0.034443
# 2 -0.003427 0.009487 -0.002848 0.002295 -0.000866 -0.004401
# 3 0.007407 -0.002848 0.014365 -0.007448 -0.002801 -0.013327
# 4 -0.022139 0.002295 -0.007448 0.052999 -0.005155 0.036322
# 5 0.001648 -0.000866 -0.002801 -0.005155 0.025652 -0.001458
# 6 -0.034443 -0.004401 -0.013327 0.036322 -0.001458 0.087071
#
#
# Mechanical properties :
#
#
# Convention : Reuss Voigt Hill
#
# Bulk Modulus (GPa) = 18.57493 56.13141 37.35317
# Shear Modulus (GPa) = 21.46141 38.15889 29.81015
#
# Velocity S-wave (km/s) = 3.06424 4.08594 3.61140
# Velocity P-wave (km/s) = 4.54381 6.84236 5.80793
#
# Compressibility (1/GPa) = 0.05383601
#
# Stress axis : x y z
#
# Youngs Moduli (GPa) = 36.07462 105.40503 69.61414
#
# Poissons Ratio (x) = 0.36124 -0.51562
# Poissons Ratio (y) = 0.12363 0.19825
# Poissons Ratio (z) = -0.26720 0.30018
#
# Static dielectric constant tensor:
#      x y z
#    x 1.913980 -0.062120 -0.002830 
#    y -0.062120 1.968290 -0.121640 
#    z -0.002830 -0.121640 1.919570 
# 
# From -- ./inp_files/306833.got.cif
#   From: 2010.05.17/outbox.cif.g08.bks.cpg/sg2_154_cif.got.tgz:306833.got - 2010.06.03 11:33:40.
