data_PCOD9069861
_publ_section_title
;
Structure prediction by ZEFSAII (Michael W. Deem and Ramdas Pophale) SiO2 
 PCOD9069861
Probable space group: P -1
;
_chemical_formula_sum "Si O2"
_cell_formula_units_Z 15
_cell_length_a 8.821693
_cell_length_b 17.106331
_cell_length_c 5.669793
_cell_angle_alpha 98.209608
_cell_angle_beta 54.417594
_cell_angle_gamma 119.307768
_cell_volume 594.489724
_symmetry_space_group_name_H-M "P -1"
_symmetry_group_IT_number 2
_symmetry_cell_setting 'triclinic'
loop_
_space_group_symop_operation_xyz
x,y,z
-x,-y,-z
loop_
_atom_site_type_symbol
_atom_site_label
_atom_site_fract_x
_atom_site_fract_y
_atom_site_fract_z
Si Si1 0.867254 0.963610 0.850563
Si Si2 0.651372 0.460021 0.267236
Si Si3 0.715926 0.654594 0.768388
Si Si4 0.029834 0.422854 0.325185
Si Si5 0.500000 0.000000 0.000000
Si Si6 0.673368 0.290757 0.353260
Si Si7 0.889300 0.197220 0.830591
Si Si8 0.213442 0.202161 0.892512
O O1 0.801749 0.858099 0.895295
O O2 0.000000 0.000000 0.500000
O O3 0.658834 0.974404 0.008023
O O4 0.000000 0.000000 0.000000
O O5 0.500000 0.500000 0.500000
O O6 0.520210 0.391266 0.141025
O O7 0.688406 0.389232 0.353230
O O8 0.870599 0.544986 0.011590
O O9 0.782191 0.578750 0.699753
O O10 0.899177 0.733479 0.476656
O O11 0.728781 0.698394 0.027573
O O12 0.000000 0.500000 0.500000
O O13 0.827435 0.319550 0.457098
O O14 0.295059 0.893950 0.165018
O O15 0.421879 0.216081 0.568765
O O16 0.779467 0.252690 0.058980
O O17 0.994838 0.165857 0.929656
#
# Coordination Sequence:
#
# PCOD9069861 Si02
#       8
#     2   2   2   2   1   2   2   2
#     4  12  30  54  85 123 167 213 277 355 425 507
#     4  12  24  44  73 107 155 205 264 331 401 488
#     4  12  25  47  74 107 158 207 262 332 414 486
#     4  12  24  42  68 114 150 198 268 323 391 488
#     4  12  30  50  88 118 162 214 286 348 430 510
#     4  12  26  46  76 109 154 210 261 329 411 485
#     4  12  27  52  75 117 156 209 275 342 417 503
#     4  12  27  51  76 111 158 211 265 337 422 497
#
# _framework density 25.231722999999999
#
# number of rings (size 3 to 8) (size 9 to 14) (size 15 to 20)
#    0.000    0.000    4.000    5.600    5.600    1.600 
#    0.000    0.000    0.000    0.000    0.000    0.000 
#    0.000    0.000    0.000    0.000    0.000    0.000 
#
# Total GULP energy -83592.222489 kJ/mol
# GULP energy per Si atom -5572.814833 kJ/mol
# Density = 2.517429 g / cm^3
# Si number density = 25.231723 Si / 1000 Ang^3
#
#
#
# Elastic Constant Matrix: (Units=GPa)
#
#
# Indices 1 2 3 4 5 6 
#
# 1 147.5360 24.1956 38.6356 -4.3108 -16.7365 4.4085
# 2 24.1956 78.3180 36.2068 -21.1944 -12.2815 -1.1309
# 3 38.6356 36.2068 109.8308 -3.7102 -20.9425 -9.2872
# 4 -4.3108 -21.1944 -3.7102 34.8722 -4.3594 -1.2925
# 5 -16.7365 -12.2815 -20.9425 -4.3594 32.6456 -7.2058
# 6 4.4085 -1.1309 -9.2872 -1.2925 -7.2058 68.9392
#
#
#
# Elastic Compliance Matrix: (Units=1/GPa)
#
#
# Indices 1 2 3 4 5 6 
#
# 1 0.007750 -0.001025 -0.001994 0.000383 0.002240 -0.000540
# 2 -0.001025 0.019221 -0.004472 0.011794 0.005539 0.000578
# 3 -0.001994 -0.004472 0.012546 -0.000825 0.005748 0.002329
# 4 0.000383 0.011794 -0.000825 0.037047 0.009435 0.001739
# 5 0.002240 0.005539 0.005748 0.009435 0.039931 0.005073
# 6 -0.000540 0.000578 0.002329 0.001739 0.005073 0.015426
#
#
# Mechanical properties :
#
#
# Convention : Reuss Voigt Hill
#
# Bulk Modulus (GPa) = 40.75978 59.30677 50.03328
# Shear Modulus (GPa) = 32.24101 43.06783 37.65442
#
# Velocity S-wave (km/s) = 3.57851 4.13594 3.86728
# Velocity P-wave (km/s) = 5.76745 6.80910 6.30981
#
# Compressibility (1/GPa) = 0.02453399
#
# Stress axis : x y z
#
# Youngs Moduli (GPa) = 129.03725 52.02545 79.70919
#
# Poissons Ratio (x) = 0.05335 0.15891
# Poissons Ratio (y) = 0.13232 0.35648
# Poissons Ratio (z) = 0.25725 0.23267
#
# Static dielectric constant tensor:
#      x y z
#    x 2.039830 -0.001210 0.040170 
#    y -0.001210 2.031220 -0.015360 
#    z 0.040170 -0.015360 2.029080 
# 
# From -- ./inp_files/48115.got.cif
#   From: 2010.05.17/outbox.cif.g08.bks.cpg/sg2_25_cif.got.tgz:48115.got - 2010.06.03 11:33:40.
