data_PCOD9069445
_publ_section_title
;
Structure prediction by ZEFSAII (Michael W. Deem and Ramdas Pophale) SiO2 
 PCOD9069445
Probable space group: P -1
;
_chemical_formula_sum "Si O2"
_cell_formula_units_Z 14
_cell_length_a 9.195667
_cell_length_b 14.680790
_cell_length_c 14.741747
_cell_angle_alpha 29.165197
_cell_angle_beta 129.068694
_cell_angle_gamma 108.721561
_cell_volume 598.829693
_symmetry_space_group_name_H-M "P -1"
_symmetry_group_IT_number 2
_symmetry_cell_setting 'triclinic'
loop_
_space_group_symop_operation_xyz
x,y,z
-x,-y,-z
loop_
_atom_site_type_symbol
_atom_site_label
_atom_site_fract_x
_atom_site_fract_y
_atom_site_fract_z
Si Si1 0.518369 0.493785 0.405573
Si Si2 0.378046 0.138416 0.151836
Si Si3 0.729630 0.975846 0.141348
Si Si4 0.935242 0.422090 0.234037
Si Si5 0.039632 0.258790 0.748478
Si Si6 0.254644 0.748844 0.812696
Si Si7 0.286798 0.382505 0.276499
O O1 0.500000 0.500000 0.500000
O O2 0.788314 0.340376 0.613930
O O3 0.404148 0.379472 0.418980
O O4 0.367209 0.769508 0.081027
O O5 0.545191 0.215580 0.129796
O O6 0.547391 0.870967 0.484571
O O7 0.192289 0.327873 0.986133
O O8 0.235537 0.148370 0.000174
O O9 0.877167 0.778514 0.447552
O O10 0.882423 0.894214 0.179631
O O11 0.500000 0.000000 0.000000
O O12 0.758694 0.362189 0.189111
O O13 0.053410 0.423261 0.186307
O O14 0.000000 0.500000 0.500000
O O15 0.279983 0.575904 0.049320
O O16 0.000000 0.000000 0.500000
#
# Coordination Sequence:
#
# PCOD9069445 Si02
#       7
#     2   2   2   2   2   2   2
#     4  12  26  45  70 113 152 190 246 300 367 440
#     4  12  26  49  75 107 148 189 247 303 363 433
#     4  12  24  43  76 106 148 194 240 299 368 433
#     4  12  26  48  75 108 144 196 247 297 365 437
#     4  12  23  43  74 107 149 194 238 297 369 434
#     4  12  27  52  77 104 144 195 246 305 368 431
#     4  12  28  48  74 108 149 190 245 305 366 431
#
# _framework density 23.378935999999999
#
# number of rings (size 3 to 8) (size 9 to 14) (size 15 to 20)
#    0.000    0.000    4.286    6.000    0.000    4.000 
#    2.571    0.000    0.000    0.000    0.000    0.000 
#    0.000    0.000    0.000    0.000    0.000    0.000 
#
# Total GULP energy -78437.355266 kJ/mol
# GULP energy per Si atom -5602.668233 kJ/mol
# Density = 2.332572 g / cm^3
# Si number density = 23.378936 Si / 1000 Ang^3
#
#
#
# Elastic Constant Matrix: (Units=GPa)
#
#
# Indices 1 2 3 4 5 6 
#
# 1 93.8657 10.9835 44.8914 -4.5798 13.5391 -1.2040
# 2 10.9835 105.3916 21.2723 -14.3758 4.2724 -0.9500
# 3 44.8914 21.2723 127.0911 -41.3263 -1.5898 -18.8120
# 4 -4.5798 -14.3758 -41.3263 40.9437 2.8122 -0.5862
# 5 13.5391 4.2724 -1.5898 2.8122 34.3341 2.2432
# 6 -1.2040 -0.9500 -18.8120 -0.5862 2.2432 38.4141
#
#
#
# Elastic Compliance Matrix: (Units=1/GPa)
#
#
# Indices 1 2 3 4 5 6 
#
# 1 0.014787 -0.000624 -0.007530 -0.005836 -0.005427 -0.003012
# 2 -0.000624 0.010125 -0.000459 0.003113 -0.001298 0.000129
# 3 -0.007530 -0.000459 0.017156 0.016298 0.001944 0.008289
# 4 -0.005836 0.003113 0.016298 0.041526 -0.001294 0.008585
# 5 -0.005427 -0.001298 0.001944 -0.001294 0.031697 -0.001121
# 6 -0.003012 0.000129 0.008289 0.008585 -0.001121 0.030197
#
#
# Mechanical properties :
#
#
# Convention : Reuss Voigt Hill
#
# Bulk Modulus (GPa) = 40.25634 53.40476 46.83055
# Shear Modulus (GPa) = 29.24079 39.35177 34.29628
#
# Velocity S-wave (km/s) = 3.54041 4.10715 3.83426
# Velocity P-wave (km/s) = 5.82830 6.73679 6.29894
#
# Compressibility (1/GPa) = 0.02484081
#
# Stress axis : x y z
#
# Youngs Moduli (GPa) = 67.62563 98.77002 58.28910
#
# Poissons Ratio (x) = 0.06167 0.43892
# Poissons Ratio (y) = 0.04222 0.02676
# Poissons Ratio (z) = 0.50922 0.04534
#
# Static dielectric constant tensor:
#      x y z
#    x 1.915750 -0.012580 -0.004680 
#    y -0.012580 1.869190 0.015340 
#    z -0.004680 0.015340 1.934210 
# 
# From -- ./inp_files/505140.got.cif
#   From: 2010.05.17/outbox.cif.g08.bks.cpg/sg2_253_cif.got.tgz:505140.got - 2010.06.03 11:33:40.
