data_PCOD9069399
_publ_section_title
;
Structure prediction by ZEFSAII (Michael W. Deem and Ramdas Pophale) SiO2 
 PCOD9069399
Probable space group: P -1
;
_chemical_formula_sum "Si O2"
_cell_formula_units_Z 16
_cell_length_a 15.630138
_cell_length_b 12.367254
_cell_length_c 15.907666
_cell_angle_alpha 57.837525
_cell_angle_beta 140.476374
_cell_angle_gamma 152.790167
_cell_volume 759.833118
_symmetry_space_group_name_H-M "P -1"
_symmetry_group_IT_number 2
_symmetry_cell_setting 'triclinic'
loop_
_space_group_symop_operation_xyz
x,y,z
-x,-y,-z
loop_
_atom_site_type_symbol
_atom_site_label
_atom_site_fract_x
_atom_site_fract_y
_atom_site_fract_z
Si Si1 0.817527 0.471389 0.506518
Si Si2 0.808215 0.735127 0.847736
Si Si3 0.610106 0.229252 0.632386
Si Si4 0.503815 0.626961 0.391598
Si Si5 0.184287 0.256622 0.825973
Si Si6 0.859358 0.796504 0.374321
Si Si7 0.999127 0.362803 0.671000
Si Si8 0.196024 0.876212 0.195979
O O1 0.781232 0.428396 0.597806
O O2 0.915563 0.693601 0.467847
O O3 0.040107 0.547487 0.615530
O O4 0.507721 0.184653 0.343289
O O5 0.747664 0.600648 0.774157
O O6 0.480212 0.473127 0.744774
O O7 0.945511 0.987520 0.817738
O O8 0.027836 0.843611 0.030349
O O9 0.546504 0.287453 0.626728
O O10 0.755756 0.218465 0.776791
O O11 0.311645 0.931760 0.484665
O O12 0.500000 0.500000 0.500000
O O13 0.826084 0.887950 0.484329
O O14 0.134184 0.157373 0.737493
O O15 0.192324 0.416727 0.755940
O O16 0.500000 0.500000 0.000000
O O17 0.984890 0.317044 0.777853
#
# Coordination Sequence:
#
# PCOD9069399 Si02
#       8
#     2   2   2   2   2   2   2   2
#     4   9  19  36  66  94 121 160 201 260 315 368
#     4  12  25  42  62  91 134 165 208 257 308 367
#     4   9  18  38  66  91 122 162 212 249 306 372
#     4  12  23  43  65  87 124 169 214 260 298 368
#     4  12  24  39  63  98 129 163 204 259 316 372
#     4  12  24  40  64  95 120 165 215 251 313 369
#     4   9  17  37  61  91 129 156 202 258 310 369
#     4   9  19  37  64  94 125 166 194 256 323 364
#
# _framework density 21.057255999999999
#
# number of rings (size 3 to 8) (size 9 to 14) (size 15 to 20)
#    0.000    1.500    2.500    5.625    0.000    2.500 
#    2.250    0.000    0.000    2.250    0.000    0.000 
#    0.000    0.000    0.000    0.000    0.000    0.000 
#
# Total GULP energy -89206.298912 kJ/mol
# GULP energy per Si atom -5575.393682 kJ/mol
# Density = 2.100933 g / cm^3
# Si number density = 21.057256 Si / 1000 Ang^3
#
#
#
# Elastic Constant Matrix: (Units=GPa)
#
#
# Indices 1 2 3 4 5 6 
#
# 1 73.9063 19.5341 5.4093 -4.8724 11.9077 0.8822
# 2 19.5341 88.0879 22.6324 -8.8185 15.5020 5.6409
# 3 5.4093 22.6324 83.6225 -6.6180 3.5472 -1.5067
# 4 -4.8724 -8.8185 -6.6180 29.6201 -1.0792 2.1259
# 5 11.9077 15.5020 3.5472 -1.0792 23.2794 -2.9460
# 6 0.8822 5.6409 -1.5067 2.1259 -2.9460 26.0649
#
#
#
# Elastic Compliance Matrix: (Units=1/GPa)
#
#
# Indices 1 2 3 4 5 6 
#
# 1 0.015233 -0.001984 -0.000052 0.001736 -0.006504 -0.000966
# 2 -0.001984 0.014822 -0.003328 0.003353 -0.008774 -0.004598
# 3 -0.000052 -0.003328 0.013010 0.001827 0.000521 0.001384
# 4 0.001736 0.003353 0.001827 0.035647 -0.002232 -0.003839
# 5 -0.006504 -0.008774 0.000521 -0.002232 0.052996 0.008321
# 6 -0.000966 -0.004598 0.001384 -0.003839 0.008321 0.040727
#
#
# Mechanical properties :
#
#
# Convention : Reuss Voigt Hill
#
# Bulk Modulus (GPa) = 30.92683 37.86315 34.39499
# Shear Modulus (GPa) = 25.78065 28.99560 27.38812
#
# Velocity S-wave (km/s) = 3.50281 3.71481 3.61037
# Velocity P-wave (km/s) = 5.57481 6.03488 5.80940
#
# Compressibility (1/GPa) = 0.03233438
#
# Stress axis : x y z
#
# Youngs Moduli (GPa) = 65.64766 67.46842 76.86293
#
# Poissons Ratio (x) = 0.13388 0.00403
# Poissons Ratio (y) = 0.13026 0.25583
# Poissons Ratio (z) = 0.00344 0.22456
#
# Static dielectric constant tensor:
#      x y z
#    x 1.887910 -0.003740 0.034530 
#    y -0.003740 1.798790 -0.025960 
#    z 0.034530 -0.025960 1.763910 
# 
# From -- ./inp_files/532482.got.cif
#   From: 2010.05.17/outbox.cif.g08.bks.cpg/sg2_267_cif.got.tgz:532482.got - 2010.06.03 11:33:40.
