data_PCOD9069741
_publ_section_title
;
Structure prediction by ZEFSAII (Michael W. Deem and Ramdas Pophale) SiO2 
 PCOD9069741
Probable space group: P -1
;
_chemical_formula_sum "Si O2"
_cell_formula_units_Z 16
_cell_length_a 5.844351
_cell_length_b 8.773520
_cell_length_c 20.318710
_cell_angle_alpha 54.977402
_cell_angle_beta 122.829088
_cell_angle_gamma 123.263938
_cell_volume 672.934484
_symmetry_space_group_name_H-M "P -1"
_symmetry_group_IT_number 2
_symmetry_cell_setting 'triclinic'
loop_
_space_group_symop_operation_xyz
x,y,z
-x,-y,-z
loop_
_atom_site_type_symbol
_atom_site_label
_atom_site_fract_x
_atom_site_fract_y
_atom_site_fract_z
Si Si1 0.732803 0.302957 0.291524
Si Si2 0.810401 0.960628 0.329872
Si Si3 0.081794 0.561546 0.166762
Si Si4 0.562581 0.951640 0.159577
Si Si5 0.673533 0.512737 0.455514
Si Si6 0.875698 0.750522 0.856308
Si Si7 0.449824 0.178740 0.406705
Si Si8 0.724413 0.720070 0.987684
O O1 0.448820 0.290985 0.208170
O O2 0.678802 0.323529 0.354646
O O3 0.983481 0.453357 0.248073
O O4 0.757424 0.084981 0.351110
O O5 0.595775 0.983535 0.234727
O O6 0.730888 0.732157 0.384439
O O7 0.155282 0.072818 0.345576
O O8 0.403406 0.721975 0.176332
O O9 0.033889 0.399144 0.141184
O O10 0.900016 0.702781 0.083979
O O11 0.411937 0.105773 0.071570
O O12 0.898350 0.029817 0.173044
O O13 0.500000 0.500000 0.500000
O O14 0.449960 0.335801 0.423040
O O15 0.000000 0.500000 0.500000
O O16 0.894376 0.733060 0.942159
O O17 0.500000 0.000000 0.500000
O O18 0.500000 0.500000 0.000000
#
# Coordination Sequence:
#
# PCOD9069741 Si02
#       8
#     2   2   2   2   2   2   2   2
#     4  12  25  49  77 107 156 204 255 319 393 458
#     4  12  26  49  75 109 156 197 254 320 388 469
#     4  12  27  46  72 112 149 201 262 322 378 459
#     4  12  27  45  71 111 147 199 256 313 388 452
#     4  12  30  52  79 120 153 199 258 326 398 479
#     4  12  23  48  71 104 149 200 254 312 394 448
#     4  12  27  51  82 112 151 203 254 317 395 474
#     4  12  23  48  74 101 153 201 256 316 383 461
#
# _framework density 23.77646
#
# number of rings (size 3 to 8) (size 9 to 14) (size 15 to 20)
#    0.000    0.000    7.500    1.500    5.250    2.500 
#    0.000    0.000    0.000    0.000    0.000    0.000 
#    0.000    0.000    0.000    0.000    0.000    0.000 
#
# Total GULP energy -89260.217232 kJ/mol
# GULP energy per Si atom -5578.763577 kJ/mol
# Density = 2.372234 g / cm^3
# Si number density = 23.776460 Si / 1000 Ang^3
#
#
#
# Elastic Constant Matrix: (Units=GPa)
#
#
# Indices 1 2 3 4 5 6 
#
# 1 58.2451 12.1093 22.8377 -12.2034 -13.4057 2.4117
# 2 12.1093 124.5582 24.3586 -20.7193 -13.4048 21.3817
# 3 22.8377 24.3586 110.2535 -14.5892 2.8942 -8.7760
# 4 -12.2034 -20.7193 -14.5892 32.3510 -2.0654 -1.5525
# 5 -13.4057 -13.4048 2.8942 -2.0654 45.8854 5.4719
# 6 2.4117 21.3817 -8.7760 -1.5525 5.4719 41.5093
#
#
#
# Elastic Compliance Matrix: (Units=1/GPa)
#
#
# Indices 1 2 3 4 5 6 
#
# 1 0.022192 0.001485 -0.004420 0.007659 0.007989 -0.003756
# 2 0.001485 0.011181 -0.002583 0.006547 0.004969 -0.006802
# 3 -0.004420 -0.002583 0.011226 0.001749 -0.003206 0.004449
# 4 0.007659 0.006547 0.001749 0.039039 0.006130 -0.002795
# 5 0.007989 0.004969 -0.003206 0.006130 0.026894 -0.007018
# 6 -0.003756 -0.006802 0.004449 -0.002795 -0.007018 0.029574
#
#
# Mechanical properties :
#
#
# Convention : Reuss Voigt Hill
#
# Bulk Modulus (GPa) = 29.79516 45.74090 37.76803
# Shear Modulus (GPa) = 30.80147 39.53256 35.16701
#
# Velocity S-wave (km/s) = 3.60316 4.08202 3.85004
# Velocity P-wave (km/s) = 5.46524 6.44180 5.97351
#
# Compressibility (1/GPa) = 0.03356250
#
# Stress axis : x y z
#
# Youngs Moduli (GPa) = 45.06102 89.44113 89.07768
#
# Poissons Ratio (x) = -0.13286 0.39374
# Poissons Ratio (y) = -0.06694 0.23012
# Poissons Ratio (z) = 0.19918 0.23106
#
# Static dielectric constant tensor:
#      x y z
#    x 2.077220 -0.017770 0.009840 
#    y -0.017770 1.932290 0.074570 
#    z 0.009840 0.074570 1.883320 
# 
# From -- ./inp_files/582297.got.cif
#   From: 2010.05.17/outbox.cif.g08.bks.cpg/sg2_292_cif.got.tgz:582297.got - 2010.06.03 11:33:40.
