data_PCOD9069647
_publ_section_title
;
Structure prediction by ZEFSAII (Michael W. Deem and Ramdas Pophale) SiO2 
 PCOD9069647
Probable space group: P -1
;
_chemical_formula_sum "Si O2"
_cell_formula_units_Z 15
_cell_length_a 9.198262
_cell_length_b 9.024986
_cell_length_c 7.656333
_cell_angle_alpha 70.773029
_cell_angle_beta 73.068647
_cell_angle_gamma 85.004698
_cell_volume 574.091741
_symmetry_space_group_name_H-M "P -1"
_symmetry_group_IT_number 2
_symmetry_cell_setting 'triclinic'
loop_
_space_group_symop_operation_xyz
x,y,z
-x,-y,-z
loop_
_atom_site_type_symbol
_atom_site_label
_atom_site_fract_x
_atom_site_fract_y
_atom_site_fract_z
Si Si1 0.294443 0.515104 0.626860
Si Si2 0.513841 0.373548 0.198227
Si Si3 0.205830 0.735288 0.018355
Si Si4 0.340905 0.841532 0.292831
Si Si5 0.237247 0.174586 0.255423
Si Si6 0.000000 0.000000 0.000000
Si Si7 0.696414 0.826546 0.183271
Si Si8 0.031385 0.441921 0.311650
O O1 0.444947 0.524239 0.689160
O O2 0.303736 0.671209 0.448194
O O3 0.290126 0.332799 0.648240
O O4 0.122269 0.533259 0.753337
O O5 0.374637 0.256419 0.278821
O O6 0.500000 0.500000 0.000000
O O7 0.666979 0.272484 0.168961
O O8 0.288131 0.821288 0.119516
O O9 0.164717 0.556475 0.154159
O O10 0.046740 0.819011 0.016328
O O11 0.520303 0.878005 0.234517
O O12 0.244981 0.986896 0.344756
O O13 0.088337 0.264516 0.337538
O O14 0.270539 0.202645 0.025147
O O15 0.171729 0.054645 0.850422
O O16 0.000000 0.500000 0.500000
#
# Coordination Sequence:
#
# PCOD9069647 Si02
#       8
#     2   2   2   2   2   1   2   2
#     4  12  27  45  75 112 151 199 246 308 375 445
#     4  12  24  45  75 108 143 199 250 301 362 447
#     4  12  23  46  74 107 149 192 248 303 367 443
#     4  12  26  48  77 113 150 193 248 310 371 440
#     4  12  26  47  75 107 149 195 250 307 369 441
#     4  12  26  40  74 114 142 186 250 306 362 434
#     4  12  24  46  76 114 146 195 246 306 371 447
#     4  12  27  47  71 105 150 197 244 305 379 439
#
# _framework density 26.128229999999999
#
# number of rings (size 3 to 8) (size 9 to 14) (size 15 to 20)
#    0.000    0.000    8.000    1.600    1.867    3.200 
#    2.400    0.000    0.000    0.000    0.000    0.000 
#    0.000    0.000    0.000    0.000    0.000    0.000 
#
# Total GULP energy -83716.638209 kJ/mol
# GULP energy per Si atom -5581.109214 kJ/mol
# Density = 2.606876 g / cm^3
# Si number density = 26.128230 Si / 1000 Ang^3
#
#
#
# Elastic Constant Matrix: (Units=GPa)
#
#
# Indices 1 2 3 4 5 6 
#
# 1 107.6788 42.9289 3.9882 -8.0946 -22.9004 2.1523
# 2 42.9289 157.2998 32.8051 -16.9922 0.6411 -26.5053
# 3 3.9882 32.8051 59.2099 -9.9980 -0.3180 2.1869
# 4 -8.0946 -16.9922 -9.9980 47.3926 4.7953 -10.5399
# 5 -22.9004 0.6411 -0.3180 4.7953 33.7176 -2.4305
# 6 2.1523 -26.5053 2.1869 -10.5399 -2.4305 66.6978
#
#
#
# Elastic Compliance Matrix: (Units=1/GPa)
#
#
# Indices 1 2 3 4 5 6 
#
# 1 0.012753 -0.004176 0.001521 -0.000286 0.008663 -0.001850
# 2 -0.004176 0.009566 -0.004687 0.003040 -0.003173 0.004455
# 3 0.001521 -0.004687 0.019839 0.002194 0.000840 -0.002185
# 4 -0.000286 0.003040 0.002194 0.024010 -0.003299 0.004819
# 5 0.008663 -0.003173 0.000840 -0.003299 0.036023 -0.000777
# 6 -0.001850 0.004455 -0.002185 0.004819 -0.000777 0.017628
#
#
# Mechanical properties :
#
#
# Convention : Reuss Voigt Hill
#
# Bulk Modulus (GPa) = 36.39685 53.73698 45.06692
# Shear Modulus (GPa) = 34.80409 45.85935 40.33172
#
# Velocity S-wave (km/s) = 3.65368 4.19401 3.93314
# Velocity P-wave (km/s) = 5.63556 6.63809 6.15727
#
# Compressibility (1/GPa) = 0.02747490
#
# Stress axis : x y z
#
# Youngs Moduli (GPa) = 78.41227 104.53317 50.40531
#
# Poissons Ratio (x) = 0.43650 -0.07667
# Poissons Ratio (y) = 0.32743 0.23626
# Poissons Ratio (z) = -0.11927 0.48997
#
# Static dielectric constant tensor:
#      x y z
#    x 2.062100 -0.025250 0.055250 
#    y -0.025250 2.139120 0.074590 
#    z 0.055250 0.074590 2.218550 
# 
# From -- ./inp_files/157212.got.cif
#   From: 2010.05.17/outbox.cif.g08.bks.cpg/sg2_79_cif.got.tgz:157212.got - 2010.06.03 11:33:40.
