data_PCOD9069572
_publ_section_title
;
Structure prediction by ZEFSAII (Michael W. Deem and Ramdas Pophale) SiO2 
 PCOD9069572
Probable space group: P -1
;
_chemical_formula_sum "Si O2"
_cell_formula_units_Z 16
_cell_length_a 8.185260
_cell_length_b 13.572424
_cell_length_c 18.116433
_cell_angle_alpha 135.111134
_cell_angle_beta 136.882396
_cell_angle_gamma 78.161590
_cell_volume 740.397465
_symmetry_space_group_name_H-M "P -1"
_symmetry_group_IT_number 2
_symmetry_cell_setting 'triclinic'
loop_
_space_group_symop_operation_xyz
x,y,z
-x,-y,-z
loop_
_atom_site_type_symbol
_atom_site_label
_atom_site_fract_x
_atom_site_fract_y
_atom_site_fract_z
Si Si1 0.503461 0.490802 0.407644
Si Si2 0.280737 0.108250 0.090136
Si Si3 0.280778 0.635893 0.108700
Si Si4 0.653453 0.987522 0.208541
Si Si5 0.448921 0.972411 0.556745
Si Si6 0.953277 0.754823 0.389961
Si Si7 0.885456 0.894135 0.702293
Si Si8 0.117856 0.574448 0.858018
O O1 0.500000 0.500000 0.500000
O O2 0.485972 0.325104 0.286253
O O3 0.779888 0.695948 0.579785
O O4 0.183514 0.441285 0.249115
O O5 0.486853 0.049419 0.141851
O O6 0.000000 0.000000 0.000000
O O7 0.109585 0.034736 0.915792
O O8 0.615214 0.690400 0.263378
O O9 0.348488 0.826179 0.234891
O O10 0.183199 0.551475 0.950563
O O11 0.000000 0.500000 0.000000
O O12 0.796543 0.100835 0.391063
O O13 0.930179 0.032430 0.274073
O O14 0.404616 0.774591 0.030726
O O15 0.583551 0.878591 0.583732
O O16 0.096383 0.854724 0.410340
O O17 0.500000 0.000000 0.500000
O O18 0.928642 0.578936 0.288177
#
# Coordination Sequence:
#
# PCOD9069572 Si02
#       8
#     2   2   2   2   2   2   2   2
#     4  12  24  44  75 102 138 186 237 292 352 418
#     4  12  23  45  74 101 142 186 235 288 353 415
#     4  12  28  45  71 107 141 185 241 294 353 424
#     4  12  27  45  71 108 142 186 233 292 355 424
#     4  12  25  46  74 103 144 189 235 291 353 421
#     4  12  26  48  72 102 146 189 234 291 360 416
#     4  12  27  45  72 107 143 185 239 290 353 421
#     4  12  25  45  72 101 142 186 238 286 354 422
#
# _framework density 21.610014
#
# number of rings (size 3 to 8) (size 9 to 14) (size 15 to 20)
#    0.000    0.000    5.000    4.875    5.250    1.500 
#    0.000    0.000    0.000    0.000    0.000    0.000 
#    0.000    0.000    0.000    0.000    0.000    0.000 
#
# Total GULP energy -89608.132827 kJ/mol
# GULP energy per Si atom -5600.508302 kJ/mol
# Density = 2.156083 g / cm^3
# Si number density = 21.610014 Si / 1000 Ang^3
#
#
#
# Elastic Constant Matrix: (Units=GPa)
#
#
# Indices 1 2 3 4 5 6 
#
# 1 90.1417 21.6413 36.2235 21.0640 4.1371 10.8081
# 2 21.6413 74.0681 32.1422 18.9065 0.2926 5.7098
# 3 36.2235 32.1422 108.2482 27.9149 -9.2189 14.1718
# 4 21.0640 18.9065 27.9149 47.8800 -5.2137 -2.1977
# 5 4.1371 0.2926 -9.2189 -5.2137 44.8644 -6.2845
# 6 10.8081 5.7098 14.1718 -2.1977 -6.2845 27.2084
#
#
#
# Elastic Compliance Matrix: (Units=1/GPa)
#
#
# Indices 1 2 3 4 5 6 
#
# 1 0.014412 -0.001384 -0.002790 -0.004745 -0.003158 -0.005094
# 2 -0.001384 0.016549 -0.003211 -0.004295 -0.001409 -0.001923
# 3 -0.002790 -0.003211 0.013323 -0.005329 0.001668 -0.005202
# 4 -0.004745 -0.004295 -0.005329 0.028606 0.003925 0.008779
# 5 -0.003158 -0.001409 0.001668 0.003925 0.024315 0.006615
# 6 -0.005094 -0.001923 -0.005202 0.008779 0.006615 0.044127
#
#
# Mechanical properties :
#
#
# Convention : Reuss Voigt Hill
#
# Bulk Modulus (GPa) = 33.88391 50.27465 42.07928
# Shear Modulus (GPa) = 30.13142 36.15397 33.14270
#
# Velocity S-wave (km/s) = 3.73812 4.09469 3.92046
# Velocity P-wave (km/s) = 5.86047 6.75799 6.32517
#
# Compressibility (1/GPa) = 0.02951253
#
# Stress axis : x y z
#
# Youngs Moduli (GPa) = 69.38887 60.42568 75.06036
#
# Poissons Ratio (x) = 0.08361 0.20944
# Poissons Ratio (y) = 0.09601 0.24106
# Poissons Ratio (z) = 0.19361 0.19406
#
# Static dielectric constant tensor:
#      x y z
#    x 1.580470 0.258600 -0.454720 
#    y 0.258600 1.423040 0.634950 
#    z -0.454720 0.634950 0.692890 
# 
# From -- ./inp_files/314980.got.cif
#   From: 2010.05.17/outbox.cif.g08.bks.cpg/sg2_158_cif.got.tgz:314980.got - 2010.06.03 11:33:40.
