data_PCOD9069570
_publ_section_title
;
Structure prediction by ZEFSAII (Michael W. Deem and Ramdas Pophale) SiO2 
 PCOD9069570
Probable space group: P -1
;
_chemical_formula_sum "Si O2"
_cell_formula_units_Z 16
_cell_length_a 11.321152
_cell_length_b 7.877348
_cell_length_c 16.320863
_cell_angle_alpha 79.616146
_cell_angle_beta 39.434769
_cell_angle_gamma 107.982884
_cell_volume 633.968828
_symmetry_space_group_name_H-M "P -1"
_symmetry_group_IT_number 2
_symmetry_cell_setting 'triclinic'
loop_
_space_group_symop_operation_xyz
x,y,z
-x,-y,-z
loop_
_atom_site_type_symbol
_atom_site_label
_atom_site_fract_x
_atom_site_fract_y
_atom_site_fract_z
Si Si1 0.178085 0.591843 0.584453
Si Si2 0.713690 0.123368 0.969732
Si Si3 0.649606 0.782402 0.409132
Si Si4 0.900630 0.072837 0.418400
Si Si5 0.912040 0.790117 0.123689
Si Si6 0.531395 0.677766 0.904886
Si Si7 0.294394 0.618245 0.337040
Si Si8 0.510269 0.392796 0.239014
O O1 0.413297 0.753669 0.511821
O O2 0.340435 0.668572 0.406320
O O3 0.951250 0.300155 0.757438
O O4 0.039089 0.685405 0.644875
O O5 0.894874 0.231579 0.945575
O O6 0.545414 0.183552 0.037078
O O7 0.491635 0.834631 0.144554
O O8 0.500000 0.500000 0.500000
O O9 0.779646 0.919231 0.412256
O O10 0.877052 0.890526 0.213238
O O11 0.666642 0.893239 0.625274
O O12 0.155261 0.128149 0.298947
O O13 0.685798 0.546418 0.211908
O O14 0.000000 0.000000 0.000000
O O15 0.360475 0.536156 0.925791
O O16 0.500000 0.500000 0.000000
O O17 0.319103 0.431287 0.328715
O O18 0.000000 0.500000 0.500000
#
# Coordination Sequence:
#
# PCOD9069570 Si02
#       8
#     2   2   2   2   2   2   2   2
#     4  12  24  47  73 112 151 197 255 305 387 449
#     4  12  26  48  76 107 154 200 251 312 378 449
#     4  12  23  45  73 109 147 190 251 312 373 440
#     4  12  25  46  75 104 155 199 245 310 376 458
#     4  12  25  46  75 110 146 191 254 318 376 439
#     4  12  28  49  68 111 153 198 251 301 377 459
#     4  12  26  47  74 111 151 198 259 316 369 453
#     4  12  25  48  76 105 150 200 250 318 378 438
#
# _framework density 25.237833999999999
#
# number of rings (size 3 to 8) (size 9 to 14) (size 15 to 20)
#    0.000    0.000    6.250    3.000    1.750    1.000 
#    0.000    0.000    0.000    0.000    0.000    0.000 
#    0.000    0.000    0.000    0.000    0.000    0.000 
#
# Total GULP energy -89266.228730 kJ/mol
# GULP energy per Si atom -5579.139296 kJ/mol
# Density = 2.518039 g / cm^3
# Si number density = 25.237834 Si / 1000 Ang^3
#
#
#
# Elastic Constant Matrix: (Units=GPa)
#
#
# Indices 1 2 3 4 5 6 
#
# 1 128.5442 21.8923 33.4778 -8.4437 2.4154 -1.4594
# 2 21.8923 55.6676 28.4099 -5.4262 17.3150 2.5582
# 3 33.4778 28.4099 66.8433 -22.3392 15.1192 -4.7627
# 4 -8.4437 -5.4262 -22.3392 33.1608 -8.8895 3.7262
# 5 2.4154 17.3150 15.1192 -8.8895 60.9977 0.9959
# 6 -1.4594 2.5582 -4.7627 3.7262 0.9959 52.6663
#
#
#
# Elastic Compliance Matrix: (Units=1/GPa)
#
#
# Indices 1 2 3 4 5 6 
#
# 1 0.009138 -0.001839 -0.004225 -0.000514 0.001133 -0.000025
# 2 -0.001839 0.025148 -0.010203 -0.004406 -0.005150 -0.001786
# 3 -0.004225 -0.010203 0.026785 0.014706 -0.001462 0.001788
# 4 -0.000514 -0.004406 0.014706 0.040312 0.003523 -0.001389
# 5 0.001133 -0.005150 -0.001462 0.003523 0.018694 -0.000453
# 6 -0.000025 -0.001786 0.001788 -0.001389 -0.000453 0.019342
#
#
# Mechanical properties :
#
#
# Convention : Reuss Voigt Hill
#
# Bulk Modulus (GPa) = 35.03927 46.51280 40.77604
# Shear Modulus (GPa) = 27.55360 40.51664 34.03512
#
# Velocity S-wave (km/s) = 3.30776 4.01108 3.67628
# Velocity P-wave (km/s) = 5.33874 6.31835 5.84909
#
# Compressibility (1/GPa) = 0.02853940
#
# Stress axis : x y z
#
# Youngs Moduli (GPa) = 109.43889 39.76426 37.33371
#
# Poissons Ratio (x) = 0.07312 0.15772
# Poissons Ratio (y) = 0.20123 0.38090
# Poissons Ratio (z) = 0.46233 0.40570
#
# Static dielectric constant tensor:
#      x y z
#    x 2.171090 -0.056230 0.388410 
#    y -0.056230 2.013260 -0.257170 
#    z 0.388410 -0.257170 3.098680 
# 
# From -- ./inp_files/565320.got.cif
#   From: 2010.05.17/outbox.cif.g08.bks.cpg/sg2_283_cif.got.tgz:565320.got - 2010.06.03 11:33:40.
