data_PCOD9069816
_publ_section_title
;
Structure prediction by ZEFSAII (Michael W. Deem and Ramdas Pophale) SiO2 
 PCOD9069816
Probable space group: P -1
;
_chemical_formula_sum "Si O2"
_cell_formula_units_Z 15
_cell_length_a 9.328994
_cell_length_b 14.121849
_cell_length_c 9.152509
_cell_angle_alpha 71.904282
_cell_angle_beta 47.322327
_cell_angle_gamma 101.782542
_cell_volume 678.164233
_symmetry_space_group_name_H-M "P -1"
_symmetry_group_IT_number 2
_symmetry_cell_setting 'triclinic'
loop_
_space_group_symop_operation_xyz
x,y,z
-x,-y,-z
loop_
_atom_site_type_symbol
_atom_site_label
_atom_site_fract_x
_atom_site_fract_y
_atom_site_fract_z
Si Si1 0.405966 0.763938 0.767415
Si Si2 0.892937 0.360650 0.692115
Si Si3 0.514495 0.721856 0.186330
Si Si4 0.048237 0.112121 0.009046
Si Si5 0.141071 0.618256 0.740350
Si Si6 0.271190 0.307257 0.509686
Si Si7 0.500000 0.000000 0.500000
Si Si8 0.350248 0.440584 0.980301
O O1 0.306819 0.732590 0.683224
O O2 0.638857 0.761867 0.610217
O O3 0.462978 0.895277 0.692680
O O4 0.202390 0.660480 0.065970
O O5 0.655058 0.266006 0.807799
O O6 0.000000 0.500000 0.500000
O O7 0.080727 0.327617 0.566569
O O8 0.743618 0.845673 0.037408
O O9 0.329148 0.632043 0.486140
O O10 0.608216 0.656895 0.060553
O O11 0.162221 0.232720 0.769913
O O12 0.793353 0.069826 0.265584
O O13 0.000000 0.000000 0.000000
O O14 0.000000 0.500000 0.000000
O O15 0.931940 0.616129 0.800778
O O16 0.516882 0.445723 0.281166
O O17 0.500000 0.500000 0.000000
#
# Coordination Sequence:
#
# PCOD9069816 Si02
#       8
#     2   2   2   2   2   2   1   2
#     4  12  25  45  73 107 141 193 252 307 361 436
#     4  12  26  44  72 109 156 192 235 299 390 448
#     4  12  26  45  72 108 149 194 240 305 378 441
#     4  12  25  49  75 104 138 193 261 313 354 429
#     4  12  24  40  69 106 142 188 247 295 363 446
#     4  12  24  42  72 102 145 190 240 301 370 437
#     4  12  24  46  78  96 138 192 252 314 352 416
#     4  12  26  42  68 108 153 189 230 300 375 455
#
# _framework density 22.118538000000001
#
# number of rings (size 3 to 8) (size 9 to 14) (size 15 to 20)
#    0.000    0.000    6.667    3.200    0.000    1.067 
#    0.000    1.333    2.933    0.000    0.000    0.000 
#    0.000    0.000    0.000    0.000    0.000    0.000 
#
# Total GULP energy -83616.826820 kJ/mol
# GULP energy per Si atom -5574.455121 kJ/mol
# Density = 2.206820 g / cm^3
# Si number density = 22.118538 Si / 1000 Ang^3
#
#
#
# Elastic Constant Matrix: (Units=GPa)
#
#
# Indices 1 2 3 4 5 6 
#
# 1 169.4507 56.3693 45.7712 13.5142 -40.6549 -4.1898
# 2 56.3693 64.0374 16.4207 12.1443 -13.0974 5.1151
# 3 45.7712 16.4207 113.2089 5.1556 -22.7618 -0.9059
# 4 13.5142 12.1443 5.1556 29.1011 -7.5534 0.1298
# 5 -40.6549 -13.0974 -22.7618 -7.5534 51.6227 2.5071
# 6 -4.1898 5.1151 -0.9059 0.1298 2.5071 43.6577
#
#
#
# Elastic Compliance Matrix: (Units=1/GPa)
#
#
# Indices 1 2 3 4 5 6 
#
# 1 0.010238 -0.007580 -0.001986 0.000105 0.005205 0.001530
# 2 -0.007580 0.023695 -0.000277 -0.006529 -0.000868 -0.003440
# 3 -0.001986 -0.000277 0.010258 -0.000029 0.002890 -0.000111
# 4 0.000105 -0.006529 -0.000029 0.038071 0.003963 0.000434
# 5 0.005205 -0.000868 0.002890 0.003963 0.025143 -0.000794
# 6 0.001530 -0.003440 -0.000111 0.000434 -0.000794 0.023497
#
#
# Mechanical properties :
#
#
# Convention : Reuss Voigt Hill
#
# Bulk Modulus (GPa) = 40.80892 64.86884 52.83888
# Shear Modulus (GPa) = 31.49515 40.08535 35.79025
#
# Velocity S-wave (km/s) = 3.77759 4.26173 4.02694
# Velocity P-wave (km/s) = 6.12512 7.32174 6.75000
#
# Compressibility (1/GPa) = 0.02450445
#
# Stress axis : x y z
#
# Youngs Moduli (GPa) = 97.67906 42.20350 97.48754
#
# Poissons Ratio (x) = 0.31991 0.19358
# Poissons Ratio (y) = 0.74042 0.02700
# Poissons Ratio (z) = 0.19396 0.01169
#
# Static dielectric constant tensor:
#      x y z
#    x 1.876770 0.007870 0.024050 
#    y 0.007870 1.880590 0.018540 
#    z 0.024050 0.018540 1.837650 
# 
# From -- ./inp_files/206200.got.cif
#   From: 2010.05.17/outbox.cif.g08.bks.cpg/sg2_104_cif.got.tgz:206200.got - 2010.06.03 11:33:40.
