data_PCOD9069702
_publ_section_title
;
Structure prediction by ZEFSAII (Michael W. Deem and Ramdas Pophale) SiO2 
 PCOD9069702
Probable space group: P -1
;
_chemical_formula_sum "Si O2"
_cell_formula_units_Z 16
_cell_length_a 10.626345
_cell_length_b 13.603995
_cell_length_c 9.256857
_cell_angle_alpha 64.762498
_cell_angle_beta 112.477458
_cell_angle_gamma 147.427798
_cell_volume 650.930511
_symmetry_space_group_name_H-M "P -1"
_symmetry_group_IT_number 2
_symmetry_cell_setting 'triclinic'
loop_
_space_group_symop_operation_xyz
x,y,z
-x,-y,-z
loop_
_atom_site_type_symbol
_atom_site_label
_atom_site_fract_x
_atom_site_fract_y
_atom_site_fract_z
Si Si1 0.615416 0.422095 0.092471
Si Si2 0.983146 0.433791 0.877122
Si Si3 0.646492 0.520604 0.713477
Si Si4 0.166756 0.021850 0.139654
Si Si5 0.785767 0.624935 0.314281
Si Si6 0.879665 0.038424 0.387986
Si Si7 0.368369 0.670541 0.409459
Si Si8 0.288604 0.950797 0.973960
O O1 0.724394 0.582121 0.144849
O O2 0.760627 0.403941 0.177428
O O3 0.361664 0.226491 0.162655
O O4 0.618651 0.459371 0.903946
O O5 0.793543 0.347900 0.731399
O O6 0.924616 0.270571 0.978445
O O7 0.000000 0.500000 0.000000
O O8 0.439015 0.472537 0.644286
O O9 0.589001 0.384156 0.670406
O O10 0.901040 0.734383 0.646975
O O11 0.291381 0.020616 0.080089
O O12 0.011377 0.847258 0.287686
O O13 0.000000 0.000000 0.000000
O O14 0.791017 0.503901 0.442794
O O15 0.620601 0.872565 0.454646
O O16 0.000000 0.000000 0.500000
O O17 0.779897 0.006119 0.205025
O O18 0.500000 0.000000 0.000000
#
# Coordination Sequence:
#
# PCOD9069702 Si02
#       8
#     2   2   2   2   2   2   2   2
#     4  12  25  45  71 103 142 188 248 298 368 440
#     4  12  23  47  74 103 142 194 251 306 366 449
#     4  12  24  44  71 104 145 189 250 298 366 448
#     4  12  27  44  75 106 148 199 248 309 377 443
#     4  12  27  44  67 107 147 189 238 309 374 445
#     4  12  25  40  71 111 145 188 245 310 378 430
#     4  12  27  45  72 105 149 194 242 316 375 438
#     4  12  24  45  75 108 147 196 259 304 365 456
#
# _framework density 24.580196999999998
#
# number of rings (size 3 to 8) (size 9 to 14) (size 15 to 20)
#    0.000    0.000    7.500    2.250    1.750    1.500 
#    0.000    0.625    0.000    0.000    0.000    0.000 
#    0.000    0.000    0.000    0.000    0.000    0.000 
#
# Total GULP energy -89312.748448 kJ/mol
# GULP energy per Si atom -5582.046778 kJ/mol
# Density = 2.452425 g / cm^3
# Si number density = 24.580197 Si / 1000 Ang^3
#
#
#
# Elastic Constant Matrix: (Units=GPa)
#
#
# Indices 1 2 3 4 5 6 
#
# 1 93.3973 17.4643 22.1954 5.6686 5.8319 16.0644
# 2 17.4643 176.8704 28.5889 -19.3386 18.3675 14.6120
# 3 22.1954 28.5889 119.1821 -21.6866 21.6224 3.0393
# 4 5.6686 -19.3386 -21.6866 40.3185 -4.7999 5.2071
# 5 5.8319 18.3675 21.6224 -4.7999 42.2351 10.1828
# 6 16.0644 14.6120 3.0393 5.2071 10.1828 46.6300
#
#
#
# Elastic Compliance Matrix: (Units=1/GPa)
#
#
# Indices 1 2 3 4 5 6 
#
# 1 0.012259 -0.000880 -0.002634 -0.003038 0.000551 -0.003557
# 2 -0.000880 0.006458 -0.000495 0.002965 -0.001699 -0.001648
# 3 -0.002634 -0.000495 0.010761 0.005286 -0.004512 0.000756
# 4 -0.003038 0.002965 0.005286 0.030068 0.000744 -0.003747
# 5 0.000551 -0.001699 -0.004512 0.000744 0.028079 -0.005578
# 6 -0.003557 -0.001648 0.000756 -0.003747 -0.005578 0.024775
#
#
# Mechanical properties :
#
#
# Convention : Reuss Voigt Hill
#
# Bulk Modulus (GPa) = 46.60027 58.43854 52.51941
# Shear Modulus (GPa) = 39.19394 47.25015 43.22205
#
# Velocity S-wave (km/s) = 3.99749 4.38914 4.19789
# Velocity P-wave (km/s) = 6.34872 7.03650 6.70144
#
# Compressibility (1/GPa) = 0.02145910
#
# Stress axis : x y z
#
# Youngs Moduli (GPa) = 81.57123 154.85537 92.92897
#
# Poissons Ratio (x) = 0.13631 0.24476
# Poissons Ratio (y) = 0.07180 0.04603
# Poissons Ratio (z) = 0.21485 0.07670
#
# Static dielectric constant tensor:
#      x y z
#    x 3.444190 0.680710 0.224680 
#    y 0.680710 2.255530 0.063230 
#    z 0.224680 0.063230 2.163700 
# 
# From -- ./inp_files/272636.got.cif
#   From: 2010.05.17/outbox.cif.g08.bks.cpg/sg2_137_cif.got.tgz:272636.got - 2010.06.03 11:33:40.
