data_PCOD9069226
_publ_section_title
;
Structure prediction by ZEFSAII (Michael W. Deem and Ramdas Pophale) SiO2 
 PCOD9069226
Probable space group: P -1
;
_chemical_formula_sum "Si O2"
_cell_formula_units_Z 16
_cell_length_a 12.009856
_cell_length_b 9.549094
_cell_length_c 8.445770
_cell_angle_alpha 88.894423
_cell_angle_beta 66.163344
_cell_angle_gamma 60.257987
_cell_volume 748.971313
_symmetry_space_group_name_H-M "P -1"
_symmetry_group_IT_number 2
_symmetry_cell_setting 'triclinic'
loop_
_space_group_symop_operation_xyz
x,y,z
-x,-y,-z
loop_
_atom_site_type_symbol
_atom_site_label
_atom_site_fract_x
_atom_site_fract_y
_atom_site_fract_z
Si Si1 0.721480 0.000382 0.004011
Si Si2 0.834544 0.086158 0.238331
Si Si3 0.063997 0.756436 0.297020
Si Si4 0.061599 0.423774 0.791225
Si Si5 0.381783 0.145964 0.678737
Si Si6 0.018835 0.750377 0.692543
Si Si7 0.376326 0.680097 0.121457
Si Si8 0.454186 0.671450 0.434802
O O1 0.811851 0.038464 0.078449
O O2 0.633060 0.935685 0.149907
O O3 0.619905 0.168651 0.962386
O O4 0.848363 0.860384 0.825274
O O5 0.673807 0.181431 0.395510
O O6 0.895234 0.204263 0.233457
O O7 0.944334 0.924158 0.277254
O O8 0.221251 0.714488 0.165989
O O9 0.043299 0.614372 0.242849
O O10 0.043842 0.779771 0.496892
O O11 0.216448 0.252900 0.712973
O O12 0.075035 0.560043 0.688131
O O13 0.000000 0.500000 0.000000
O O14 0.426912 0.281398 0.661956
O O15 0.500000 0.000000 0.500000
O O16 0.388804 0.678457 0.302130
O O17 0.500000 0.500000 0.000000
O O18 0.500000 0.500000 0.500000
#
# Coordination Sequence:
#
# PCOD9069226 Si02
#       8
#     2   2   2   2   2   2   2   2
#     4  12  25  45  75 111 144 195 248 309 366 445
#     4  12  22  46  75 104 139 194 246 294 365 441
#     4  12  25  46  72 107 147 190 245 308 368 441
#     4  12  26  45  71 110 144 191 251 303 372 438
#     4  12  26  47  75 106 149 198 244 302 377 448
#     4  12  24  42  72 107 146 186 245 306 365 431
#     4  12  29  45  71 111 148 192 251 307 375 438
#     4  12  26  49  75 106 147 198 244 300 372 447
#
# _framework density 21.362634
#
# number of rings (size 3 to 8) (size 9 to 14) (size 15 to 20)
#    0.000    0.000    6.250    3.375    3.500    0.500 
#    0.000    1.250    0.000    0.000    0.000    0.000 
#    0.000    0.000    0.000    0.000    0.000    0.000 
#
# Total GULP energy -89509.062532 kJ/mol
# GULP energy per Si atom -5594.316408 kJ/mol
# Density = 2.131401 g / cm^3
# Si number density = 21.362634 Si / 1000 Ang^3
#
#
#
# Elastic Constant Matrix: (Units=GPa)
#
#
# Indices 1 2 3 4 5 6 
#
# 1 89.6693 31.3709 17.0471 -12.5668 -11.6549 13.0432
# 2 31.3709 146.2134 44.0003 -25.3442 -8.0008 -10.6655
# 3 17.0471 44.0003 103.4389 2.7946 -17.8163 -12.9277
# 4 -12.5668 -25.3442 2.7946 47.7434 0.8584 -5.2442
# 5 -11.6549 -8.0008 -17.8163 0.8584 40.0261 -2.9762
# 6 13.0432 -10.6655 -12.9277 -5.2442 -2.9762 45.6166
#
#
#
# Elastic Compliance Matrix: (Units=1/GPa)
#
#
# Indices 1 2 3 4 5 6 
#
# 1 0.013457 -0.002330 -0.001405 0.001858 0.002459 -0.004417
# 2 -0.002330 0.009389 -0.003487 0.004845 -0.000278 0.002412
# 3 -0.001405 -0.003487 0.012687 -0.002701 0.004836 0.003187
# 4 0.001858 0.004845 -0.002701 0.024455 -0.000020 0.002646
# 5 0.002459 -0.000278 0.004836 -0.000020 0.027977 0.002425
# 6 -0.004417 0.002412 0.003187 0.002646 0.002425 0.025114
#
#
# Mechanical properties :
#
#
# Convention : Reuss Voigt Hill
#
# Bulk Modulus (GPa) = 47.42129 58.23983 52.83056
# Shear Modulus (GPa) = 37.15980 43.13744 40.14862
#
# Velocity S-wave (km/s) = 4.17523 4.49853 4.33989
# Velocity P-wave (km/s) = 6.74461 7.36913 7.06377
#
# Compressibility (1/GPa) = 0.02108758
#
# Stress axis : x y z
#
# Youngs Moduli (GPa) = 74.31174 106.50556 78.82245
#
# Poissons Ratio (x) = 0.24814 0.11077
# Poissons Ratio (y) = 0.17314 0.27488
# Poissons Ratio (z) = 0.10443 0.37142
#
# Static dielectric constant tensor:
#      x y z
#    x 1.793680 0.054440 0.030530 
#    y 0.054440 1.830750 0.038970 
#    z 0.030530 0.038970 1.768230 
# 
# From -- ./inp_files/243408.got.cif
#   From: 2010.05.17/outbox.cif.g08.bks.cpg/sg2_122_cif.got.tgz:243408.got - 2010.06.03 11:33:40.
