data_PCOD9069934
_publ_section_title
;
Structure prediction by ZEFSAII (Michael W. Deem and Ramdas Pophale) SiO2 
 PCOD9069934
Probable space group: P -1
;
_chemical_formula_sum "Si O2"
_cell_formula_units_Z 13
_cell_length_a 8.229385
_cell_length_b 14.122733
_cell_length_c 9.146082
_cell_angle_alpha 45.075878
_cell_angle_beta 96.819320
_cell_angle_gamma 122.516164
_cell_volume 570.869199
_symmetry_space_group_name_H-M "P -1"
_symmetry_group_IT_number 2
_symmetry_cell_setting 'triclinic'
loop_
_space_group_symop_operation_xyz
x,y,z
-x,-y,-z
loop_
_atom_site_type_symbol
_atom_site_label
_atom_site_fract_x
_atom_site_fract_y
_atom_site_fract_z
Si Si1 0.548509 0.243726 0.052828
Si Si2 0.620372 0.274193 0.357826
Si Si3 0.500000 0.500000 0.000000
Si Si4 0.944143 0.642329 0.670238
Si Si5 0.932162 0.823694 0.752752
Si Si6 0.141231 0.962017 0.134405
Si Si7 0.705782 0.066614 0.113586
O O1 0.705210 0.456241 0.839606
O O2 0.557696 0.193623 0.274686
O O3 0.671123 0.200483 0.010617
O O4 0.313072 0.115833 0.096491
O O5 0.570623 0.404883 0.212148
O O6 0.870742 0.371369 0.299877
O O7 0.482020 0.119693 0.628367
O O8 0.320174 0.313346 0.103337
O O9 0.959706 0.725971 0.735845
O O10 0.994145 0.779747 0.404854
O O11 0.076280 0.867404 0.857633
O O12 0.000000 0.000000 0.500000
O O13 0.269518 0.950057 0.035755
O O14 0.000000 0.000000 0.000000
#
# Coordination Sequence:
#
# PCOD9069934 Si02
#       7
#     2   2   1   2   2   2   2
#     4  12  25  49  75 105 142 191 242 298 354 433
#     4  12  24  46  77 109 141 182 244 304 359 419
#     4  12  26  40  74 114 140 178 244 308 360 416
#     4  12  26  49  75 106 143 191 242 295 365 426
#     4  12  24  43  73 106 140 184 240 304 354 417
#     4  12  30  48  69 104 151 194 238 292 358 433
#     4  12  25  46  73 104 145 196 237 290 365 426
#
# _framework density 22.772292
#
# number of rings (size 3 to 8) (size 9 to 14) (size 15 to 20)
#    0.000    0.000    6.154    4.154    2.154    1.231 
#    2.769    0.000    0.000    0.000    0.000    0.000 
#    0.000    0.000    0.000    0.000    0.000    0.000 
#
# Total GULP energy -72585.473509 kJ/mol
# GULP energy per Si atom -5583.497962 kJ/mol
# Density = 2.272046 g / cm^3
# Si number density = 22.772292 Si / 1000 Ang^3
#
#
#
# Elastic Constant Matrix: (Units=GPa)
#
#
# Indices 1 2 3 4 5 6 
#
# 1 63.8115 4.9191 33.5019 -9.5955 -1.2506 24.3633
# 2 4.9191 99.9875 66.2656 -19.3736 -12.8537 14.1547
# 3 33.5019 66.2656 137.2289 -13.0839 -15.8092 16.0577
# 4 -9.5955 -19.3736 -13.0839 47.7750 -1.7514 -8.2044
# 5 -1.2506 -12.8537 -15.8092 -1.7514 48.8249 6.5925
# 6 24.3633 14.1547 16.0577 -8.2044 6.5925 53.5939
#
#
#
# Elastic Compliance Matrix: (Units=1/GPa)
#
#
# Indices 1 2 3 4 5 6 
#
# 1 0.022895 0.005436 -0.006633 0.003403 0.001274 -0.009492
# 2 0.005436 0.017191 -0.008351 0.005180 0.002693 -0.004048
# 3 -0.006633 -0.008351 0.012921 -0.000948 0.001646 0.001002
# 4 0.003403 0.005180 -0.000948 0.023655 0.001890 0.000758
# 5 0.001274 0.002693 0.001646 0.001890 0.022398 -0.004249
# 6 -0.009492 -0.004048 0.001002 0.000758 -0.004249 0.024382
#
#
# Mechanical properties :
#
#
# Convention : Reuss Voigt Hill
#
# Bulk Modulus (GPa) = 29.48730 56.71121 43.09926
# Shear Modulus (GPa) = 32.50142 43.12819 37.81481
#
# Velocity S-wave (km/s) = 3.78198 4.35660 4.07942
# Velocity P-wave (km/s) = 5.66109 7.08973 6.41531
#
# Compressibility (1/GPa) = 0.03391290
#
# Stress axis : x y z
#
# Youngs Moduli (GPa) = 43.67751 58.17014 77.39507
#
# Poissons Ratio (x) = -0.31622 0.51332
# Poissons Ratio (y) = -0.23744 0.64629
# Poissons Ratio (z) = 0.28969 0.48575
#
# Static dielectric constant tensor:
#      x y z
#    x 3.200410 -0.457490 0.201030 
#    y -0.457490 1.956100 -0.094800 
#    z 0.201030 -0.094800 1.857550 
# 
# From -- ./inp_files/176570.got.cif
#   From: 2010.05.17/outbox.cif.g08.bks.cpg/sg2_89_cif.got.tgz:176570.got - 2010.06.03 11:33:40.
