data_PCOD9069714
_publ_section_title
;
Structure prediction by ZEFSAII (Michael W. Deem and Ramdas Pophale) SiO2 
 PCOD9069714
Probable space group: P -1
;
_chemical_formula_sum "Si O2"
_cell_formula_units_Z 16
_cell_length_a 12.179542
_cell_length_b 8.723394
_cell_length_c 29.935768
_cell_angle_alpha 32.549494
_cell_angle_beta 151.545991
_cell_angle_gamma 129.873569
_cell_volume 750.723607
_symmetry_space_group_name_H-M "P -1"
_symmetry_group_IT_number 2
_symmetry_cell_setting 'triclinic'
loop_
_space_group_symop_operation_xyz
x,y,z
-x,-y,-z
loop_
_atom_site_type_symbol
_atom_site_label
_atom_site_fract_x
_atom_site_fract_y
_atom_site_fract_z
Si Si1 0.752600 0.637053 0.347178
Si Si2 0.293039 0.704814 0.840804
Si Si3 0.518884 0.651759 0.089650
Si Si4 0.774975 0.413330 0.638610
Si Si5 0.792487 0.351931 0.837634
Si Si6 0.230048 0.259669 0.350104
Si Si7 0.102702 0.630622 0.633359
Si Si8 0.984344 0.675587 0.903971
O O1 0.504941 0.573144 0.284401
O O2 0.845772 0.525038 0.358191
O O3 0.000000 0.500000 0.500000
O O4 0.646985 0.005397 0.222212
O O5 0.310949 0.497484 0.855101
O O6 0.001348 0.843262 0.715704
O O7 0.500000 0.500000 0.000000
O O8 0.639126 0.478470 0.220409
O O9 0.260786 0.613395 0.000075
O O10 0.500000 0.000000 0.000000
O O11 0.500000 0.500000 0.500000
O O12 0.767399 0.615354 0.629977
O O13 0.934869 0.501565 0.635936
O O14 0.871087 0.049792 0.775112
O O15 0.826863 0.469351 0.772477
O O16 0.849241 0.546417 0.850282
O O17 0.000000 0.000000 0.000000
O O18 0.500000 0.000000 0.500000
O O19 0.000000 0.000000 0.500000
O O20 0.000000 0.500000 0.000000
#
# Coordination Sequence:
#
# PCOD9069714 Si02
#       8
#     2   2   2   2   2   2   2   2
#     4  12  28  47  74 106 146 194 248 301 365 432
#     4  12  25  44  73 106 140 190 240 297 363 429
#     4  12  23  47  75 106 144 189 246 299 363 436
#     4  12  29  47  74 111 145 195 244 299 372 437
#     4  12  27  48  72 110 149 192 242 301 370 436
#     4  12  26  47  75 103 149 189 240 302 366 439
#     4  12  28  48  75 105 149 192 249 304 360 437
#     4  12  26  47  76 108 150 193 240 301 369 437
#
# _framework density 21.31277
#
# number of rings (size 3 to 8) (size 9 to 14) (size 15 to 20)
#    0.000    0.000    2.500    6.750   10.500    0.000 
#    0.000    0.000    0.000    0.000    0.000    0.000 
#    0.000    0.000    0.000    0.000    0.000    0.000 
#
# Total GULP energy -89477.716750 kJ/mol
# GULP energy per Si atom -5592.357297 kJ/mol
# Density = 2.126426 g / cm^3
# Si number density = 21.312770 Si / 1000 Ang^3
#
#
#
# Elastic Constant Matrix: (Units=GPa)
#
#
# Indices 1 2 3 4 5 6 
#
# 1 84.8781 20.7038 -2.9653 8.7909 -3.6305 -7.7539
# 2 20.7038 109.0285 24.8537 17.4719 3.2963 0.1593
# 3 -2.9653 24.8537 109.0199 7.9184 -9.4210 -5.3641
# 4 8.7909 17.4719 7.9184 61.1215 4.0646 4.3439
# 5 -3.6305 3.2963 -9.4210 4.0646 41.1388 4.0240
# 6 -7.7539 0.1593 -5.3641 4.3439 4.0240 51.1384
#
#
#
# Elastic Compliance Matrix: (Units=1/GPa)
#
#
# Indices 1 2 3 4 5 6 
#
# 1 0.012865 -0.002538 0.001281 -0.001545 0.001579 0.002100
# 2 -0.002538 0.010616 -0.002465 -0.002231 -0.001382 -0.000378
# 3 0.001281 -0.002465 0.010128 -0.001048 0.002621 0.001147
# 4 -0.001545 -0.002231 -0.001048 0.017595 -0.001770 -0.001692
# 5 0.001579 -0.001382 0.002621 -0.001770 0.025464 -0.001335
# 6 0.002100 -0.000378 0.001147 -0.001692 -0.001335 0.020243
#
#
# Mechanical properties :
#
#
# Convention : Reuss Voigt Hill
#
# Bulk Modulus (GPa) = 38.22085 43.12346 40.67215
# Shear Modulus (GPa) = 44.21752 48.03537 46.12644
#
# Velocity S-wave (km/s) = 4.55982 4.75260 4.65721
# Velocity P-wave (km/s) = 6.75980 7.09886 6.93141
#
# Compressibility (1/GPa) = 0.02616373
#
# Stress axis : x y z
#
# Youngs Moduli (GPa) = 77.73141 94.19998 98.73152
#
# Poissons Ratio (x) = 0.23909 -0.12643
# Poissons Ratio (y) = 0.19729 0.24338
# Poissons Ratio (z) = -0.09954 0.23221
#
# Static dielectric constant tensor:
#      x y z
#    x 2.260100 0.511200 0.107440 
#    y 0.511200 2.257590 0.093290 
#    z 0.107440 0.093290 1.792580 
# 
# From -- ./inp_files/622981.got.cif
#   From: 2010.05.17/outbox.cif.g08.bks.cpg/sg2_312_cif.got.tgz:622981.got - 2010.06.03 11:33:40.
