data_PCOD9069423
_publ_section_title
;
Structure prediction by ZEFSAII (Michael W. Deem and Ramdas Pophale) SiO2 
 PCOD9069423
Probable space group: P -1
;
_chemical_formula_sum "Si O2"
_cell_formula_units_Z 15
_cell_length_a 20.509759
_cell_length_b 6.482490
_cell_length_c 8.211802
_cell_angle_alpha 96.702237
_cell_angle_beta 141.677142
_cell_angle_gamma 94.129811
_cell_volume 648.234294
_symmetry_space_group_name_H-M "P -1"
_symmetry_group_IT_number 2
_symmetry_cell_setting 'triclinic'
loop_
_space_group_symop_operation_xyz
x,y,z
-x,-y,-z
loop_
_atom_site_type_symbol
_atom_site_label
_atom_site_fract_x
_atom_site_fract_y
_atom_site_fract_z
Si Si1 0.346346 0.676953 0.522632
Si Si2 0.546126 0.928198 0.751232
Si Si3 0.056238 0.653018 0.286446
Si Si4 0.678546 0.607293 0.874459
Si Si5 0.296558 0.647238 0.775544
Si Si6 0.122770 0.760599 0.997012
Si Si7 0.000000 0.000000 0.000000
Si Si8 0.879098 0.010593 0.298849
O O1 0.450708 0.865435 0.691712
O O2 0.340184 0.509848 0.346850
O O3 0.351407 0.596971 0.710074
O O4 0.234512 0.750925 0.300473
O O5 0.588599 0.728564 0.756585
O O6 0.500000 0.000000 0.500000
O O7 0.646331 0.103761 0.045520
O O8 0.167117 0.580162 0.481331
O O9 0.966040 0.472839 0.189692
O O10 0.110856 0.885764 0.495979
O O11 0.997917 0.746413 0.034164
O O12 0.684334 0.465570 0.030666
O O13 0.793550 0.784319 0.101632
O O14 0.078909 0.956316 0.002884
O O15 0.150140 0.822994 0.868916
O O16 0.000000 0.000000 0.500000
#
# Coordination Sequence:
#
# PCOD9069423 Si02
#       8
#     2   2   2   2   2   2   1   2
#     4  12  27  48  78 110 148 200 258 311 374 457
#     4  12  26  55  76 108 157 197 254 322 380 443
#     4  12  25  47  71 108 152 197 248 310 376 450
#     4  12  27  50  76 111 152 200 250 322 379 436
#     4  12  27  49  79 110 152 202 253 313 378 457
#     4  12  26  46  71 108 151 196 251 310 377 450
#     4  12  26  44  72 106 154 198 236 322 374 438
#     4  12  23  43  71 104 144 198 247 302 378 451
#
# _framework density 23.139782
#
# number of rings (size 3 to 8) (size 9 to 14) (size 15 to 20)
#    0.000    0.000    5.333    4.800    0.000    0.533 
#    4.800    0.000    0.000    0.000    0.000    0.000 
#    0.000    0.000    0.000    0.000    0.000    0.000 
#
# Total GULP energy -83556.926334 kJ/mol
# GULP energy per Si atom -5570.461756 kJ/mol
# Density = 2.308712 g / cm^3
# Si number density = 23.139782 Si / 1000 Ang^3
#
#
#
# Elastic Constant Matrix: (Units=GPa)
#
#
# Indices 1 2 3 4 5 6 
#
# 1 100.1266 28.5697 40.2270 4.5966 3.6855 1.0246
# 2 28.5697 62.3300 19.3760 6.7015 0.0909 0.2679
# 3 40.2270 19.3760 91.3972 32.5420 5.8329 -9.8556
# 4 4.5966 6.7015 32.5420 27.9082 -0.2717 15.2079
# 5 3.6855 0.0909 5.8329 -0.2717 43.0088 6.9399
# 6 1.0246 0.2679 -9.8556 15.2079 6.9399 34.8615
#
#
#
# Elastic Compliance Matrix: (Units=1/GPa)
#
#
# Indices 1 2 3 4 5 6 
#
# 1 0.022361 -0.005881 -0.032874 0.055738 0.008708 -0.035954
# 2 -0.005881 0.018983 0.002055 -0.008377 -0.000574 0.004377
# 3 -0.032874 0.002055 0.099904 -0.171821 -0.029577 0.110037
# 4 0.055738 -0.008377 -0.171821 0.344784 0.054845 -0.211475
# 5 0.008708 -0.000574 -0.029577 0.054845 0.033180 -0.039144
# 6 -0.035954 0.004377 0.110037 -0.211475 -0.039144 0.160862
#
#
# Mechanical properties :
#
#
# Convention : Reuss Voigt Hill
#
# Bulk Modulus (GPa) = 14.73849 47.79990 31.26920
# Shear Modulus (GPa) = 6.44255 32.20110 19.32182
#
# Velocity S-wave (km/s) = 1.67040 3.73445 2.89278
# Velocity P-wave (km/s) = 3.17859 6.26871 4.96992
#
# Compressibility (1/GPa) = 0.06784954
#
# Stress axis : x y z
#
# Youngs Moduli (GPa) = 44.71983 52.67813 10.00959
#
# Poissons Ratio (x) = 0.30982 0.32905
# Poissons Ratio (y) = 0.26302 -0.02057
# Poissons Ratio (z) = 1.47010 -0.10827
#
# Static dielectric constant tensor:
#      x y z
#    x 1.994440 0.018700 -0.114950 
#    y 0.018700 1.879040 -0.048670 
#    z -0.114950 -0.048670 2.001830 
# 
# From -- ./inp_files/339911.got.cif
#   From: 2010.05.17/outbox.cif.g08.bks.cpg/sg2_170_cif.got.tgz:339911.got - 2010.06.03 11:33:40.
