data_PCOD9069132
_publ_section_title
;
Structure prediction by ZEFSAII (Michael W. Deem and Ramdas Pophale) SiO2 
 PCOD9069132
Probable space group: P -1
;
_chemical_formula_sum "Si O2"
_cell_formula_units_Z 16
_cell_length_a 13.504737
_cell_length_b 12.188857
_cell_length_c 9.906663
_cell_angle_alpha 89.781744
_cell_angle_beta 106.156844
_cell_angle_gamma 149.906430
_cell_volume 683.736803
_symmetry_space_group_name_H-M "P -1"
_symmetry_group_IT_number 2
_symmetry_cell_setting 'triclinic'
loop_
_space_group_symop_operation_xyz
x,y,z
-x,-y,-z
loop_
_atom_site_type_symbol
_atom_site_label
_atom_site_fract_x
_atom_site_fract_y
_atom_site_fract_z
Si Si1 0.065060 0.744369 0.899776
Si Si2 0.156690 0.960266 0.679703
Si Si3 0.865650 0.060093 0.811269
Si Si4 0.065432 0.472146 0.893797
Si Si5 0.336327 0.556373 0.645935
Si Si6 0.228071 0.699041 0.677360
Si Si7 0.257304 0.292337 0.832951
Si Si8 0.560044 0.217740 0.755696
O O1 0.198319 0.915624 0.820075
O O2 0.794123 0.458956 0.754014
O O3 0.105588 0.687960 0.031737
O O4 0.092481 0.873384 0.013887
O O5 0.898857 0.687783 0.528264
O O6 0.179767 0.107336 0.730028
O O7 0.370576 0.131218 0.662490
O O8 0.943145 0.251041 0.773235
O O9 0.038632 0.128238 0.837529
O O10 0.592332 0.781046 0.677262
O O11 0.142046 0.627352 0.802201
O O12 0.304874 0.653490 0.049061
O O13 0.330308 0.675359 0.696764
O O14 0.315533 0.447745 0.755693
O O15 0.000000 0.500000 0.500000
O O16 0.421300 0.971174 0.699238
O O17 0.500000 0.500000 0.000000
#
# Coordination Sequence:
#
# PCOD9069132 Si02
#       8
#     2   2   2   2   2   2   2   2
#     4   8  21  41  62  93 129 167 218 274 310 394
#     4  12  24  41  68  99 133 177 219 270 343 392
#     4   9  22  44  66  96 131 170 221 271 326 394
#     4   8  20  42  66  93 130 175 221 278 318 383
#     4  12  26  43  66 101 138 175 218 276 340 395
#     4  12  22  43  70  97 139 180 218 275 335 399
#     4  12  25  45  74  96 130 178 225 278 330 395
#     4   9  22  43  66  97 131 176 227 269 325 395
#
# _framework density 23.400817
#
# number of rings (size 3 to 8) (size 9 to 14) (size 15 to 20)
#    1.500    0.000    2.500    3.000    1.750    5.500 
#    2.250    3.125    0.000    0.000    0.000    0.000 
#    0.000    0.000    0.000    0.000    0.000    0.000 
#
# Total GULP energy -89209.817607 kJ/mol
# GULP energy per Si atom -5575.613600 kJ/mol
# Density = 2.334756 g / cm^3
# Si number density = 23.400817 Si / 1000 Ang^3
#
#
#
# Elastic Constant Matrix: (Units=GPa)
#
#
# Indices 1 2 3 4 5 6 
#
# 1 257.3873 50.3244 76.9638 46.5779 0.8673 -4.4668
# 2 50.3244 54.2835 30.3489 17.6363 5.9070 3.7821
# 3 76.9638 30.3489 88.2177 31.4199 14.3292 7.1393
# 4 46.5779 17.6363 31.4199 62.2330 -3.3170 7.8659
# 5 0.8673 5.9070 14.3292 -3.3170 33.0396 13.6650
# 6 -4.4668 3.7821 7.1393 7.8659 13.6650 37.5599
#
#
#
# Elastic Compliance Matrix: (Units=1/GPa)
#
#
# Indices 1 2 3 4 5 6 
#
# 1 0.005991 -0.003052 -0.003854 -0.001827 0.001170 0.001709
# 2 -0.003052 0.024933 -0.004579 -0.002521 -0.002395 -0.000604
# 3 -0.003854 -0.004579 0.019908 -0.006420 -0.008653 0.000711
# 4 -0.001827 -0.002521 -0.006420 0.022650 0.008238 -0.006484
# 5 0.001170 -0.002395 -0.008653 0.008238 0.041341 -0.014741
# 6 0.001709 -0.000604 0.000711 -0.006484 -0.014741 0.033474
#
#
# Mechanical properties :
#
#
# Convention : Reuss Voigt Hill
#
# Bulk Modulus (GPa) = 35.89267 79.46251 57.67759
# Shear Modulus (GPa) = 27.69259 42.71660 35.20459
#
# Velocity S-wave (km/s) = 3.44379 4.27714 3.88289
# Velocity P-wave (km/s) = 5.58431 7.64348 6.69355
#
# Compressibility (1/GPa) = 0.02786084
#
# Stress axis : x y z
#
# Youngs Moduli (GPa) = 166.92640 40.10753 50.23127
#
# Poissons Ratio (x) = 0.12240 0.19361
# Poissons Ratio (y) = 0.50943 0.23002
# Poissons Ratio (z) = 0.64338 0.18366
#
# Static dielectric constant tensor:
#      x y z
#    x 2.021050 0.036220 -0.079050 
#    y 0.036220 1.966230 -0.013620 
#    z -0.079050 -0.013620 1.891330 
# 
# From -- ./inp_files/452294.got.cif
#   From: 2010.05.17/outbox.cif.g08.bks.cpg/sg2_227_cif.got.tgz:452294.got - 2010.06.03 11:33:40.
