data_PCOD9069253
_publ_section_title
;
Structure prediction by ZEFSAII (Michael W. Deem and Ramdas Pophale) SiO2 
 PCOD9069253
Probable space group: P -1
;
_chemical_formula_sum "Si O2"
_cell_formula_units_Z 15
_cell_length_a 11.598017
_cell_length_b 5.170305
_cell_length_c 19.167697
_cell_angle_alpha 85.970018
_cell_angle_beta 31.555029
_cell_angle_gamma 95.608829
_cell_volume 572.006029
_symmetry_space_group_name_H-M "P -1"
_symmetry_group_IT_number 2
_symmetry_cell_setting 'triclinic'
loop_
_space_group_symop_operation_xyz
x,y,z
-x,-y,-z
loop_
_atom_site_type_symbol
_atom_site_label
_atom_site_fract_x
_atom_site_fract_y
_atom_site_fract_z
Si Si1 0.267540 0.209470 0.753615
Si Si2 0.327463 0.841181 0.210075
Si Si3 0.790278 0.294260 0.993644
Si Si4 0.933221 0.052513 0.406970
Si Si5 0.766633 0.511157 0.861036
Si Si6 0.481071 0.480889 0.248468
Si Si7 0.458761 0.791885 0.590115
Si Si8 0.000000 0.000000 0.500000
O O1 0.416711 0.326636 0.742937
O O2 0.351786 0.464827 0.649669
O O3 0.996697 0.170233 0.903172
O O4 0.315191 0.932308 0.712172
O O5 0.234076 0.741178 0.183640
O O6 0.407581 0.628942 0.217667
O O7 0.116577 0.919984 0.354694
O O8 0.558875 0.089403 0.083038
O O9 0.860399 0.511352 0.890363
O O10 0.696740 0.388889 0.110017
O O11 0.076905 0.238272 0.268536
O O12 0.916859 0.219845 0.480791
O O13 0.713142 0.852545 0.489774
O O14 0.500000 0.500000 0.000000
O O15 0.258662 0.228475 0.381998
O O16 0.500000 0.000000 0.500000
#
# Coordination Sequence:
#
# PCOD9069253 Si02
#       8
#     2   2   2   2   2   2   2   1
#     4  12  31  51  82 110 163 211 269 324 386 484
#     4  12  25  42  78 111 148 200 253 330 390 467
#     4  12  27  49  74 112 158 205 263 321 396 468
#     4  12  27  44  79 109 152 196 260 324 401 459
#     4  12  23  45  70 115 152 195 255 326 398 468
#     4  12  27  49  76 117 156 205 265 319 407 465
#     4  12  30  55  79 116 156 215 265 322 398 475
#     4  12  22  50  70 108 156 192 252 324 390 460
#
# _framework density 26.223496999999998
#
# number of rings (size 3 to 8) (size 9 to 14) (size 15 to 20)
#    0.000    0.000    6.667    2.000    9.333    1.067 
#    0.000    0.000    0.000    0.000    0.000    0.000 
#    0.000    0.000    0.000    0.000    0.000    0.000 
#
# Total GULP energy -83851.572904 kJ/mol
# GULP energy per Si atom -5590.104860 kJ/mol
# Density = 2.616381 g / cm^3
# Si number density = 26.223497 Si / 1000 Ang^3
#
#
#
# Elastic Constant Matrix: (Units=GPa)
#
#
# Indices 1 2 3 4 5 6 
#
# 1 78.5302 -9.2835 35.4294 -0.8613 -4.4798 3.4179
# 2 -9.2835 76.6917 20.0801 3.4481 -5.3700 4.3143
# 3 35.4294 20.0801 125.5008 4.9392 -16.3917 -1.8376
# 4 -0.8613 3.4481 4.9392 35.1886 -8.9396 10.3260
# 5 -4.4798 -5.3700 -16.3917 -8.9396 53.4018 -0.1571
# 6 3.4179 4.3143 -1.8376 10.3260 -0.1571 29.5142
#
#
#
# Elastic Compliance Matrix: (Units=1/GPa)
#
#
# Indices 1 2 3 4 5 6 
#
# 1 0.015560 0.003318 -0.004990 0.001805 0.000400 -0.003227
# 2 0.003318 0.014481 -0.003198 0.000107 0.000763 -0.002734
# 3 -0.004990 -0.003198 0.010259 -0.001325 0.002193 0.002159
# 4 0.001805 0.000107 -0.001325 0.033515 0.005331 -0.012004
# 5 0.000400 0.000763 0.002193 0.005331 0.020397 -0.001778
# 6 -0.003227 -0.002734 0.002159 -0.012004 -0.001778 0.038980
#
#
# Mechanical properties :
#
#
# Convention : Reuss Voigt Hill
#
# Bulk Modulus (GPa) = 32.72195 41.46385 37.09290
# Shear Modulus (GPa) = 32.65462 39.25402 35.95432
#
# Velocity S-wave (km/s) = 3.53263 3.87318 3.70682
# Velocity P-wave (km/s) = 5.39856 5.98733 5.70055
#
# Compressibility (1/GPa) = 0.03056053
#
# Stress axis : x y z
#
# Youngs Moduli (GPa) = 64.26545 69.05746 97.47857
#
# Poissons Ratio (x) = -0.22916 0.48639
# Poissons Ratio (y) = -0.21326 0.31177
# Poissons Ratio (z) = 0.32067 0.22087
#
# Static dielectric constant tensor:
#      x y z
#    x 2.115200 -0.041710 0.207680 
#    y -0.041710 2.136660 -0.003510 
#    z 0.207680 -0.003510 2.256410 
# 
# From -- ./inp_files/363438.got.cif
#   From: 2010.05.17/outbox.cif.g08.bks.cpg/sg2_182_cif.got.tgz:363438.got - 2010.06.03 11:33:40.
