data_PCOD9069676
_publ_section_title
;
Structure prediction by ZEFSAII (Michael W. Deem and Ramdas Pophale) SiO2 
 PCOD9069676
Probable space group: P -1
;
_chemical_formula_sum "Si O2"
_cell_formula_units_Z 15
_cell_length_a 11.369595
_cell_length_b 11.779514
_cell_length_c 9.395418
_cell_angle_alpha 129.847679
_cell_angle_beta 137.075658
_cell_angle_gamma 64.035302
_cell_volume 656.739211
_symmetry_space_group_name_H-M "P -1"
_symmetry_group_IT_number 2
_symmetry_cell_setting 'triclinic'
loop_
_space_group_symop_operation_xyz
x,y,z
-x,-y,-z
loop_
_atom_site_type_symbol
_atom_site_label
_atom_site_fract_x
_atom_site_fract_y
_atom_site_fract_z
Si Si1 0.500000 0.500000 0.000000
Si Si2 0.954709 0.139968 0.978762
Si Si3 0.858707 0.558805 0.533504
Si Si4 0.350396 0.378550 0.040248
Si Si5 0.937647 0.326761 0.645307
Si Si6 0.557263 0.859751 0.851036
Si Si7 0.920432 0.013537 0.285837
Si Si8 0.715140 0.286668 0.701602
O O1 0.327385 0.476265 0.727004
O O2 0.581476 0.631928 0.067462
O O3 0.787643 0.237278 0.879729
O O4 0.942535 0.051508 0.748038
O O5 0.095569 0.269471 0.251994
O O6 0.000000 0.000000 0.000000
O O7 0.879306 0.471069 0.629434
O O8 0.000000 0.500000 0.500000
O O9 0.446377 0.282376 0.162898
O O10 0.362739 0.554377 0.220031
O O11 0.145807 0.332093 0.835342
O O12 0.879238 0.184838 0.381396
O O13 0.857704 0.311191 0.720252
O O14 0.432566 0.825474 0.581485
O O15 0.500000 0.000000 0.000000
O O16 0.752686 0.907151 0.021576
O O17 0.000000 0.000000 0.500000
#
# Coordination Sequence:
#
# PCOD9069676 Si02
#       8
#     1   2   2   2   2   2   2   2
#     4  12  28  46  72 106 148 200 252 304 380 450
#     4  12  27  47  75 107 147 196 251 310 383 453
#     4  12  26  50  74 106 152 202 251 314 381 452
#     4  12  26  45  76 103 148 197 251 311 375 452
#     4  12  23  46  78 104 148 199 250 307 377 455
#     4  12  25  44  71 110 144 187 243 313 376 445
#     4  12  24  45  73 106 148 192 242 303 382 447
#     4  12  25  46  72 110 146 190 255 314 376 450
#
# _framework density 22.840116999999999
#
# number of rings (size 3 to 8) (size 9 to 14) (size 15 to 20)
#    0.000    0.000    6.667    2.400    3.733    0.000 
#    0.000    0.667    0.000    0.000    0.000    0.000 
#    0.000    0.000    0.000    0.000    0.000    0.000 
#
# Total GULP energy -83549.363282 kJ/mol
# GULP energy per Si atom -5569.957552 kJ/mol
# Density = 2.278813 g / cm^3
# Si number density = 22.840117 Si / 1000 Ang^3
#
#
#
# Elastic Constant Matrix: (Units=GPa)
#
#
# Indices 1 2 3 4 5 6 
#
# 1 29.0924 5.3989 20.3764 -2.6181 9.5537 1.7228
# 2 5.3989 162.1814 47.3425 7.8332 -1.5766 13.4657
# 3 20.3764 47.3425 135.6316 -18.6948 22.3687 2.9409
# 4 -2.6181 7.8332 -18.6948 47.5106 -5.1978 -5.3400
# 5 9.5537 -1.5766 22.3687 -5.1978 35.4522 2.9477
# 6 1.7228 13.4657 2.9409 -5.3400 2.9477 25.4850
#
#
#
# Elastic Compliance Matrix: (Units=1/GPa)
#
#
# Indices 1 2 3 4 5 6 
#
# 1 0.040351 0.000180 -0.004919 -0.000760 -0.007747 -0.001518
# 2 0.000180 0.007692 -0.003402 -0.002846 0.002401 -0.004558
# 3 -0.004919 -0.003402 0.010674 0.004194 -0.005143 0.002372
# 4 -0.000760 -0.002846 0.004194 0.023849 0.000428 0.006019
# 5 -0.007747 0.002401 -0.005143 0.000428 0.034042 -0.003999
# 6 -0.001518 -0.004558 0.002372 0.006019 -0.003999 0.043200
#
#
# Mechanical properties :
#
#
# Convention : Reuss Voigt Hill
#
# Bulk Modulus (GPa) = 23.56491 52.57122 38.06806
# Shear Modulus (GPa) = 26.28344 38.60874 32.44609
#
# Velocity S-wave (km/s) = 3.39596 4.11590 3.77314
# Velocity P-wave (km/s) = 5.07114 6.75681 5.97373
#
# Compressibility (1/GPa) = 0.04243599
#
# Stress axis : x y z
#
# Youngs Moduli (GPa) = 24.78269 130.00213 93.68518
#
# Poissons Ratio (x) = -0.02342 0.46084
# Poissons Ratio (y) = -0.00446 0.31868
# Poissons Ratio (z) = 0.12191 0.44221
#
# Static dielectric constant tensor:
#      x y z
#    x 1.990010 0.018160 -0.049950 
#    y 0.018160 1.857650 0.043320 
#    z -0.049950 0.043320 1.787640 
# 
# From -- ./inp_files/263680.got.cif
#   From: 2010.05.17/outbox.cif.g08.bks.cpg/sg2_132_cif.got.tgz:263680.got - 2010.06.03 11:33:40.
