data_PCOD9069211
_publ_section_title
;
Structure prediction by ZEFSAII (Michael W. Deem and Ramdas Pophale) SiO2 
 PCOD9069211
Probable space group: P -1
;
_chemical_formula_sum "Si O2"
_cell_formula_units_Z 14
_cell_length_a 9.646723
_cell_length_b 27.811032
_cell_length_c 31.106221
_cell_angle_alpha 7.662036
_cell_angle_beta 152.143819
_cell_angle_gamma 151.733264
_cell_volume 518.532291
_symmetry_space_group_name_H-M "P -1"
_symmetry_group_IT_number 2
_symmetry_cell_setting 'triclinic'
loop_
_space_group_symop_operation_xyz
x,y,z
-x,-y,-z
loop_
_atom_site_type_symbol
_atom_site_label
_atom_site_fract_x
_atom_site_fract_y
_atom_site_fract_z
Si Si1 0.597503 0.070549 0.248312
Si Si2 0.094070 0.793095 0.302343
Si Si3 0.500000 0.000000 0.500000
Si Si4 0.930381 0.506286 0.882724
Si Si5 0.500000 0.500000 0.000000
Si Si6 0.261420 0.922292 0.876138
Si Si7 0.757239 0.363860 0.661098
Si Si8 0.900447 0.489705 0.235686
O O1 0.796494 0.883578 0.503033
O O2 0.800251 0.358615 0.022239
O O3 0.324484 0.241828 0.044649
O O4 0.430634 0.808112 0.399069
O O5 0.883909 0.681589 0.383728
O O6 0.000000 0.500000 0.500000
O O7 0.018940 0.183242 0.918201
O O8 0.318363 0.852316 0.536998
O O9 0.729601 0.258938 0.300912
O O10 0.794456 0.257956 0.026094
O O11 0.289164 0.453672 0.027797
O O12 0.599107 0.041917 0.874025
O O13 0.106691 0.302138 0.492233
O O14 0.101420 0.696309 0.071297
O O15 0.500000 0.500000 0.500000
#
# Coordination Sequence:
#
# PCOD9069211 Si02
#       8
#     2   2   1   2   1   2   2   2
#     4  12  26  44  68 107 137 177 223 284 340 395
#     4  12  24  44  66  99 148 179 220 279 340 396
#     4  12  22  46  70  98 128 182 224 278 338 406
#     4  12  24  45  71  99 133 176 227 271 343 408
#     4  12  24  46  74  96 134 170 232 274 338 408
#     4  12  23  43  72  97 135 189 229 268 335 409
#     4  12  24  41  67 104 135 181 234 277 324 397
#     4  12  24  44  71  98 138 179 225 290 335 392
#
# _framework density 26.999282999999998
#
# number of rings (size 3 to 8) (size 9 to 14) (size 15 to 20)
#    0.000    0.000    2.857    8.571    0.000    0.000 
#    0.000    4.286    0.000    0.000    0.000    0.000 
#    0.000    0.000    0.000    0.000    0.000    0.000 
#
# Total GULP energy -78201.670855 kJ/mol
# GULP energy per Si atom -5585.833633 kJ/mol
# Density = 2.693783 g / cm^3
# Si number density = 26.999283 Si / 1000 Ang^3
#
#
#
# Elastic Constant Matrix: (Units=GPa)
#
#
# Indices 1 2 3 4 5 6 
#
# 1 -458.8287 293.9719 -545.7881 -26.3006 460.4779 -11.1932
# 2 293.9719 -28.2263 304.9927 26.8346 -256.8705 17.4881
# 3 -545.7881 304.9927 -479.8677 2.6920 477.9778 -39.0058
# 4 -26.3006 26.8346 2.6920 45.2057 21.4099 -2.1300
# 5 460.4779 -256.8705 477.9778 21.4099 -365.2325 24.4873
# 6 -11.1932 17.4881 -39.0058 -2.1300 24.4873 40.2470
#
#
#
# Elastic Compliance Matrix: (Units=1/GPa)
#
#
# Indices 1 2 3 4 5 6 
#
# 1 0.012039 0.001024 -0.005434 0.003055 0.007089 -0.006515
# 2 0.001024 0.007372 0.001816 -0.003088 -0.001716 -0.000278
# 3 -0.005434 0.001816 0.011207 -0.007723 0.006372 0.004275
# 4 0.003055 -0.003088 -0.007723 0.027332 -0.002632 -0.002246
# 5 0.007089 -0.001716 0.006372 -0.002632 0.015545 -0.000704
# 6 -0.006515 -0.000278 0.004275 -0.002246 -0.000704 0.027608
#
#
# Mechanical properties :
#
#
# Convention : Reuss Voigt Hill
#
# Bulk Modulus (GPa) = 39.32387 -95.61888 -28.14750
# Shear Modulus (GPa) = 43.56633 -123.96257 -40.19812
#
# Velocity S-wave (km/s) = 4.02134 -6.78329 -3.86276
# Velocity P-wave (km/s) = 6.01315 9.84088 5.50840
#
# Compressibility (1/GPa) = 0.02542985
#
# Stress axis : x y z
#
# Youngs Moduli (GPa) = 83.06234 135.65752 89.23072
#
# Poissons Ratio (x) = -0.13897 0.48488
# Poissons Ratio (y) = -0.08509 -0.16201
# Poissons Ratio (z) = 0.45136 -0.24631
#
# Static dielectric constant tensor:
#      x y z
#    x 2.099960 -0.429960 -0.091580 
#    y -0.429960 -1.024930 -2.675150 
#    z -0.091580 -2.675150 -0.960510 
# 
# From -- ./inp_files/622761.got.cif
#   From: 2010.05.17/outbox.cif.g08.bks.cpg/sg2_312_cif.got.tgz:622761.got - 2010.06.03 11:33:40.
