data_PCOD9069982
_publ_section_title
;
Structure prediction by ZEFSAII (Michael W. Deem and Ramdas Pophale) SiO2 
 PCOD9069982
Probable space group: P -1
;
_chemical_formula_sum "Si O2"
_cell_formula_units_Z 16
_cell_length_a 7.806138
_cell_length_b 15.522344
_cell_length_c 9.735899
_cell_angle_alpha 144.075088
_cell_angle_beta 65.665109
_cell_angle_gamma 104.630872
_cell_volume 623.360665
_symmetry_space_group_name_H-M "P -1"
_symmetry_group_IT_number 2
_symmetry_cell_setting 'triclinic'
loop_
_space_group_symop_operation_xyz
x,y,z
-x,-y,-z
loop_
_atom_site_type_symbol
_atom_site_label
_atom_site_fract_x
_atom_site_fract_y
_atom_site_fract_z
Si Si1 0.066438 0.531428 0.676369
Si Si2 0.324656 0.105954 0.019230
Si Si3 0.574361 0.399136 0.658653
Si Si4 0.621985 0.156424 0.527163
Si Si5 0.860188 0.627859 0.286116
Si Si6 0.299694 0.284163 0.988769
Si Si7 0.061945 0.063562 0.308200
Si Si8 0.695030 0.237690 0.151842
O O1 0.090865 0.395074 0.596746
O O2 0.253686 0.610536 0.733325
O O3 0.000000 0.500000 0.500000
O O4 0.894367 0.654780 0.945001
O O5 0.249215 0.209520 0.050218
O O6 0.422485 0.949655 0.719548
O O7 0.167808 0.072410 0.136528
O O8 0.490698 0.188346 0.132841
O O9 0.623617 0.326686 0.697086
O O10 0.355043 0.392329 0.695855
O O11 0.703407 0.284033 0.367539
O O12 0.613357 0.563247 0.825460
O O13 0.457404 0.171032 0.712958
O O14 0.834651 0.087458 0.409876
O O15 0.886043 0.792670 0.446643
O O16 0.000000 0.500000 0.000000
O O17 0.153336 0.902558 0.123121
#
# Coordination Sequence:
#
# PCOD9069982 Si02
#       8
#     2   2   2   2   2   2   2   2
#     4  12  26  46  74 107 143 187 243 296 354 428
#     4  12  25  45  72 103 141 185 240 291 352 427
#     4  12  24  44  71 100 144 179 238 287 356 419
#     4  12  26  46  71 104 144 186 232 294 361 426
#     4  12  26  46  72 106 145 189 236 297 365 426
#     4  12  26  45  71 105 144 184 231 298 359 421
#     4  12  25  45  73 105 141 188 241 289 352 429
#     4  12  26  45  72 105 135 187 237 300 342 419
#
# _framework density 25.667321999999999
#
# number of rings (size 3 to 8) (size 9 to 14) (size 15 to 20)
#    0.000    0.000    3.750    6.750    1.750    1.000 
#    0.000    1.875    0.000    0.000    0.000    0.000 
#    0.000    0.000    0.000    0.000    0.000    0.000 
#
# Total GULP energy -89606.399460 kJ/mol
# GULP energy per Si atom -5600.399966 kJ/mol
# Density = 2.560890 g / cm^3
# Si number density = 25.667322 Si / 1000 Ang^3
#
#
#
# Elastic Constant Matrix: (Units=GPa)
#
#
# Indices 1 2 3 4 5 6 
#
# 1 51.1600 1.1765 -0.9505 -6.2883 -14.0700 16.6955
# 2 1.1765 36.4913 10.9124 21.5538 7.7663 11.5908
# 3 -0.9505 10.9124 148.0995 3.2786 -6.3630 8.9609
# 4 -6.2883 21.5538 3.2786 49.0685 10.8340 -6.0268
# 5 -14.0700 7.7663 -6.3630 10.8340 44.4069 8.3738
# 6 16.6955 11.5908 8.9609 -6.0268 8.3738 45.4151
#
#
#
# Elastic Compliance Matrix: (Units=1/GPa)
#
#
# Indices 1 2 3 4 5 6 
#
# 1 0.026509 0.000992 0.001348 -0.001093 0.011032 -0.012444
# 2 0.000992 0.045093 -0.001976 -0.021317 0.000046 -0.014321
# 3 0.001348 -0.001976 0.007112 -0.000136 0.002167 -0.001812
# 4 -0.001093 -0.021317 -0.000136 0.032499 -0.006720 0.011421
# 5 0.011032 0.000046 0.002167 -0.006720 0.030016 -0.010921
# 6 -0.012444 -0.014321 -0.001812 0.011421 -0.010921 0.034136
#
#
# Mechanical properties :
#
#
# Convention : Reuss Voigt Hill
#
# Bulk Modulus (GPa) = 12.58752 28.66973 20.62863
# Shear Modulus (GPa) = 24.86122 42.75226 33.80674
#
# Velocity S-wave (km/s) = 3.11560 4.08564 3.63314
# Velocity P-wave (km/s) = 4.22580 5.78365 5.06498
#
# Compressibility (1/GPa) = 0.07944374
#
# Stress axis : x y z
#
# Youngs Moduli (GPa) = 37.72249 22.17650 140.60390
#
# Poissons Ratio (x) = -0.02201 -0.18955
# Poissons Ratio (y) = -0.03743 0.27780
# Poissons Ratio (z) = -0.05085 0.04382
#
# Static dielectric constant tensor:
#      x y z
#    x 2.016990 -0.014190 0.038940 
#    y -0.014190 2.056930 -0.027040 
#    z 0.038940 -0.027040 2.069760 
# 
# From -- ./inp_files/209297.got.cif
#   From: 2010.05.17/outbox.cif.g08.bks.cpg/sg2_105_cif.got.tgz:209297.got - 2010.06.03 11:33:40.
