data_PCOD9069819
_publ_section_title
;
Structure prediction by ZEFSAII (Michael W. Deem and Ramdas Pophale) SiO2 
 PCOD9069819
Probable space group: P -1
;
_chemical_formula_sum "Si O2"
_cell_formula_units_Z 15
_cell_length_a 8.724888
_cell_length_b 7.349657
_cell_length_c 18.846811
_cell_angle_alpha 51.212973
_cell_angle_beta 44.906824
_cell_angle_gamma 50.455555
_cell_volume 622.790688
_symmetry_space_group_name_H-M "P -1"
_symmetry_group_IT_number 2
_symmetry_cell_setting 'triclinic'
loop_
_space_group_symop_operation_xyz
x,y,z
-x,-y,-z
loop_
_atom_site_type_symbol
_atom_site_label
_atom_site_fract_x
_atom_site_fract_y
_atom_site_fract_z
Si Si1 0.965737 0.742005 0.594102
Si Si2 0.090449 0.051714 0.880965
Si Si3 0.309941 0.895645 0.115817
Si Si4 0.832638 0.995445 0.715221
Si Si5 0.500000 0.500000 0.500000
Si Si6 0.326417 0.866482 0.607868
Si Si7 0.591505 0.671540 0.311725
Si Si8 0.500835 0.666524 0.750794
O O1 0.751625 0.684422 0.644985
O O2 0.221341 0.546147 0.550227
O O3 0.882677 0.776518 0.695567
O O4 0.000000 0.000000 0.500000
O O5 0.179613 0.285894 0.797947
O O6 0.887798 0.088804 0.880794
O O7 0.329135 0.841819 0.824445
O O8 0.000000 0.000000 0.000000
O O9 0.207032 0.063718 0.177391
O O10 0.431278 0.614117 0.173340
O O11 0.500000 0.000000 0.000000
O O12 0.610564 0.214646 0.705387
O O13 0.070202 0.048403 0.629584
O O14 0.498859 0.771814 0.394832
O O15 0.378162 0.614272 0.603930
O O16 0.355490 0.746261 0.705795
O O17 0.500000 0.000000 0.500000
#
# Coordination Sequence:
#
# PCOD9069819 Si02
#       8
#     2   2   2   2   1   2   2   2
#     4  12  24  44  72 108 150 198 245 303 373 457
#     4  12  28  51  80 110 149 198 260 317 385 455
#     4  12  29  50  78 111 147 198 253 322 385 445
#     4  12  24  48  72 107 153 192 254 306 373 446
#     4  12  24  40  74 106 152 202 244 302 370 450
#     4  12  28  45  73 113 154 202 242 307 376 453
#     4  12  26  46  74 109 152 200 250 310 375 451
#     4  12  27  49  76 112 151 197 256 308 382 458
#
# _framework density 24.085138000000001
#
# number of rings (size 3 to 8) (size 9 to 14) (size 15 to 20)
#    0.000    0.000    6.667    2.400    1.867    3.733 
#    0.000    0.000    0.000    0.000    0.000    0.000 
#    0.000    0.000    0.000    0.000    0.000    0.000 
#
# Total GULP energy -83683.125702 kJ/mol
# GULP energy per Si atom -5578.875047 kJ/mol
# Density = 2.403032 g / cm^3
# Si number density = 24.085138 Si / 1000 Ang^3
#
#
#
# Elastic Constant Matrix: (Units=GPa)
#
#
# Indices 1 2 3 4 5 6 
#
# 1 163.8219 32.0022 81.1988 6.0783 0.8005 -40.4022
# 2 32.0022 79.2945 39.9108 3.4660 -7.3586 -15.7193
# 3 81.1988 39.9108 199.2331 6.7218 -12.5185 -16.1927
# 4 6.0783 3.4660 6.7218 41.3982 2.8121 3.6346
# 5 0.8005 -7.3586 -12.5185 2.8121 56.5324 15.1778
# 6 -40.4022 -15.7193 -16.1927 3.6346 15.1778 43.7574
#
#
#
# Elastic Compliance Matrix: (Units=1/GPa)
#
#
# Indices 1 2 3 4 5 6 
#
# 1 0.010345 -0.000850 -0.003458 -0.001467 -0.003442 0.009282
# 2 -0.000850 0.014919 -0.002276 -0.001110 0.000527 0.003642
# 3 -0.003458 -0.002276 0.006843 -0.000355 0.001847 -0.002089
# 4 -0.001467 -0.001110 -0.000355 0.024884 -0.000418 -0.003807
# 5 -0.003442 0.000527 0.001847 -0.000418 0.020781 -0.009479
# 6 0.009282 0.003642 -0.002089 -0.003807 -0.009479 0.035563
#
#
# Mechanical properties :
#
#
# Convention : Reuss Voigt Hill
#
# Bulk Modulus (GPa) = 52.79976 83.17479 67.98728
# Shear Modulus (GPa) = 37.64634 47.62010 42.63322
#
# Velocity S-wave (km/s) = 3.95784 4.45135 4.21183
# Velocity P-wave (km/s) = 6.54642 7.81204 7.20707
#
# Compressibility (1/GPa) = 0.01893948
#
# Stress axis : x y z
#
# Youngs Moduli (GPa) = 96.66753 67.02846 146.14050
#
# Poissons Ratio (x) = 0.05694 0.50539
# Poissons Ratio (y) = 0.08212 0.33258
# Poissons Ratio (z) = 0.33430 0.15254
#
# Static dielectric constant tensor:
#      x y z
#    x 2.027240 0.091620 0.032900 
#    y 0.091620 2.099420 0.036710 
#    z 0.032900 0.036710 1.961280 
# 
# From -- ./inp_files/587119.got.cif
#   From: 2010.05.17/outbox.cif.g08.bks.cpg/sg2_294_cif.got.tgz:587119.got - 2010.06.03 11:33:40.
