data_PCOD9069056
_publ_section_title
;
Structure prediction by ZEFSAII (Michael W. Deem and Ramdas Pophale) SiO2 
 PCOD9069056
Probable space group: P -1
;
_chemical_formula_sum "Si O2"
_cell_formula_units_Z 12
_cell_length_a 10.090249
_cell_length_b 5.106390
_cell_length_c 12.530672
_cell_angle_alpha 115.636496
_cell_angle_beta 112.143490
_cell_angle_gamma 86.078417
_cell_volume 535.670977
_symmetry_space_group_name_H-M "P -1"
_symmetry_group_IT_number 2
_symmetry_cell_setting 'triclinic'
loop_
_space_group_symop_operation_xyz
x,y,z
-x,-y,-z
loop_
_atom_site_type_symbol
_atom_site_label
_atom_site_fract_x
_atom_site_fract_y
_atom_site_fract_z
Si Si1 0.750267 0.300150 0.338260
Si Si2 0.670141 0.583538 0.576890
Si Si3 0.124977 0.313691 0.744143
Si Si4 0.450523 0.213260 0.113630
Si Si5 0.738584 0.321560 0.949703
Si Si6 0.812737 0.234315 0.728549
O O1 0.748382 0.423484 0.478166
O O2 0.853367 0.503603 0.326100
O O3 0.588697 0.302933 0.244105
O O4 0.792035 0.972118 0.289313
O O5 0.500000 0.500000 0.500000
O O6 0.727542 0.469276 0.684916
O O7 0.713869 0.927147 0.639720
O O8 0.960754 0.217271 0.708515
O O9 0.189497 0.521779 0.896931
O O10 0.389736 0.492060 0.092618
O O11 0.326485 0.005678 0.099270
O O12 0.500000 0.000000 0.000000
O O13 0.838015 0.314261 0.874399
#
# Coordination Sequence:
#
# PCOD9069056 Si02
#       6
#     2   2   2   2   2   2
#     4  12  25  42  70  98 134 173 222 276 320 390
#     4  12  27  49  68  97 131 174 226 270 327 392
#     4  12  25  43  67 102 133 173 221 269 333 389
#     4  12  22  41  67 101 132 168 219 274 329 378
#     4  12  23  43  68  99 137 171 221 273 326 389
#     4  12  27  45  69  96 136 180 215 267 331 396
#
# _framework density 22.401810999999999
#
# number of rings (size 3 to 8) (size 9 to 14) (size 15 to 20)
#    0.000    0.000    3.333    7.500    0.000    4.000 
#    0.000    5.000    0.000    0.000    0.000    0.000 
#    0.000    0.000    0.000    0.000    0.000    0.000 
#
# Total GULP energy -67284.960191 kJ/mol
# GULP energy per Si atom -5607.080016 kJ/mol
# Density = 2.235082 g / cm^3
# Si number density = 22.401811 Si / 1000 Ang^3
#
#
#
# Elastic Constant Matrix: (Units=GPa)
#
#
# Indices 1 2 3 4 5 6 
#
# 1 84.4043 31.8507 39.1602 4.4296 -10.5162 18.2168
# 2 31.8507 112.6887 31.6150 13.4791 0.9420 20.9872
# 3 39.1602 31.6150 77.3621 0.9332 -33.6192 10.3008
# 4 4.4296 13.4791 0.9332 30.5805 0.5645 -7.6594
# 5 -10.5162 0.9420 -33.6192 0.5645 39.2033 -11.8810
# 6 18.2168 20.9872 10.3008 -7.6594 -11.8810 33.5186
#
#
#
# Elastic Compliance Matrix: (Units=1/GPa)
#
#
# Indices 1 2 3 4 5 6 
#
# 1 0.018768 0.000945 -0.012101 -0.005465 -0.008749 -0.011423
# 2 0.000945 0.015457 -0.010593 -0.009862 -0.013271 -0.013894
# 3 -0.012101 -0.010593 0.034908 0.008696 0.031564 0.015657
# 4 -0.005465 -0.009862 0.008696 0.042453 0.011785 0.020351
# 5 -0.008749 -0.013271 0.031564 0.011785 0.058498 0.026793
# 6 -0.011423 -0.013894 0.015657 0.020351 0.026793 0.054077
#
#
# Mechanical properties :
#
#
# Convention : Reuss Voigt Hill
#
# Bulk Modulus (GPa) = 39.01209 53.30079 46.15644
# Shear Modulus (GPa) = 18.10243 32.11575 25.10909
#
# Velocity S-wave (km/s) = 2.84576 3.79043 3.35154
# Velocity P-wave (km/s) = 5.31510 6.55753 5.96873
#
# Compressibility (1/GPa) = 0.02563308
#
# Stress axis : x y z
#
# Youngs Moduli (GPa) = 53.28243 64.69556 28.64670
#
# Poissons Ratio (x) = -0.06112 0.34667
# Poissons Ratio (y) = -0.05033 0.30346
# Poissons Ratio (z) = 0.64480 0.68533
#
# Static dielectric constant tensor:
#      x y z
#    x 1.831840 0.015740 -0.026590 
#    y 0.015740 1.754370 -0.011000 
#    z -0.026590 -0.011000 1.808860 
# 
# From -- ./inp_files/26245.got.cif
#   From: 2010.05.17/outbox.cif.g08.bks.cpg/sg2_14_cif.got.tgz:26245.got - 2010.06.03 11:33:40.
