data_PCOD9069263
_publ_section_title
;
Structure prediction by ZEFSAII (Michael W. Deem and Ramdas Pophale) SiO2 
 PCOD9069263
Probable space group: P -1
;
_chemical_formula_sum "Si O2"
_cell_formula_units_Z 12
_cell_length_a 8.223043
_cell_length_b 9.057677
_cell_length_c 12.856265
_cell_angle_alpha 95.437080
_cell_angle_beta 134.942482
_cell_angle_gamma 103.710004
_cell_volume 608.726977
_symmetry_space_group_name_H-M "P -1"
_symmetry_group_IT_number 2
_symmetry_cell_setting 'triclinic'
loop_
_space_group_symop_operation_xyz
x,y,z
-x,-y,-z
loop_
_atom_site_type_symbol
_atom_site_label
_atom_site_fract_x
_atom_site_fract_y
_atom_site_fract_z
Si Si1 0.485212 0.841590 0.226682
Si Si2 0.807441 0.678462 0.443653
Si Si3 0.977382 0.137015 0.071193
Si Si4 0.093159 0.982482 0.745017
Si Si5 0.474720 0.623603 0.580001
Si Si6 0.771159 0.145471 0.527665
O O1 0.560152 0.704319 0.299131
O O2 0.667054 0.913966 0.212680
O O3 0.580190 0.991809 0.362271
O O4 0.198392 0.791745 0.060437
O O5 0.941390 0.809153 0.605381
O O6 0.721680 0.494925 0.431434
O O7 0.004961 0.741267 0.442348
O O8 0.845754 0.050211 0.113893
O O9 0.000000 0.000000 0.000000
O O10 0.744030 0.729902 0.762375
O O11 0.906765 0.074081 0.665790
O O12 0.500000 0.500000 0.500000
O O13 0.370564 0.746984 0.491939
#
# Coordination Sequence:
#
# PCOD9069263 Si02
#       6
#     2   2   2   2   2   2
#     4   9  19  38  61  83 110 149 194 234 274 329
#     4   9  19  38  61  83 110 149 194 234 274 329
#     4  12  23  36  56  87 121 149 181 231 288 337
#     4   9  19  38  62  82 108 152 197 229 269 338
#     4  12  23  36  56  87 121 149 181 231 288 337
#     4   9  19  38  62  82 108 152 197 229 269 338
#
# _framework density 19.713272
#
# number of rings (size 3 to 8) (size 9 to 14) (size 15 to 20)
#    0.000    2.000    3.333    3.000    0.000    2.667 
#    0.000    0.000    0.000    4.000    0.000    0.000 
#    0.000    0.000    0.000    0.000    0.000    0.000 
#
# Total GULP energy -67023.646809 kJ/mol
# GULP energy per Si atom -5585.303901 kJ/mol
# Density = 1.966840 g / cm^3
# Si number density = 19.713272 Si / 1000 Ang^3
#
#
#
# Elastic Constant Matrix: (Units=GPa)
#
#
# Indices 1 2 3 4 5 6 
#
# 1 41.1175 5.7195 6.1128 2.7475 -0.8288 -13.7792
# 2 5.7195 62.0151 9.3407 -0.2081 11.9270 -11.0922
# 3 6.1128 9.3407 83.6185 -1.9683 16.4324 -24.6423
# 4 2.7475 -0.2081 -1.9683 29.1261 -0.6666 4.9750
# 5 -0.8288 11.9270 16.4324 -0.6666 32.4061 -7.6274
# 6 -13.7792 -11.0922 -24.6423 4.9750 -7.6274 35.8976
#
#
#
# Elastic Compliance Matrix: (Units=1/GPa)
#
#
# Indices 1 2 3 4 5 6 
#
# 1 0.029058 -0.001239 0.000984 -0.004801 0.003634 0.012884
# 2 -0.001239 0.018068 0.000479 -0.000585 -0.005935 0.004256
# 3 0.000984 0.000479 0.016030 -0.000919 -0.005847 0.010415
# 4 -0.004801 -0.000585 -0.000919 0.036033 -0.000527 -0.007760
# 5 0.003634 -0.005935 -0.005847 -0.000527 0.036905 0.003462
# 6 0.012884 0.004256 0.010415 -0.007760 0.003462 0.043078
#
#
# Mechanical properties :
#
#
# Convention : Reuss Voigt Hill
#
# Bulk Modulus (GPa) = 15.72199 25.45525 20.58862
# Shear Modulus (GPa) = 25.00928 30.52450 27.76689
#
# Velocity S-wave (km/s) = 3.56568 3.93927 3.75712
# Velocity P-wave (km/s) = 4.99447 5.79925 5.41184
#
# Compressibility (1/GPa) = 0.06360519
#
# Stress axis : x y z
#
# Youngs Moduli (GPa) = 34.41354 55.34680 62.38168
#
# Poissons Ratio (x) = 0.06856 -0.06138
# Poissons Ratio (y) = 0.04263 -0.02989
# Poissons Ratio (z) = -0.03386 -0.02652
#
# Static dielectric constant tensor:
#      x y z
#    x 1.748360 0.018910 0.021100 
#    y 0.018910 1.661080 -0.020430 
#    z 0.021100 -0.020430 1.659060 
# 
# From -- ./inp_files/387514.got.cif
#   From: 2010.05.17/outbox.cif.g08.bks.cpg/sg2_194_cif.got.tgz:387514.got - 2010.06.03 11:33:40.
