data_PCOD9069194
_publ_section_title
;
Structure prediction by ZEFSAII (Michael W. Deem and Ramdas Pophale) SiO2 
 PCOD9069194
Probable space group: P -1
;
_chemical_formula_sum "Si O2"
_cell_formula_units_Z 16
_cell_length_a 14.639190
_cell_length_b 9.404675
_cell_length_c 11.622236
_cell_angle_alpha 64.821913
_cell_angle_beta 54.446866
_cell_angle_gamma 110.601335
_cell_volume 684.548520
_symmetry_space_group_name_H-M "P -1"
_symmetry_group_IT_number 2
_symmetry_cell_setting 'triclinic'
loop_
_space_group_symop_operation_xyz
x,y,z
-x,-y,-z
loop_
_atom_site_type_symbol
_atom_site_label
_atom_site_fract_x
_atom_site_fract_y
_atom_site_fract_z
Si Si1 0.608851 0.378500 0.108998
Si Si2 0.872446 0.487961 0.745188
Si Si3 0.917872 0.046272 0.121922
Si Si4 0.653938 0.943055 0.195460
Si Si5 0.239359 0.788165 0.508141
Si Si6 0.709794 0.368356 0.275793
Si Si7 0.675671 0.312949 0.729013
Si Si8 0.533254 0.477971 0.716314
O O1 0.638340 0.289171 0.224715
O O2 0.580458 0.517555 0.134114
O O3 0.420584 0.110319 0.269501
O O4 0.787870 0.552746 0.835588
O O5 0.857083 0.485383 0.619803
O O6 0.067165 0.673819 0.605802
O O7 0.725240 0.178966 0.994799
O O8 0.834949 0.089678 0.086838
O O9 0.731174 0.778318 0.420794
O O10 0.098445 0.307520 0.974495
O O11 0.000000 0.000000 0.000000
O O12 0.469648 0.765727 0.473446
O O13 0.591273 0.735430 0.224116
O O14 0.221566 0.709660 0.679990
O O15 0.276291 0.674903 0.442072
O O16 0.599629 0.402166 0.765126
O O17 0.500000 0.000000 0.000000
#
# Coordination Sequence:
#
# PCOD9069194 Si02
#       8
#     2   2   2   2   2   2   2   2
#     4  12  27  43  68 107 153 175 222 291 365 416
#     4  12  27  46  75 103 134 192 241 284 339 410
#     4  12  23  39  67 106 144 181 233 290 345 409
#     4  12  22  45  70 100 142 188 235 282 339 417
#     4  12  25  48  72 105 138 188 240 282 338 419
#     4  12  23  42  70 105 144 185 225 279 352 424
#     4  12  23  52  78  95 132 190 247 286 332 410
#     4  12  25  43  71 105 142 183 228 292 355 406
#
# _framework density 23.373069999999998
#
# number of rings (size 3 to 8) (size 9 to 14) (size 15 to 20)
#    0.000    0.000    8.750    1.875    1.750    1.000 
#    0.000    0.625    0.000    0.000    0.000    0.000 
#    0.000    0.000    0.000    0.000    0.000    0.000 
#
# Total GULP energy -89583.273832 kJ/mol
# GULP energy per Si atom -5598.954614 kJ/mol
# Density = 2.331987 g / cm^3
# Si number density = 23.373070 Si / 1000 Ang^3
#
#
#
# Elastic Constant Matrix: (Units=GPa)
#
#
# Indices 1 2 3 4 5 6 
#
# 1 120.6280 38.2509 16.5438 -11.7552 -18.7314 19.3395
# 2 38.2509 113.3525 18.8167 -0.8631 -19.7586 12.1786
# 3 16.5438 18.8167 32.1266 -9.9808 -20.5125 12.6976
# 4 -11.7552 -0.8631 -9.9808 26.4317 6.8509 -9.4989
# 5 -18.7314 -19.7586 -20.5125 6.8509 42.9391 -8.3584
# 6 19.3395 12.1786 12.6976 -9.4989 -8.3584 48.8095
#
#
#
# Elastic Compliance Matrix: (Units=1/GPa)
#
#
# Indices 1 2 3 4 5 6 
#
# 1 0.010195 -0.002726 -0.000558 0.002882 0.002018 -0.002308
# 2 -0.002726 0.010893 -0.004340 -0.003332 0.002127 -0.000793
# 3 -0.000558 -0.004340 0.053057 0.012071 0.019867 -0.006748
# 4 0.002882 -0.003332 0.012071 0.045669 -0.000763 0.005306
# 5 0.002018 0.002127 0.019867 -0.000763 0.034620 -0.000718
# 6 -0.002308 -0.000793 -0.006748 0.005306 -0.000718 0.024265
#
#
# Mechanical properties :
#
#
# Convention : Reuss Voigt Hill
#
# Bulk Modulus (GPa) = 16.97824 45.92553 31.45189
# Shear Modulus (GPa) = 23.41047 36.46911 29.93979
#
# Velocity S-wave (km/s) = 3.16824 3.95435 3.58292
# Velocity P-wave (km/s) = 4.54571 6.36717 5.53192
#
# Compressibility (1/GPa) = 0.05889891
#
# Stress axis : x y z
#
# Youngs Moduli (GPa) = 98.08685 91.80180 18.84749
#
# Poissons Ratio (x) = 0.25027 0.01051
# Poissons Ratio (y) = 0.26740 0.08179
# Poissons Ratio (z) = 0.05468 0.39838
#
# Static dielectric constant tensor:
#      x y z
#    x 1.908120 -0.014510 0.007430 
#    y -0.014510 1.855840 0.017740 
#    z 0.007430 0.017740 1.871440 
# 
# From -- ./inp_files/273815.got.cif
#   From: 2010.05.17/outbox.cif.g08.bks.cpg/sg2_137_cif.got.tgz:273815.got - 2010.06.03 11:33:40.
