data_PCOD9069285
_publ_section_title
;
Structure prediction by ZEFSAII (Michael W. Deem and Ramdas Pophale) SiO2 
 PCOD9069285
Probable space group: P -1
;
_chemical_formula_sum "Si O2"
_cell_formula_units_Z 12
_cell_length_a 5.091393
_cell_length_b 25.995292
_cell_length_c 17.497481
_cell_angle_alpha 12.911253
_cell_angle_beta 68.291084
_cell_angle_gamma 70.831306
_cell_volume 474.938087
_symmetry_space_group_name_H-M "P -1"
_symmetry_group_IT_number 2
_symmetry_cell_setting 'triclinic'
loop_
_space_group_symop_operation_xyz
x,y,z
-x,-y,-z
loop_
_atom_site_type_symbol
_atom_site_label
_atom_site_fract_x
_atom_site_fract_y
_atom_site_fract_z
Si Si1 0.730511 0.685817 0.547893
Si Si2 0.621323 0.263572 0.624054
Si Si3 0.469815 0.634365 0.196717
Si Si4 0.859505 0.358774 0.145237
Si Si5 0.036086 0.914678 0.774194
Si Si6 0.478691 0.046231 0.147085
O O1 0.479096 0.607555 0.627445
O O2 0.656363 0.932305 0.230994
O O3 0.040726 0.712983 0.436534
O O4 0.768273 0.518253 0.857601
O O5 0.465888 0.369389 0.558084
O O6 0.500000 0.000000 0.000000
O O7 0.293014 0.776267 0.955353
O O8 0.798172 0.754527 0.982084
O O9 0.379677 0.714654 0.174213
O O10 0.578698 0.171370 0.470041
O O11 0.074048 0.178324 0.359765
O O12 0.000000 0.500000 0.000000
O O13 0.861661 0.929716 0.852989
#
# Coordination Sequence:
#
# PCOD9069285 Si02
#       6
#     2   2   2   2   2   2
#     4  12  23  40  67  96 121 166 211 256 305 369
#     4  12  28  45  62  85 125 170 221 265 304 350
#     4   9  19  42  60  82 127 169 190 258 318 355
#     4   9  18  35  63 103 134 154 191 254 315 378
#     4   8  19  32  64  87 129 154 189 232 324 367
#     4   8  21  35  66  94 129 149 200 245 319 373
#
# _framework density 25.266449000000001
#
# number of rings (size 3 to 8) (size 9 to 14) (size 15 to 20)
#    2.000    0.000    0.000    4.000    2.333    2.667 
#    0.000   13.333    0.000    0.000    0.000    0.000 
#    0.000    0.000    0.000    0.000    0.000    0.000 
#
# Total GULP energy -66861.381382 kJ/mol
# GULP energy per Si atom -5571.781782 kJ/mol
# Density = 2.520894 g / cm^3
# Si number density = 25.266449 Si / 1000 Ang^3
#
#
#
# Elastic Constant Matrix: (Units=GPa)
#
#
# Indices 1 2 3 4 5 6 
#
# 1 121.3336 20.3895 33.9577 -10.6572 24.1105 4.6845
# 2 20.3895 88.1971 53.6875 -23.4905 14.3990 -8.1728
# 3 33.9577 53.6875 123.3934 -33.9645 16.0509 -6.2938
# 4 -10.6572 -23.4905 -33.9645 54.0303 -6.7833 7.2730
# 5 24.1105 14.3990 16.0509 -6.7833 28.8282 1.8637
# 6 4.6845 -8.1728 -6.2938 7.2730 1.8637 25.8372
#
#
#
# Elastic Compliance Matrix: (Units=1/GPa)
#
#
# Indices 1 2 3 4 5 6 
#
# 1 0.010344 -0.000198 -0.001869 0.000110 -0.007364 -0.001893
# 2 -0.000198 0.016602 -0.005691 0.002553 -0.004585 0.003513
# 3 -0.001869 -0.005691 0.012651 0.004871 -0.001515 0.000359
# 4 0.000110 0.002553 0.004871 0.023570 0.001776 -0.004788
# 5 -0.007364 -0.004585 -0.001515 0.001776 0.044670 -0.004206
# 6 -0.001893 0.003513 0.000359 -0.004788 -0.004206 0.041897
#
#
# Mechanical properties :
#
#
# Convention : Reuss Voigt Hill
#
# Bulk Modulus (GPa) = 41.52482 60.99929 51.26205
# Shear Modulus (GPa) = 28.85572 36.73177 32.79375
#
# Velocity S-wave (km/s) = 3.38310 3.81698 3.60657
# Velocity P-wave (km/s) = 5.63302 6.60459 6.13806
#
# Compressibility (1/GPa) = 0.02408198
#
# Stress axis : x y z
#
# Youngs Moduli (GPa) = 96.67396 60.23345 79.04693
#
# Poissons Ratio (x) = 0.01190 0.14776
# Poissons Ratio (y) = 0.01910 0.44983
# Poissons Ratio (z) = 0.18070 0.34277
#
# Static dielectric constant tensor:
#      x y z
#    x 2.000590 0.045750 0.029040 
#    y 0.045750 2.174210 0.064420 
#    z 0.029040 0.064420 2.066780 
# 
# From -- ./inp_files/584507.got.cif
#   From: 2010.05.17/outbox.cif.g08.bks.cpg/sg2_293_cif.got.tgz:584507.got - 2010.06.03 11:33:40.
