data_PCOD9069701
_publ_section_title
;
Structure prediction by ZEFSAII (Michael W. Deem and Ramdas Pophale) SiO2 
 PCOD9069701
Probable space group: P -1
;
_chemical_formula_sum "Si O2"
_cell_formula_units_Z 16
_cell_length_a 7.487108
_cell_length_b 8.582902
_cell_length_c 11.989807
_cell_angle_alpha 84.147380
_cell_angle_beta 127.819993
_cell_angle_gamma 94.093924
_cell_volume 605.421475
_symmetry_space_group_name_H-M "P -1"
_symmetry_group_IT_number 2
_symmetry_cell_setting 'triclinic'
loop_
_space_group_symop_operation_xyz
x,y,z
-x,-y,-z
loop_
_atom_site_type_symbol
_atom_site_label
_atom_site_fract_x
_atom_site_fract_y
_atom_site_fract_z
Si Si1 0.206554 0.969917 0.496859
Si Si2 0.458959 0.593283 0.095046
Si Si3 0.390235 0.726633 0.733304
Si Si4 0.080442 0.443882 0.375658
Si Si5 0.934242 0.226369 0.734664
Si Si6 0.033066 0.365890 0.116353
Si Si7 0.453904 0.272486 0.656791
Si Si8 0.209598 0.120384 0.047231
O O1 0.347670 0.816025 0.595119
O O2 0.113151 0.930288 0.342056
O O3 0.360665 0.119765 0.567769
O O4 0.000000 0.000000 0.500000
O O5 0.475740 0.437115 0.191422
O O6 0.562800 0.718187 0.215725
O O7 0.500000 0.500000 0.000000
O O8 0.229318 0.679775 0.967844
O O9 0.135550 0.665914 0.671574
O O10 0.515155 0.864887 0.845545
O O11 0.018966 0.626687 0.339555
O O12 0.295011 0.406573 0.535375
O O13 0.129370 0.415294 0.267094
O O14 0.716839 0.270065 0.723465
O O15 0.139291 0.204883 0.899931
O O16 0.000000 0.500000 0.000000
O O17 0.171210 0.225489 0.132906
O O18 0.000000 0.000000 0.000000
#
# Coordination Sequence:
#
# PCOD9069701 Si02
#       8
#     2   2   2   2   2   2   2   2
#     4  12  29  50  71 112 163 203 256 312 394 472
#     4  12  25  47  78 114 150 199 256 322 385 452
#     4  12  27  48  75 113 153 200 257 321 384 463
#     4  12  26  47  78 114 151 203 259 324 385 455
#     4  12  27  49  77 112 151 208 258 320 388 457
#     4  12  23  47  73 115 150 195 261 317 380 462
#     4  12  27  50  78 112 156 202 262 319 388 467
#     4  12  28  48  78 112 157 201 256 318 393 463
#
# _framework density 26.427869999999999
#
# number of rings (size 3 to 8) (size 9 to 14) (size 15 to 20)
#    0.000    0.000    6.250    2.250    5.250    1.000 
#    0.000    1.875    0.000    0.000    0.000    0.000 
#    0.000    0.000    0.000    0.000    0.000    0.000 
#
# Total GULP energy -89271.626530 kJ/mol
# GULP energy per Si atom -5579.476658 kJ/mol
# Density = 2.636772 g / cm^3
# Si number density = 26.427870 Si / 1000 Ang^3
#
#
#
# Elastic Constant Matrix: (Units=GPa)
#
#
# Indices 1 2 3 4 5 6 
#
# 1 79.6145 -9.2901 25.8207 14.9837 -4.3065 -8.0827
# 2 -9.2901 75.1645 9.8992 25.2498 -11.8842 10.1526
# 3 25.8207 9.8992 193.0358 23.2391 -8.3105 -7.0211
# 4 14.9837 25.2498 23.2391 58.1421 -9.6270 6.7043
# 5 -4.3065 -11.8842 -8.3105 -9.6270 33.7406 5.2452
# 6 -8.0827 10.1526 -7.0211 6.7043 5.2452 30.6182
#
#
#
# Elastic Compliance Matrix: (Units=1/GPa)
#
#
# Indices 1 2 3 4 5 6 
#
# 1 0.014718 0.003324 -0.001386 -0.004950 0.000764 0.003418
# 2 0.003324 0.017514 -0.000447 -0.006915 0.005195 -0.004408
# 3 -0.001386 -0.000447 0.005675 -0.001829 0.000319 0.001429
# 4 -0.004950 -0.006915 -0.001829 0.023477 0.003998 -0.005259
# 5 0.000764 0.005195 0.000319 0.003998 0.034053 -0.008157
# 6 0.003418 -0.004408 0.001429 -0.005259 -0.008157 0.037901
#
#
# Mechanical properties :
#
#
# Convention : Reuss Voigt Hill
#
# Bulk Modulus (GPa) = 24.45748 44.51939 34.48844
# Shear Modulus (GPa) = 34.72592 45.92585 40.32588
#
# Velocity S-wave (km/s) = 3.62883 4.17319 3.91050
# Velocity P-wave (km/s) = 5.18000 6.33269 5.78512
#
# Compressibility (1/GPa) = 0.04088728
#
# Stress axis : x y z
#
# Youngs Moduli (GPa) = 67.94492 57.09858 176.22420
#
# Poissons Ratio (x) = -0.18977 0.24424
# Poissons Ratio (y) = -0.22581 0.07875
# Poissons Ratio (z) = 0.09417 0.02552
#
# Static dielectric constant tensor:
#      x y z
#    x 2.331380 0.150710 0.091020 
#    y 0.150710 2.179510 0.061980 
#    z 0.091020 0.061980 2.080190 
# 
# From -- ./inp_files/382453.got.cif
#   From: 2010.05.17/outbox.cif.g08.bks.cpg/sg2_192_cif.got.tgz:382453.got - 2010.06.03 11:33:40.
