data_PCOD9069046
_publ_section_title
;
Structure prediction by ZEFSAII (Michael W. Deem and Ramdas Pophale) SiO2 
 PCOD9069046
Probable space group: P -1
;
_chemical_formula_sum "Si O2"
_cell_formula_units_Z 16
_cell_length_a 12.083324
_cell_length_b 14.041350
_cell_length_c 9.630320
_cell_angle_alpha 76.790537
_cell_angle_beta 66.345079
_cell_angle_gamma 29.110652
_cell_volume 700.284608
_symmetry_space_group_name_H-M "P -1"
_symmetry_group_IT_number 2
_symmetry_cell_setting 'triclinic'
loop_
_space_group_symop_operation_xyz
x,y,z
-x,-y,-z
loop_
_atom_site_type_symbol
_atom_site_label
_atom_site_fract_x
_atom_site_fract_y
_atom_site_fract_z
Si Si1 0.298225 0.439701 0.997526
Si Si2 0.685324 0.575740 0.494204
Si Si3 0.815160 0.165203 0.419672
Si Si4 0.161869 0.854562 0.098915
Si Si5 0.916163 0.303332 0.249228
Si Si6 0.481358 0.909190 0.117213
Si Si7 0.550649 0.061155 0.540635
Si Si8 0.102882 0.677074 0.268615
O O1 0.568283 0.285719 0.970205
O O2 0.209779 0.569491 0.869905
O O3 0.329544 0.307379 0.966488
O O4 0.104721 0.596900 0.169046
O O5 0.442879 0.709937 0.487370
O O6 0.911554 0.392158 0.337229
O O7 0.635785 0.723569 0.495230
O O8 0.715604 0.493267 0.646545
O O9 0.780707 0.305627 0.382480
O O10 0.000000 0.000000 0.500000
O O11 0.969717 0.024660 0.255713
O O12 0.191875 0.716419 0.146189
O O13 0.000000 0.000000 0.000000
O O14 0.203390 0.068996 0.164334
O O15 0.489464 0.913851 0.280074
O O16 0.500000 0.000000 0.000000
O O17 0.500000 0.000000 0.500000
O O18 0.837398 0.883014 0.411227
#
# Coordination Sequence:
#
# PCOD9069046 Si02
#       8
#     2   2   2   2   2   2   2   2
#     4  12  27  46  74 109 147 194 239 291 365 430
#     4  12  24  46  73 107 147 187 238 295 364 436
#     4  12  22  40  76 105 145 187 233 292 363 427
#     4  12  24  44  72 107 154 194 230 291 362 430
#     4  12  24  46  73 107 147 187 238 295 364 436
#     4  12  29  51  76 105 143 190 247 306 361 424
#     4  12  29  51  76 105 143 190 247 306 361 424
#     4  12  27  46  74 109 147 194 239 291 365 430
#
# _framework density 22.847854000000002
#
# number of rings (size 3 to 8) (size 9 to 14) (size 15 to 20)
#    0.000    0.000    5.000    5.250    3.500    2.000 
#    0.000    0.000    0.000    0.000    0.000    0.000 
#    0.000    0.000    0.000    0.000    0.000    0.000 
#
# Total GULP energy -89532.715377 kJ/mol
# GULP energy per Si atom -5595.794711 kJ/mol
# Density = 2.279585 g / cm^3
# Si number density = 22.847854 Si / 1000 Ang^3
#
#
#
# Elastic Constant Matrix: (Units=GPa)
#
#
# Indices 1 2 3 4 5 6 
#
# 1 87.3132 26.6480 26.3409 -15.1258 12.9364 32.0332
# 2 26.6480 107.1896 43.4149 -32.2175 21.5025 29.4212
# 3 26.3409 43.4149 132.4377 -21.9189 34.7661 14.4193
# 4 -15.1258 -32.2175 -21.9189 60.6505 1.1931 10.0065
# 5 12.9364 21.5025 34.7661 1.1931 40.7899 5.0857
# 6 32.0332 29.4212 14.4193 10.0065 5.0857 43.3344
#
#
#
# Elastic Compliance Matrix: (Units=1/GPa)
#
#
# Indices 1 2 3 4 5 6 
#
# 1 0.020419 0.005495 0.000256 0.011670 -0.007345 -0.020742
# 2 0.005495 0.020356 -0.000327 0.015595 -0.010134 -0.020185
# 3 0.000256 -0.000327 0.011187 0.004725 -0.009119 -0.003710
# 4 0.011670 0.015595 0.004725 0.034124 -0.013571 -0.027074
# 5 -0.007345 -0.010134 -0.009119 -0.013571 0.038618 0.013946
# 6 -0.020742 -0.020185 -0.003710 -0.027074 0.013946 0.057963
#
#
# Mechanical properties :
#
#
# Convention : Reuss Voigt Hill
#
# Bulk Modulus (GPa) = 15.92141 57.74977 36.83559
# Shear Modulus (GPa) = 25.93949 44.32407 35.13178
#
# Velocity S-wave (km/s) = 3.37310 4.40928 3.92553
# Velocity P-wave (km/s) = 4.70680 7.15912 6.05834
#
# Compressibility (1/GPa) = 0.06280850
#
# Stress axis : x y z
#
# Youngs Moduli (GPa) = 48.97490 49.12440 89.39173
#
# Poissons Ratio (x) = -0.26992 -0.02285
# Poissons Ratio (y) = -0.26909 0.02921
# Poissons Ratio (z) = -0.01252 0.01605
#
# Static dielectric constant tensor:
#      x y z
#    x 1.959270 0.014420 -0.036700 
#    y 0.014420 1.846670 0.051560 
#    z -0.036700 0.051560 1.839420 
# 
# From -- ./inp_files/272851.got.cif
#   From: 2010.05.17/outbox.cif.g08.bks.cpg/sg2_137_cif.got.tgz:272851.got - 2010.06.03 11:33:40.
