data_PCOD9069158
_publ_section_title
;
Structure prediction by ZEFSAII (Michael W. Deem and Ramdas Pophale) SiO2 
 PCOD9069158
Probable space group: P -1
;
_chemical_formula_sum "Si O2"
_cell_formula_units_Z 14
_cell_length_a 8.380285
_cell_length_b 11.559687
_cell_length_c 8.786398
_cell_angle_alpha 108.902541
_cell_angle_beta 117.221657
_cell_angle_gamma 111.120119
_cell_volume 570.459539
_symmetry_space_group_name_H-M "P -1"
_symmetry_group_IT_number 2
_symmetry_cell_setting 'triclinic'
loop_
_space_group_symop_operation_xyz
x,y,z
-x,-y,-z
loop_
_atom_site_type_symbol
_atom_site_label
_atom_site_fract_x
_atom_site_fract_y
_atom_site_fract_z
Si Si1 0.460217 0.249223 0.760870
Si Si2 0.387481 0.953326 0.264056
Si Si3 0.827575 0.441755 0.762183
Si Si4 0.872622 0.740839 0.881929
Si Si5 0.423915 0.591610 0.813864
Si Si6 0.879557 0.767735 0.558520
Si Si7 0.265514 0.756742 0.636082
O O1 0.538171 0.149094 0.808342
O O2 0.589144 0.324947 0.690304
O O3 0.201600 0.162999 0.565693
O O4 0.541245 0.377059 0.978267
O O5 0.500000 0.000000 0.500000
O O6 0.498764 0.098930 0.265837
O O7 0.119363 0.856040 0.110947
O O8 0.845091 0.584736 0.766062
O O9 0.862426 0.355189 0.612388
O O10 0.000000 0.500000 0.000000
O O11 0.668461 0.689612 0.881672
O O12 0.858957 0.800130 0.738011
O O13 0.286330 0.415187 0.629795
O O14 0.297745 0.659817 0.725303
O O15 0.125944 0.813062 0.661872
#
# Coordination Sequence:
#
# PCOD9069158 Si02
#       7
#     2   2   2   2   2   2   2
#     4  12  26  43  73 106 144 183 236 293 354 421
#     4  12  28  50  72 103 146 191 237 289 359 428
#     4  12  22  43  75 104 139 188 239 298 352 407
#     4  12  26  46  76 106 143 189 238 295 355 420
#     4  12  26  45  75 112 141 183 243 295 354 417
#     4  12  26  45  75 111 142 184 242 295 353 418
#     4  12  27  47  72 101 150 189 234 293 354 425
#
# _framework density 24.541616000000001
#
# number of rings (size 3 to 8) (size 9 to 14) (size 15 to 20)
#    0.000    0.000    5.714    3.857    4.000    3.429 
#    0.000    0.000    0.000    0.000    0.000    0.000 
#    0.000    0.000    0.000    0.000    0.000    0.000 
#
# Total GULP energy -78491.228522 kJ/mol
# GULP energy per Si atom -5606.516323 kJ/mol
# Density = 2.448576 g / cm^3
# Si number density = 24.541616 Si / 1000 Ang^3
#
#
#
# Elastic Constant Matrix: (Units=GPa)
#
#
# Indices 1 2 3 4 5 6 
#
# 1 104.5176 -2.8473 24.6615 0.9970 12.9693 8.7996
# 2 -2.8473 41.7388 5.7280 0.9734 9.0819 9.0841
# 3 24.6615 5.7280 101.6462 -14.5475 -1.5032 6.1222
# 4 0.9970 0.9734 -14.5475 33.4019 2.3814 4.9753
# 5 12.9693 9.0819 -1.5032 2.3814 42.4798 -1.8517
# 6 8.7996 9.0841 6.1222 4.9753 -1.8517 34.1282
#
#
#
# Elastic Compliance Matrix: (Units=1/GPa)
#
#
# Indices 1 2 3 4 5 6 
#
# 1 0.011110 0.002772 -0.002847 -0.000880 -0.004175 -0.003190
# 2 0.002772 0.027744 -0.001846 0.000034 -0.007201 -0.008164
# 3 -0.002847 -0.001846 0.011501 0.005283 0.001308 -0.001537
# 4 -0.000880 0.000034 0.005283 0.033227 -0.001661 -0.005664
# 5 -0.004175 -0.007201 0.001308 -0.001661 0.026688 0.004449
# 6 -0.003190 -0.008164 -0.001537 -0.005664 0.004449 0.033640
#
#
# Mechanical properties :
#
#
# Convention : Reuss Voigt Hill
#
# Bulk Modulus (GPa) = 21.49960 33.66522 27.58241
# Shear Modulus (GPa) = 30.62673 36.69268 33.65970
#
# Velocity S-wave (km/s) = 3.53647 3.87087 3.70744
# Velocity P-wave (km/s) = 5.04529 5.80737 5.43969
#
# Compressibility (1/GPa) = 0.04651250
#
# Stress axis : x y z
#
# Youngs Moduli (GPa) = 90.00786 36.04412 86.94945
#
# Poissons Ratio (x) = -0.09991 0.24757
# Poissons Ratio (y) = -0.24949 0.16049
# Poissons Ratio (z) = 0.25628 0.06653
#
# Static dielectric constant tensor:
#      x y z
#    x 1.980230 -0.012130 0.043110 
#    y -0.012130 1.955520 0.032990 
#    z 0.043110 0.032990 1.939400 
# 
# From -- ./inp_files/156699.got.cif
#   From: 2010.05.17/outbox.cif.g08.bks.cpg/sg2_79_cif.got.tgz:156699.got - 2010.06.03 11:33:40.
