data_PCOD9069535
_publ_section_title
;
Structure prediction by ZEFSAII (Michael W. Deem and Ramdas Pophale) SiO2 
 PCOD9069535
Probable space group: P -1
;
_chemical_formula_sum "Si O2"
_cell_formula_units_Z 16
_cell_length_a 8.247362
_cell_length_b 17.288483
_cell_length_c 5.981461
_cell_angle_alpha 129.097819
_cell_angle_beta 103.792778
_cell_angle_gamma 85.294445
_cell_volume 640.149685
_symmetry_space_group_name_H-M "P -1"
_symmetry_group_IT_number 2
_symmetry_cell_setting 'triclinic'
loop_
_space_group_symop_operation_xyz
x,y,z
-x,-y,-z
loop_
_atom_site_type_symbol
_atom_site_label
_atom_site_fract_x
_atom_site_fract_y
_atom_site_fract_z
Si Si1 0.040379 0.587963 0.000154
Si Si2 0.762636 0.263806 0.335443
Si Si3 0.393095 0.242443 0.769128
Si Si4 0.595182 0.105680 0.294196
Si Si5 0.272453 0.366894 0.318164
Si Si6 0.913082 0.994782 0.218118
Si Si7 0.356083 0.581977 0.788454
Si Si8 0.110478 0.213626 0.294864
O O1 0.127966 0.682709 0.331908
O O2 0.183250 0.563018 0.831902
O O3 0.000000 0.500000 0.000000
O O4 0.871789 0.606631 0.851530
O O5 0.618854 0.187737 0.254537
O O6 0.699664 0.349207 0.310881
O O7 0.910955 0.205280 0.168847
O O8 0.507215 0.156499 0.567714
O O9 0.206751 0.212623 0.559919
O O10 0.361106 0.276979 0.071714
O O11 0.498482 0.346614 0.909821
O O12 0.784578 0.078805 0.343920
O O13 0.500000 0.000000 0.000000
O O14 0.395631 0.466770 0.567044
O O15 0.180860 0.320922 0.420124
O O16 0.824839 0.882218 0.978303
O O17 0.000000 0.000000 0.500000
O O18 0.000000 0.000000 0.000000
#
# Coordination Sequence:
#
# PCOD9069535 Si02
#       8
#     2   2   2   2   2   2   2   2
#     4  12  23  44  77 110 153 204 270 320 383 481
#     4  12  25  48  80 109 155 207 267 325 398 481
#     4  12  29  47  73 113 161 203 258 326 407 483
#     4  12  28  54  79 117 155 208 267 340 413 481
#     4  12  27  46  74 114 160 208 263 323 399 493
#     4  12  30  53  86 119 156 212 275 340 414 488
#     4  12  27  47  74 115 154 211 263 324 401 473
#     4  12  27  49  78 113 155 208 267 328 403 489
#
# _framework density 24.994156
#
# number of rings (size 3 to 8) (size 9 to 14) (size 15 to 20)
#    0.000    0.000    7.500    1.500    7.000    0.500 
#    0.000    1.875    0.000    0.000    0.000    0.000 
#    0.000    0.000    0.000    0.000    0.000    0.000 
#
# Total GULP energy -89334.507308 kJ/mol
# GULP energy per Si atom -5583.406707 kJ/mol
# Density = 2.493727 g / cm^3
# Si number density = 24.994156 Si / 1000 Ang^3
#
#
#
# Elastic Constant Matrix: (Units=GPa)
#
#
# Indices 1 2 3 4 5 6 
#
# 1 94.7268 25.9445 8.9782 -13.0239 -5.1742 0.7036
# 2 25.9445 122.9666 21.6010 9.3816 2.3314 2.7434
# 3 8.9782 21.6010 114.5176 26.5706 4.0980 -5.8945
# 4 -13.0239 9.3816 26.5706 40.0026 2.3239 13.8805
# 5 -5.1742 2.3314 4.0980 2.3239 43.0521 4.9168
# 6 0.7036 2.7434 -5.8945 13.8805 4.9168 45.6563
#
#
#
# Elastic Compliance Matrix: (Units=1/GPa)
#
#
# Indices 1 2 3 4 5 6 
#
# 1 0.012639 -0.002777 -0.002328 0.007142 0.001813 -0.002695
# 2 -0.002777 0.009070 -0.000885 -0.002478 -0.000630 0.000205
# 3 -0.002328 -0.000885 0.011662 -0.009862 -0.001351 0.004739
# 4 0.007142 -0.002478 -0.009862 0.038967 0.001338 -0.013225
# 5 0.001813 -0.000630 -0.001351 0.001338 0.023895 -0.003145
# 6 -0.002695 0.000205 0.004739 -0.013225 -0.003145 0.026903
#
#
# Mechanical properties :
#
#
# Convention : Reuss Voigt Hill
#
# Bulk Modulus (GPa) = 46.74771 49.47316 48.11044
# Shear Modulus (GPa) = 35.15010 44.12134 39.63572
#
# Velocity S-wave (km/s) = 3.75418 4.20607 3.98653
# Velocity P-wave (km/s) = 6.12665 6.58975 6.36242
#
# Compressibility (1/GPa) = 0.02139142
#
# Stress axis : x y z
#
# Youngs Moduli (GPa) = 79.12078 110.25247 85.74649
#
# Poissons Ratio (x) = 0.30616 0.19961
# Poissons Ratio (y) = 0.21971 0.07590
# Poissons Ratio (z) = 0.18418 0.09759
#
# Static dielectric constant tensor:
#      x y z
#    x 2.221760 -0.022650 -0.106150 
#    y -0.022650 2.001000 0.006480 
#    z -0.106150 0.006480 2.098420 
# 
# From -- ./inp_files/49409.got.cif
#   From: 2010.05.17/outbox.cif.g08.bks.cpg/sg2_25_cif.got.tgz:49409.got - 2010.06.03 11:33:40.
