data_PCOD9069476
_publ_section_title
;
Structure prediction by ZEFSAII (Michael W. Deem and Ramdas Pophale) SiO2 
 PCOD9069476
Probable space group: P -1
;
_chemical_formula_sum "Si O2"
_cell_formula_units_Z 14
_cell_length_a 9.378691
_cell_length_b 19.096611
_cell_length_c 9.287303
_cell_angle_alpha 53.479660
_cell_angle_beta 148.263851
_cell_angle_gamma 132.293267
_cell_volume 646.093764
_symmetry_space_group_name_H-M "P -1"
_symmetry_group_IT_number 2
_symmetry_cell_setting 'triclinic'
loop_
_space_group_symop_operation_xyz
x,y,z
-x,-y,-z
loop_
_atom_site_type_symbol
_atom_site_label
_atom_site_fract_x
_atom_site_fract_y
_atom_site_fract_z
Si Si1 0.492803 0.349571 0.938741
Si Si2 0.441425 0.055595 0.511576
Si Si3 0.841163 0.734091 0.753646
Si Si4 0.100053 0.186848 0.984787
Si Si5 0.072891 0.458115 0.465458
Si Si6 0.215134 0.947226 0.725339
Si Si7 0.727330 0.366340 0.792708
O O1 0.261647 0.244743 0.911522
O O2 0.328965 0.419308 0.750255
O O3 0.598339 0.363291 0.846204
O O4 0.777099 0.375150 0.253647
O O5 0.748361 0.137408 0.727149
O O6 0.500000 0.000000 0.500000
O O7 0.313562 0.971838 0.618356
O O8 0.219224 0.105797 0.223691
O O9 0.532047 0.705968 0.441479
O O10 0.058442 0.838127 0.762667
O O11 0.816200 0.741110 0.895737
O O12 0.993637 0.662821 0.929019
O O13 0.172005 0.535260 0.327564
O O14 0.000000 0.500000 0.500000
O O15 0.000000 0.000000 0.500000
O O16 0.500000 0.000000 0.000000
#
# Coordination Sequence:
#
# PCOD9069476 Si02
#       7
#     2   2   2   2   2   2   2
#     4  12  26  44  69  99 136 167 217 271 324 387
#     4  12  26  43  66  95 135 174 220 273 328 383
#     4  12  24  43  67  96 131 171 222 263 328 388
#     4  12  25  45  64  97 132 176 218 270 323 391
#     4  12  24  47  71  98 131 174 215 262 329 395
#     4  12  23  44  67  96 129 176 222 271 321 378
#     4  12  26  42  70 100 131 170 214 275 325 385
#
# _framework density 21.668683000000001
#
# number of rings (size 3 to 8) (size 9 to 14) (size 15 to 20)
#    0.000    0.000    2.857    7.714    4.000    0.000 
#    0.000    0.000    0.000    0.000    0.000    0.000 
#    0.000    0.000    0.000    0.000    0.000    0.000 
#
# Total GULP energy -78395.442310 kJ/mol
# GULP energy per Si atom -5599.674451 kJ/mol
# Density = 2.161936 g / cm^3
# Si number density = 21.668683 Si / 1000 Ang^3
#
#
#
# Elastic Constant Matrix: (Units=GPa)
#
#
# Indices 1 2 3 4 5 6 
#
# 1 133.0668 -20.0506 3.0055 -10.9838 -16.1438 -0.2637
# 2 -20.0506 46.4282 -14.9827 -5.6994 -5.4632 25.3878
# 3 3.0055 -14.9827 63.6241 -6.4772 9.9888 -0.8656
# 4 -10.9838 -5.6994 -6.4772 44.7257 0.5438 -5.1962
# 5 -16.1438 -5.4632 9.9888 0.5438 31.5354 -5.6302
# 6 -0.2637 25.3878 -0.8656 -5.1962 -5.6302 46.9251
#
#
#
# Elastic Compliance Matrix: (Units=1/GPa)
#
#
# Indices 1 2 3 4 5 6 
#
# 1 0.009363 0.006582 0.000538 0.002856 0.005258 -0.002551
# 2 0.006582 0.039183 0.008612 0.005494 0.003775 -0.019942
# 3 0.000538 0.008612 0.018808 0.003488 -0.005059 -0.004530
# 4 0.002856 0.005494 0.003488 0.024243 0.000872 -0.000103
# 5 0.005258 0.003775 -0.005059 0.000872 0.037079 0.002440
# 6 -0.002551 -0.019942 -0.004530 -0.000103 0.002440 0.032283
#
#
# Mechanical properties :
#
#
# Convention : Reuss Voigt Hill
#
# Bulk Modulus (GPa) = 10.11978 19.89594 15.00786
# Shear Modulus (GPa) = 30.78151 42.98037 36.88094
#
# Velocity S-wave (km/s) = 3.77311 4.45851 4.13005
# Velocity P-wave (km/s) = 4.86438 5.97547 5.44832
#
# Compressibility (1/GPa) = 0.09881639
#
# Stress axis : x y z
#
# Youngs Moduli (GPa) = 106.80114 25.52114 53.17009
#
# Poissons Ratio (x) = -0.16797 -0.02861
# Poissons Ratio (y) = -0.70292 -0.45788
# Poissons Ratio (z) = -0.05746 -0.21978
#
# Static dielectric constant tensor:
#      x y z
#    x 1.724960 -0.001530 -0.004770 
#    y -0.001530 1.747690 0.022080 
#    z -0.004770 0.022080 1.753150 
# 
# From -- ./inp_files/35915.got.cif
#   From: 2010.05.17/outbox.cif.g08.bks.cpg/sg2_18_cif.got.tgz:35915.got - 2010.06.03 11:33:40.
