data_PCOD9069866
_publ_section_title
;
Structure prediction by ZEFSAII (Michael W. Deem and Ramdas Pophale) SiO2 
 PCOD9069866
Probable space group: P -1
;
_chemical_formula_sum "Si O2"
_cell_formula_units_Z 16
_cell_length_a 8.393199
_cell_length_b 11.062342
_cell_length_c 13.132619
_cell_angle_alpha 118.543980
_cell_angle_beta 61.180467
_cell_angle_gamma 69.751253
_cell_volume 621.838614
_symmetry_space_group_name_H-M "P -1"
_symmetry_group_IT_number 2
_symmetry_cell_setting 'triclinic'
loop_
_space_group_symop_operation_xyz
x,y,z
-x,-y,-z
loop_
_atom_site_type_symbol
_atom_site_label
_atom_site_fract_x
_atom_site_fract_y
_atom_site_fract_z
Si Si1 0.270707 0.556032 0.485093
Si Si2 0.865337 0.232838 0.097497
Si Si3 0.964167 0.013866 0.233752
Si Si4 0.689941 0.277727 0.801611
Si Si5 0.260740 0.432553 0.846503
Si Si6 0.088095 0.595242 0.334089
Si Si7 0.221942 0.221921 0.121950
Si Si8 0.454470 0.143576 0.489709
O O1 0.602893 0.360387 0.304774
O O2 0.193892 0.758627 0.599060
O O3 0.196997 0.539156 0.391167
O O4 0.045578 0.621063 0.657569
O O5 0.083997 0.935460 0.051061
O O6 0.771049 0.388063 0.095805
O O7 0.111940 0.182402 0.051429
O O8 0.741967 0.019551 0.305566
O O9 0.159817 0.880941 0.216096
O O10 0.514427 0.277823 0.783593
O O11 0.873406 0.275650 0.675708
O O12 0.500000 0.500000 0.000000
O O13 0.330660 0.332810 0.674766
O O14 0.000000 0.500000 0.000000
O O15 0.240500 0.374472 0.147874
O O16 0.763406 0.761025 0.491359
O O17 0.500000 0.000000 0.000000
O O18 0.500000 0.000000 0.500000
#
# Coordination Sequence:
#
# PCOD9069866 Si02
#       8
#     2   2   2   2   2   2   2   2
#     4  12  28  52  78 108 152 204 258 323 380 444
#     4  12  26  52  76 105 153 202 250 323 384 447
#     4  12  26  46  78 117 150 200 255 302 389 474
#     4  12  24  42  74 112 154 194 241 305 382 467
#     4  12  24  43  71 106 155 202 242 307 385 455
#     4  12  25  50  75 108 162 193 252 318 382 450
#     4  12  31  51  79 111 143 206 269 323 380 443
#     4  12  24  42  69 116 152 200 247 301 383 469
#
# _framework density 25.730148
#
# number of rings (size 3 to 8) (size 9 to 14) (size 15 to 20)
#    0.000    0.000    6.250    2.250    7.000    1.500 
#    2.250    0.000    0.000    0.000    0.000    0.000 
#    0.000    0.000    0.000    0.000    0.000    0.000 
#
# Total GULP energy -89569.834525 kJ/mol
# GULP energy per Si atom -5598.114658 kJ/mol
# Density = 2.567159 g / cm^3
# Si number density = 25.730148 Si / 1000 Ang^3
#
#
#
# Elastic Constant Matrix: (Units=GPa)
#
#
# Indices 1 2 3 4 5 6 
#
# 1 135.9917 44.9025 34.0795 14.7868 -16.7029 -30.3391
# 2 44.9025 79.5934 25.7039 15.4467 -16.1178 -12.5504
# 3 34.0795 25.7039 115.4094 6.1252 -15.3211 2.9079
# 4 14.7868 15.4467 6.1252 49.4089 1.1811 -8.3587
# 5 -16.7029 -16.1178 -15.3211 1.1811 53.7316 10.0396
# 6 -30.3391 -12.5504 2.9079 -8.3587 10.0396 56.9039
#
#
#
# Elastic Compliance Matrix: (Units=1/GPa)
#
#
# Indices 1 2 3 4 5 6 
#
# 1 0.010451 -0.004225 -0.002146 -0.000785 0.000538 0.004539
# 2 -0.004225 0.017043 -0.001926 -0.003823 0.003246 0.000470
# 3 -0.002146 -0.001926 0.010098 -0.000486 0.002118 -0.002530
# 4 -0.000785 -0.003823 -0.000486 0.022205 -0.002478 0.002462
# 5 0.000538 0.003246 0.002118 -0.002478 0.021004 -0.003175
# 6 0.004539 0.000470 -0.002530 0.002462 -0.003175 0.021148
#
#
# Mechanical properties :
#
#
# Convention : Reuss Voigt Hill
#
# Bulk Modulus (GPa) = 47.62700 60.04070 53.83385
# Shear Modulus (GPa) = 39.82684 47.09611 43.46147
#
# Velocity S-wave (km/s) = 3.93856 4.28294 4.11436
# Velocity P-wave (km/s) = 6.26366 6.91690 6.59837
#
# Compressibility (1/GPa) = 0.02099649
#
# Stress axis : x y z
#
# Youngs Moduli (GPa) = 95.68843 58.67520 99.02715
#
# Poissons Ratio (x) = 0.24793 0.21252
# Poissons Ratio (y) = 0.40432 0.19074
# Poissons Ratio (z) = 0.20536 0.11302
#
# Static dielectric constant tensor:
#      x y z
#    x 2.386860 0.352380 0.037240 
#    y 0.352380 2.390790 0.081770 
#    z 0.037240 0.081770 2.138280 
# 
# From -- ./inp_files/500547.got.cif
#   From: 2010.05.17/outbox.cif.g08.bks.cpg/sg2_251_cif.got.tgz:500547.got - 2010.06.03 11:33:40.
