data_PCOD9069565
_publ_section_title
;
Structure prediction by ZEFSAII (Michael W. Deem and Ramdas Pophale) SiO2 
 PCOD9069565
Probable space group: P -1
;
_chemical_formula_sum "Si O2"
_cell_formula_units_Z 16
_cell_length_a 11.205508
_cell_length_b 11.933721
_cell_length_c 13.103488
_cell_angle_alpha 145.151910
_cell_angle_beta 70.028440
_cell_angle_gamma 84.607333
_cell_volume 674.837405
_symmetry_space_group_name_H-M "P -1"
_symmetry_group_IT_number 2
_symmetry_cell_setting 'triclinic'
loop_
_space_group_symop_operation_xyz
x,y,z
-x,-y,-z
loop_
_atom_site_type_symbol
_atom_site_label
_atom_site_fract_x
_atom_site_fract_y
_atom_site_fract_z
Si Si1 0.715921 0.634973 0.975271
Si Si2 0.801396 0.196969 0.927342
Si Si3 0.133265 0.488831 0.590062
Si Si4 0.581722 0.565451 0.449512
Si Si5 0.992680 0.289866 0.801527
Si Si6 0.147116 0.661464 0.507822
Si Si7 0.692331 0.007405 0.665446
Si Si8 0.223586 0.024181 0.836474
O O1 0.780534 0.788310 0.098719
O O2 0.504517 0.836944 0.196742
O O3 0.843084 0.391178 0.836996
O O4 0.769934 0.498659 0.743923
O O5 0.936771 0.210435 0.852139
O O6 0.695095 0.199423 0.874078
O O7 0.647695 0.441991 0.226816
O O8 0.935941 0.911617 0.737208
O O9 0.240012 0.564209 0.648082
O O10 0.168920 0.465673 0.440624
O O11 0.216992 0.244543 0.466471
O O12 0.933274 0.756369 0.876216
O O13 0.500000 0.500000 0.500000
O O14 0.411415 0.883162 0.726383
O O15 0.178563 0.083844 0.534032
O O16 0.000000 0.500000 0.000000
O O17 0.213717 0.809869 0.636959
#
# Coordination Sequence:
#
# PCOD9069565 Si02
#       8
#     2   2   2   2   2   2   2   2
#     4  12  28  48  74 113 147 193 258 307 371 445
#     4  12  26  49  77 106 150 200 247 309 373 435
#     4  12  24  45  71 108 157 198 242 302 373 442
#     4  12  24  43  72 111 148 194 249 299 369 447
#     4  12  27  54  78 104 145 195 251 316 372 438
#     4  12  25  45  75 109 150 202 245 302 375 444
#     4  12  27  49  74 111 150 195 250 307 372 443
#     4  12  23  45  73 105 151 196 250 298 369 442
#
# _framework density 23.709416000000001
#
# number of rings (size 3 to 8) (size 9 to 14) (size 15 to 20)
#    0.000    0.000    6.250    3.750    0.000    4.500 
#    2.250    0.000    0.000    0.000    0.000    0.000 
#    0.000    0.000    0.000    0.000    0.000    0.000 
#
# Total GULP energy -89139.408084 kJ/mol
# GULP energy per Si atom -5571.213005 kJ/mol
# Density = 2.365545 g / cm^3
# Si number density = 23.709416 Si / 1000 Ang^3
#
#
#
# Elastic Constant Matrix: (Units=GPa)
#
#
# Indices 1 2 3 4 5 6 
#
# 1 102.2618 -8.1569 69.0697 -33.2618 5.6086 11.7381
# 2 -8.1569 -8.1870 70.9532 -45.7326 -3.0405 21.1597
# 3 69.0697 70.9532 113.1522 -11.0374 -43.2150 -12.6817
# 4 -33.2618 -45.7326 -11.0374 18.0514 7.8272 -0.4397
# 5 5.6086 -3.0405 -43.2150 7.8272 33.9655 -2.2525
# 6 11.7381 21.1597 -12.6817 -0.4397 -2.2525 37.9455
#
#
#
# Elastic Compliance Matrix: (Units=1/GPa)
#
#
# Indices 1 2 3 4 5 6 
#
# 1 0.009865 -0.008823 -0.002642 -0.003652 -0.004896 0.000652
# 2 -0.008823 0.003853 0.008049 -0.007571 0.014053 0.004017
# 3 -0.002642 0.008049 0.012042 0.017482 0.012536 0.001300
# 4 -0.003652 -0.007571 0.017482 0.033898 0.015184 0.012488
# 5 -0.004896 0.014053 0.012536 0.015184 0.044002 0.000655
# 6 0.000652 0.004017 0.001300 0.012488 0.000655 0.024530
#
#
# Mechanical properties :
#
#
# Convention : Reuss Voigt Hill
#
# Bulk Modulus (GPa) = 52.83372 52.32878 52.58125
# Shear Modulus (GPa) = 35.37755 23.01656 29.19706
#
# Velocity S-wave (km/s) = 3.86700 3.11911 3.51301
# Velocity P-wave (km/s) = 6.50158 5.92373 6.21937
#
# Compressibility (1/GPa) = 0.01892731
#
# Stress axis : x y z
#
# Youngs Moduli (GPa) = 101.36467 259.53140 83.04176
#
# Poissons Ratio (x) = 2.28990 0.21941
# Poissons Ratio (y) = 0.89436 -0.66838
# Poissons Ratio (z) = 0.26782 -2.08889
#
# Static dielectric constant tensor:
#      x y z
#    x 1.945940 0.024920 -0.181060 
#    y 0.024920 2.112540 0.252600 
#    z -0.181060 0.252600 0.597730 
# 
# From -- ./inp_files/429055.got.cif
#   From: 2010.05.17/outbox.cif.g08.bks.cpg/sg2_215_cif.got.tgz:429055.got - 2010.06.03 11:33:40.
