data_PCOD9069909
_publ_section_title
;
Structure prediction by ZEFSAII (Michael W. Deem and Ramdas Pophale) SiO2 
 PCOD9069909
Probable space group: P -1
;
_chemical_formula_sum "Si O2"
_cell_formula_units_Z 16
_cell_length_a 16.759190
_cell_length_b 5.338515
_cell_length_c 9.071201
_cell_angle_alpha 120.452046
_cell_angle_beta 94.741494
_cell_angle_gamma 62.982296
_cell_volume 611.667668
_symmetry_space_group_name_H-M "P -1"
_symmetry_group_IT_number 2
_symmetry_cell_setting 'triclinic'
loop_
_space_group_symop_operation_xyz
x,y,z
-x,-y,-z
loop_
_atom_site_type_symbol
_atom_site_label
_atom_site_fract_x
_atom_site_fract_y
_atom_site_fract_z
Si Si1 0.867368 0.682794 0.417676
Si Si2 0.512869 0.395772 0.802323
Si Si3 0.555744 0.137533 0.329583
Si Si4 0.088512 0.946553 0.912636
Si Si5 0.730964 0.141906 0.330388
Si Si6 0.293808 0.184735 0.369932
Si Si7 0.203585 0.223625 0.084419
Si Si8 0.987354 0.274919 0.699093
O O1 0.850130 0.413142 0.249747
O O2 0.806637 0.755193 0.575388
O O3 0.974268 0.537863 0.349369
O O4 0.815838 0.016829 0.416974
O O5 0.462967 0.737838 0.805680
O O6 0.472699 0.135188 0.708770
O O7 0.618931 0.176362 0.705845
O O8 0.500000 0.500000 0.000000
O O9 0.500000 0.500000 0.500000
O O10 0.660160 0.028726 0.346267
O O11 0.049422 0.172498 0.826347
O O12 0.151838 0.012465 0.053898
O O13 0.000000 0.000000 0.000000
O O14 0.688481 0.537350 0.464013
O O15 0.760657 0.947944 0.120954
O O16 0.280349 0.216339 0.199763
O O17 0.113235 0.576886 0.200624
O O18 0.000000 0.000000 0.500000
#
# Coordination Sequence:
#
# PCOD9069909 Si02
#       8
#     2   2   2   2   2   2   2   2
#     4  12  24  45  71 101 149 192 244 315 370 450
#     4  12  28  53  80 118 160 204 261 325 403 480
#     4  12  26  50  85 112 157 210 254 322 409 475
#     4  12  24  43  69  99 140 195 248 299 371 449
#     4  12  26  48  75 110 149 193 256 315 382 461
#     4  12  28  47  74 111 148 192 257 317 379 467
#     4  12  25  47  70 104 146 194 249 308 377 451
#     4  12  26  46  68 103 148 194 247 306 378 448
#
# _framework density 26.157997999999999
#
# number of rings (size 3 to 8) (size 9 to 14) (size 15 to 20)
#    0.000    0.000    5.000    4.875    3.500    2.000 
#    4.500    0.000    0.000    0.000    0.000    0.000 
#    0.000    0.000    0.000    0.000    0.000    0.000 
#
# Total GULP energy -89204.714527 kJ/mol
# GULP energy per Si atom -5575.294658 kJ/mol
# Density = 2.609846 g / cm^3
# Si number density = 26.157998 Si / 1000 Ang^3
#
#
#
# Elastic Constant Matrix: (Units=GPa)
#
#
# Indices 1 2 3 4 5 6 
#
# 1 102.9296 -6.0505 26.8276 3.2396 -7.4829 -3.2227
# 2 -6.0505 64.2832 16.9377 -8.9849 4.5071 -7.5091
# 3 26.8276 16.9377 180.5024 10.3424 -3.3731 3.2267
# 4 3.2396 -8.9849 10.3424 43.1420 0.4210 -8.1316
# 5 -7.4829 4.5071 -3.3731 0.4210 39.6902 4.1920
# 6 -3.2227 -7.5091 3.2267 -8.1316 4.1920 31.9524
#
#
#
# Elastic Compliance Matrix: (Units=1/GPa)
#
#
# Indices 1 2 3 4 5 6 
#
# 1 0.010393 0.001515 -0.001696 0.000197 0.001490 0.001430
# 2 0.001515 0.018022 -0.002392 0.005439 -0.002694 0.006368
# 3 -0.001696 -0.002392 0.006195 -0.002244 0.000716 -0.002024
# 4 0.000197 0.005439 -0.002244 0.026459 -0.001951 0.008514
# 5 0.001490 -0.002694 0.000716 -0.001951 0.026340 -0.004507
# 6 0.001430 0.006368 -0.002024 0.008514 -0.004507 0.035900
#
#
# Mechanical properties :
#
#
# Convention : Reuss Voigt Hill
#
# Bulk Modulus (GPa) = 33.93926 47.01609 40.47767
# Shear Modulus (GPa) = 36.15947 43.62360 39.89154
#
# Velocity S-wave (km/s) = 3.72203 4.08817 3.90939
# Velocity P-wave (km/s) = 5.61019 6.34800 5.99047
#
# Compressibility (1/GPa) = 0.02946441
#
# Stress axis : x y z
#
# Youngs Moduli (GPa) = 96.21498 55.48753 161.42619
#
# Poissons Ratio (x) = -0.08407 0.27376
# Poissons Ratio (y) = -0.14578 0.38616
# Poissons Ratio (z) = 0.16317 0.13274
#
# Static dielectric constant tensor:
#      x y z
#    x 2.140040 0.017990 0.007950 
#    y 0.017990 2.329870 -0.019400 
#    z 0.007950 -0.019400 2.153940 
# 
# From -- ./inp_files/324131.got.cif
#   From: 2010.05.17/outbox.cif.g08.bks.cpg/sg2_163_cif.got.tgz:324131.got - 2010.06.03 11:33:40.
