data_PCOD9069678
_publ_section_title
;
Structure prediction by ZEFSAII (Michael W. Deem and Ramdas Pophale) SiO2 
 PCOD9069678
Probable space group: P -1
;
_chemical_formula_sum "Si O2"
_cell_formula_units_Z 10
_cell_length_a 7.883222
_cell_length_b 11.350993
_cell_length_c 8.981215
_cell_angle_alpha 61.758177
_cell_angle_beta 146.657482
_cell_angle_gamma 108.570415
_cell_volume 384.211919
_symmetry_space_group_name_H-M "P -1"
_symmetry_group_IT_number 2
_symmetry_cell_setting 'triclinic'
loop_
_space_group_symop_operation_xyz
x,y,z
-x,-y,-z
loop_
_atom_site_type_symbol
_atom_site_label
_atom_site_fract_x
_atom_site_fract_y
_atom_site_fract_z
Si Si1 0.900307 0.698706 0.750905
Si Si2 0.899983 0.827066 0.209429
Si Si3 0.767416 0.351547 0.681235
Si Si4 0.533055 0.577267 0.133486
Si Si5 0.349106 0.995831 0.556541
O O1 0.564785 0.663276 0.481241
O O2 0.848709 0.860222 0.635916
O O3 0.988188 0.635694 0.017226
O O4 0.188286 0.642732 0.893176
O O5 0.739008 0.697414 0.204142
O O6 0.098286 0.783103 0.231645
O O7 0.135414 0.878019 0.466363
O O8 0.629715 0.951387 0.902123
O O9 0.696356 0.468511 0.437486
O O10 0.500000 0.500000 0.000000
O O11 0.500000 0.000000 0.500000
#
# Coordination Sequence:
#
# PCOD9069678 Si02
#       5
#     2   2   2   2   2
#     4  12  27  46  79 110 144 197 249 300 361 440
#     4  12  25  45  77 108 147 193 235 308 376 422
#     4  12  24  48  76 108 146 196 247 298 359 447
#     4  12  29  50  72 110 157 195 243 306 371 433
#     4  12  23  46  78 108 145 186 250 303 363 440
#
# _framework density 26.027304000000001
#
# number of rings (size 3 to 8) (size 9 to 14) (size 15 to 20)
#    0.000    0.000    4.000    6.000    0.000    8.000 
#    0.000    0.000    0.000    0.000    0.000    0.000 
#    0.000    0.000    0.000    0.000    0.000    0.000 
#
# Total GULP energy -56216.265398 kJ/mol
# GULP energy per Si atom -5621.626540 kJ/mol
# Density = 2.596806 g / cm^3
# Si number density = 26.027304 Si / 1000 Ang^3
#
#
#
# Elastic Constant Matrix: (Units=GPa)
#
#
# Indices 1 2 3 4 5 6 
#
# 1 102.4545 62.8039 36.0071 -21.9450 19.4201 -16.7890
# 2 62.8039 148.9496 42.7341 -15.4534 4.2663 2.1938
# 3 36.0071 42.7341 125.5389 -10.2665 14.5437 -11.3549
# 4 -21.9450 -15.4534 -10.2665 43.6492 -6.8434 15.9175
# 5 19.4201 4.2663 14.5437 -6.8434 44.9669 -1.7552
# 6 -16.7890 2.1938 -11.3549 15.9175 -1.7552 53.5688
#
#
#
# Elastic Compliance Matrix: (Units=1/GPa)
#
#
# Indices 1 2 3 4 5 6 
#
# 1 0.016343 -0.006035 -0.001377 0.003509 -0.005356 0.003859
# 2 -0.006035 0.010000 -0.002114 0.001533 0.002453 -0.003124
# 3 -0.001377 -0.002114 0.009474 -0.000159 -0.002229 0.001637
# 4 0.003509 0.001533 -0.000159 0.028219 0.002400 -0.007303
# 5 -0.005356 0.002453 -0.002229 0.002400 0.025322 -0.002135
# 6 0.003859 -0.003124 0.001637 -0.007303 -0.002135 0.022452
#
#
# Mechanical properties :
#
#
# Convention : Reuss Voigt Hill
#
# Bulk Modulus (GPa) = 59.65209 73.33703 66.49456
# Shear Modulus (GPa) = 36.64348 44.13017 40.38683
#
# Velocity S-wave (km/s) = 3.75625 4.12215 3.94345
# Velocity P-wave (km/s) = 6.46385 7.13403 6.80719
#
# Compressibility (1/GPa) = 0.01676387
#
# Stress axis : x y z
#
# Youngs Moduli (GPa) = 61.18799 100.00129 105.55677
#
# Poissons Ratio (x) = 0.60355 0.14530
# Poissons Ratio (y) = 0.36930 0.22318
# Poissons Ratio (z) = 0.08423 0.21144
#
# Static dielectric constant tensor:
#      x y z
#    x 2.046840 0.042640 -0.006950 
#    y 0.042640 2.008410 -0.014440 
#    z -0.006950 -0.014440 1.947700 
# 
# From -- ./inp_files/62855.got.cif
#   From: 2010.05.17/outbox.cif.g08.bks.cpg/sg2_32_cif.got.tgz:62855.got - 2010.06.03 11:33:40.
