data_PCOD9069785
_publ_section_title
;
Structure prediction by ZEFSAII (Michael W. Deem and Ramdas Pophale) SiO2 
 PCOD9069785
Probable space group: P -1
;
_chemical_formula_sum "Si O2"
_cell_formula_units_Z 15
_cell_length_a 9.010670
_cell_length_b 13.978655
_cell_length_c 12.521273
_cell_angle_alpha 62.945736
_cell_angle_beta 75.461700
_cell_angle_gamma 129.694297
_cell_volume 662.284859
_symmetry_space_group_name_H-M "P -1"
_symmetry_group_IT_number 2
_symmetry_cell_setting 'triclinic'
loop_
_space_group_symop_operation_xyz
x,y,z
-x,-y,-z
loop_
_atom_site_type_symbol
_atom_site_label
_atom_site_fract_x
_atom_site_fract_y
_atom_site_fract_z
Si Si1 0.948241 0.171836 0.008259
Si Si2 0.137486 0.702381 0.890791
Si Si3 0.549772 0.702025 0.097468
Si Si4 0.764945 0.006817 0.728104
Si Si5 0.182480 0.370391 0.637481
Si Si6 0.000000 0.000000 0.500000
Si Si7 0.833059 0.672722 0.793051
Si Si8 0.351063 0.682029 0.368287
O O1 0.035209 0.337643 0.962828
O O2 0.591828 0.923563 0.227289
O O3 0.157894 0.201185 0.995752
O O4 0.995461 0.215389 0.852276
O O5 0.493213 0.897963 0.763630
O O6 0.055530 0.731138 0.793032
O O7 0.000000 0.500000 0.000000
O O8 0.267722 0.457463 0.226224
O O9 0.487643 0.709106 0.223041
O O10 0.612057 0.835589 0.934030
O O11 0.973298 0.219602 0.647561
O O12 0.954003 0.044220 0.596503
O O13 0.500000 0.500000 0.500000
O O14 0.303990 0.565703 0.527571
O O15 0.013909 0.120996 0.367611
O O16 0.500000 0.500000 0.000000
O O17 0.000000 0.500000 0.500000
#
# Coordination Sequence:
#
# PCOD9069785 Si02
#       8
#     2   2   2   2   2   1   2   2
#     4  12  26  47  78 106 155 201 255 324 379 463
#     4  12  26  47  76 113 151 204 256 318 396 443
#     4  12  23  49  77 105 157 199 254 316 388 458
#     4  12  26  45  75 112 154 199 255 319 379 461
#     4  12  26  46  76 112 148 205 258 304 389 464
#     4  12  26  46  78 108 152 202 262 304 386 464
#     4  12  24  48  75 106 147 200 253 317 381 457
#     4  12  27  46  74 113 150 196 252 319 390 461
#
# _framework density 22.648861
#
# number of rings (size 3 to 8) (size 9 to 14) (size 15 to 20)
#    0.000    0.000    6.667    2.800    1.867    1.600 
#    0.000    1.333    0.000    0.000    0.000    0.000 
#    0.000    0.000    0.000    0.000    0.000    0.000 
#
# Total GULP energy -83655.634839 kJ/mol
# GULP energy per Si atom -5577.042323 kJ/mol
# Density = 2.259731 g / cm^3
# Si number density = 22.648861 Si / 1000 Ang^3
#
#
#
# Elastic Constant Matrix: (Units=GPa)
#
#
# Indices 1 2 3 4 5 6 
#
# 1 137.4492 42.3541 53.5833 -14.3589 27.0727 -1.9335
# 2 42.3541 109.3593 20.5242 -7.9331 6.9231 1.9128
# 3 53.5833 20.5242 69.4061 -20.0496 29.3401 8.9826
# 4 -14.3589 -7.9331 -20.0496 17.3974 -1.0322 2.6897
# 5 27.0727 6.9231 29.3401 -1.0322 44.2617 -0.8438
# 6 -1.9335 1.9128 8.9826 2.6897 -0.8438 42.6728
#
#
#
# Elastic Compliance Matrix: (Units=1/GPa)
#
#
# Indices 1 2 3 4 5 6 
#
# 1 0.011542 -0.003002 -0.008653 -0.002269 -0.000858 0.002605
# 2 -0.003002 0.010496 -0.000236 0.002165 0.000388 -0.000686
# 3 -0.008653 -0.000236 0.047672 0.048342 -0.025410 -0.013966
# 4 -0.002269 0.002165 0.048342 0.113401 -0.028696 -0.018091
# 5 -0.000858 0.000388 -0.025410 -0.028696 0.039381 0.007880
# 6 0.002605 -0.000686 -0.013966 -0.018091 0.007880 0.027819
#
#
# Mechanical properties :
#
#
# Convention : Reuss Voigt Hill
#
# Bulk Modulus (GPa) = 21.77341 61.01532 41.39437
# Shear Modulus (GPa) = 17.27692 34.18325 25.73008
#
# Velocity S-wave (km/s) = 2.76491 3.88915 3.37418
# Velocity P-wave (km/s) = 4.45279 6.86771 5.78761
#
# Compressibility (1/GPa) = 0.04592757
#
# Stress axis : x y z
#
# Youngs Moduli (GPa) = 86.63654 95.27777 20.97662
#
# Poissons Ratio (x) = 0.28604 0.18152
# Poissons Ratio (y) = 0.26010 0.00495
# Poissons Ratio (z) = 0.74969 0.02248
#
# Static dielectric constant tensor:
#      x y z
#    x 1.815210 0.013320 -0.024300 
#    y 0.013320 1.860130 -0.012320 
#    z -0.024300 -0.012320 1.859910 
# 
# From -- ./inp_files/397183.got.cif
#   From: 2010.05.17/outbox.cif.g08.bks.cpg/sg2_199_cif.got.tgz:397183.got - 2010.06.03 11:33:40.
