data_PCOD9069098
_publ_section_title
;
Structure prediction by ZEFSAII (Michael W. Deem and Ramdas Pophale) SiO2 
 PCOD9069098
Probable space group: P -1
;
_chemical_formula_sum "Si O2"
_cell_formula_units_Z 14
_cell_length_a 11.993527
_cell_length_b 6.906687
_cell_length_c 12.503262
_cell_angle_alpha 58.063266
_cell_angle_beta 134.429897
_cell_angle_gamma 119.306418
_cell_volume 615.402553
_symmetry_space_group_name_H-M "P -1"
_symmetry_group_IT_number 2
_symmetry_cell_setting 'triclinic'
loop_
_space_group_symop_operation_xyz
x,y,z
-x,-y,-z
loop_
_atom_site_type_symbol
_atom_site_label
_atom_site_fract_x
_atom_site_fract_y
_atom_site_fract_z
Si Si1 0.511685 0.254611 0.881416
Si Si2 0.771993 0.512388 0.311955
Si Si3 0.445299 0.727319 0.345478
Si Si4 0.163886 0.603854 0.849698
Si Si5 0.883451 0.173289 0.834479
Si Si6 0.285455 0.944383 0.462374
Si Si7 0.006235 0.015972 0.625937
O O1 0.378243 0.365203 0.817231
O O2 0.493596 0.240281 0.745306
O O3 0.681373 0.418966 0.973082
O O4 0.500000 0.000000 0.000000
O O5 0.788038 0.392390 0.244106
O O6 0.744978 0.322573 0.442391
O O7 0.922155 0.721154 0.368733
O O8 0.500000 0.500000 0.500000
O O9 0.257490 0.745457 0.214330
O O10 0.538597 0.933096 0.423450
O O11 0.119010 0.844007 0.787333
O O12 0.009916 0.403656 0.819517
O O13 0.783208 0.051445 0.702471
O O14 0.000000 0.000000 0.000000
O O15 0.168262 0.063457 0.421405
O O16 0.000000 0.000000 0.500000
#
# Coordination Sequence:
#
# PCOD9069098 Si02
#       7
#     2   2   2   2   2   2   2
#     4  12  27  47  79 112 152 196 253 323 386 445
#     4  12  24  46  76 115 148 193 249 312 391 454
#     4  12  29  53  76 109 156 210 262 305 382 471
#     4  12  26  46  75 112 156 191 246 318 384 453
#     4  12  30  47  76 111 151 206 257 315 379 450
#     4  12  25  48  78 108 154 198 256 313 379 464
#     4  12  22  42  73 113 149 189 245 306 385 457
#
# _framework density 22.749334000000001
#
# number of rings (size 3 to 8) (size 9 to 14) (size 15 to 20)
#    0.000    0.000    4.286    5.571    8.000    0.571 
#    0.000    0.000    0.000    0.000    0.000    0.000 
#    0.000    0.000    0.000    0.000    0.000    0.000 
#
# Total GULP energy -78322.220579 kJ/mol
# GULP energy per Si atom -5594.444327 kJ/mol
# Density = 2.269756 g / cm^3
# Si number density = 22.749334 Si / 1000 Ang^3
#
#
#
# Elastic Constant Matrix: (Units=GPa)
#
#
# Indices 1 2 3 4 5 6 
#
# 1 105.6152 28.2705 33.8660 -11.3430 26.5669 -1.7038
# 2 28.2705 74.6311 47.7414 -3.5972 5.9378 -0.6331
# 3 33.8660 47.7414 109.0786 -4.4546 11.1927 7.5563
# 4 -11.3430 -3.5972 -4.4546 56.3418 -3.5919 12.4459
# 5 26.5669 5.9378 11.1927 -3.5919 50.7661 4.1897
# 6 -1.7038 -0.6331 7.5563 12.4459 4.1897 33.3577
#
#
#
# Elastic Compliance Matrix: (Units=1/GPa)
#
#
# Indices 1 2 3 4 5 6 
#
# 1 0.012535 -0.002890 -0.002056 0.001545 -0.005758 0.001198
# 2 -0.002890 0.019456 -0.007854 -0.000361 0.000775 0.002038
# 3 -0.002056 -0.007854 0.013595 0.000913 -0.000642 -0.003594
# 4 0.001545 -0.000361 0.000913 0.019875 0.001073 -0.007685
# 5 -0.005758 0.000775 -0.000642 0.001073 0.023122 -0.003439
# 6 0.001198 0.002038 -0.003594 -0.007685 -0.003439 0.034191
#
#
# Mechanical properties :
#
#
# Convention : Reuss Voigt Hill
#
# Bulk Modulus (GPa) = 50.03272 56.56450 53.29861
# Shear Modulus (GPa) = 32.25045 40.05628 36.15336
#
# Velocity S-wave (km/s) = 3.76925 4.20070 3.99081
# Velocity P-wave (km/s) = 6.40185 6.96032 6.68692
#
# Compressibility (1/GPa) = 0.01998692
#
# Stress axis : x y z
#
# Youngs Moduli (GPa) = 79.77767 51.39707 73.55434
#
# Poissons Ratio (x) = 0.14856 0.15121
# Poissons Ratio (y) = 0.23059 0.57767
# Poissons Ratio (z) = 0.16400 0.40366
#
# Static dielectric constant tensor:
#      x y z
#    x 1.421200 -0.057080 -0.027110 
#    y -0.057080 1.837110 -0.033900 
#    z -0.027110 -0.033900 1.871440 
# 
# From -- ./inp_files/185833.got.cif
#   From: 2010.05.17/outbox.cif.g08.bks.cpg/sg2_93_cif.got.tgz:185833.got - 2010.06.03 11:33:40.
