data_PCOD9069295
_publ_section_title
;
Structure prediction by ZEFSAII (Michael W. Deem and Ramdas Pophale) SiO2 
 PCOD9069295
Probable space group: P -1
;
_chemical_formula_sum "Si O2"
_cell_formula_units_Z 12
_cell_length_a 10.189365
_cell_length_b 15.561108
_cell_length_c 8.796591
_cell_angle_alpha 63.784915
_cell_angle_beta 149.365770
_cell_angle_gamma 117.911522
_cell_volume 625.679997
_symmetry_space_group_name_H-M "P -1"
_symmetry_group_IT_number 2
_symmetry_cell_setting 'triclinic'
loop_
_space_group_symop_operation_xyz
x,y,z
-x,-y,-z
loop_
_atom_site_type_symbol
_atom_site_label
_atom_site_fract_x
_atom_site_fract_y
_atom_site_fract_z
Si Si1 0.932454 0.962989 0.131971
Si Si2 0.471702 0.041359 0.771544
Si Si3 0.621133 0.246058 0.612204
Si Si4 0.264674 0.530288 0.335435
Si Si5 0.119370 0.239476 0.898999
Si Si6 0.775544 0.550014 0.306868
O O1 0.910961 0.847878 0.183279
O O2 0.172015 0.010428 0.441538
O O3 0.663376 0.991956 0.894768
O O4 0.000000 0.000000 0.000000
O O5 0.563127 0.157809 0.745191
O O6 0.500000 0.000000 0.000000
O O7 0.679269 0.354184 0.658504
O O8 0.866359 0.232945 0.760906
O O9 0.367759 0.237088 0.257515
O O10 0.500000 0.500000 0.500000
O O11 0.235139 0.470464 0.509534
O O12 0.000000 0.500000 0.000000
O O13 0.164840 0.339037 0.773202
O O14 0.000000 0.500000 0.500000
O O15 0.500000 0.500000 0.000000
#
# Coordination Sequence:
#
# PCOD9069295 Si02
#       6
#     2   2   2   2   2   2
#     4  12  23  42  70  99 128 173 228 267 316 392
#     4  12  26  43  67 100 140 172 214 276 333 391
#     4  12  23  43  67  94 133 179 212 270 343 379
#     4  12  26  42  66  96 134 168 215 273 332 390
#     4  12  23  40  72  98 126 173 228 270 316 388
#     4  12  23  43  68  96 125 171 224 266 316 389
#
# _framework density 19.179133
#
# number of rings (size 3 to 8) (size 9 to 14) (size 15 to 20)
#    0.000    0.000    6.667    4.000    0.000    2.667 
#    0.000    0.000    0.000    0.000    0.000    0.000 
#    0.000    0.000    0.000    0.000    0.000    0.000 
#
# Total GULP energy -67150.532747 kJ/mol
# GULP energy per Si atom -5595.877729 kJ/mol
# Density = 1.913548 g / cm^3
# Si number density = 19.179133 Si / 1000 Ang^3
#
#
#
# Elastic Constant Matrix: (Units=GPa)
#
#
# Indices 1 2 3 4 5 6 
#
# 1 103.1001 18.5964 33.8770 -14.1816 -4.8440 21.4237
# 2 18.5964 157.3594 18.0310 -18.5809 -9.0363 21.9152
# 3 33.8770 18.0310 126.3945 9.2166 1.8259 13.5824
# 4 -14.1816 -18.5809 9.2166 37.7156 1.5062 -7.2240
# 5 -4.8440 -9.0363 1.8259 1.5062 53.4829 -16.1150
# 6 21.4237 21.9152 13.5824 -7.2240 -16.1150 37.2171
#
#
#
# Elastic Compliance Matrix: (Units=1/GPa)
#
#
# Indices 1 2 3 4 5 6 
#
# 1 0.012409 0.000144 -0.003078 0.004463 -0.000518 -0.005463
# 2 0.000144 0.007305 -0.000963 0.003245 0.000188 -0.003322
# 3 -0.003078 -0.000963 0.009494 -0.004392 -0.001424 -0.002595
# 4 0.004463 0.003245 -0.004392 0.031545 0.001371 0.003839
# 5 -0.000518 0.000188 -0.001424 0.001371 0.021834 0.010428
# 6 -0.005463 -0.003322 -0.002595 0.003839 0.010428 0.038178
#
#
# Mechanical properties :
#
#
# Convention : Reuss Voigt Hill
#
# Bulk Modulus (GPa) = 46.69606 58.65141 52.67373
# Shear Modulus (GPa) = 36.84714 46.77311 41.81012
#
# Velocity S-wave (km/s) = 4.38792 4.94373 4.67409
# Velocity P-wave (km/s) = 7.07615 7.95201 7.52683
#
# Compressibility (1/GPa) = 0.02141508
#
# Stress axis : x y z
#
# Youngs Moduli (GPa) = 80.58443 136.89799 105.33351
#
# Poissons Ratio (x) = -0.01975 0.32416
# Poissons Ratio (y) = -0.01162 0.10144
# Poissons Ratio (z) = 0.24800 0.13184
#
# Static dielectric constant tensor:
#      x y z
#    x 1.699400 0.111190 -0.021020 
#    y 0.111190 1.924370 -0.062700 
#    z -0.021020 -0.062700 1.651030 
# 
# From -- ./inp_files/89428.got.cif
#   From: 2010.05.17/outbox.cif.g08.bks.cpg/sg2_45_cif.got.tgz:89428.got - 2010.06.03 11:33:40.
