data_PCOD9069664
_publ_section_title
;
Structure prediction by ZEFSAII (Michael W. Deem and Ramdas Pophale) SiO2 
 PCOD9069664
Probable space group: P -1
;
_chemical_formula_sum "Si O2"
_cell_formula_units_Z 16
_cell_length_a 18.900318
_cell_length_b 9.336400
_cell_length_c 8.147839
_cell_angle_alpha 113.791468
_cell_angle_beta 146.189998
_cell_angle_gamma 67.072563
_cell_volume 727.862384
_symmetry_space_group_name_H-M "P -1"
_symmetry_group_IT_number 2
_symmetry_cell_setting 'triclinic'
loop_
_space_group_symop_operation_xyz
x,y,z
-x,-y,-z
loop_
_atom_site_type_symbol
_atom_site_label
_atom_site_fract_x
_atom_site_fract_y
_atom_site_fract_z
Si Si1 0.468588 0.156689 0.404205
Si Si2 0.246442 0.350502 0.234434
Si Si3 0.375486 0.456974 0.840712
Si Si4 0.919161 0.395489 0.182053
Si Si5 0.135280 0.051681 0.736624
Si Si6 0.382541 0.128341 0.871658
Si Si7 0.902057 0.883790 0.690815
Si Si8 0.273403 0.744927 0.011862
O O1 0.389076 0.289420 0.419856
O O2 0.601426 0.214397 0.630772
O O3 0.500000 0.000000 0.500000
O O4 0.381709 0.132265 0.069201
O O5 0.266660 0.413877 0.483693
O O6 0.179099 0.490693 0.060546
O O7 0.171508 0.197832 0.984664
O O8 0.410191 0.298163 0.937758
O O9 0.500000 0.500000 0.000000
O O10 0.317354 0.596609 0.912023
O O11 0.000000 0.500000 0.500000
O O12 0.021223 0.288024 0.219582
O O13 0.837842 0.291971 0.095794
O O14 0.118641 0.096149 0.535023
O O15 0.000000 0.000000 0.500000
O O16 0.231526 0.897098 0.889844
O O17 0.244238 0.094727 0.517441
O O18 0.500000 0.000000 0.000000
O O19 0.000000 0.000000 0.000000
#
# Coordination Sequence:
#
# PCOD9069664 Si02
#       8
#     2   2   2   2   2   2   2   2
#     4  12  23  46  77 105 145 192 246 301 363 436
#     4  12  25  46  74 101 150 191 239 300 366 428
#     4  12  29  45  68 114 151 186 245 306 366 432
#     4  12  25  50  71 101 144 191 240 300 363 439
#     4  12  25  48  75 104 139 195 244 295 364 446
#     4  12  29  48  77 107 150 194 245 302 370 436
#     4  12  28  47  74 109 148 184 250 303 365 432
#     4  12  26  44  76 105 143 190 245 297 370 429
#
# _framework density 21.982177
#
# number of rings (size 3 to 8) (size 9 to 14) (size 15 to 20)
#    0.000    0.000    6.250    2.250    8.750    1.000 
#    0.000    1.875    0.000    0.000    0.000    0.000 
#    0.000    0.000    0.000    0.000    0.000    0.000 
#
# Total GULP energy -89510.370253 kJ/mol
# GULP energy per Si atom -5594.398141 kJ/mol
# Density = 2.193214 g / cm^3
# Si number density = 21.982177 Si / 1000 Ang^3
#
#
#
# Elastic Constant Matrix: (Units=GPa)
#
#
# Indices 1 2 3 4 5 6 
#
# 1 55.0576 28.3275 33.5039 -2.9489 16.3681 4.6986
# 2 28.3275 166.0482 51.2946 -23.4394 -2.6882 -2.0529
# 3 33.5039 51.2946 152.9614 9.0970 12.0882 2.0767
# 4 -2.9489 -23.4394 9.0970 47.7323 2.1988 -1.9187
# 5 16.3681 -2.6882 12.0882 2.1988 50.9619 -4.3018
# 6 4.6986 -2.0529 2.0767 -1.9187 -4.3018 44.0692
#
#
#
# Elastic Compliance Matrix: (Units=1/GPa)
#
#
# Indices 1 2 3 4 5 6 
#
# 1 0.024590 -0.003053 -0.003783 0.000954 -0.007479 -0.003274
# 2 -0.003053 0.007908 -0.002392 0.004110 0.001887 0.001170
# 3 -0.003783 -0.002392 0.008414 -0.002988 -0.000804 -0.000313
# 4 0.000954 0.004110 -0.002988 0.023660 -0.000298 0.001232
# 5 -0.007479 0.001887 -0.000804 -0.000298 0.022591 0.003115
# 6 -0.003274 0.001170 -0.000313 0.001232 0.003115 0.023468
#
#
# Mechanical properties :
#
#
# Convention : Reuss Voigt Hill
#
# Bulk Modulus (GPa) = 44.53648 66.70214 55.61931
# Shear Modulus (GPa) = 36.61057 45.94877 41.27967
#
# Velocity S-wave (km/s) = 4.08544 4.57691 4.33814
# Velocity P-wave (km/s) = 6.52370 7.63809 7.10278
#
# Compressibility (1/GPa) = 0.02245350
#
# Stress axis : x y z
#
# Youngs Moduli (GPa) = 40.66712 126.46219 118.84832
#
# Poissons Ratio (x) = 0.38611 0.44965
# Poissons Ratio (y) = 0.12416 0.28434
# Poissons Ratio (z) = 0.15386 0.30255
#
# Static dielectric constant tensor:
#      x y z
#    x 1.471430 0.180460 0.047190 
#    y 0.180460 1.711920 -0.004610 
#    z 0.047190 -0.004610 1.760140 
# 
# From -- ./inp_files/343821.got.cif
#   From: 2010.05.17/outbox.cif.g08.bks.cpg/sg2_172_cif.got.tgz:343821.got - 2010.06.03 11:33:40.
