data_PCOD9069744
_publ_section_title
;
Structure prediction by ZEFSAII (Michael W. Deem and Ramdas Pophale) SiO2 
 PCOD9069744
Probable space group: P -1
;
_chemical_formula_sum "Si O2"
_cell_formula_units_Z 16
_cell_length_a 13.448919
_cell_length_b 10.651050
_cell_length_c 9.616953
_cell_angle_alpha 78.563948
_cell_angle_beta 115.306810
_cell_angle_gamma 144.516809
_cell_volume 692.814520
_symmetry_space_group_name_H-M "P -1"
_symmetry_group_IT_number 2
_symmetry_cell_setting 'triclinic'
loop_
_space_group_symop_operation_xyz
x,y,z
-x,-y,-z
loop_
_atom_site_type_symbol
_atom_site_label
_atom_site_fract_x
_atom_site_fract_y
_atom_site_fract_z
Si Si1 0.952759 0.485967 0.132276
Si Si2 0.348513 0.644534 0.614891
Si Si3 0.593300 0.452295 0.063989
Si Si4 0.971236 0.035890 0.824238
Si Si5 0.397411 0.697937 0.146902
Si Si6 0.260835 0.939114 0.370350
Si Si7 0.308930 0.413442 0.402779
Si Si8 0.253536 0.810052 0.671649
O O1 0.867608 0.305460 0.233515
O O2 0.144798 0.723063 0.263687
O O3 0.786980 0.432536 0.023072
O O4 0.000000 0.500000 0.000000
O O5 0.448413 0.673300 0.799988
O O6 0.267995 0.451400 0.513449
O O7 0.234417 0.654381 0.615316
O O8 0.513737 0.861246 0.567113
O O9 0.824616 0.703223 0.148950
O O10 0.500000 0.500000 0.000000
O O11 0.505155 0.299517 0.909122
O O12 0.811514 0.994275 0.741547
O O13 0.878173 0.844814 0.704146
O O14 0.000000 0.000000 0.000000
O O15 0.347527 0.560937 0.277754
O O16 0.525738 0.943548 0.209218
O O17 0.207263 0.871692 0.514724
O O18 0.500000 0.500000 0.500000
#
# Coordination Sequence:
#
# PCOD9069744 Si02
#       8
#     2   2   2   2   2   2   2   2
#     4  12  27  45  71 106 142 188 245 298 363 436
#     4  12  25  44  74 106 147 193 239 297 371 438
#     4  12  26  45  73 106 146 192 247 304 365 428
#     4  12  23  48  74 103 147 191 248 307 354 431
#     4  12  24  48  71 103 142 189 246 295 362 439
#     4  12  24  45  73 105 147 190 235 303 368 426
#     4  12  24  45  75 107 142 192 244 297 365 437
#     4  12  26  48  70 105 150 189 240 301 372 438
#
# _framework density 23.094206
#
# number of rings (size 3 to 8) (size 9 to 14) (size 15 to 20)
#    0.000    0.000    6.250    3.375    3.500    0.500 
#    0.000    0.000    0.000    0.000    0.000    0.000 
#    0.000    0.000    0.000    0.000    0.000    0.000 
#
# Total GULP energy -89431.555833 kJ/mol
# GULP energy per Si atom -5589.472240 kJ/mol
# Density = 2.304164 g / cm^3
# Si number density = 23.094206 Si / 1000 Ang^3
#
#
#
# Elastic Constant Matrix: (Units=GPa)
#
#
# Indices 1 2 3 4 5 6 
#
# 1 57.5367 7.1379 12.0609 -3.6316 -14.5466 -5.6280
# 2 7.1379 98.6735 22.4814 7.1131 -18.9603 -1.8301
# 3 12.0609 22.4814 116.7705 -17.1461 -17.8828 -3.0694
# 4 -3.6316 7.1131 -17.1461 59.9672 -3.8984 0.2898
# 5 -14.5466 -18.9603 -17.8828 -3.8984 39.4328 -5.4697
# 6 -5.6280 -1.8301 -3.0694 0.2898 -5.4697 19.9253
#
#
#
# Elastic Compliance Matrix: (Units=1/GPa)
#
#
# Indices 1 2 3 4 5 6 
#
# 1 0.020566 0.000337 -0.000374 0.001636 0.008878 0.008196
# 2 0.000337 0.011625 -0.001645 -0.001506 0.005145 0.002344
# 3 -0.000374 -0.001645 0.010139 0.003342 0.004339 0.002448
# 4 0.001636 -0.001506 0.003342 0.018122 0.003396 0.001507
# 5 0.008878 0.005145 0.004339 0.003396 0.035253 0.013277
# 6 0.008196 0.002344 0.002448 0.001507 0.013277 0.056717
#
#
# Mechanical properties :
#
#
# Convention : Reuss Voigt Hill
#
# Bulk Modulus (GPa) = 25.66211 39.59343 32.62777
# Shear Modulus (GPa) = 29.62534 39.28511 34.45523
#
# Velocity S-wave (km/s) = 3.58551 4.12889 3.86676
# Velocity P-wave (km/s) = 5.31763 6.31758 5.83905
#
# Compressibility (1/GPa) = 0.03896795
#
# Stress axis : x y z
#
# Youngs Moduli (GPa) = 48.62336 86.01943 98.63347
#
# Poissons Ratio (x) = -0.02903 0.03688
# Poissons Ratio (y) = -0.01641 0.16221
# Poissons Ratio (z) = 0.01818 0.14147
#
# Static dielectric constant tensor:
#      x y z
#    x 1.860460 0.019990 -0.042230 
#    y 0.019990 1.888790 0.006930 
#    z -0.042230 0.006930 1.871000 
# 
# From -- ./inp_files/307395.got.cif
#   From: 2010.05.17/outbox.cif.g08.bks.cpg/sg2_154_cif.got.tgz:307395.got - 2010.06.03 11:33:40.
