data_PCOD9069234
_publ_section_title
;
Structure prediction by ZEFSAII (Michael W. Deem and Ramdas Pophale) SiO2 
 PCOD9069234
Probable space group: P -1
;
_chemical_formula_sum "Si O2"
_cell_formula_units_Z 15
_cell_length_a 10.219830
_cell_length_b 9.128985
_cell_length_c 13.550653
_cell_angle_alpha 111.212240
_cell_angle_beta 147.191549
_cell_angle_gamma 71.489507
_cell_volume 638.366031
_symmetry_space_group_name_H-M "P -1"
_symmetry_group_IT_number 2
_symmetry_cell_setting 'triclinic'
loop_
_space_group_symop_operation_xyz
x,y,z
-x,-y,-z
loop_
_atom_site_type_symbol
_atom_site_label
_atom_site_fract_x
_atom_site_fract_y
_atom_site_fract_z
Si Si1 0.299965 0.945363 0.785419
Si Si2 0.634738 0.843675 0.809840
Si Si3 0.962805 0.239323 0.664233
Si Si4 0.028400 0.321154 0.503492
Si Si5 0.798670 0.558170 0.964591
Si Si6 0.545128 0.245057 0.727332
Si Si7 0.472701 0.315403 0.466150
Si Si8 0.000000 0.000000 0.000000
O O1 0.420114 0.939493 0.751945
O O2 0.189570 0.779289 0.701140
O O3 0.084497 0.070715 0.688329
O O4 0.500000 0.000000 0.000000
O O5 0.629381 0.678655 0.825598
O O6 0.735214 0.780558 0.746539
O O7 0.883404 0.932913 0.012654
O O8 0.998915 0.318040 0.601459
O O9 0.684351 0.230194 0.516112
O O10 0.082403 0.345194 0.849248
O O11 0.281820 0.244386 0.609510
O O12 0.000000 0.500000 0.500000
O O13 0.667116 0.404934 0.880246
O O14 0.000000 0.500000 0.000000
O O15 0.500490 0.276290 0.588460
O O16 0.728781 0.099681 0.831480
O O17 0.500000 0.500000 0.500000
#
# Coordination Sequence:
#
# PCOD9069234 Si02
#       8
#     2   2   2   2   2   2   2   1
#     4  12  27  49  79 107 153 209 254 308 399 476
#     4  12  24  47  74 107 150 198 261 315 385 465
#     4  12  25  46  78 106 147 208 256 305 389 471
#     4  12  28  52  76 116 156 199 264 330 387 458
#     4  12  22  47  75 107 145 204 263 309 382 469
#     4  12  27  48  75 115 158 198 261 328 389 459
#     4  12  24  45  80 108 141 205 259 314 380 458
#     4  12  28  44  68 112 156 194 246 332 380 450
#
# _framework density 23.497489999999999
#
# number of rings (size 3 to 8) (size 9 to 14) (size 15 to 20)
#    0.000    0.000    6.667    2.800    1.867    2.133 
#    2.400    0.000    0.000    0.000    0.000    0.000 
#    0.000    0.000    0.000    0.000    0.000    0.000 
#
# Total GULP energy -83594.713398 kJ/mol
# GULP energy per Si atom -5572.980893 kJ/mol
# Density = 2.344401 g / cm^3
# Si number density = 23.497490 Si / 1000 Ang^3
#
#
#
# Elastic Constant Matrix: (Units=GPa)
#
#
# Indices 1 2 3 4 5 6 
#
# 1 129.3876 19.4413 3.2307 -6.5270 7.4370 -20.4075
# 2 19.4413 109.1982 6.5253 -3.9647 -0.7201 -8.9597
# 3 3.2307 6.5253 -6.7546 -23.1230 -46.1823 -16.0778
# 4 -6.5270 -3.9647 -23.1230 35.2589 -19.0908 3.1560
# 5 7.4370 -0.7201 -46.1823 -19.0908 46.7608 -2.1331
# 6 -20.4075 -8.9597 -16.0778 3.1560 -2.1331 39.9813
#
#
#
# Elastic Compliance Matrix: (Units=1/GPa)
#
#
# Indices 1 2 3 4 5 6 
#
# 1 0.008628 -0.001194 -0.000109 0.000412 -0.001148 0.003999
# 2 -0.001194 0.009531 -0.000284 0.000778 0.000437 0.001374
# 3 -0.000109 -0.000284 -0.008188 -0.012311 -0.013244 -0.003147
# 4 0.000412 0.000778 -0.012311 0.018289 -0.005032 -0.006278
# 5 -0.001148 0.000437 -0.013244 -0.005032 0.006208 -0.005085
# 6 0.003999 0.001374 -0.003147 -0.006278 -0.005085 0.026320
#
#
# Mechanical properties :
#
#
# Convention : Reuss Voigt Hill
#
# Bulk Modulus (GPa) = 147.11981 32.24732 89.68357
# Shear Modulus (GPa) = 75.49704 37.90913 56.70308
#
# Velocity S-wave (km/s) = 5.67447 4.02098 4.91772
# Velocity P-wave (km/s) = 10.28006 5.94233 8.39615
#
# Compressibility (1/GPa) = 0.00679718
#
# Stress axis : x y z
#
# Youngs Moduli (GPa) = 115.89707 104.91973 -122.12524
#
# Poissons Ratio (x) = 0.12529 -0.01332
# Poissons Ratio (y) = 0.13840 -0.03466
# Poissons Ratio (z) = 0.01264 0.02978
#
# Static dielectric constant tensor:
#      x y z
#    x 1.879280 -0.043900 -0.065800 
#    y -0.043900 1.675100 -0.467800 
#    z -0.065800 -0.467800 1.363210 
# 
# From -- ./inp_files/382807.got.cif
#   From: 2010.05.17/outbox.cif.g08.bks.cpg/sg2_192_cif.got.tgz:382807.got - 2010.06.03 11:33:40.
