data_PCOD9069389
_publ_section_title
;
Structure prediction by ZEFSAII (Michael W. Deem and Ramdas Pophale) SiO2 
 PCOD9069389
Probable space group: P -1
;
_chemical_formula_sum "Si O2"
_cell_formula_units_Z 16
_cell_length_a 14.498368
_cell_length_b 7.988655
_cell_length_c 11.306841
_cell_angle_alpha 107.229881
_cell_angle_beta 90.623006
_cell_angle_gamma 36.832204
_cell_volume 688.832266
_symmetry_space_group_name_H-M "P -1"
_symmetry_group_IT_number 2
_symmetry_cell_setting 'triclinic'
loop_
_space_group_symop_operation_xyz
x,y,z
-x,-y,-z
loop_
_atom_site_type_symbol
_atom_site_label
_atom_site_fract_x
_atom_site_fract_y
_atom_site_fract_z
Si Si1 0.641723 0.470632 0.173095
Si Si2 0.475393 0.835463 0.001773
Si Si3 0.690412 0.682309 0.396934
Si Si4 0.516971 0.562447 0.705355
Si Si5 0.828934 0.750355 0.268143
Si Si6 0.141756 0.490933 0.202107
Si Si7 0.003554 0.803223 0.019103
Si Si8 0.197055 0.669896 0.440336
O O1 0.576111 0.610627 0.070517
O O2 0.691254 0.576585 0.252123
O O3 0.508908 0.596533 0.288715
O O4 0.805366 0.087113 0.096544
O O5 0.279849 0.129233 0.092665
O O6 0.522985 0.649235 0.849863
O O7 0.500000 0.000000 0.000000
O O8 0.788026 0.705001 0.375562
O O9 0.771159 0.442129 0.450524
O O10 0.500000 0.000000 0.500000
O O11 0.681904 0.359822 0.594835
O O12 0.350686 0.893072 0.704229
O O13 0.967689 0.678577 0.276874
O O14 0.911882 0.486166 0.116437
O O15 0.228626 0.469058 0.300332
O O16 0.096567 0.666741 0.118105
O O17 0.000000 0.000000 0.000000
O O18 0.000000 0.000000 0.500000
#
# Coordination Sequence:
#
# PCOD9069389 Si02
#       8
#     2   2   2   2   2   2   2   2
#     4  12  26  43  73 109 140 184 233 290 351 424
#     4  12  23  44  74 107 145 181 222 289 368 420
#     4  12  26  48  71  97 139 195 244 276 347 417
#     4  12  25  47  73 104 145 183 229 290 362 418
#     4  12  25  45  76 103 140 189 227 292 358 422
#     4  12  25  46  72 104 144 179 232 290 355 416
#     4  12  23  42  75 108 141 178 230 286 360 432
#     4  12  29  45  70 102 139 186 242 296 334 405
#
# _framework density 23.227715
#
# number of rings (size 3 to 8) (size 9 to 14) (size 15 to 20)
#    0.000    0.000    6.250    4.500    0.000    3.000 
#    0.000    0.000    0.000    0.000    0.000    0.000 
#    0.000    0.000    0.000    0.000    0.000    0.000 
#
# Total GULP energy -89580.282966 kJ/mol
# GULP energy per Si atom -5598.767685 kJ/mol
# Density = 2.317485 g / cm^3
# Si number density = 23.227715 Si / 1000 Ang^3
#
#
#
# Elastic Constant Matrix: (Units=GPa)
#
#
# Indices 1 2 3 4 5 6 
#
# 1 95.8262 -8.4444 -2.3398 0.9546 -30.7251 -13.2727
# 2 -8.4444 102.3506 5.8954 0.7979 -19.7112 -22.5530
# 3 -2.3398 5.8954 52.9216 7.2635 -20.2650 -11.2687
# 4 0.9546 0.7979 7.2635 43.5131 -2.4008 -5.0942
# 5 -30.7251 -19.7112 -20.2650 -2.4008 50.8494 5.0792
# 6 -13.2727 -22.5530 -11.2687 -5.0942 5.0792 27.2472
#
#
#
# Elastic Compliance Matrix: (Units=1/GPa)
#
#
# Indices 1 2 3 4 5 6 
#
# 1 0.019236 0.008071 0.010046 0.000704 0.017075 0.017154
# 2 0.008071 0.016426 0.006958 0.001183 0.012241 0.018345
# 3 0.010046 0.006958 0.030127 -0.002091 0.018755 0.019226
# 4 0.000704 0.001183 -0.002091 0.023893 0.000700 0.004794
# 5 0.017075 0.012241 0.018755 0.000700 0.040356 0.018814
# 6 0.017154 0.018345 0.019226 0.004794 0.018814 0.065582
#
#
# Mechanical properties :
#
#
# Convention : Reuss Voigt Hill
#
# Bulk Modulus (GPa) = 8.62515 26.81342 17.71928
# Shear Modulus (GPa) = 27.15664 41.38776 34.27220
#
# Velocity S-wave (km/s) = 3.42299 4.22575 3.84537
# Velocity P-wave (km/s) = 4.39816 5.94794 5.23077
#
# Compressibility (1/GPa) = 0.11594004
#
# Stress axis : x y z
#
# Youngs Moduli (GPa) = 51.98591 60.87943 33.19235
#
# Poissons Ratio (x) = -0.49138 -0.33345
# Poissons Ratio (y) = -0.41959 -0.23096
# Poissons Ratio (z) = -0.52225 -0.42361
#
# Static dielectric constant tensor:
#      x y z
#    x 1.945630 -0.011770 0.006930 
#    y -0.011770 1.833510 0.060070 
#    z 0.006930 0.060070 1.932810 
# 
# From -- ./inp_files/274420.got.cif
#   From: 2010.05.17/outbox.cif.g08.bks.cpg/sg2_138_cif.got.tgz:274420.got - 2010.06.03 11:33:40.
