data_PCOD9069604
_publ_section_title
;
Structure prediction by ZEFSAII (Michael W. Deem and Ramdas Pophale) SiO2 
 PCOD9069604
Probable space group: P -1
;
_chemical_formula_sum "Si O2"
_cell_formula_units_Z 13
_cell_length_a 10.728461
_cell_length_b 13.744890
_cell_length_c 7.533940
_cell_angle_alpha 109.254602
_cell_angle_beta 65.551579
_cell_angle_gamma 148.757279
_cell_volume 523.868790
_symmetry_space_group_name_H-M "P -1"
_symmetry_group_IT_number 2
_symmetry_cell_setting 'triclinic'
loop_
_space_group_symop_operation_xyz
x,y,z
-x,-y,-z
loop_
_atom_site_type_symbol
_atom_site_label
_atom_site_fract_x
_atom_site_fract_y
_atom_site_fract_z
Si Si1 0.582040 0.287898 0.356181
Si Si2 0.038314 0.916007 0.525209
Si Si3 0.740566 0.177941 0.083260
Si Si4 0.751316 0.589721 0.255555
Si Si5 0.469042 0.596274 0.222741
Si Si6 0.000000 0.000000 0.000000
Si Si7 0.969965 0.175078 0.145706
O O1 0.762356 0.311411 0.198947
O O2 0.586426 0.386892 0.279280
O O3 0.615818 0.366280 0.571655
O O4 0.319229 0.065210 0.399247
O O5 0.855383 0.713511 0.443167
O O6 0.027949 0.911561 0.745971
O O7 0.000000 0.000000 0.500000
O O8 0.745130 0.112268 0.222087
O O9 0.997037 0.297594 0.915571
O O10 0.500000 0.000000 0.000000
O O11 0.591870 0.577366 0.244915
O O12 0.221014 0.396116 0.158096
O O13 0.684283 0.773708 0.074970
O O14 0.941091 0.068300 0.952701
#
# Coordination Sequence:
#
# PCOD9069604 Si02
#       7
#     2   2   2   2   2   1   2
#     4  12  25  46  73 107 148 200 239 304 368 443
#     4  12  23  45  79 113 144 190 248 309 370 434
#     4  12  29  50  71 107 156 201 246 299 373 445
#     4  12  24  48  75 108 146 193 251 306 368 438
#     4  12  25  47  77 112 140 190 252 313 368 433
#     4  12  24  46  72 114 144 182 242 322 364 424
#     4  12  27  48  75 113 148 192 249 307 372 441
#
# _framework density 24.815372
#
# number of rings (size 3 to 8) (size 9 to 14) (size 15 to 20)
#    0.000    0.000    7.692    2.308    0.000    2.462 
#    2.769    0.000    0.000    0.000    0.000    0.000 
#    0.000    0.000    0.000    0.000    0.000    0.000 
#
# Total GULP energy -72484.754460 kJ/mol
# GULP energy per Si atom -5575.750343 kJ/mol
# Density = 2.475889 g / cm^3
# Si number density = 24.815372 Si / 1000 Ang^3
#
#
#
# Elastic Constant Matrix: (Units=GPa)
#
#
# Indices 1 2 3 4 5 6 
#
# 1 142.6763 88.1695 56.4296 20.2783 -13.6256 -15.0765
# 2 88.1695 163.9605 49.2434 3.8981 1.9805 -2.0170
# 3 56.4296 49.2434 129.8389 8.9015 -19.4451 -2.9860
# 4 20.2783 3.8981 8.9015 49.8714 -5.2752 -4.8271
# 5 -13.6256 1.9805 -19.4451 -5.2752 39.1929 8.8792
# 6 -15.0765 -2.0170 -2.9860 -4.8271 8.8792 46.8976
#
#
#
# Elastic Compliance Matrix: (Units=1/GPa)
#
#
# Indices 1 2 3 4 5 6 
#
# 1 0.012815 -0.006006 -0.002624 -0.003751 0.002301 0.002872
# 2 -0.006006 0.009826 -0.001696 0.001573 -0.003014 -0.000884
# 3 -0.002624 -0.001696 0.010140 -0.000252 0.004427 -0.001135
# 4 -0.003751 0.001573 -0.000252 0.021710 0.001221 0.000849
# 5 0.002301 -0.003014 0.004427 0.001221 0.029879 -0.004639
# 6 0.002872 -0.000884 -0.001135 0.000849 -0.004639 0.023102
#
#
# Mechanical properties :
#
#
# Convention : Reuss Voigt Hill
#
# Bulk Modulus (GPa) = 82.44714 91.57341 87.01027
# Shear Modulus (GPa) = 37.83089 43.36793 40.59941
#
# Velocity S-wave (km/s) = 3.90871 4.18499 4.04921
# Velocity P-wave (km/s) = 7.32578 7.76751 7.54988
#
# Compressibility (1/GPa) = 0.01212898
#
# Stress axis : x y z
#
# Youngs Moduli (GPa) = 78.03480 101.76568 98.62409
#
# Poissons Ratio (x) = 0.61125 0.25874
# Poissons Ratio (y) = 0.46871 0.16726
# Poissons Ratio (z) = 0.20473 0.17259
#
# Static dielectric constant tensor:
#      x y z
#    x 2.115260 -0.121220 0.080700 
#    y -0.121220 2.062270 0.007210 
#    z 0.080700 0.007210 2.353930 
# 
# From -- ./inp_files/180145.got.cif
#   From: 2010.05.17/outbox.cif.g08.bks.cpg/sg2_91_cif.got.tgz:180145.got - 2010.06.03 11:33:40.
