data_PCOD9069867
_publ_section_title
;
Structure prediction by ZEFSAII (Michael W. Deem and Ramdas Pophale) SiO2 
 PCOD9069867
Probable space group: P -1
;
_chemical_formula_sum "Si O2"
_cell_formula_units_Z 14
_cell_length_a 8.289282
_cell_length_b 11.764492
_cell_length_c 11.309952
_cell_angle_alpha 75.491847
_cell_angle_beta 121.383280
_cell_angle_gamma 57.859796
_cell_volume 545.062662
_symmetry_space_group_name_H-M "P -1"
_symmetry_group_IT_number 2
_symmetry_cell_setting 'triclinic'
loop_
_space_group_symop_operation_xyz
x,y,z
-x,-y,-z
loop_
_atom_site_type_symbol
_atom_site_label
_atom_site_fract_x
_atom_site_fract_y
_atom_site_fract_z
Si Si1 0.637835 0.202914 0.783767
Si Si2 0.376306 0.680972 0.845181
Si Si3 0.357977 0.959674 0.524574
Si Si4 0.761914 0.547789 0.810100
Si Si5 0.766340 0.544922 0.225539
Si Si6 0.844501 0.418766 0.631118
Si Si7 0.239585 0.158850 0.633931
O O1 0.512890 0.324240 0.823445
O O2 0.514798 0.362620 0.599032
O O3 0.480725 0.149544 0.730590
O O4 0.000000 0.000000 0.000000
O O5 0.493685 0.625571 0.770796
O O6 0.009942 0.886735 0.676581
O O7 0.500000 0.500000 0.000000
O O8 0.609249 0.650975 0.014019
O O9 0.388791 0.972143 0.674150
O O10 0.500000 0.000000 0.500000
O O11 0.577298 0.744524 0.622957
O O12 0.876764 0.400669 0.790578
O O13 0.000000 0.500000 0.000000
O O14 0.977374 0.548899 0.342058
O O15 0.986028 0.324531 0.392739
O O16 0.042873 0.238417 0.660918
#
# Coordination Sequence:
#
# PCOD9069867 Si02
#       7
#     2   2   2   2   2   2   2
#     4   9  18  31  61  96 128 172 223 266 326 399
#     4  12  24  42  69  96 135 178 231 276 337 400
#     4  12  25  42  68 103 137 174 225 281 332 402
#     4  12  25  45  68  99 136 181 224 278 339 397
#     4   9  17  35  62  90 127 172 214 266 329 392
#     4   9  19  40  63  90 133 174 214 269 336 398
#     4   9  19  39  61  94 132 171 214 272 333 394
#
# _framework density 25.685120000000001
#
# number of rings (size 3 to 8) (size 9 to 14) (size 15 to 20)
#    0.000    1.714    2.857    4.714    4.000    0.000 
#    0.000    1.429    0.000    0.000    0.000    0.000 
#    0.000    0.000    0.000    0.000    0.000    0.000 
#
# Total GULP energy -78089.880925 kJ/mol
# GULP energy per Si atom -5577.848638 kJ/mol
# Density = 2.562666 g / cm^3
# Si number density = 25.685120 Si / 1000 Ang^3
#
#
#
# Elastic Constant Matrix: (Units=GPa)
#
#
# Indices 1 2 3 4 5 6 
#
# 1 50.0072 -6.2625 14.2989 4.4849 3.7260 -19.0005
# 2 -6.2625 118.7359 24.9418 17.1307 2.2189 -22.6687
# 3 14.2989 24.9418 118.6113 0.2052 26.0896 -12.9349
# 4 4.4849 17.1307 0.2052 37.2308 -6.3783 -2.7016
# 5 3.7260 2.2189 26.0896 -6.3783 38.0204 4.3585
# 6 -19.0005 -22.6687 -12.9349 -2.7016 4.3585 45.6699
#
#
#
# Elastic Compliance Matrix: (Units=1/GPa)
#
#
# Indices 1 2 3 4 5 6 
#
# 1 0.027099 0.005261 -0.002022 -0.005391 -0.004013 0.013377
# 2 0.005261 0.011280 -0.001862 -0.005581 -0.001645 0.007087
# 3 -0.002022 -0.001862 0.010924 -0.000086 -0.007437 0.002033
# 4 -0.005391 -0.005581 -0.000086 0.030920 0.006540 -0.003833
# 5 -0.004013 -0.001645 -0.007437 0.006540 0.033843 -0.007435
# 6 0.013377 0.007087 0.002033 -0.003833 -0.007435 0.032038
#
#
# Mechanical properties :
#
#
# Convention : Reuss Voigt Hill
#
# Bulk Modulus (GPa) = 19.21012 39.25676 29.23344
# Shear Modulus (GPa) = 31.11346 41.14265 36.12806
#
# Velocity S-wave (km/s) = 3.48421 4.00660 3.75450
# Velocity P-wave (km/s) = 4.86638 6.05977 5.49556
#
# Compressibility (1/GPa) = 0.05205588
#
# Stress axis : x y z
#
# Youngs Moduli (GPa) = 36.90138 88.65597 91.54324
#
# Poissons Ratio (x) = -0.46639 0.18513
# Poissons Ratio (y) = -0.19413 0.17043
# Poissons Ratio (z) = 0.07463 0.16505
#
# Static dielectric constant tensor:
#      x y z
#    x 2.098510 0.039350 0.032960 
#    y 0.039350 2.143100 0.105080 
#    z 0.032960 0.105080 2.174370 
# 
# From -- ./inp_files/258487.got.cif
#   From: 2010.05.17/outbox.cif.g08.bks.cpg/sg2_130_cif.got.tgz:258487.got - 2010.06.03 11:33:40.
