data_PCOD9069119
_publ_section_title
;
Structure prediction by ZEFSAII (Michael W. Deem and Ramdas Pophale) SiO2 
 PCOD9069119
Probable space group: P -1
;
_chemical_formula_sum "Si O2"
_cell_formula_units_Z 14
_cell_length_a 6.547506
_cell_length_b 8.164198
_cell_length_c 15.932485
_cell_angle_alpha 138.779746
_cell_angle_beta 86.366810
_cell_angle_gamma 88.422128
_cell_volume 556.412781
_symmetry_space_group_name_H-M "P -1"
_symmetry_group_IT_number 2
_symmetry_cell_setting 'triclinic'
loop_
_space_group_symop_operation_xyz
x,y,z
-x,-y,-z
loop_
_atom_site_type_symbol
_atom_site_label
_atom_site_fract_x
_atom_site_fract_y
_atom_site_fract_z
Si Si1 0.127942 0.229626 0.909754
Si Si2 0.488222 0.354697 0.857190
Si Si3 0.847759 0.947464 0.706299
Si Si4 0.860514 0.775249 0.904936
Si Si5 0.838367 0.083353 0.464406
Si Si6 0.728430 0.547521 0.260722
Si Si7 0.606914 0.628380 0.703378
O O1 0.310458 0.181909 0.820006
O O2 0.968230 0.033562 0.818311
O O3 0.000000 0.500000 0.000000
O O4 0.219841 0.239517 0.003891
O O5 0.394639 0.517123 0.844659
O O6 0.700696 0.188164 0.769072
O O7 0.500000 0.500000 0.000000
O O8 0.693526 0.754149 0.667255
O O9 0.021583 0.873128 0.604092
O O10 0.031936 0.542070 0.791269
O O11 0.692820 0.776175 0.837097
O O12 0.000000 0.000000 0.000000
O O13 0.707024 0.341822 0.589992
O O14 0.703947 0.848813 0.376380
O O15 0.000000 0.000000 0.500000
O O16 0.631912 0.404368 0.284790
#
# Coordination Sequence:
#
# PCOD9069119 Si02
#       7
#     2   2   2   2   2   2   2
#     4  12  22  43  68 102 142 186 235 283 345 422
#     4  12  24  41  74 104 144 183 239 284 349 430
#     4  12  26  46  69 107 142 185 230 296 355 414
#     4  12  25  44  71 105 151 185 228 296 364 416
#     4  12  25  52  77  97 141 191 246 292 347 422
#     4  12  26  47  73 107 137 190 242 290 351 423
#     4  12  28  46  72 107 145 184 239 296 359 416
#
# _framework density 25.161173999999999
#
# number of rings (size 3 to 8) (size 9 to 14) (size 15 to 20)
#    0.000    0.000    7.143    2.571    2.000    0.571 
#    0.000    1.429    0.000    0.000    0.000    0.000 
#    0.000    0.000    0.000    0.000    0.000    0.000 
#
# Total GULP energy -78347.854384 kJ/mol
# GULP energy per Si atom -5596.275313 kJ/mol
# Density = 2.510391 g / cm^3
# Si number density = 25.161174 Si / 1000 Ang^3
#
#
#
# Elastic Constant Matrix: (Units=GPa)
#
#
# Indices 1 2 3 4 5 6 
#
# 1 68.4022 6.5161 2.3851 -7.7094 -4.1587 20.9798
# 2 6.5161 98.1118 13.6488 -6.9585 12.2885 45.9792
# 3 2.3851 13.6488 67.9726 2.2582 3.2442 9.9773
# 4 -7.7094 -6.9585 2.2582 38.4524 0.7291 -2.4520
# 5 -4.1587 12.2885 3.2442 0.7291 29.8817 1.2382
# 6 20.9798 45.9792 9.9773 -2.4520 1.2382 52.2277
#
#
#
# Elastic Compliance Matrix: (Units=1/GPa)
#
#
# Indices 1 2 3 4 5 6 
#
# 1 0.017927 0.003770 -0.000044 0.003593 0.001291 -0.010374
# 2 0.003770 0.019841 -0.001197 0.003371 -0.006823 -0.018433
# 3 -0.000044 -0.001197 0.015323 -0.001225 -0.001069 -0.001888
# 4 0.003593 0.003371 -0.001225 0.027250 -0.001299 -0.002866
# 5 0.001291 -0.006823 -0.001069 -0.001299 0.036401 0.004768
# 6 -0.010374 -0.018433 -0.001888 -0.002866 0.004768 0.039655
#
#
# Mechanical properties :
#
#
# Convention : Reuss Voigt Hill
#
# Bulk Modulus (GPa) = 17.19745 31.06517 24.13131
# Shear Modulus (GPa) = 29.28755 38.24147 33.76451
#
# Velocity S-wave (km/s) = 3.41544 3.90277 3.66721
# Velocity P-wave (km/s) = 4.73322 5.71682 5.24812
#
# Compressibility (1/GPa) = 0.05814817
#
# Stress axis : x y z
#
# Youngs Moduli (GPa) = 55.78142 50.40191 65.26325
#
# Poissons Ratio (x) = -0.19003 0.00290
# Poissons Ratio (y) = -0.21031 0.07812
# Poissons Ratio (z) = 0.00248 0.06033
#
# Static dielectric constant tensor:
#      x y z
#    x 2.043250 0.085840 0.069270 
#    y 0.085840 2.086700 0.040280 
#    z 0.069270 0.040280 2.014750 
# 
# From -- ./inp_files/69525.got.cif
#   From: 2010.05.17/outbox.cif.g08.bks.cpg/sg2_35_cif.got.tgz:69525.got - 2010.06.03 11:33:40.
