data_PCOD9069332
_publ_section_title
;
Structure prediction by ZEFSAII (Michael W. Deem and Ramdas Pophale) SiO2 
 PCOD9069332
Probable space group: P -1
;
_chemical_formula_sum "Si O2"
_cell_formula_units_Z 15
_cell_length_a 9.096710
_cell_length_b 9.851912
_cell_length_c 10.467109
_cell_angle_alpha 72.137538
_cell_angle_beta 68.511514
_cell_angle_gamma 43.492035
_cell_volume 599.516792
_symmetry_space_group_name_H-M "P -1"
_symmetry_group_IT_number 2
_symmetry_cell_setting 'triclinic'
loop_
_space_group_symop_operation_xyz
x,y,z
-x,-y,-z
loop_
_atom_site_type_symbol
_atom_site_label
_atom_site_fract_x
_atom_site_fract_y
_atom_site_fract_z
Si Si1 0.345738 0.576995 0.905930
Si Si2 0.830501 0.911077 0.419588
Si Si3 0.517850 0.318750 0.531744
Si Si4 0.832333 0.690779 0.719210
Si Si5 0.342637 0.023865 0.828228
Si Si6 0.000000 0.000000 0.000000
Si Si7 0.260600 0.379667 0.825250
Si Si8 0.265251 0.528139 0.329348
O O1 0.303696 0.440318 0.921245
O O2 0.499540 0.555057 0.756944
O O3 0.120910 0.796832 0.939197
O O4 0.500000 0.500000 0.000000
O O5 0.833034 0.789622 0.563755
O O6 0.700191 0.947379 0.322025
O O7 0.083105 0.764072 0.335359
O O8 0.728163 0.115468 0.457863
O O9 0.500000 0.500000 0.500000
O O10 0.465571 0.282204 0.694045
O O11 0.313762 0.411442 0.476790
O O12 0.823917 0.530429 0.724867
O O13 0.044665 0.580704 0.769620
O O14 0.601832 0.863108 0.810425
O O15 0.241792 0.222628 0.874096
O O16 0.224910 0.954671 0.929342
#
# Coordination Sequence:
#
# PCOD9069332 Si02
#       8
#     2   2   2   2   2   1   2   2
#     4  12  29  53  76 103 150 206 261 317 378 446
#     4  12  23  41  77 115 159 203 241 303 395 465
#     4  12  24  43  70 115 163 200 242 310 380 470
#     4  12  23  43  75 114 152 193 247 313 387 456
#     4  12  25  46  78 114 151 207 257 310 384 456
#     4  12  28  54  80 102 144 210 264 316 380 450
#     4  12  27  48  74 117 154 193 258 322 379 463
#     4  12  23  44  74 110 155 196 248 305 387 458
#
# _framework density 25.020149
#
# number of rings (size 3 to 8) (size 9 to 14) (size 15 to 20)
#    0.000    0.000    8.000    2.400    0.000    2.133 
#    2.400    1.333    0.000    0.000    0.000    0.000 
#    0.000    0.000    0.000    0.000    0.000    0.000 
#
# Total GULP energy -83782.262545 kJ/mol
# GULP energy per Si atom -5585.484170 kJ/mol
# Density = 2.496320 g / cm^3
# Si number density = 25.020149 Si / 1000 Ang^3
#
#
#
# Elastic Constant Matrix: (Units=GPa)
#
#
# Indices 1 2 3 4 5 6 
#
# 1 87.6044 45.4285 38.5895 8.5824 7.4841 15.1708
# 2 45.4285 177.0775 42.0338 38.5817 -1.3823 6.1871
# 3 38.5895 42.0338 55.6645 17.6681 5.4554 -3.1930
# 4 8.5824 38.5817 17.6681 34.6466 3.6711 -7.7523
# 5 7.4841 -1.3823 5.4554 3.6711 43.1907 6.2329
# 6 15.1708 6.1871 -3.1930 -7.7523 6.2329 57.1691
#
#
#
# Elastic Compliance Matrix: (Units=1/GPa)
#
#
# Indices 1 2 3 4 5 6 
#
# 1 0.018756 -0.002481 -0.012382 0.003508 -0.001375 -0.004775
# 2 -0.002481 0.008826 -0.002536 -0.008541 0.002021 -0.001817
# 3 -0.012382 -0.002536 0.031797 -0.009175 -0.001791 0.004287
# 4 0.003508 -0.008541 -0.009175 0.043964 -0.004312 0.005913
# 5 -0.001375 0.002021 -0.001791 -0.004312 0.024512 -0.003211
# 6 -0.004775 -0.001817 0.004287 0.005913 -0.003211 0.020347
#
#
# Mechanical properties :
#
#
# Convention : Reuss Voigt Hill
#
# Bulk Modulus (GPa) = 40.68121 63.60556 52.14339
# Shear Modulus (GPa) = 26.15135 39.95426 33.05280
#
# Velocity S-wave (km/s) = 3.23648 4.00044 3.63856
# Velocity P-wave (km/s) = 5.50101 6.84214 6.20790
#
# Compressibility (1/GPa) = 0.02458137
#
# Stress axis : x y z
#
# Youngs Moduli (GPa) = 53.31513 113.30227 31.44920
#
# Poissons Ratio (x) = 0.28109 0.38941
# Poissons Ratio (y) = 0.13227 0.07976
# Poissons Ratio (z) = 0.66016 0.28735
#
# Static dielectric constant tensor:
#      x y z
#    x 1.921390 -0.000230 0.042100 
#    y -0.000230 2.040850 -0.222400 
#    z 0.042100 -0.222400 2.781750 
# 
# From -- ./inp_files/378625.got.cif
#   From: 2010.05.17/outbox.cif.g08.bks.cpg/sg2_190_cif.got.tgz:378625.got - 2010.06.03 11:33:40.
