data_PCOD9069779
_publ_section_title
;
Structure prediction by ZEFSAII (Michael W. Deem and Ramdas Pophale) SiO2 
 PCOD9069779
Probable space group: P -1
;
_chemical_formula_sum "Si O2"
_cell_formula_units_Z 11
_cell_length_a 8.511543
_cell_length_b 20.342574
_cell_length_c 22.787203
_cell_angle_alpha 168.869053
_cell_angle_beta 146.136666
_cell_angle_gamma 33.779266
_cell_volume 419.441236
_symmetry_space_group_name_H-M "P -1"
_symmetry_group_IT_number 2
_symmetry_cell_setting 'triclinic'
loop_
_space_group_symop_operation_xyz
x,y,z
-x,-y,-z
loop_
_atom_site_type_symbol
_atom_site_label
_atom_site_fract_x
_atom_site_fract_y
_atom_site_fract_z
Si Si1 0.500000 0.500000 0.000000
Si Si2 0.679939 0.928795 0.324456
Si Si3 0.377667 0.095597 0.853446
Si Si4 0.852452 0.462605 0.318959
Si Si5 0.832090 0.971734 0.064487
Si Si6 0.936369 0.504110 0.788543
O O1 0.593012 0.640340 0.087545
O O2 0.749750 0.695408 0.279745
O O3 0.666583 0.838639 0.172046
O O4 0.429261 0.261466 0.543916
O O5 0.000000 0.000000 0.500000
O O6 0.284437 0.721384 0.504265
O O7 0.694781 0.149567 0.018205
O O8 0.176138 0.344798 0.051868
O O9 0.044752 0.680182 0.607552
O O10 0.049664 0.315043 0.197037
O O11 0.964712 0.832448 0.045485
O O12 0.500000 0.000000 0.000000
#
# Coordination Sequence:
#
# PCOD9069779 Si02
#       6
#     1   2   2   2   2   2
#     4  12  24  46  72 112 146 208 244 304 390 438
#     4  12  25  46  75 114 156 199 246 312 374 460
#     4  12  24  47  70 105 154 187 246 312 371 450
#     4  12  23  49  75 103 150 194 245 315 380 436
#     4  12  27  50  77 108 145 198 261 317 372 449
#     4  12  26  44  74 108 146 197 253 305 378 456
#
# _framework density 26.225366999999999
#
# number of rings (size 3 to 8) (size 9 to 14) (size 15 to 20)
#    0.000    0.000    7.273    1.636    0.000    5.091 
#    0.000    5.455    0.000    0.000    0.000    0.000 
#    0.000    0.000    0.000    0.000    0.000    0.000 
#
# Total GULP energy -61304.439183 kJ/mol
# GULP energy per Si atom -5573.130835 kJ/mol
# Density = 2.616568 g / cm^3
# Si number density = 26.225367 Si / 1000 Ang^3
#
#
#
# Elastic Constant Matrix: (Units=GPa)
#
#
# Indices 1 2 3 4 5 6 
#
# 1 123.7324 12.3756 45.7093 17.8894 0.9404 -17.4160
# 2 12.3756 113.9880 38.5223 -28.1671 -4.7623 -41.2399
# 3 45.7093 38.5223 161.5563 -32.5305 1.2106 -26.8135
# 4 17.8894 -28.1671 -32.5305 37.5740 -10.6310 0.2574
# 5 0.9404 -4.7623 1.2106 -10.6310 61.7066 8.7647
# 6 -17.4160 -41.2399 -26.8135 0.2574 8.7647 32.6588
#
#
#
# Elastic Compliance Matrix: (Units=1/GPa)
#
#
# Indices 1 2 3 4 5 6 
#
# 1 0.012501 -0.004020 -0.005961 -0.014841 -0.002587 -0.002493
# 2 -0.004020 0.027680 0.006477 0.028484 0.001657 0.037458
# 3 -0.005961 0.006477 0.012581 0.018910 0.001503 0.014777
# 4 -0.014841 0.028484 0.018910 0.073667 0.008980 0.040589
# 5 -0.002587 0.001657 0.001503 0.008980 0.018323 -0.003041
# 6 -0.002493 0.037458 0.014777 0.040589 -0.003041 0.089219
#
#
# Mechanical properties :
#
#
# Convention : Reuss Voigt Hill
#
# Bulk Modulus (GPa) = 21.85583 65.83234 43.84409
# Shear Modulus (GPa) = 19.51387 46.56584 33.03985
#
# Velocity S-wave (km/s) = 2.73075 4.21836 3.55328
# Velocity P-wave (km/s) = 4.27722 6.99165 5.79559
#
# Compressibility (1/GPa) = 0.04575438
#
# Stress axis : x y z
#
# Youngs Moduli (GPa) = 79.99655 36.12691 79.48686
#
# Poissons Ratio (x) = 0.14522 0.47381
# Poissons Ratio (y) = 0.32157 -0.51484
# Poissons Ratio (z) = 0.47685 -0.23400
#
# Static dielectric constant tensor:
#      x y z
#    x 2.022870 -0.036540 0.063690 
#    y -0.036540 2.173100 0.014090 
#    z 0.063690 0.014090 2.076230 
# 
# From -- ./inp_files/286569.got.cif
#   From: 2010.05.17/outbox.cif.g08.bks.cpg/sg2_144_cif.got.tgz:286569.got - 2010.06.03 11:33:40.
