data_PCOD9069599
_publ_section_title
;
Structure prediction by ZEFSAII (Michael W. Deem and Ramdas Pophale) SiO2 
 PCOD9069599
Probable space group: P -1
;
_chemical_formula_sum "Si O2"
_cell_formula_units_Z 12
_cell_length_a 9.494256
_cell_length_b 9.303391
_cell_length_c 9.225221
_cell_angle_alpha 44.644931
_cell_angle_beta 66.992790
_cell_angle_gamma 71.766124
_cell_volume 526.294211
_symmetry_space_group_name_H-M "P -1"
_symmetry_group_IT_number 2
_symmetry_cell_setting 'triclinic'
loop_
_space_group_symop_operation_xyz
x,y,z
-x,-y,-z
loop_
_atom_site_type_symbol
_atom_site_label
_atom_site_fract_x
_atom_site_fract_y
_atom_site_fract_z
Si Si1 0.110023 0.678576 0.780292
Si Si2 0.862766 0.740594 0.610643
Si Si3 0.875157 0.030418 0.152095
Si Si4 0.347797 0.616536 0.090361
Si Si5 0.560387 0.930651 0.683159
Si Si6 0.539409 0.377031 0.428194
O O1 0.098162 0.835852 0.808126
O O2 0.288225 0.615686 0.715673
O O3 0.027106 0.749974 0.612048
O O4 0.000000 0.500000 0.000000
O O5 0.788366 0.520868 0.811238
O O6 0.742556 0.891781 0.636460
O O7 0.854331 0.812972 0.394799
O O8 0.738392 0.156004 0.033150
O O9 0.000000 0.000000 0.000000
O O10 0.419687 0.485309 0.286982
O O11 0.497530 0.706414 0.890736
O O12 0.500000 0.000000 0.500000
O O13 0.520414 0.136053 0.641039
O O14 0.500000 0.500000 0.500000
#
# Coordination Sequence:
#
# PCOD9069599 Si02
#       6
#     2   2   2   2   2   2
#     4  12  26  49  75 112 153 198 247 316 380 440
#     4  12  25  46  81 108 153 196 254 308 378 449
#     4  12  28  46  75 113 148 198 254 308 378 447
#     4  12  25  47  78 106 149 201 250 309 375 456
#     4  12  23  45  77 109 144 196 255 300 376 452
#     4  12  29  48  76 114 153 196 254 315 381 448
#
# _framework density 22.800934000000002
#
# number of rings (size 3 to 8) (size 9 to 14) (size 15 to 20)
#    0.000    0.000    6.667    2.000    2.333    4.000 
#    0.000    0.000    0.000    0.000    0.000    0.000 
#    0.000    0.000    0.000    0.000    0.000    0.000 
#
# Total GULP energy -66857.800201 kJ/mol
# GULP energy per Si atom -5571.483350 kJ/mol
# Density = 2.274904 g / cm^3
# Si number density = 22.800934 Si / 1000 Ang^3
#
#
#
# Elastic Constant Matrix: (Units=GPa)
#
#
# Indices 1 2 3 4 5 6 
#
# 1 158.1624 26.2568 33.8845 3.5275 8.7708 -3.3024
# 2 26.2568 115.7129 57.5727 6.6838 -16.2796 14.1148
# 3 33.8845 57.5727 144.3507 -24.8297 -9.5254 7.5779
# 4 3.5275 6.6838 -24.8297 39.6436 -1.4277 -5.3463
# 5 8.7708 -16.2796 -9.5254 -1.4277 44.4021 -10.9790
# 6 -3.3024 14.1148 7.5779 -5.3463 -10.9790 19.3779
#
#
#
# Elastic Compliance Matrix: (Units=1/GPa)
#
#
# Indices 1 2 3 4 5 6 
#
# 1 0.007016 -0.001119 -0.001622 -0.001358 -0.001891 0.001199
# 2 -0.001119 0.013416 -0.005708 -0.006863 0.001529 -0.008758
# 3 -0.001622 -0.005708 0.010989 0.008420 0.001544 0.002782
# 4 -0.001358 -0.006863 0.008420 0.033659 0.003839 0.012937
# 5 -0.001891 0.001529 0.001544 0.003839 0.027524 0.014614
# 6 0.001199 -0.008758 0.002782 0.012937 0.014614 0.068950
#
#
# Mechanical properties :
#
#
# Convention : Reuss Voigt Hill
#
# Bulk Modulus (GPa) = 68.85566 72.62825 70.74195
# Shear Modulus (GPa) = 27.27880 40.71887 33.99883
#
# Velocity S-wave (km/s) = 3.46264 4.23051 3.86569
# Velocity P-wave (km/s) = 6.80078 7.46895 7.14269
#
# Compressibility (1/GPa) = 0.01452313
#
# Stress axis : x y z
#
# Youngs Moduli (GPa) = 142.53018 74.53880 90.99947
#
# Poissons Ratio (x) = 0.08340 0.14760
# Poissons Ratio (y) = 0.15948 0.51943
# Poissons Ratio (z) = 0.23118 0.42547
#
# Static dielectric constant tensor:
#      x y z
#    x 1.901700 -0.086420 -0.098140 
#    y -0.086420 1.988020 0.043470 
#    z -0.098140 0.043470 2.016220 
# 
# From -- ./inp_files/156406.got.cif
#   From: 2010.05.17/outbox.cif.g08.bks.cpg/sg2_79_cif.got.tgz:156406.got - 2010.06.03 11:33:40.
