data_PCOD9069497
_publ_section_title
;
Structure prediction by ZEFSAII (Michael W. Deem and Ramdas Pophale) SiO2 
 PCOD9069497
Probable space group: P -1
;
_chemical_formula_sum "Si O2"
_cell_formula_units_Z 14
_cell_length_a 7.025391
_cell_length_b 14.819692
_cell_length_c 10.450480
_cell_angle_alpha 66.988513
_cell_angle_beta 95.268342
_cell_angle_gamma 45.511087
_cell_volume 593.324149
_symmetry_space_group_name_H-M "P -1"
_symmetry_group_IT_number 2
_symmetry_cell_setting 'triclinic'
loop_
_space_group_symop_operation_xyz
x,y,z
-x,-y,-z
loop_
_atom_site_type_symbol
_atom_site_label
_atom_site_fract_x
_atom_site_fract_y
_atom_site_fract_z
Si Si1 0.301599 0.647822 0.304808
Si Si2 0.568395 0.356807 0.080660
Si Si3 0.318167 0.451269 0.275939
Si Si4 0.378645 0.315690 0.837871
Si Si5 0.318772 0.988460 0.849407
Si Si6 0.838747 0.094114 0.573663
Si Si7 0.334670 0.035790 0.336314
O O1 0.500000 0.500000 0.500000
O O2 0.297017 0.576635 0.222427
O O3 0.476722 0.678225 0.269236
O O4 0.938114 0.827420 0.216569
O O5 0.352506 0.404810 0.157117
O O6 0.947452 0.195280 0.226242
O O7 0.500000 0.500000 0.000000
O O8 0.472141 0.339239 0.957329
O O9 0.644604 0.274863 0.453120
O O10 0.003191 0.536888 0.272922
O O11 0.520407 0.147558 0.958966
O O12 0.551142 0.947140 0.786174
O O13 0.115278 0.996608 0.746417
O O14 0.595847 0.108535 0.591462
O O15 0.000000 0.000000 0.500000
O O16 0.500000 0.000000 0.500000
#
# Coordination Sequence:
#
# PCOD9069497 Si02
#       7
#     2   2   2   2   2   2   2
#     4  12  29  51  73 106 149 195 250 301 352 450
#     4  12  24  45  73 110 148 180 242 307 363 428
#     4  12  26  46  76 109 147 192 242 294 374 434
#     4  12  28  48  76 108 148 194 241 309 368 426
#     4  12  26  49  73 106 147 192 246 297 368 425
#     4  12  23  44  71 108 147 187 238 297 357 437
#     4  12  26  42  75 109 147 192 236 300 367 431
#
# _framework density 23.595870000000001
#
# number of rings (size 3 to 8) (size 9 to 14) (size 15 to 20)
#    0.000    0.000    7.143    1.714    4.000    2.286 
#    0.000    0.000    0.000    0.000    0.000    0.000 
#    0.000    0.000    0.000    0.000    0.000    0.000 
#
# Total GULP energy -78332.009505 kJ/mol
# GULP energy per Si atom -5595.143536 kJ/mol
# Density = 2.354216 g / cm^3
# Si number density = 23.595870 Si / 1000 Ang^3
#
#
#
# Elastic Constant Matrix: (Units=GPa)
#
#
# Indices 1 2 3 4 5 6 
#
# 1 122.0868 28.4163 17.2761 -2.2792 -21.5405 -13.7941
# 2 28.4163 111.0620 36.8854 -19.2150 -11.2233 -2.0953
# 3 17.2761 36.8854 69.7685 -12.2660 -20.9730 -8.4730
# 4 -2.2792 -19.2150 -12.2660 37.6178 1.5492 -2.5401
# 5 -21.5405 -11.2233 -20.9730 1.5492 48.4646 2.9762
# 6 -13.7941 -2.0953 -8.4730 -2.5401 2.9762 44.9671
#
#
#
# Elastic Compliance Matrix: (Units=1/GPa)
#
#
# Indices 1 2 3 4 5 6 
#
# 1 0.009610 -0.002150 0.000095 -0.000461 0.003670 0.002597
# 2 -0.002150 0.011982 -0.005333 0.004218 -0.000573 -0.000830
# 3 0.000095 -0.005333 0.020415 0.003864 0.007311 0.003362
# 4 -0.000461 0.004218 0.003864 0.030076 0.001336 0.002394
# 5 0.003670 -0.000573 0.007311 0.001336 0.025199 0.000884
# 6 0.002597 -0.000830 0.003362 0.002394 0.000884 0.023706
#
#
# Mechanical properties :
#
#
# Convention : Reuss Voigt Hill
#
# Bulk Modulus (GPa) = 36.72632 52.00810 44.36721
# Shear Modulus (GPa) = 34.52008 40.89920 37.70964
#
# Velocity S-wave (km/s) = 3.82903 4.16783 4.00202
# Velocity P-wave (km/s) = 5.92850 6.72682 6.34024
#
# Compressibility (1/GPa) = 0.02722843
#
# Stress axis : x y z
#
# Youngs Moduli (GPa) = 104.05588 83.46029 48.98394
#
# Poissons Ratio (x) = 0.17946 -0.00463
# Poissons Ratio (y) = 0.22374 0.26126
# Poissons Ratio (z) = -0.00983 0.44514
#
# Static dielectric constant tensor:
#      x y z
#    x 1.884560 0.035170 -0.062290 
#    y 0.035170 1.925240 0.042070 
#    z -0.062290 0.042070 1.975270 
# 
# From -- ./inp_files/367595.got.cif
#   From: 2010.05.17/outbox.cif.g08.bks.cpg/sg2_184_cif.got.tgz:367595.got - 2010.06.03 11:33:40.
