data_PCOD9069691
_publ_section_title
;
Structure prediction by ZEFSAII (Michael W. Deem and Ramdas Pophale) SiO2 
 PCOD9069691
Probable space group: P -1
;
_chemical_formula_sum "Si O2"
_cell_formula_units_Z 15
_cell_length_a 9.054190
_cell_length_b 18.843602
_cell_length_c 8.173709
_cell_angle_alpha 121.734202
_cell_angle_beta 32.921500
_cell_angle_gamma 124.242838
_cell_volume 622.061665
_symmetry_space_group_name_H-M "P -1"
_symmetry_group_IT_number 2
_symmetry_cell_setting 'triclinic'
loop_
_space_group_symop_operation_xyz
x,y,z
-x,-y,-z
loop_
_atom_site_type_symbol
_atom_site_label
_atom_site_fract_x
_atom_site_fract_y
_atom_site_fract_z
Si Si1 0.228985 0.802750 0.041264
Si Si2 0.750858 0.584666 0.336638
Si Si3 0.708021 0.940273 0.261908
Si Si4 0.368227 0.759308 0.224807
Si Si5 0.795617 0.910255 0.523332
Si Si6 0.000000 0.500000 0.500000
Si Si7 0.265547 0.630415 0.677770
Si Si8 0.817844 0.655213 0.717344
O O1 0.496174 0.883014 0.857478
O O2 0.223457 0.726349 0.824288
O O3 0.271816 0.765224 0.134312
O O4 0.954393 0.836904 0.326190
O O5 0.500000 0.500000 0.500000
O O6 0.573993 0.643341 0.484677
O O7 0.857501 0.617807 0.455465
O O8 0.009618 0.579979 0.975166
O O9 0.582917 0.850636 0.176031
O O10 0.739791 0.917101 0.392285
O O11 0.500000 0.000000 0.500000
O O12 0.000000 0.000000 0.000000
O O13 0.091647 0.736891 0.569476
O O14 0.533581 0.685861 0.013126
O O15 0.000000 0.000000 0.500000
O O16 0.235591 0.568288 0.475661
O O17 0.164662 0.421833 0.273370
#
# Coordination Sequence:
#
# PCOD9069691 Si02
#       8
#     2   2   2   2   2   1   2   2
#     4  12  24  46  72 105 138 184 240 297 353 424
#     4  12  23  47  71  96 131 190 240 283 353 435
#     4  12  26  48  74 107 150 190 231 287 365 443
#     4  12  26  46  75 103 142 188 240 300 364 432
#     4  12  26  45  74 107 143 184 234 289 355 434
#     4  12  32  44  72 104 152 190 244 314 362 430
#     4  12  27  45  71 103 141 185 241 297 367 421
#     4  12  26  47  68 105 139 190 243 299 365 426
#
# _framework density 24.113364000000001
#
# number of rings (size 3 to 8) (size 9 to 14) (size 15 to 20)
#    0.000    0.000    4.000    5.600    5.600    2.133 
#    0.000    0.000    0.000    0.000    0.000    0.000 
#    0.000    0.000    0.000    0.000    0.000    0.000 
#
# Total GULP energy -83779.582361 kJ/mol
# GULP energy per Si atom -5585.305491 kJ/mol
# Density = 2.405848 g / cm^3
# Si number density = 24.113364 Si / 1000 Ang^3
#
#
#
# Elastic Constant Matrix: (Units=GPa)
#
#
# Indices 1 2 3 4 5 6 
#
# 1 89.9295 16.8418 19.4067 8.7035 -19.2019 -22.1473
# 2 16.8418 112.6659 7.5533 3.0396 -6.0812 8.2531
# 3 19.4067 7.5533 103.5284 -7.2635 -34.1238 -22.5298
# 4 8.7035 3.0396 -7.2635 50.3215 -6.8163 -11.6642
# 5 -19.2019 -6.0812 -34.1238 -6.8163 34.0849 13.5134
# 6 -22.1473 8.2531 -22.5298 -11.6642 13.5134 44.9210
#
#
#
# Elastic Compliance Matrix: (Units=1/GPa)
#
#
# Indices 1 2 3 4 5 6 
#
# 1 0.014124 -0.002281 0.000788 0.000004 0.005968 0.005984
# 2 -0.002281 0.009639 -0.000930 -0.001114 0.000828 -0.003900
# 3 0.000788 -0.000930 0.016301 0.005659 0.015537 0.005531
# 4 0.000004 -0.001114 0.005659 0.023354 0.007412 0.006879
# 5 0.005968 0.000828 0.015537 0.007412 0.051010 -0.002838
# 6 0.005984 -0.003900 0.005531 0.006879 -0.002838 0.031342
#
#
# Mechanical properties :
#
#
# Convention : Reuss Voigt Hill
#
# Bulk Modulus (GPa) = 28.39274 43.74750 36.07012
# Shear Modulus (GPa) = 30.79661 43.35360 37.07511
#
# Velocity S-wave (km/s) = 3.57761 4.24477 3.92539
# Velocity P-wave (km/s) = 5.37271 6.49661 5.96121
#
# Compressibility (1/GPa) = 0.03522028
#
# Stress axis : x y z
#
# Youngs Moduli (GPa) = 70.79986 103.74039 61.34615
#
# Poissons Ratio (x) = 0.23658 -0.04835
# Poissons Ratio (y) = 0.16146 0.05705
# Poissons Ratio (z) = -0.05581 0.09647
#
# Static dielectric constant tensor:
#      x y z
#    x 1.968360 -0.029990 -0.004170 
#    y -0.029990 1.958470 -0.001650 
#    z -0.004170 -0.001650 1.913960 
# 
# From -- ./inp_files/217236.got.cif
#   From: 2010.05.17/outbox.cif.g08.bks.cpg/sg2_109_cif.got.tgz:217236.got - 2010.06.03 11:33:40.
