data_PCOD9069619
_publ_section_title
;
Structure prediction by ZEFSAII (Michael W. Deem and Ramdas Pophale) SiO2 
 PCOD9069619
Probable space group: P -1
;
_chemical_formula_sum "Si O2"
_cell_formula_units_Z 13
_cell_length_a 10.253048
_cell_length_b 7.706750
_cell_length_c 9.334967
_cell_angle_alpha 64.418044
_cell_angle_beta 53.443985
_cell_angle_gamma 77.757064
_cell_volume 533.394603
_symmetry_space_group_name_H-M "P -1"
_symmetry_group_IT_number 2
_symmetry_cell_setting 'triclinic'
loop_
_space_group_symop_operation_xyz
x,y,z
-x,-y,-z
loop_
_atom_site_type_symbol
_atom_site_label
_atom_site_fract_x
_atom_site_fract_y
_atom_site_fract_z
Si Si1 0.883202 0.154818 0.457266
Si Si2 0.329434 0.362916 0.661840
Si Si3 0.239143 0.523765 0.375139
Si Si4 0.000000 0.500000 0.000000
Si Si5 0.524189 0.008277 0.648498
Si Si6 0.526236 0.791786 0.986569
Si Si7 0.844875 0.579188 0.849270
O O1 0.839807 0.296854 0.562107
O O2 0.713056 0.074476 0.534459
O O3 0.993755 0.298776 0.228625
O O4 0.000000 0.000000 0.500000
O O5 0.500000 0.500000 0.500000
O O6 0.262086 0.369426 0.539639
O O7 0.181352 0.422254 0.835805
O O8 0.398920 0.160973 0.729905
O O9 0.154300 0.457979 0.306799
O O10 0.412576 0.619553 0.182640
O O11 0.880705 0.395707 0.983210
O O12 0.500000 0.000000 0.500000
O O13 0.492661 0.817214 0.830652
O O14 0.704486 0.721050 0.911527
O O15 0.500000 0.000000 0.000000
#
# Coordination Sequence:
#
# PCOD9069619 Si02
#       7
#     2   2   2   1   2   2   2
#     4  12  24  45  70 103 143 189 240 307 374 433
#     4  12  24  47  72 106 151 192 250 312 374 442
#     4  12  25  45  73 103 144 198 247 302 370 449
#     4  12  26  40  72 106 144 186 248 314 370 430
#     4  12  26  45  77 108 148 196 248 310 380 446
#     4  12  23  46  70 105 145 194 241 301 375 449
#     4  12  25  43  72 104 144 189 251 302 370 448
#
# _framework density 24.372202000000001
#
# number of rings (size 3 to 8) (size 9 to 14) (size 15 to 20)
#    0.000    0.000    6.154    3.692    0.000    2.462 
#    0.000    0.000    0.000    8.308    0.000    0.000 
#    0.000    0.000    0.000    0.000    0.000    0.000 
#
# Total GULP energy -72458.611158 kJ/mol
# GULP energy per Si atom -5573.739320 kJ/mol
# Density = 2.431673 g / cm^3
# Si number density = 24.372202 Si / 1000 Ang^3
#
#
#
# Elastic Constant Matrix: (Units=GPa)
#
#
# Indices 1 2 3 4 5 6 
#
# 1 203.3128 66.4431 60.5588 29.4516 31.4243 -32.3214
# 2 66.4431 86.0884 32.7206 15.8750 -5.6342 -36.7464
# 3 60.5588 32.7206 134.0415 23.8886 7.0534 -11.0519
# 4 29.4516 15.8750 23.8886 32.8710 -6.4079 3.6621
# 5 31.4243 -5.6342 7.0534 -6.4079 57.8741 0.3085
# 6 -32.3214 -36.7464 -11.0519 3.6621 0.3085 52.5063
#
#
#
# Elastic Compliance Matrix: (Units=1/GPa)
#
#
# Indices 1 2 3 4 5 6 
#
# 1 0.009065 -0.004623 -0.001308 -0.006380 -0.005933 0.002549
# 2 -0.004623 0.022887 -0.001455 -0.006532 0.004122 0.013296
# 3 -0.001308 -0.001455 0.009455 -0.005286 -0.001172 0.000543
# 4 -0.006380 -0.006532 -0.005286 0.046258 0.008663 -0.012888
# 5 -0.005933 0.004122 -0.001172 0.008663 0.022013 -0.001748
# 6 0.002549 0.013296 0.000543 -0.012888 -0.001748 0.030944
#
#
# Mechanical properties :
#
#
# Convention : Reuss Voigt Hill
#
# Bulk Modulus (GPa) = 37.54360 82.54310 60.04335
# Shear Modulus (GPa) = 30.43737 46.23163 38.33450
#
# Velocity S-wave (km/s) = 3.53775 4.36007 3.97025
# Velocity P-wave (km/s) = 5.66792 7.69988 6.76067
#
# Compressibility (1/GPa) = 0.02663570
#
# Stress axis : x y z
#
# Youngs Moduli (GPa) = 110.30935 43.69326 105.76740
#
# Poissons Ratio (x) = 0.20201 0.13831
# Poissons Ratio (y) = 0.50999 0.15385
# Poissons Ratio (z) = 0.14425 0.06356
#
# Static dielectric constant tensor:
#      x y z
#    x 2.369390 -0.403560 0.679400 
#    y -0.403560 2.551040 -0.832680 
#    z 0.679400 -0.832680 3.343450 
# 
# From -- ./inp_files/153273.got.cif
#   From: 2010.05.17/outbox.cif.g08.bks.cpg/sg2_77_cif.got.tgz:153273.got - 2010.06.03 11:33:40.
