data_PCOD9069328
_publ_section_title
;
Structure prediction by ZEFSAII (Michael W. Deem and Ramdas Pophale) SiO2 
 PCOD9069328
Probable space group: P -1
;
_chemical_formula_sum "Si O2"
_cell_formula_units_Z 16
_cell_length_a 28.839341
_cell_length_b 12.654346
_cell_length_c 5.939926
_cell_angle_alpha 47.429325
_cell_angle_beta 55.655306
_cell_angle_gamma 26.926697
_cell_volume 717.979270
_symmetry_space_group_name_H-M "P -1"
_symmetry_group_IT_number 2
_symmetry_cell_setting 'triclinic'
loop_
_space_group_symop_operation_xyz
x,y,z
-x,-y,-z
loop_
_atom_site_type_symbol
_atom_site_label
_atom_site_fract_x
_atom_site_fract_y
_atom_site_fract_z
Si Si1 0.623306 0.222583 0.533266
Si Si2 0.737376 0.282688 0.141756
Si Si3 0.042799 0.042671 0.456239
Si Si4 0.678593 0.968775 0.246981
Si Si5 0.127512 0.550428 0.330258
Si Si6 0.020956 0.292066 0.793979
Si Si7 0.743897 0.481192 0.201326
Si Si8 0.383355 0.202084 0.513194
O O1 0.500000 0.500000 0.500000
O O2 0.683938 0.243974 0.312604
O O3 0.642243 0.107430 0.396265
O O4 0.658025 0.085259 0.886768
O O5 0.710084 0.409216 0.276476
O O6 0.863192 0.001181 0.187386
O O7 0.683911 0.518313 0.791823
O O8 0.978803 0.174726 0.665763
O O9 0.162361 0.762216 0.546543
O O10 0.025106 0.235566 0.121085
O O11 0.000000 0.000000 0.500000
O O12 0.802080 0.692563 0.344796
O O13 0.631701 0.909193 0.429714
O O14 0.082596 0.564562 0.219316
O O15 0.199427 0.529567 0.103140
O O16 0.000000 0.500000 0.500000
O O17 0.656783 0.744324 0.202785
O O18 0.500000 0.000000 0.500000
#
# Coordination Sequence:
#
# PCOD9069328 Si02
#       8
#     2   2   2   2   2   2   2   2
#     4  12  30  54  82 109 161 215 265 334 410 476
#     4  12  27  48  75 114 155 204 265 332 396 479
#     4  12  23  41  74 102 151 202 253 314 387 477
#     4  12  28  51  79 118 154 208 269 326 403 487
#     4  12  25  43  73 109 150 199 250 317 391 468
#     4  12  27  44  70 112 158 203 255 316 400 479
#     4  12  24  45  75 112 153 201 267 328 396 471
#     4  12  28  48  80 112 152 202 272 344 395 460
#
# _framework density 22.284766999999999
#
# number of rings (size 3 to 8) (size 9 to 14) (size 15 to 20)
#    0.000    0.000    5.000    4.500    7.000    2.000 
#    0.000    0.000    0.000    0.000    0.000    0.000 
#    0.000    0.000    0.000    0.000    0.000    0.000 
#
# Total GULP energy -89198.542469 kJ/mol
# GULP energy per Si atom -5574.908904 kJ/mol
# Density = 2.223405 g / cm^3
# Si number density = 22.284767 Si / 1000 Ang^3
#
#
#
# Elastic Constant Matrix: (Units=GPa)
#
#
# Indices 1 2 3 4 5 6 
#
# 1 144.0829 60.2682 40.0570 7.5161 -8.4526 2.9426
# 2 60.2682 116.6888 33.1459 10.6352 5.8940 -2.9829
# 3 40.0570 33.1459 147.0291 -10.1357 -2.7188 1.8247
# 4 7.5161 10.6352 -10.1357 32.4803 -3.7738 6.6733
# 5 -8.4526 5.8940 -2.7188 -3.7738 33.3658 -5.6351
# 6 2.9426 -2.9829 1.8247 6.6733 -5.6351 38.9220
#
#
#
# Elastic Compliance Matrix: (Units=1/GPa)
#
#
# Indices 1 2 3 4 5 6 
#
# 1 0.009497 -0.004553 -0.001554 -0.000762 0.002923 -0.000440
# 2 -0.004553 0.012057 -0.001855 -0.004215 -0.003649 0.001550
# 3 -0.001554 -0.001855 0.007927 0.003726 0.000847 -0.000913
# 4 -0.000762 -0.004215 0.003726 0.035168 0.003834 -0.005915
# 5 0.002923 -0.003649 0.000847 0.003834 0.032450 0.003500
# 6 -0.000440 0.001550 -0.000913 -0.005915 0.003500 0.027408
#
#
# Mechanical properties :
#
#
# Convention : Reuss Voigt Hill
#
# Bulk Modulus (GPa) = 73.76557 74.97145 74.36851
# Shear Modulus (GPa) = 34.49484 39.24227 36.86855
#
# Velocity S-wave (km/s) = 3.93862 4.20092 4.07188
# Velocity P-wave (km/s) = 7.33872 7.56609 7.45327
#
# Compressibility (1/GPa) = 0.01355646
#
# Stress axis : x y z
#
# Youngs Moduli (GPa) = 105.29339 82.94270 126.15496
#
# Poissons Ratio (x) = 0.37766 0.19604
# Poissons Ratio (y) = 0.47943 0.23399
# Poissons Ratio (z) = 0.16362 0.15384
#
# Static dielectric constant tensor:
#      x y z
#    x 1.801550 0.044490 0.023360 
#    y 0.044490 1.805220 -0.016950 
#    z 0.023360 -0.016950 1.936920 
# 
# From -- ./inp_files/126813.got.cif
#   From: 2010.05.17/outbox.cif.g08.bks.cpg/sg2_64_cif.got.tgz:126813.got - 2010.06.03 11:33:40.
