data_PCOD9069754
_publ_section_title
;
Structure prediction by ZEFSAII (Michael W. Deem and Ramdas Pophale) SiO2 
 PCOD9069754
Probable space group: P -1
;
_chemical_formula_sum "Si O2"
_cell_formula_units_Z 16
_cell_length_a 8.353312
_cell_length_b 14.802442
_cell_length_c 11.428963
_cell_angle_alpha 59.785507
_cell_angle_beta 68.105743
_cell_angle_gamma 116.158586
_cell_volume 703.600258
_symmetry_space_group_name_H-M "P -1"
_symmetry_group_IT_number 2
_symmetry_cell_setting 'triclinic'
loop_
_space_group_symop_operation_xyz
x,y,z
-x,-y,-z
loop_
_atom_site_type_symbol
_atom_site_label
_atom_site_fract_x
_atom_site_fract_y
_atom_site_fract_z
Si Si1 0.569370 0.859671 0.375833
Si Si2 0.925758 0.369853 0.691261
Si Si3 0.125125 0.783627 0.410286
Si Si4 0.825888 0.790236 0.984661
Si Si5 0.512845 0.631455 0.415185
Si Si6 0.402390 0.136604 0.149865
Si Si7 0.472092 0.461081 0.168817
Si Si8 0.333594 0.679019 0.794479
O O1 0.347469 0.805255 0.383243
O O2 0.653825 0.780652 0.367502
O O3 0.425794 0.792282 0.585447
O O4 0.853640 0.059433 0.165683
O O5 0.909256 0.257289 0.691126
O O6 0.000000 0.500000 0.500000
O O7 0.189808 0.497424 0.619183
O O8 0.649833 0.252338 0.913769
O O9 0.818486 0.629311 0.648675
O O10 0.236542 0.950270 0.304448
O O11 0.636586 0.722260 0.195301
O O12 0.715213 0.630677 0.065218
O O13 0.784720 0.856099 0.849744
O O14 0.500000 0.500000 0.500000
O O15 0.544773 0.219004 0.183428
O O16 0.506343 0.354624 0.243459
O O17 0.500000 0.500000 0.000000
O O18 0.000000 0.500000 0.000000
#
# Coordination Sequence:
#
# PCOD9069754 Si02
#       8
#     2   2   2   2   2   2   2   2
#     4  12  28  46  71 110 150 186 243 302 360 422
#     4  12  23  48  76 103 141 192 238 299 358 433
#     4  12  27  47  75 108 143 192 242 297 361 431
#     4  12  26  47  73 108 145 189 239 305 357 427
#     4  12  26  44  75 105 150 189 243 294 367 424
#     4  12  27  46  74 106 145 190 245 296 362 429
#     4  12  25  47  76 102 142 191 241 288 363 432
#     4  12  28  48  75 106 149 193 241 295 361 432
#
# _framework density 22.740185
#
# number of rings (size 3 to 8) (size 9 to 14) (size 15 to 20)
#    0.000    0.000    5.000    3.750    7.000    1.500 
#    0.000    0.000    0.000    0.000    0.000    0.000 
#    0.000    0.000    0.000    0.000    0.000    0.000 
#
# Total GULP energy -89506.011762 kJ/mol
# GULP energy per Si atom -5594.125735 kJ/mol
# Density = 2.268843 g / cm^3
# Si number density = 22.740185 Si / 1000 Ang^3
#
#
#
# Elastic Constant Matrix: (Units=GPa)
#
#
# Indices 1 2 3 4 5 6 
#
# 1 34.2138 -8.1331 10.9060 -13.6552 -7.4259 -0.1711
# 2 -8.1331 148.6310 42.9656 -15.6325 2.8927 1.7395
# 3 10.9060 42.9656 89.3013 -13.1033 -11.2363 9.5809
# 4 -13.6552 -15.6325 -13.1033 45.1612 4.8415 3.9730
# 5 -7.4259 2.8927 -11.2363 4.8415 40.0552 -3.9540
# 6 -0.1711 1.7395 9.5809 3.9730 -3.9540 32.9805
#
#
#
# Elastic Compliance Matrix: (Units=1/GPa)
#
#
# Indices 1 2 3 4 5 6 
#
# 1 0.036955 0.004412 -0.004584 0.010905 0.003973 0.000453
# 2 0.004412 0.008603 -0.004424 0.003151 -0.001395 0.000308
# 3 -0.004584 -0.004424 0.014905 0.001420 0.003092 -0.003921
# 4 0.010905 0.003151 0.001420 0.027459 -0.001523 -0.004013
# 5 0.003973 -0.001395 0.003092 -0.001523 0.027114 0.002630
# 6 0.000453 0.000308 -0.003921 -0.004013 0.002630 0.032245
#
#
# Mechanical properties :
#
#
# Convention : Reuss Voigt Hill
#
# Bulk Modulus (GPa) = 19.50493 40.40255 29.95374
# Shear Modulus (GPa) = 28.80772 38.73323 33.77047
#
# Velocity S-wave (km/s) = 3.56310 4.13158 3.85782
# Velocity P-wave (km/s) = 5.05208 6.36910 5.74843
#
# Compressibility (1/GPa) = 0.05126910
#
# Stress axis : x y z
#
# Youngs Moduli (GPa) = 27.05994 116.23313 67.09289
#
# Poissons Ratio (x) = -0.51279 0.30758
# Poissons Ratio (y) = -0.11938 0.29684
# Poissons Ratio (z) = 0.12405 0.51426
#
# Static dielectric constant tensor:
#      x y z
#    x 1.906090 -0.000790 0.031270 
#    y -0.000790 1.832110 -0.001240 
#    z 0.031270 -0.001240 1.797290 
# 
# From -- ./inp_files/225815.got.cif
#   From: 2010.05.17/outbox.cif.g08.bks.cpg/sg2_113_cif.got.tgz:225815.got - 2010.06.03 11:33:40.
