data_PCOD9069191
_publ_section_title
;
Structure prediction by ZEFSAII (Michael W. Deem and Ramdas Pophale) SiO2 
 PCOD9069191
Probable space group: P -1
;
_chemical_formula_sum "Si O2"
_cell_formula_units_Z 16
_cell_length_a 27.086143
_cell_length_b 5.769208
_cell_length_c 11.636495
_cell_angle_alpha 129.052565
_cell_angle_beta 148.866418
_cell_angle_gamma 52.238686
_cell_volume 717.906903
_symmetry_space_group_name_H-M "P -1"
_symmetry_group_IT_number 2
_symmetry_cell_setting 'triclinic'
loop_
_space_group_symop_operation_xyz
x,y,z
-x,-y,-z
loop_
_atom_site_type_symbol
_atom_site_label
_atom_site_fract_x
_atom_site_fract_y
_atom_site_fract_z
Si Si1 0.755011 0.149665 0.480302
Si Si2 0.883750 0.566559 0.291780
Si Si3 0.887595 0.507089 0.758602
Si Si4 0.415292 0.324592 0.753168
Si Si5 0.178239 0.714421 0.675148
Si Si6 0.371929 0.327095 0.923462
Si Si7 0.777023 0.148019 0.793514
Si Si8 0.451943 0.717428 0.570433
O O1 0.854065 0.196568 0.634198
O O2 0.679471 0.456966 0.405159
O O3 0.776166 0.142639 0.653547
O O4 0.695102 0.903776 0.233922
O O5 0.851919 0.416384 0.302519
O O6 0.000000 0.500000 0.500000
O O7 0.853802 0.927321 0.308984
O O8 0.838573 0.372412 0.044969
O O9 0.860278 0.495742 0.565348
O O10 0.829547 0.794996 0.805631
O O11 0.000000 0.500000 0.000000
O O12 0.392133 0.206972 0.796382
O O13 0.451727 0.069394 0.653905
O O14 0.500000 0.500000 0.000000
O O15 0.295906 0.640891 0.874296
O O16 0.472524 0.342056 0.190817
O O17 0.663463 0.264265 0.637247
O O18 0.500000 0.500000 0.500000
#
# Coordination Sequence:
#
# PCOD9069191 Si02
#       8
#     2   2   2   2   2   2   2   2
#     4  12  22  44  77 103 152 191 258 315 391 442
#     4  12  30  51  77 108 160 209 249 317 401 463
#     4  12  27  45  79 112 145 195 265 329 377 449
#     4  12  23  42  74 100 146 200 246 309 381 454
#     4  12  26  51  77 112 149 202 261 314 388 470
#     4  12  24  45  74 107 144 198 251 313 386 456
#     4  12  27  48  72 111 150 197 255 321 377 462
#     4  12  25  44  69 109 148 195 253 311 379 462
#
# _framework density 22.287013000000002
#
# number of rings (size 3 to 8) (size 9 to 14) (size 15 to 20)
#    0.000    0.000    6.250    3.750    3.500    2.500 
#    0.000    1.875    0.000    0.000    0.000    0.000 
#    0.000    0.000    0.000    0.000    0.000    0.000 
#
# Total GULP energy -89217.981168 kJ/mol
# GULP energy per Si atom -5576.123823 kJ/mol
# Density = 2.223629 g / cm^3
# Si number density = 22.287013 Si / 1000 Ang^3
#
#
#
# Elastic Constant Matrix: (Units=GPa)
#
#
# Indices 1 2 3 4 5 6 
#
# 1 84.1273 37.3488 33.1343 7.4736 6.5128 -1.3683
# 2 37.3488 150.9219 64.1202 6.7417 9.9179 -22.0234
# 3 33.1343 64.1202 174.3204 0.9011 20.4569 -11.2235
# 4 7.4736 6.7417 0.9011 40.6632 -10.5832 1.3515
# 5 6.5128 9.9179 20.4569 -10.5832 39.5779 1.7725
# 6 -1.3683 -22.0234 -11.2235 1.3515 1.7725 28.4594
#
#
#
# Elastic Compliance Matrix: (Units=1/GPa)
#
#
# Indices 1 2 3 4 5 6 
#
# 1 0.014077 -0.002921 -0.001564 -0.002343 -0.001313 -0.002008
# 2 -0.002921 0.009433 -0.002333 -0.001547 -0.001378 0.006399
# 3 -0.001564 -0.002333 0.007335 -0.000334 -0.003093 0.001221
# 4 -0.002343 -0.001547 -0.000334 0.027601 0.008473 -0.003280
# 5 -0.001313 -0.001378 -0.003093 0.008473 0.029899 -0.004614
# 6 -0.002008 0.006399 0.001221 -0.003280 -0.004614 0.040918
#
#
# Mechanical properties :
#
#
# Convention : Reuss Voigt Hill
#
# Bulk Modulus (GPa) = 58.10982 75.39736 66.75359
# Shear Modulus (GPa) = 33.63917 40.05785 36.84851
#
# Velocity S-wave (km/s) = 3.88927 4.24413 4.07057
# Velocity P-wave (km/s) = 6.80430 7.61055 7.21869
#
# Compressibility (1/GPa) = 0.01720880
#
# Stress axis : x y z
#
# Youngs Moduli (GPa) = 71.03888 106.00668 136.32507
#
# Poissons Ratio (x) = 0.30965 0.21326
# Poissons Ratio (y) = 0.20750 0.31805
# Poissons Ratio (z) = 0.11113 0.24732
#
# Static dielectric constant tensor:
#      x y z
#    x 2.013140 0.117730 0.028880 
#    y 0.117730 1.937280 0.019940 
#    z 0.028880 0.019940 1.806650 
# 
# From -- ./inp_files/476050.got.cif
#   From: 2010.05.17/outbox.cif.g08.bks.cpg/sg2_239_cif.got.tgz:476050.got - 2010.06.03 11:33:40.
