data_PCOD9069023
_publ_section_title
;
Structure prediction by ZEFSAII (Michael W. Deem and Ramdas Pophale) SiO2 
 PCOD9069023
Probable space group: P -1
;
_chemical_formula_sum "Si O2"
_cell_formula_units_Z 16
_cell_length_a 11.682615
_cell_length_b 13.654518
_cell_length_c 13.391114
_cell_angle_alpha 147.868478
_cell_angle_beta 127.951364
_cell_angle_gamma 43.675674
_cell_volume 784.576187
_symmetry_space_group_name_H-M "P -1"
_symmetry_group_IT_number 2
_symmetry_cell_setting 'triclinic'
loop_
_space_group_symop_operation_xyz
x,y,z
-x,-y,-z
loop_
_atom_site_type_symbol
_atom_site_label
_atom_site_fract_x
_atom_site_fract_y
_atom_site_fract_z
Si Si1 0.416763 0.977356 0.198350
Si Si2 0.124350 0.865833 0.541562
Si Si3 0.514433 0.705082 0.598993
Si Si4 0.776559 0.616056 0.817688
Si Si5 0.404315 0.638284 0.793302
Si Si6 0.829297 0.151460 0.984519
Si Si7 0.280019 0.404782 0.009205
Si Si8 0.014029 0.777052 0.062743
O O1 0.281182 0.967632 0.188694
O O2 0.423778 0.182785 0.351644
O O3 0.384459 0.872017 0.989313
O O4 0.603054 0.796836 0.169098
O O5 0.316362 0.811293 0.583150
O O6 0.133132 0.638163 0.358274
O O7 0.000000 0.000000 0.500000
O O8 0.058802 0.008266 0.728418
O O9 0.596913 0.705335 0.748292
O O10 0.603345 0.463204 0.400613
O O11 0.761912 0.669160 0.973340
O O12 0.873217 0.719762 0.904442
O O13 0.594819 0.504721 0.816516
O O14 0.279312 0.659436 0.832828
O O15 0.874572 0.219649 0.965081
O O16 0.000000 0.000000 0.000000
O O17 0.123950 0.584024 0.027960
#
# Coordination Sequence:
#
# PCOD9069023 Si02
#       8
#     2   2   2   2   2   2   2   2
#     4   8  21  38  63  87 119 165 209 247 310 358
#     4  12  26  40  67  93 129 166 203 258 317 370
#     4  12  22  40  66  93 128 164 204 262 310 367
#     4  12  25  37  61 100 122 168 208 243 328 368
#     4   8  21  39  63  82 126 154 212 254 299 360
#     4   9  21  41  61  89 121 164 210 252 311 364
#     4   9  20  42  59  87 128 158 210 256 303 377
#     4  12  24  41  65  87 135 162 202 265 309 368
#
# _framework density 20.393174999999999
#
# number of rings (size 3 to 8) (size 9 to 14) (size 15 to 20)
#    1.500    0.000    2.500    2.250    3.500    5.000 
#    2.250    1.250    0.000    2.250    0.000    0.000 
#    0.000    0.000    0.000    0.000    0.000    0.000 
#
# Total GULP energy -89099.408502 kJ/mol
# GULP energy per Si atom -5568.713031 kJ/mol
# Density = 2.034676 g / cm^3
# Si number density = 20.393175 Si / 1000 Ang^3
#
#
#
# Elastic Constant Matrix: (Units=GPa)
#
#
# Indices 1 2 3 4 5 6 
#
# 1 132.9397 23.1091 16.8609 3.7650 8.5358 -9.1781
# 2 23.1091 82.3735 10.4730 -1.5167 -0.4663 -11.2758
# 3 16.8609 10.4730 35.8065 5.4639 12.0338 -6.7691
# 4 3.7650 -1.5167 5.4639 18.7227 2.8967 -2.1221
# 5 8.5358 -0.4663 12.0338 2.8967 24.1294 1.4704
# 6 -9.1781 -11.2758 -6.7691 -2.1221 1.4704 20.6823
#
#
#
# Elastic Compliance Matrix: (Units=1/GPa)
#
#
# Indices 1 2 3 4 5 6 
#
# 1 0.008412 -0.001807 -0.002303 -0.000636 -0.001912 0.002065
# 2 -0.001807 0.013916 -0.003120 0.002800 0.001767 0.005925
# 3 -0.002303 -0.003120 0.039314 -0.007161 -0.018647 0.010735
# 4 -0.000636 0.002800 -0.007161 0.056928 -0.003287 0.004975
# 5 -0.001912 0.001767 -0.018647 -0.003287 0.052460 -0.010055
# 6 0.002065 0.005925 0.010735 0.004975 -0.010055 0.057236
#
#
# Mechanical properties :
#
#
# Convention : Reuss Voigt Hill
#
# Bulk Modulus (GPa) = 21.19461 39.11175 30.15318
# Shear Modulus (GPa) = 19.34587 26.08533 22.71560
#
# Velocity S-wave (km/s) = 3.08335 3.58036 3.34111
# Velocity P-wave (km/s) = 4.80537 6.02598 5.44996
#
# Compressibility (1/GPa) = 0.04718181
#
# Stress axis : x y z
#
# Youngs Moduli (GPa) = 118.88266 71.85902 25.43632
#
# Poissons Ratio (x) = 0.12985 0.05857
# Poissons Ratio (y) = 0.21482 0.07937
# Poissons Ratio (z) = 0.27374 0.22423
#
# Static dielectric constant tensor:
#      x y z
#    x 1.767170 -0.038680 0.024820 
#    y -0.038680 1.751290 -0.023470 
#    z 0.024820 -0.023470 1.774800 
# 
# From -- ./inp_files/522676.got.cif
#   From: 2010.05.17/outbox.cif.g08.bks.cpg/sg2_262_cif.got.tgz:522676.got - 2010.06.03 11:33:40.
