data_PCOD9069835
_publ_section_title
;
Structure prediction by ZEFSAII (Michael W. Deem and Ramdas Pophale) SiO2 
 PCOD9069835
Probable space group: P -1
;
_chemical_formula_sum "Si O2"
_cell_formula_units_Z 12
_cell_length_a 10.793219
_cell_length_b 10.361603
_cell_length_c 12.653059
_cell_angle_alpha 121.305203
_cell_angle_beta 58.324104
_cell_angle_gamma 154.351842
_cell_volume 517.135165
_symmetry_space_group_name_H-M "P -1"
_symmetry_group_IT_number 2
_symmetry_cell_setting 'triclinic'
loop_
_space_group_symop_operation_xyz
x,y,z
-x,-y,-z
loop_
_atom_site_type_symbol
_atom_site_label
_atom_site_fract_x
_atom_site_fract_y
_atom_site_fract_z
Si Si1 0.205615 0.131801 0.676568
Si Si2 0.717051 0.590814 0.510954
Si Si3 0.386625 0.641989 0.847484
Si Si4 0.101357 0.746729 0.243943
Si Si5 0.475882 0.797170 0.118234
Si Si6 0.021302 0.175159 0.129015
O O1 0.494835 0.316317 0.577002
O O2 0.296257 0.385378 0.770425
O O3 0.078408 0.942913 0.757824
O O4 0.956800 0.897142 0.599749
O O5 0.500000 0.500000 0.500000
O O6 0.896520 0.639445 0.377230
O O7 0.119324 0.493747 0.853775
O O8 0.664744 0.930406 0.775088
O O9 0.453223 0.744421 0.981232
O O10 0.291301 0.780114 0.216409
O O11 0.336647 0.530210 0.128552
O O12 0.805466 0.098271 0.135352
O O13 0.000000 0.000000 0.000000
#
# Coordination Sequence:
#
# PCOD9069835 Si02
#       6
#     2   2   2   2   2   2
#     4  12  26  43  70 107 131 177 241 282 334 400
#     4  12  26  44  69 103 141 181 226 283 341 412
#     4  12  24  41  73 103 140 173 228 293 342 407
#     4  12  26  44  67 104 144 182 222 283 351 409
#     4  12  26  46  69 103 141 184 225 280 351 404
#     4  12  26  46  72  99 139 181 233 283 331 412
#
# _framework density 23.204764000000001
#
# number of rings (size 3 to 8) (size 9 to 14) (size 15 to 20)
#    0.000    0.000    3.333    7.000    2.333    0.000 
#    0.000    5.000    0.000    0.000    0.000    0.000 
#    0.000    0.000    0.000    0.000    0.000    0.000 
#
# Total GULP energy -67278.945804 kJ/mol
# GULP energy per Si atom -5606.578817 kJ/mol
# Density = 2.315195 g / cm^3
# Si number density = 23.204764 Si / 1000 Ang^3
#
#
#
# Elastic Constant Matrix: (Units=GPa)
#
#
# Indices 1 2 3 4 5 6 
#
# 1 81.4739 13.2038 49.1737 -12.9323 -8.8110 15.2504
# 2 13.2038 118.7078 28.9667 -10.7677 0.8955 8.8847
# 3 49.1737 28.9667 129.1881 -10.8942 -4.4501 7.7093
# 4 -12.9323 -10.7677 -10.8942 32.9087 6.5973 11.7949
# 5 -8.8110 0.8955 -4.4501 6.5973 31.7591 -5.7360
# 6 15.2504 8.8847 7.7093 11.7949 -5.7360 46.9187
#
#
#
# Elastic Compliance Matrix: (Units=1/GPa)
#
#
# Indices 1 2 3 4 5 6 
#
# 1 0.018494 0.000622 -0.006075 0.007637 0.001434 -0.006875
# 2 0.000622 0.009419 -0.001889 0.004094 -0.001735 -0.002917
# 3 -0.006075 -0.001889 0.010466 0.000299 -0.000134 0.000521
# 4 0.007637 0.004094 0.000299 0.042107 -0.009419 -0.015043
# 5 0.001434 -0.001735 -0.000134 -0.009419 0.035052 0.006537
# 6 -0.006875 -0.002917 0.000521 -0.015043 0.006537 0.028596
#
#
# Mechanical properties :
#
#
# Convention : Reuss Voigt Hill
#
# Bulk Modulus (GPa) = 42.20495 56.89535 49.55015
# Shear Modulus (GPa) = 29.99108 38.18568 34.08838
#
# Velocity S-wave (km/s) = 3.59897 4.06100 3.83694
# Velocity P-wave (km/s) = 5.95799 6.82356 6.40541
#
# Compressibility (1/GPa) = 0.02369390
#
# Stress axis : x y z
#
# Youngs Moduli (GPa) = 54.07161 106.17346 95.54553
#
# Poissons Ratio (x) = -0.06602 0.58046
# Poissons Ratio (y) = -0.03362 0.18049
# Poissons Ratio (z) = 0.32850 0.20056
#
# Static dielectric constant tensor:
#      x y z
#    x 1.884850 -0.016810 -0.005860 
#    y -0.016810 1.865430 -0.006810 
#    z -0.005860 -0.006810 1.867870 
# 
# From -- ./inp_files/428700.got.cif
#   From: 2010.05.17/outbox.cif.g08.bks.cpg/sg2_215_cif.got.tgz:428700.got - 2010.06.03 11:33:40.
