data_PCOD9069949
_publ_section_title
;
Structure prediction by ZEFSAII (Michael W. Deem and Ramdas Pophale) SiO2 
 PCOD9069949
Probable space group: P -1
;
_chemical_formula_sum "Si O2"
_cell_formula_units_Z 12
_cell_length_a 15.047201
_cell_length_b 10.154290
_cell_length_c 12.635496
_cell_angle_alpha 143.546758
_cell_angle_beta 151.835531
_cell_angle_gamma 44.711002
_cell_volume 541.433220
_symmetry_space_group_name_H-M "P -1"
_symmetry_group_IT_number 2
_symmetry_cell_setting 'triclinic'
loop_
_space_group_symop_operation_xyz
x,y,z
-x,-y,-z
loop_
_atom_site_type_symbol
_atom_site_label
_atom_site_fract_x
_atom_site_fract_y
_atom_site_fract_z
Si Si1 0.921202 0.764123 0.301618
Si Si2 0.433325 0.492510 0.239803
Si Si3 0.024098 0.738057 0.625450
Si Si4 0.813777 0.415686 0.690560
Si Si5 0.742599 0.082307 0.586341
Si Si6 0.452931 0.692143 0.990978
O O1 0.905439 0.738650 0.393051
O O2 0.091717 0.611741 0.342530
O O3 0.718963 0.689229 0.995596
O O4 0.000000 0.000000 0.500000
O O5 0.612839 0.525504 0.526164
O O6 0.317067 0.723065 0.269463
O O7 0.505499 0.404594 0.145294
O O8 0.238116 0.765468 0.832328
O O9 0.000000 0.500000 0.500000
O O10 0.933187 0.946163 0.726417
O O11 0.765693 0.202625 0.574263
O O12 0.000000 0.500000 0.000000
O O13 0.581606 0.900974 0.288406
O O14 0.500000 0.500000 0.000000
#
# Coordination Sequence:
#
# PCOD9069949 Si02
#       6
#     2   2   2   2   2   2
#     4  12  24  43  75 106 148 197 242 301 379 432
#     4  12  27  46  73 110 149 188 248 308 365 442
#     4  12  25  49  72 103 148 193 246 304 365 442
#     4  12  26  44  70 110 150 187 245 309 368 439
#     4  12  27  43  75 106 144 196 246 296 377 429
#     4  12  26  49  72 104 148 191 249 303 363 442
#
# _framework density 22.163398000000001
#
# number of rings (size 3 to 8) (size 9 to 14) (size 15 to 20)
#    0.000    0.000    8.333    0.500    4.667    2.000 
#    0.000    1.667    0.000    0.000    0.000    0.000 
#    0.000    0.000    0.000    0.000    0.000    0.000 
#
# Total GULP energy -66964.756300 kJ/mol
# GULP energy per Si atom -5580.396358 kJ/mol
# Density = 2.211295 g / cm^3
# Si number density = 22.163398 Si / 1000 Ang^3
#
#
#
# Elastic Constant Matrix: (Units=GPa)
#
#
# Indices 1 2 3 4 5 6 
#
# 1 101.8548 36.0865 52.2771 6.8289 27.1136 -27.4153
# 2 36.0865 113.2742 50.8633 4.1958 16.3192 -21.8600
# 3 52.2771 50.8633 143.6937 2.4830 30.8135 -11.9151
# 4 6.8289 4.1958 2.4830 38.6274 -4.5482 10.7608
# 5 27.1136 16.3192 30.8135 -4.5482 37.1578 -4.2478
# 6 -27.4153 -21.8600 -11.9151 10.7608 -4.2478 55.1558
#
#
#
# Elastic Compliance Matrix: (Units=1/GPa)
#
#
# Indices 1 2 3 4 5 6 
#
# 1 0.016540 -0.000924 -0.003028 -0.005817 -0.008990 0.007643
# 2 -0.000924 0.011531 -0.003032 -0.002138 -0.001710 0.003742
# 3 -0.003028 -0.003032 0.010131 -0.000128 -0.004976 -0.000876
# 4 -0.005817 -0.002138 -0.000128 0.030642 0.007997 -0.009129
# 5 -0.008990 -0.001710 -0.004976 0.007997 0.038780 -0.004795
# 6 0.007643 0.003742 -0.000876 -0.009129 -0.004795 0.024635
#
#
# Mechanical properties :
#
#
# Convention : Reuss Voigt Hill
#
# Bulk Modulus (GPa) = 41.26348 70.80849 56.03598
# Shear Modulus (GPa) = 32.40342 40.82793 36.61567
#
# Velocity S-wave (km/s) = 3.82779 4.29666 4.06899
# Velocity P-wave (km/s) = 6.18015 7.52548 6.88575
#
# Compressibility (1/GPa) = 0.02423451
#
# Stress axis : x y z
#
# Youngs Moduli (GPa) = 60.45972 86.71958 98.71084
#
# Poissons Ratio (x) = 0.08011 0.29892
# Poissons Ratio (y) = 0.05585 0.29927
# Poissons Ratio (z) = 0.18308 0.26291
#
# Static dielectric constant tensor:
#      x y z
#    x 1.947580 -0.074440 -0.186960 
#    y -0.074440 1.824910 0.020450 
#    z -0.186960 0.020450 1.951360 
# 
# From -- ./inp_files/414616.got.cif
#   From: 2010.05.17/outbox.cif.g08.bks.cpg/sg2_208_cif.got.tgz:414616.got - 2010.06.03 11:33:40.
