data_PCOD9069454
_publ_section_title
;
Structure prediction by ZEFSAII (Michael W. Deem and Ramdas Pophale) SiO2 
 PCOD9069454
Probable space group: P -1
;
_chemical_formula_sum "Si O2"
_cell_formula_units_Z 16
_cell_length_a 8.628031
_cell_length_b 11.641123
_cell_length_c 14.151600
_cell_angle_alpha 41.931901
_cell_angle_beta 45.575853
_cell_angle_gamma 65.221714
_cell_volume 662.795127
_symmetry_space_group_name_H-M "P -1"
_symmetry_group_IT_number 2
_symmetry_cell_setting 'triclinic'
loop_
_space_group_symop_operation_xyz
x,y,z
-x,-y,-z
loop_
_atom_site_type_symbol
_atom_site_label
_atom_site_fract_x
_atom_site_fract_y
_atom_site_fract_z
Si Si1 0.211340 0.647164 0.849882
Si Si2 0.957948 0.325872 0.757784
Si Si3 0.131118 0.108759 0.463056
Si Si4 0.055803 0.897324 0.916197
Si Si5 0.543420 0.110187 0.569672
Si Si6 0.155793 0.876472 0.247508
Si Si7 0.614692 0.520610 0.838932
Si Si8 0.352461 0.644823 0.442487
O O1 0.123628 0.745477 0.915122
O O2 0.315171 0.785461 0.640235
O O3 0.422515 0.561027 0.830425
O O4 0.000000 0.500000 0.000000
O O5 0.973952 0.277532 0.671259
O O6 0.712023 0.360023 0.858394
O O7 0.133012 0.500889 0.600251
O O8 0.984001 0.181228 0.913636
O O9 0.181560 0.316600 0.326858
O O10 0.987225 0.055838 0.650619
O O11 0.374852 0.071449 0.365662
O O12 0.000000 0.000000 0.500000
O O13 0.277273 0.054866 0.717225
O O14 0.840392 0.962358 0.927524
O O15 0.625545 0.226672 0.555109
O O16 0.343375 0.789867 0.271842
O O17 0.500000 0.500000 0.000000
O O18 0.500000 0.500000 0.500000
#
# Coordination Sequence:
#
# PCOD9069454 Si02
#       8
#     2   2   2   2   2   2   2   2
#     4  12  26  42  72 114 149 190 244 313 368 438
#     4  12  26  50  73 108 153 196 249 305 371 449
#     4  12  23  43  75 109 143 192 250 304 369 442
#     4  12  25  49  73 108 148 196 245 306 372 443
#     4  12  24  46  76 106 149 187 249 309 371 441
#     4  12  26  45  76 103 145 200 241 301 372 442
#     4  12  25  44  74 107 149 196 247 303 374 435
#     4  12  28  48  74 110 146 194 249 307 372 446
#
# _framework density 24.14019
#
# number of rings (size 3 to 8) (size 9 to 14) (size 15 to 20)
#    0.000    0.000    6.250    3.375    3.500    0.000 
#    2.250    1.250    0.000    0.000    0.000    0.000 
#    0.000    0.000    0.000    0.000    0.000    0.000 
#
# Total GULP energy -89170.906935 kJ/mol
# GULP energy per Si atom -5573.181683 kJ/mol
# Density = 2.408525 g / cm^3
# Si number density = 24.140190 Si / 1000 Ang^3
#
#
#
# Elastic Constant Matrix: (Units=GPa)
#
#
# Indices 1 2 3 4 5 6 
#
# 1 140.1911 81.4071 41.7452 -0.4788 11.1346 -9.1775
# 2 81.4071 140.7764 14.9966 -6.5617 4.6472 -3.1401
# 3 41.7452 14.9966 61.3654 3.1227 -7.0492 5.6747
# 4 -0.4788 -6.5617 3.1227 21.7814 -2.9015 11.1973
# 5 11.1346 4.6472 -7.0492 -2.9015 44.1482 -8.4974
# 6 -9.1775 -3.1401 5.6747 11.1973 -8.4974 57.3888
#
#
#
# Elastic Compliance Matrix: (Units=1/GPa)
#
#
# Indices 1 2 3 4 5 6 
#
# 1 0.014447 -0.007371 -0.008591 -0.002568 -0.003892 0.002681
# 2 -0.007371 0.011227 0.002326 0.003728 0.001030 -0.001369
# 3 -0.008591 0.002326 0.022417 -0.000710 0.004956 -0.002591
# 4 -0.002568 0.003728 -0.000710 0.052510 0.001642 -0.010139
# 5 -0.003892 0.001030 0.004956 0.001642 0.024867 0.002306
# 6 0.002681 -0.001369 -0.002591 -0.010139 0.002306 0.020355
#
#
# Mechanical properties :
#
#
# Convention : Reuss Voigt Hill
#
# Bulk Modulus (GPa) = 48.03370 68.73675 58.38523
# Shear Modulus (GPa) = 27.77226 38.27593 33.02409
#
# Velocity S-wave (km/s) = 3.39552 3.98624 3.70268
# Velocity P-wave (km/s) = 5.94254 7.05143 6.52060
#
# Compressibility (1/GPa) = 0.02081872
#
# Stress axis : x y z
#
# Youngs Moduli (GPa) = 69.21683 89.06926 44.60915
#
# Poissons Ratio (x) = 0.65650 0.38325
# Poissons Ratio (y) = 0.51018 -0.10374
# Poissons Ratio (z) = 0.59466 -0.20714
#
# Static dielectric constant tensor:
#      x y z
#    x 1.926490 -0.029700 0.041120 
#    y -0.029700 1.606580 -0.318830 
#    z 0.041120 -0.318830 1.644100 
# 
# From -- ./inp_files/499846.got.cif
#   From: 2010.05.17/outbox.cif.g08.bks.cpg/sg2_250_cif.got.tgz:499846.got - 2010.06.03 11:33:40.
