data_PCOD9069919
_publ_section_title
;
Structure prediction by ZEFSAII (Michael W. Deem and Ramdas Pophale) SiO2 
 PCOD9069919
Probable space group: P -1
;
_chemical_formula_sum "Si O2"
_cell_formula_units_Z 16
_cell_length_a 11.366512
_cell_length_b 6.822598
_cell_length_c 25.223077
_cell_angle_alpha 130.717579
_cell_angle_beta 30.166673
_cell_angle_gamma 118.057052
_cell_volume 722.138655
_symmetry_space_group_name_H-M "P -1"
_symmetry_group_IT_number 2
_symmetry_cell_setting 'triclinic'
loop_
_space_group_symop_operation_xyz
x,y,z
-x,-y,-z
loop_
_atom_site_type_symbol
_atom_site_label
_atom_site_fract_x
_atom_site_fract_y
_atom_site_fract_z
Si Si1 0.986346 0.150969 0.588651
Si Si2 0.510011 0.806528 0.043077
Si Si3 0.975226 0.751364 0.694760
Si Si4 0.715275 0.361073 0.228002
Si Si5 0.062435 0.541910 0.043079
Si Si6 0.007990 0.837246 0.808544
Si Si7 0.493653 0.104129 0.819967
Si Si8 0.342670 0.900313 0.496923
O O1 0.920351 0.465940 0.656903
O O2 0.768394 0.080825 0.693970
O O3 0.000000 0.000000 0.500000
O O4 0.217399 0.076148 0.525788
O O5 0.551413 0.922928 0.105092
O O6 0.255625 0.001779 0.161041
O O7 0.500000 0.500000 0.000000
O O8 0.736046 0.806487 0.917877
O O9 0.116100 0.721078 0.690243
O O10 0.127373 0.826742 0.601121
O O11 0.511254 0.633701 0.359212
O O12 0.912519 0.397329 0.114793
O O13 0.840206 0.305783 0.226517
O O14 0.608002 0.113428 0.210191
O O15 0.999516 0.852641 0.133480
O O16 0.342228 0.400781 0.916998
O O17 0.000000 0.500000 0.000000
O O18 0.500000 0.000000 0.500000
#
# Coordination Sequence:
#
# PCOD9069919 Si02
#       8
#     2   2   2   2   2   2   2   2
#     4  12  29  49  76 107 146 193 247 299 359 429
#     4  12  25  45  75 104 146 185 236 299 363 428
#     4  12  27  48  75 104 141 194 237 296 364 426
#     4  12  27  44  72 107 144 189 239 299 356 429
#     4  12  24  43  71 109 147 190 234 296 364 433
#     4  12  25  45  73 106 144 186 240 292 366 429
#     4  12  24  46  73 105 147 185 238 299 363 423
#     4  12  29  50  74 103 146 191 247 301 356 430
#
# _framework density 22.156410000000001
#
# number of rings (size 3 to 8) (size 9 to 14) (size 15 to 20)
#    0.000    0.000    3.750    6.000    5.250    5.000 
#    0.000    0.000    0.000    0.000    0.000    0.000 
#    0.000    0.000    0.000    0.000    0.000    0.000 
#
# Total GULP energy -89550.883508 kJ/mol
# GULP energy per Si atom -5596.930219 kJ/mol
# Density = 2.210598 g / cm^3
# Si number density = 22.156410 Si / 1000 Ang^3
#
#
#
# Elastic Constant Matrix: (Units=GPa)
#
#
# Indices 1 2 3 4 5 6 
#
# 1 116.3183 17.4252 27.8276 0.1191 6.3296 -25.0164
# 2 17.4252 99.2562 22.6113 14.1388 -6.0826 5.1500
# 3 27.8276 22.6113 86.0905 13.7667 -8.6983 -6.2731
# 4 0.1191 14.1388 13.7667 34.3016 0.2617 1.2569
# 5 6.3296 -6.0826 -8.6983 0.2617 42.6535 3.7388
# 6 -25.0164 5.1500 -6.2731 1.2569 3.7388 32.1395
#
#
#
# Elastic Compliance Matrix: (Units=1/GPa)
#
#
# Indices 1 2 3 4 5 6 
#
# 1 0.011929 -0.002337 -0.003226 0.001900 -0.003595 0.009373
# 2 -0.002337 0.011806 -0.001801 -0.003999 0.002051 -0.004144
# 3 -0.003226 -0.001801 0.014279 -0.005016 0.003130 0.000396
# 4 0.001900 -0.003999 -0.005016 0.032820 -0.002085 0.000100
# 5 -0.003595 0.002051 0.003130 -0.002085 0.025394 -0.005388
# 6 0.009373 -0.004144 0.000396 0.000100 -0.005388 0.039775
#
#
# Mechanical properties :
#
#
# Convention : Reuss Voigt Hill
#
# Bulk Modulus (GPa) = 42.94416 48.59924 45.77170
# Shear Modulus (GPa) = 31.54765 37.40563 34.47664
#
# Velocity S-wave (km/s) = 3.77750 4.11329 3.94897
# Velocity P-wave (km/s) = 6.20084 6.67392 6.44172
#
# Compressibility (1/GPa) = 0.02328605
#
# Stress axis : x y z
#
# Youngs Moduli (GPa) = 83.83280 84.70465 70.03495
#
# Poissons Ratio (x) = 0.19792 0.22594
# Poissons Ratio (y) = 0.19588 0.12611
# Poissons Ratio (z) = 0.27046 0.15253
#
# Static dielectric constant tensor:
#      x y z
#    x 1.904970 -0.006020 -0.041130 
#    y -0.006020 1.758470 0.010670 
#    z -0.041130 0.010670 1.777030 
# 
# From -- ./inp_files/617940.got.cif
#   From: 2010.05.17/outbox.cif.g08.bks.cpg/sg2_309_cif.got.tgz:617940.got - 2010.06.03 11:33:40.
