data_PCOD9069356
_publ_section_title
;
Structure prediction by ZEFSAII (Michael W. Deem and Ramdas Pophale) SiO2 
 PCOD9069356
Probable space group: P -1
;
_chemical_formula_sum "Si O2"
_cell_formula_units_Z 14
_cell_length_a 21.779579
_cell_length_b 14.986589
_cell_length_c 20.793604
_cell_angle_alpha 156.797432
_cell_angle_beta 166.830249
_cell_angle_gamma 27.723410
_cell_volume 605.635678
_symmetry_space_group_name_H-M "P -1"
_symmetry_group_IT_number 2
_symmetry_cell_setting 'triclinic'
loop_
_space_group_symop_operation_xyz
x,y,z
-x,-y,-z
loop_
_atom_site_type_symbol
_atom_site_label
_atom_site_fract_x
_atom_site_fract_y
_atom_site_fract_z
Si Si1 0.732676 0.974477 0.169225
Si Si2 0.350978 0.936386 0.587611
Si Si3 0.415520 0.936711 0.297999
Si Si4 0.078655 0.823543 0.103438
Si Si5 0.128998 0.265695 0.964292
Si Si6 0.059810 0.579757 0.393568
Si Si7 0.561948 0.547613 0.961034
O O1 0.771471 0.182030 0.295603
O O2 0.742063 0.752928 0.987577
O O3 0.000000 0.000000 0.500000
O O4 0.500000 0.000000 0.000000
O O5 0.152959 0.839371 0.264302
O O6 0.145371 0.908283 0.420423
O O7 0.617466 0.803201 0.779836
O O8 0.438249 0.204539 0.842967
O O9 0.373229 0.662905 0.068899
O O10 0.500000 0.000000 0.500000
O O11 0.656850 0.059278 0.583960
O O12 0.156235 0.038254 0.071932
O O13 0.005140 0.567134 0.833702
O O14 0.000000 0.500000 0.000000
O O15 0.268441 0.469797 0.579828
O O16 0.783894 0.580062 0.151910
#
# Coordination Sequence:
#
# PCOD9069356 Si02
#       7
#     2   2   2   2   2   2   2
#     4  12  26  46  76 108 139 184 249 301 354 434
#     4  12  26  49  70 104 148 192 240 292 372 440
#     4  12  23  42  70 107 142 183 245 301 354 412
#     4  12  26  43  71 107 141 189 243 296 353 432
#     4  12  27  51  74 104 148 194 235 304 375 433
#     4  12  23  45  70 101 142 193 238 289 361 429
#     4  12  23  43  75  96 144 196 232 293 362 432
#
# _framework density 23.116208
#
# number of rings (size 3 to 8) (size 9 to 14) (size 15 to 20)
#    0.000    0.000    5.714    4.286    2.000    1.143 
#    0.000    0.000    0.000    0.000    0.000    0.000 
#    0.000    0.000    0.000    0.000    0.000    0.000 
#
# Total GULP energy -78284.830190 kJ/mol
# GULP energy per Si atom -5591.773585 kJ/mol
# Density = 2.306359 g / cm^3
# Si number density = 23.116208 Si / 1000 Ang^3
#
#
#
# Elastic Constant Matrix: (Units=GPa)
#
#
# Indices 1 2 3 4 5 6 
#
# 1 65.0729 34.7644 22.9553 -18.9239 -1.0444 -16.6194
# 2 34.7644 159.5229 58.9490 -14.0440 -11.7053 -9.4841
# 3 22.9553 58.9490 135.8982 -39.5162 -1.2143 -12.1443
# 4 -18.9239 -14.0440 -39.5162 58.8532 1.5447 -1.6281
# 5 -1.0444 -11.7053 -1.2143 1.5447 46.6708 -0.8699
# 6 -16.6194 -9.4841 -12.1443 -1.6281 -0.8699 35.2420
#
#
#
# Elastic Compliance Matrix: (Units=1/GPa)
#
#
# Indices 1 2 3 4 5 6 
#
# 1 0.021629 -0.003901 0.000922 0.006927 -0.000517 0.009775
# 2 -0.003901 0.008364 -0.003519 -0.001696 0.001960 -0.000831
# 3 0.000922 -0.003519 0.011087 0.007020 -0.000739 0.003614
# 4 0.006927 -0.001696 0.007020 0.023722 -0.000755 0.006306
# 5 -0.000517 0.001960 -0.000739 -0.000755 0.021922 0.000535
# 6 0.009775 -0.000831 0.003614 0.006306 0.000535 0.034311
#
#
# Mechanical properties :
#
#
# Convention : Reuss Voigt Hill
#
# Bulk Modulus (GPa) = 35.60872 65.98127 50.79500
# Shear Modulus (GPa) = 34.86909 44.40820 39.63865
#
# Velocity S-wave (km/s) = 3.88806 4.38777 4.14545
# Velocity P-wave (km/s) = 5.96604 7.36718 6.70332
#
# Compressibility (1/GPa) = 0.02808301
#
# Stress axis : x y z
#
# Youngs Moduli (GPa) = 46.23464 119.55471 90.19610
#
# Poissons Ratio (x) = 0.46640 -0.08314
# Poissons Ratio (y) = 0.18037 0.31741
# Poissons Ratio (z) = -0.04262 0.42073
#
# Static dielectric constant tensor:
#      x y z
#    x 1.091510 -0.713090 -0.051790 
#    y -0.713090 1.391560 0.006690 
#    z -0.051790 0.006690 1.813240 
# 
# From -- ./inp_files/614236.got.cif
#   From: 2010.05.17/outbox.cif.g08.bks.cpg/sg2_308_cif.got.tgz:614236.got - 2010.06.03 11:33:40.
