data_PCOD9069849
_publ_section_title
;
Structure prediction by ZEFSAII (Michael W. Deem and Ramdas Pophale) SiO2 
 PCOD9069849
Probable space group: P -1
;
_chemical_formula_sum "Si O2"
_cell_formula_units_Z 16
_cell_length_a 5.788515
_cell_length_b 23.005642
_cell_length_c 9.506834
_cell_angle_alpha 125.638732
_cell_angle_beta 51.477097
_cell_angle_gamma 135.737474
_cell_volume 669.307230
_symmetry_space_group_name_H-M "P -1"
_symmetry_group_IT_number 2
_symmetry_cell_setting 'triclinic'
loop_
_space_group_symop_operation_xyz
x,y,z
-x,-y,-z
loop_
_atom_site_type_symbol
_atom_site_label
_atom_site_fract_x
_atom_site_fract_y
_atom_site_fract_z
Si Si1 0.816916 0.265117 0.393531
Si Si2 0.172648 0.451713 0.438230
Si Si3 0.785473 0.035318 0.702265
Si Si4 0.328491 0.492100 0.902259
Si Si5 0.009973 0.147332 0.533529
Si Si6 0.944189 0.296848 0.699475
Si Si7 0.970523 0.081155 0.141234
Si Si8 0.799423 0.800142 0.021420
O O1 0.419097 0.188314 0.472983
O O2 0.010159 0.282213 0.493120
O O3 0.869419 0.356750 0.472604
O O4 0.975039 0.237597 0.171080
O O5 0.500000 0.500000 0.500000
O O6 0.359817 0.439019 0.218529
O O7 0.000000 0.500000 0.500000
O O8 0.720271 0.075524 0.646335
O O9 0.999154 0.115654 0.837950
O O10 0.438523 0.959397 0.803353
O O11 0.000000 0.000000 0.500000
O O12 0.202299 0.396596 0.769869
O O13 0.500000 0.500000 0.000000
O O14 0.000000 0.500000 0.000000
O O15 0.983839 0.228649 0.670012
O O16 0.979420 0.110954 0.338492
O O17 0.551135 0.269148 0.857908
O O18 0.244083 0.160922 0.052841
O O19 0.000000 0.000000 0.000000
#
# Coordination Sequence:
#
# PCOD9069849 Si02
#       8
#     2   2   2   2   2   2   2   2
#     4  12  26  48  75 107 150 192 246 311 372 449
#     4  12  26  48  79 110 152 203 249 309 384 452
#     4  12  24  44  71 102 146 191 241 308 372 438
#     4  12  28  49  78 115 153 199 258 309 380 460
#     4  12  25  45  74 104 143 196 244 301 381 440
#     4  12  26  49  75 105 154 191 242 315 372 445
#     4  12  24  42  66 106 142 183 249 303 358 448
#     4  12  25  46  72 107 144 192 249 298 376 447
#
# _framework density 23.905315000000002
#
# number of rings (size 3 to 8) (size 9 to 14) (size 15 to 20)
#    0.000    0.000    3.750    6.750    1.750    2.000 
#    0.000    0.000    0.000    0.000    0.000    0.000 
#    0.000    0.000    0.000    0.000    0.000    0.000 
#
# Total GULP energy -89367.553352 kJ/mol
# GULP energy per Si atom -5585.472084 kJ/mol
# Density = 2.385091 g / cm^3
# Si number density = 23.905315 Si / 1000 Ang^3
#
#
#
# Elastic Constant Matrix: (Units=GPa)
#
#
# Indices 1 2 3 4 5 6 
#
# 1 77.2345 10.6752 30.9774 14.8642 5.8285 -3.4485
# 2 10.6752 106.4512 8.8924 9.0102 -1.3041 -8.2627
# 3 30.9774 8.8924 120.7907 6.4929 1.5024 3.1345
# 4 14.8642 9.0102 6.4929 52.5462 -6.7502 -1.2721
# 5 5.8285 -1.3041 1.5024 -6.7502 52.6307 8.3923
# 6 -3.4485 -8.2627 3.1345 -1.2721 8.3923 45.3255
#
#
#
# Elastic Compliance Matrix: (Units=1/GPa)
#
#
# Indices 1 2 3 4 5 6 
#
# 1 0.015599 -0.000810 -0.003733 -0.004084 -0.002425 0.001632
# 2 -0.000810 0.009764 -0.000482 -0.001357 -0.000105 0.001733
# 3 -0.003733 -0.000482 0.009295 0.000004 0.000307 -0.001072
# 4 -0.004084 -0.001357 0.000004 0.020813 0.003178 -0.000563
# 5 -0.002425 -0.000105 0.000307 0.003178 0.020286 -0.003892
# 6 0.001632 0.001733 -0.001072 -0.000563 -0.003892 0.023282
#
#
# Mechanical properties :
#
#
# Convention : Reuss Voigt Hill
#
# Bulk Modulus (GPa) = 40.63744 45.06294 42.85019
# Shear Modulus (GPa) = 42.62907 47.02923 44.82915
#
# Velocity S-wave (km/s) = 4.22743 4.44025 4.33515
# Velocity P-wave (km/s) = 6.39253 6.72155 6.55911
#
# Compressibility (1/GPa) = 0.02460785
#
# Stress axis : x y z
#
# Youngs Moduli (GPa) = 64.10731 102.42210 107.57897
#
# Poissons Ratio (x) = 0.08294 0.40164
# Poissons Ratio (y) = 0.05191 0.05183
# Poissons Ratio (z) = 0.23934 0.04935
#
# Static dielectric constant tensor:
#      x y z
#    x 1.949250 0.101520 -0.003940 
#    y 0.101520 1.592490 0.004600 
#    z -0.003940 0.004600 1.938490 
# 
# From -- ./inp_files/137672.got.cif
#   From: 2010.05.17/outbox.cif.g08.bks.cpg/sg2_69_cif.got.tgz:137672.got - 2010.06.03 11:33:40.
