data_PCOD9069398
_publ_section_title
;
Structure prediction by ZEFSAII (Michael W. Deem and Ramdas Pophale) SiO2 
 PCOD9069398
Probable space group: P -1
;
_chemical_formula_sum "Si O2"
_cell_formula_units_Z 16
_cell_length_a 13.158544
_cell_length_b 13.834764
_cell_length_c 12.747076
_cell_angle_alpha 31.914976
_cell_angle_beta 42.411618
_cell_angle_gamma 29.771009
_cell_volume 609.128974
_symmetry_space_group_name_H-M "P -1"
_symmetry_group_IT_number 2
_symmetry_cell_setting 'triclinic'
loop_
_space_group_symop_operation_xyz
x,y,z
-x,-y,-z
loop_
_atom_site_type_symbol
_atom_site_label
_atom_site_fract_x
_atom_site_fract_y
_atom_site_fract_z
Si Si1 0.927980 0.521542 0.871402
Si Si2 0.198070 0.720932 0.210272
Si Si3 0.500980 0.436244 0.437608
Si Si4 0.524171 0.985113 0.870554
Si Si5 0.100440 0.113334 0.560342
Si Si6 0.935001 0.177764 0.288671
Si Si7 0.158109 0.171313 0.840866
Si Si8 0.431795 0.198452 0.457420
O O1 0.711502 0.743299 0.885914
O O2 0.003819 0.659727 0.651984
O O3 0.951779 0.404066 0.846378
O O4 0.026110 0.302485 0.083767
O O5 0.327904 0.609716 0.322932
O O6 0.322929 0.484205 0.255876
O O7 0.989028 0.796872 0.338154
O O8 0.158932 0.964070 0.988029
O O9 0.500000 0.500000 0.500000
O O10 0.693500 0.387522 0.291512
O O11 0.528418 0.196387 0.645672
O O12 0.324270 0.049595 0.919304
O O13 0.500000 0.000000 0.000000
O O14 0.040980 0.963143 0.702965
O O15 0.344509 0.938986 0.536768
O O16 0.000000 0.000000 0.500000
O O17 0.262685 0.229397 0.627680
O O18 0.500000 0.000000 0.500000
#
# Coordination Sequence:
#
# PCOD9069398 Si02
#       8
#     2   2   2   2   2   2   2   2
#     4  12  24  44  71  99 147 193 245 293 357 432
#     4  12  24  47  75 104 146 187 243 305 365 443
#     4  12  23  43  65 102 151 194 243 296 355 431
#     4  12  25  42  66 104 147 199 244 297 359 429
#     4  12  24  47  73 104 141 190 240 305 366 427
#     4  12  25  40  64 108 145 192 239 291 353 427
#     4  12  25  45  74 106 140 194 237 303 374 435
#     4  12  28  51  78 108 144 188 246 315 383 441
#
# _framework density 26.267015000000001
#
# number of rings (size 3 to 8) (size 9 to 14) (size 15 to 20)
#    0.000    0.000    7.500    3.000    1.750    3.000 
#    0.000    0.625    0.000    0.000    0.000    0.000 
#    0.000    0.000    0.000    0.000    0.000    0.000 
#
# Total GULP energy -89403.089516 kJ/mol
# GULP energy per Si atom -5587.693095 kJ/mol
# Density = 2.620723 g / cm^3
# Si number density = 26.267015 Si / 1000 Ang^3
#
#
#
# Elastic Constant Matrix: (Units=GPa)
#
#
# Indices 1 2 3 4 5 6 
#
# 1 90.5616 36.9196 7.1793 -1.6763 -11.5420 16.6455
# 2 36.9196 189.4449 42.8676 -4.7583 -13.9365 30.3314
# 3 7.1793 42.8676 160.6664 -10.5406 -29.2571 0.5189
# 4 -1.6763 -4.7583 -10.5406 35.7669 11.3932 -15.3141
# 5 -11.5420 -13.9365 -29.2571 11.3932 34.6424 -4.5754
# 6 16.6455 30.3314 0.5189 -15.3141 -4.5754 32.2846
#
#
#
# Elastic Compliance Matrix: (Units=1/GPa)
#
#
# Indices 1 2 3 4 5 6 
#
# 1 0.013318 -0.001359 0.000371 -0.003788 0.004558 -0.006746
# 2 -0.001359 0.007118 -0.001854 -0.003066 0.000891 -0.007285
# 3 0.000371 -0.001854 0.007869 0.001468 0.005932 0.002961
# 4 -0.003788 -0.003066 0.001468 0.041308 -0.011839 0.022726
# 5 0.004558 0.000891 0.005932 -0.011839 0.039206 -0.003343
# 6 -0.006746 -0.007285 0.002961 0.022726 -0.003343 0.051556
#
#
# Mechanical properties :
#
#
# Convention : Reuss Voigt Hill
#
# Bulk Modulus (GPa) = 44.20703 68.28954 56.24829
# Shear Modulus (GPa) = 28.80226 44.11921 36.46074
#
# Velocity S-wave (km/s) = 3.31496 4.10279 3.72974
# Velocity P-wave (km/s) = 5.61412 6.96409 6.32522
#
# Compressibility (1/GPa) = 0.02262083
#
# Stress axis : x y z
#
# Youngs Moduli (GPa) = 75.08821 140.49344 127.08073
#
# Poissons Ratio (x) = 0.19093 -0.04713
# Poissons Ratio (y) = 0.10204 0.23557
# Poissons Ratio (z) = -0.02785 0.26043
#
# Static dielectric constant tensor:
#      x y z
#    x 2.136830 0.033620 0.069990 
#    y 0.033620 2.169400 -0.042580 
#    z 0.069990 -0.042580 2.060750 
# 
# From -- ./inp_files/533595.got.cif
#   From: 2010.05.17/outbox.cif.g08.bks.cpg/sg2_267_cif.got.tgz:533595.got - 2010.06.03 11:33:40.
