data_PCOD9069458
_publ_section_title
;
Structure prediction by ZEFSAII (Michael W. Deem and Ramdas Pophale) SiO2 
 PCOD9069458
Probable space group: P -1
;
_chemical_formula_sum "Si O2"
_cell_formula_units_Z 16
_cell_length_a 14.241246
_cell_length_b 9.260887
_cell_length_c 7.894581
_cell_angle_alpha 74.436627
_cell_angle_beta 134.257060
_cell_angle_gamma 93.947630
_cell_volume 707.717755
_symmetry_space_group_name_H-M "P -1"
_symmetry_group_IT_number 2
_symmetry_cell_setting 'triclinic'
loop_
_space_group_symop_operation_xyz
x,y,z
-x,-y,-z
loop_
_atom_site_type_symbol
_atom_site_label
_atom_site_fract_x
_atom_site_fract_y
_atom_site_fract_z
Si Si1 0.893710 0.398970 0.322647
Si Si2 0.485141 0.171414 0.985830
Si Si3 0.700854 0.542532 0.462920
Si Si4 0.053196 0.347798 0.221384
Si Si5 0.740471 0.240388 0.413235
Si Si6 0.617795 0.866848 0.754151
Si Si7 0.638511 0.539814 0.743782
Si Si8 0.139358 0.063806 0.163861
O O1 0.871092 0.280573 0.477311
O O2 0.000000 0.500000 0.500000
O O3 0.952048 0.316478 0.249232
O O4 0.741173 0.478811 0.048610
O O5 0.632029 0.209693 0.155067
O O6 0.414884 0.171111 0.081293
O O7 0.408601 0.309116 0.737370
O O8 0.500000 0.000000 0.000000
O O9 0.828217 0.603120 0.534931
O O10 0.676963 0.390364 0.390652
O O11 0.729718 0.504301 0.705685
O O12 0.107794 0.208243 0.207632
O O13 0.000000 0.500000 0.000000
O O14 0.766952 0.085820 0.599030
O O15 0.603476 0.717386 0.679146
O O16 0.768953 0.894257 0.891005
O O17 0.500000 0.000000 0.500000
O O18 0.500000 0.500000 0.500000
O O19 0.000000 0.000000 0.000000
#
# Coordination Sequence:
#
# PCOD9069458 Si02
#       8
#     2   2   2   2   2   2   2   2
#     4  12  27  46  78 110 152 199 253 315 384 455
#     4  12  26  46  73 108 153 195 253 318 376 453
#     4  12  23  43  75  99 148 190 251 308 372 444
#     4  12  24  48  75 104 145 204 248 304 378 458
#     4  12  26  47  69 112 149 196 256 314 377 452
#     4  12  25  48  74 107 149 201 249 310 391 447
#     4  12  26  46  78 112 141 196 260 310 376 454
#     4  12  28  45  75 111 153 198 252 315 379 461
#
# _framework density 22.607883000000001
#
# number of rings (size 3 to 8) (size 9 to 14) (size 15 to 20)
#    0.000    0.000    5.000    4.875    1.750    1.500 
#    0.000    0.000    0.000    0.000    0.000    0.000 
#    0.000    0.000    0.000    0.000    0.000    0.000 
#
# Total GULP energy -89136.342946 kJ/mol
# GULP energy per Si atom -5571.021434 kJ/mol
# Density = 2.255643 g / cm^3
# Si number density = 22.607883 Si / 1000 Ang^3
#
#
#
# Elastic Constant Matrix: (Units=GPa)
#
#
# Indices 1 2 3 4 5 6 
#
# 1 106.7463 12.2910 -23.4004 17.0529 3.3603 17.9156
# 2 12.2910 146.4217 14.2137 8.9415 11.9666 0.1584
# 3 -23.4004 14.2137 72.4533 8.3629 19.4053 14.6640
# 4 17.0529 8.9415 8.3629 34.9775 8.5240 5.2721
# 5 3.3603 11.9666 19.4053 8.5240 41.8092 1.5165
# 6 17.9156 0.1584 14.6640 5.2721 1.5165 36.5173
#
#
#
# Elastic Compliance Matrix: (Units=1/GPa)
#
#
# Indices 1 2 3 4 5 6 
#
# 1 0.013904 -0.001321 0.008075 -0.006311 -0.002873 -0.009028
# 2 -0.001321 0.007243 -0.001783 -0.000751 -0.001040 0.001484
# 3 0.008075 -0.001783 0.022103 -0.004801 -0.008992 -0.011763
# 4 -0.006311 -0.000751 -0.004801 0.033932 -0.003978 0.000294
# 5 -0.002873 -0.001040 -0.008992 -0.003978 0.029272 0.004384
# 6 -0.009028 0.001484 -0.011763 0.000294 0.004384 0.036306
#
#
# Mechanical properties :
#
#
# Convention : Reuss Voigt Hill
#
# Bulk Modulus (GPa) = 18.79974 36.87000 27.83487
# Shear Modulus (GPa) = 33.21194 44.16192 38.68693
#
# Velocity S-wave (km/s) = 3.83697 4.42451 4.14117
# Velocity P-wave (km/s) = 5.28804 6.51503 5.93334
#
# Compressibility (1/GPa) = 0.05319221
#
# Stress axis : x y z
#
# Youngs Moduli (GPa) = 71.92167 138.06786 45.24280
#
# Poissons Ratio (x) = 0.18239 -0.36533
# Poissons Ratio (y) = 0.09501 0.08065
# Poissons Ratio (z) = -0.58076 0.24612
#
# Static dielectric constant tensor:
#      x y z
#    x 1.871110 -0.003520 -0.048920 
#    y -0.003520 1.701190 0.055190 
#    z -0.048920 0.055190 1.747540 
# 
# From -- ./inp_files/298036.got.cif
#   From: 2010.05.17/outbox.cif.g08.bks.cpg/sg2_150_cif.got.tgz:298036.got - 2010.06.03 11:33:40.
