data_PCOD9069832
_publ_section_title
;
Structure prediction by ZEFSAII (Michael W. Deem and Ramdas Pophale) SiO2 
 PCOD9069832
Probable space group: P -1
;
_chemical_formula_sum "Si O2"
_cell_formula_units_Z 12
_cell_length_a 10.539399
_cell_length_b 19.681704
_cell_length_c 22.152782
_cell_angle_alpha 168.057988
_cell_angle_beta 34.163840
_cell_angle_gamma 146.844205
_cell_volume 518.613892
_symmetry_space_group_name_H-M "P -1"
_symmetry_group_IT_number 2
_symmetry_cell_setting 'triclinic'
loop_
_space_group_symop_operation_xyz
x,y,z
-x,-y,-z
loop_
_atom_site_type_symbol
_atom_site_label
_atom_site_fract_x
_atom_site_fract_y
_atom_site_fract_z
Si Si1 0.619432 0.393184 0.800964
Si Si2 0.133825 0.219452 0.692426
Si Si3 0.583653 0.123182 0.005976
Si Si4 0.918672 0.745882 0.470542
Si Si5 0.419620 0.246339 0.991907
Si Si6 0.742088 0.532448 0.643371
O O1 0.562786 0.619283 0.965746
O O2 0.898195 0.431174 0.722615
O O3 0.500000 0.000000 0.500000
O O4 0.500000 0.500000 0.000000
O O5 0.385636 0.466837 0.799792
O O6 0.000000 0.000000 0.500000
O O7 0.094017 0.006246 0.584224
O O8 0.000000 0.500000 0.000000
O O9 0.761647 0.480317 0.257065
O O10 0.371286 0.200057 0.116929
O O11 0.500000 0.000000 0.000000
O O12 0.741002 0.898329 0.714449
O O13 0.216611 0.322657 0.178286
O O14 0.409690 0.850334 0.647453
O O15 0.000000 0.500000 0.500000
#
# Coordination Sequence:
#
# PCOD9069832 Si02
#       6
#     2   2   2   2   2   2
#     4  12  26  46  74 113 150 194 241 295 378 453
#     4  12  24  41  72 105 142 187 231 302 379 437
#     4  12  28  49  74 104 145 195 251 308 367 434
#     4  12  26  46  73 105 148 187 247 302 370 446
#     4  12  26  46  75 107 152 187 249 308 369 448
#     4  12  28  49  76 107 145 198 255 310 370 437
#
# _framework density 23.1386
#
# number of rings (size 3 to 8) (size 9 to 14) (size 15 to 20)
#    0.000    0.000    1.667    9.000    7.000    0.000 
#    0.000    0.000    0.000    0.000    0.000    0.000 
#    0.000    0.000    0.000    0.000    0.000    0.000 
#
# Total GULP energy -66908.584701 kJ/mol
# GULP energy per Si atom -5575.715392 kJ/mol
# Density = 2.308594 g / cm^3
# Si number density = 23.138600 Si / 1000 Ang^3
#
#
#
# Elastic Constant Matrix: (Units=GPa)
#
#
# Indices 1 2 3 4 5 6 
#
# 1 104.0716 29.5743 43.2271 -13.4283 7.0375 -2.7369
# 2 29.5743 76.1037 41.4864 -23.5377 3.5980 -9.4243
# 3 43.2271 41.4864 140.5283 -36.1204 25.8123 -4.6819
# 4 -13.4283 -23.5377 -36.1204 59.0139 -11.2926 5.4541
# 5 7.0375 3.5980 25.8123 -11.2926 38.1307 -4.8612
# 6 -2.7369 -9.4243 -4.6819 5.4541 -4.8612 51.6899
#
#
#
# Elastic Compliance Matrix: (Units=1/GPa)
#
#
# Indices 1 2 3 4 5 6 
#
# 1 0.011586 -0.003136 -0.002690 -0.000268 -0.000124 -0.000185
# 2 -0.003136 0.017919 -0.003623 0.004555 0.003018 0.002576
# 3 -0.002690 -0.003623 0.010952 0.003643 -0.005588 -0.000721
# 4 -0.000268 0.004555 0.003643 0.021670 0.003467 -0.000814
# 5 -0.000124 0.003018 -0.005588 0.003467 0.031105 0.002597
# 6 -0.000185 0.002576 -0.000721 -0.000814 0.002597 0.020071
#
#
# Mechanical properties :
#
#
# Convention : Reuss Voigt Hill
#
# Bulk Modulus (GPa) = 46.38479 61.03102 53.70790
# Shear Modulus (GPa) = 35.87130 43.52794 39.69962
#
# Velocity S-wave (km/s) = 3.94163 4.34197 4.14663
# Velocity P-wave (km/s) = 6.38790 7.18126 6.79617
#
# Compressibility (1/GPa) = 0.02155879
#
# Stress axis : x y z
#
# Youngs Moduli (GPa) = 86.30841 55.80749 91.30638
#
# Poissons Ratio (x) = 0.17500 0.24566
# Poissons Ratio (y) = 0.27064 0.33081
# Poissons Ratio (z) = 0.23221 0.20219
#
# Static dielectric constant tensor:
#      x y z
#    x 1.954800 -0.020490 -0.036880 
#    y -0.020490 2.055640 -0.042090 
#    z -0.036880 -0.042090 1.856360 
# 
# From -- ./inp_files/425246.got.cif
#   From: 2010.05.17/outbox.cif.g08.bks.cpg/sg2_213_cif.got.tgz:425246.got - 2010.06.03 11:33:40.
