data_PCOD9070808
_publ_section_title
;
Structure prediction by ZEFSAII (Michael W. Deem and Ramdas Pophale) SiO2 
 PCOD9070808
Probable space group: P -1
;
_chemical_formula_sum "Si O2"
_cell_formula_units_Z 14
_cell_length_a 12.611735
_cell_length_b 8.982893
_cell_length_c 17.897802
_cell_angle_alpha 34.706783
_cell_angle_beta 150.505051
_cell_angle_gamma 130.344428
_cell_volume 551.355681
_symmetry_space_group_name_H-M "P -1"
_symmetry_group_IT_number 2
_symmetry_cell_setting 'triclinic'
loop_
_space_group_symop_operation_xyz
x,y,z
-x,-y,-z
loop_
_atom_site_type_symbol
_atom_site_label
_atom_site_fract_x
_atom_site_fract_y
_atom_site_fract_z
Si Si1 0.782125 0.245820 0.766975
Si Si2 0.168938 0.349247 0.730588
Si Si3 0.014901 0.330114 0.221543
Si Si4 0.466017 0.443453 0.205565
Si Si5 0.911554 0.854023 0.439188
Si Si6 0.411699 0.799466 0.168167
Si Si7 0.430143 0.131189 0.482696
O O1 0.659973 0.228787 0.778595
O O2 0.617547 0.224244 0.606923
O O3 0.857212 0.528518 0.697246
O O4 0.000000 0.000000 0.000000
O O5 0.408061 0.365444 0.839417
O O6 0.000000 0.500000 0.500000
O O7 0.065878 0.552470 0.650012
O O8 0.216987 0.040088 0.913987
O O9 0.180940 0.305802 0.264089
O O10 0.948857 0.051712 0.313463
O O11 0.783401 0.534402 0.980297
O O12 0.452125 0.540090 0.244046
O O13 0.594186 0.149178 0.378029
O O14 0.653309 0.863393 0.286365
O O15 0.000000 0.000000 0.500000
O O16 0.500000 0.000000 0.500000
#
# Coordination Sequence:
#
# PCOD9070808 Si02
#       7
#     2   2   2   2   2   2   2
#     4  12  29  52  75 113 154 204 253 316 388 452
#     4  12  25  48  77 115 152 200 254 312 385 456
#     4  12  26  50  76 107 160 194 257 314 378 457
#     4  12  25  46  77 116 146 199 256 312 385 446
#     4  12  27  45  78 111 148 204 255 318 385 450
#     4  12  28  48  77 111 160 197 256 321 377 459
#     4  12  28  48  77 110 152 203 255 313 383 463
#
# _framework density 25.391957999999999
#
# number of rings (size 3 to 8) (size 9 to 14) (size 15 to 20)
#    0.000    0.000    5.714    3.429    4.000    2.857 
#    0.000    0.000    0.000    0.000    0.000    0.000 
#    0.000    0.000    0.000    0.000    0.000    0.000 
#
# Total GULP energy -78279.712738 kJ/mol
# GULP energy per Si atom -5591.408053 kJ/mol
# Density = 2.533416 g / cm^3
# Si number density = 25.391958 Si / 1000 Ang^3
#
#
#
# Elastic Constant Matrix: (Units=GPa)
#
#
# Indices 1 2 3 4 5 6 
#
# 1 127.8629 32.3417 45.3380 25.2501 27.5951 1.1661
# 2 32.3417 134.3402 40.1394 17.4450 7.1940 -9.1918
# 3 45.3380 40.1394 126.8273 15.4749 27.5819 -7.0307
# 4 25.2501 17.4450 15.4749 41.4952 -10.8545 5.9760
# 5 27.5951 7.1940 27.5819 -10.8545 45.8859 3.3040
# 6 1.1661 -9.1918 -7.0307 5.9760 3.3040 42.2096
#
#
#
# Elastic Compliance Matrix: (Units=1/GPa)
#
#
# Indices 1 2 3 4 5 6 
#
# 1 0.012062 -0.000881 -0.000935 -0.009110 -0.008802 0.001298
# 2 -0.000881 0.008762 -0.001870 -0.002894 -0.000554 0.002074
# 3 -0.000935 -0.001870 0.011168 -0.005109 -0.007266 0.002771
# 4 -0.009110 -0.002894 -0.005109 0.038860 0.018787 -0.008202
# 5 -0.008802 -0.000554 -0.007266 0.018787 0.036460 -0.006601
# 6 0.001298 0.002074 0.002771 -0.008202 -0.006601 0.026247
#
#
# Mechanical properties :
#
#
# Convention : Reuss Voigt Hill
#
# Bulk Modulus (GPa) = 40.61770 69.40764 55.01267
# Shear Modulus (GPa) = 33.52603 43.99890 38.76247
#
# Velocity S-wave (km/s) = 3.63759 4.16719 3.91137
# Velocity P-wave (km/s) = 5.80291 7.10970 6.48928
#
# Compressibility (1/GPa) = 0.02461981
#
# Stress axis : x y z
#
# Youngs Moduli (GPa) = 82.90289 114.13092 89.54242
#
# Poissons Ratio (x) = 0.10058 0.08375
# Poissons Ratio (y) = 0.07306 0.16740
# Poissons Ratio (z) = 0.07754 0.21337
#
# Static dielectric constant tensor:
#      x y z
#    x 2.118330 0.055320 -0.161220 
#    y 0.055320 2.047420 -0.124010 
#    z -0.161220 -0.124010 2.100150 
# 
# From -- ./inp_files/566466.got.cif
#   From: 2010.05.17/outbox.cif.g08.bks.cpg/sg2_284_cif.got.tgz:566466.got - 2010.06.03 11:33:40.
