data_PCOD9070433
_publ_section_title
;
Structure prediction by ZEFSAII (Michael W. Deem and Ramdas Pophale) SiO2 
 PCOD9070433
Probable space group: P -1
;
_chemical_formula_sum "Si O2"
_cell_formula_units_Z 15
_cell_length_a 24.336320
_cell_length_b 14.085844
_cell_length_c 15.602356
_cell_angle_alpha 28.066796
_cell_angle_beta 160.204796
_cell_angle_gamma 161.839119
_cell_volume 561.115838
_symmetry_space_group_name_H-M "P -1"
_symmetry_group_IT_number 2
_symmetry_cell_setting 'triclinic'
loop_
_space_group_symop_operation_xyz
x,y,z
-x,-y,-z
loop_
_atom_site_type_symbol
_atom_site_label
_atom_site_fract_x
_atom_site_fract_y
_atom_site_fract_z
Si Si1 0.847268 0.106825 0.211297
Si Si2 0.371756 0.802476 0.053711
Si Si3 0.523936 0.310168 0.137739
Si Si4 0.802971 0.188517 0.672331
Si Si5 0.886397 0.871111 0.118712
Si Si6 0.696249 0.854567 0.613587
Si Si7 0.223654 0.290597 0.441458
Si Si8 0.000000 0.500000 0.000000
O O1 0.862259 0.909149 0.440010
O O2 0.736461 0.011477 0.025976
O O3 0.662683 0.050321 0.047098
O O4 0.067209 0.462247 0.226386
O O5 0.531339 0.782428 0.350590
O O6 0.094500 0.481411 0.879939
O O7 0.500000 0.000000 0.000000
O O8 0.657817 0.255897 0.424704
O O9 0.500000 0.500000 0.000000
O O10 0.694305 0.518185 0.140157
O O11 0.756139 0.082288 0.589469
O O12 0.733019 0.931511 0.831718
O O13 0.055307 0.993168 0.186568
O O14 0.059307 0.054451 0.310001
O O15 0.511484 0.530282 0.650296
O O16 0.176820 0.485578 0.225494
#
# Coordination Sequence:
#
# PCOD9070433 Si02
#       8
#     2   2   2   2   2   2   2   1
#     4  12  26  47  75 110 154 201 259 324 383 465
#     4  12  26  45  78 113 156 208 252 320 394 461
#     4  12  28  49  74 112 156 206 266 326 386 462
#     4  12  26  48  76 111 154 203 261 321 384 467
#     4  12  27  46  77 113 156 208 260 320 399 464
#     4  12  25  49  74 116 161 206 258 325 392 464
#     4  12  25  46  76 111 155 200 264 321 388 468
#     4  12  24  48  74 108 150 210 260 316 394 454
#
# _framework density 26.732447000000001
#
# number of rings (size 3 to 8) (size 9 to 14) (size 15 to 20)
#    0.000    0.000    4.000    5.200    3.733    3.733 
#    0.000    0.000    0.000    0.000    0.000    0.000 
#    0.000    0.000    0.000    0.000    0.000    0.000 
#
# Total GULP energy -83916.284599 kJ/mol
# GULP energy per Si atom -5594.418973 kJ/mol
# Density = 2.667160 g / cm^3
# Si number density = 26.732447 Si / 1000 Ang^3
#
#
#
# Elastic Constant Matrix: (Units=GPa)
#
#
# Indices 1 2 3 4 5 6 
#
# 1 128.8887 35.4432 23.0030 5.1555 -9.4566 7.4694
# 2 35.4432 71.8549 48.5888 -15.1820 -5.9189 16.0086
# 3 23.0030 48.5888 145.9457 -20.4683 -9.9314 -3.1890
# 4 5.1555 -15.1820 -20.4683 54.7549 3.1095 -8.4631
# 5 -9.4566 -5.9189 -9.9314 3.1095 47.3415 -2.5106
# 6 7.4694 16.0086 -3.1890 -8.4631 -2.5106 54.9698
#
#
#
# Elastic Compliance Matrix: (Units=1/GPa)
#
#
# Indices 1 2 3 4 5 6 
#
# 1 0.009325 -0.004899 -0.000080 -0.002367 0.001381 -0.000146
# 2 -0.004899 0.022698 -0.006427 0.003459 -0.000023 -0.005786
# 3 -0.000080 -0.006427 0.009443 0.002123 0.001171 0.002811
# 4 -0.002367 0.003459 0.002123 0.020685 -0.000817 0.002585
# 5 0.001381 -0.000023 0.001171 -0.000817 0.021735 0.000754
# 6 -0.000146 -0.005786 0.002811 0.002585 0.000754 0.020492
#
#
# Mechanical properties :
#
#
# Convention : Reuss Voigt Hill
#
# Bulk Modulus (GPa) = 53.61167 62.30660 57.95913
# Shear Modulus (GPa) = 37.47895 47.39019 42.43457
#
# Velocity S-wave (km/s) = 3.74839 4.21498 3.98852
# Velocity P-wave (km/s) = 6.23156 6.85902 6.55281
#
# Compressibility (1/GPa) = 0.01865266
#
# Stress axis : x y z
#
# Youngs Moduli (GPa) = 107.24269 44.05732 105.89704
#
# Poissons Ratio (x) = 0.21585 0.00845
# Poissons Ratio (y) = 0.52542 0.68063
# Poissons Ratio (z) = 0.00856 0.28317
#
# Static dielectric constant tensor:
#      x y z
#    x 2.118150 -0.006590 0.000200 
#    y -0.006590 1.670570 -0.012660 
#    z 0.000200 -0.012660 2.116350 
# 
# From -- ./inp_files/543034.got.cif
#   From: 2010.05.17/outbox.cif.g08.bks.cpg/sg2_272_cif.got.tgz:543034.got - 2010.06.03 11:33:40.
