data_PCOD9070432
_publ_section_title
;
Structure prediction by ZEFSAII (Michael W. Deem and Ramdas Pophale) SiO2 
 PCOD9070432
Probable space group: P -1
;
_chemical_formula_sum "Si O2"
_cell_formula_units_Z 14
_cell_length_a 8.943856
_cell_length_b 9.400197
_cell_length_c 8.544478
_cell_angle_alpha 113.740848
_cell_angle_beta 111.498407
_cell_angle_gamma 71.806374
_cell_volume 600.281103
_symmetry_space_group_name_H-M "P -1"
_symmetry_group_IT_number 2
_symmetry_cell_setting 'triclinic'
loop_
_space_group_symop_operation_xyz
x,y,z
-x,-y,-z
loop_
_atom_site_type_symbol
_atom_site_label
_atom_site_fract_x
_atom_site_fract_y
_atom_site_fract_z
Si Si1 0.028922 0.232186 0.238659
Si Si2 0.312824 0.363600 0.528534
Si Si3 0.598020 0.742804 0.133959
Si Si4 0.056626 0.311325 0.932045
Si Si5 0.439866 0.907459 0.665054
Si Si6 0.340050 0.684910 0.774123
Si Si7 0.883532 0.058665 0.629641
O O1 0.126967 0.343824 0.424030
O O2 0.834687 0.291678 0.198887
O O3 0.070787 0.061893 0.262614
O O4 0.082794 0.241054 0.084963
O O5 0.368952 0.327304 0.712156
O O6 0.416219 0.230006 0.399160
O O7 0.342584 0.539716 0.591156
O O8 0.774514 0.733963 0.117832
O O9 0.512139 0.926933 0.200905
O O10 0.486022 0.658398 0.943237
O O11 0.918961 0.229235 0.763803
O O12 0.000000 0.500000 0.000000
O O13 0.357284 0.839352 0.751185
O O14 0.301298 0.939912 0.492410
O O15 0.000000 0.000000 0.500000
#
# Coordination Sequence:
#
# PCOD9070432 Si02
#       7
#     2   2   2   2   2   2   2
#     4  12  26  47  74 108 142 192 239 289 356 430
#     4  12  27  47  74 106 142 188 240 293 358 421
#     4  12  26  50  68 108 144 188 235 297 353 425
#     4  12  28  45  75 108 148 184 241 297 356 419
#     4  12  26  46  75 102 145 187 239 288 358 429
#     4  12  27  45  75 105 147 180 238 299 359 414
#     4  12  24  48  74 106 143 192 237 292 354 426
#
# _framework density 23.322406000000001
#
# number of rings (size 3 to 8) (size 9 to 14) (size 15 to 20)
#    0.000    0.000    4.286    4.286    6.000    1.143 
#    0.000    0.000    0.000    0.000    0.000    0.000 
#    0.000    0.000    0.000    0.000    0.000    0.000 
#
# Total GULP energy -78505.504756 kJ/mol
# GULP energy per Si atom -5607.536054 kJ/mol
# Density = 2.326932 g / cm^3
# Si number density = 23.322406 Si / 1000 Ang^3
#
#
#
# Elastic Constant Matrix: (Units=GPa)
#
#
# Indices 1 2 3 4 5 6 
#
# 1 64.8653 -8.2402 7.4807 3.5041 10.5691 -3.1460
# 2 -8.2402 53.4014 23.8989 14.2599 0.6082 19.0369
# 3 7.4807 23.8989 74.5084 12.5090 9.7720 13.7775
# 4 3.5041 14.2599 12.5090 41.9879 5.7142 0.9907
# 5 10.5691 0.6082 9.7720 5.7142 27.7981 4.4659
# 6 -3.1460 19.0369 13.7775 0.9907 4.4659 33.1154
#
#
#
# Elastic Compliance Matrix: (Units=1/GPa)
#
#
# Indices 1 2 3 4 5 6 
#
# 1 0.017190 0.003537 -0.002131 -0.001240 -0.005819 0.001308
# 2 0.003537 0.029440 -0.006260 -0.008675 0.004293 -0.014303
# 3 -0.002131 -0.006260 0.017122 -0.002162 -0.004128 -0.003106
# 4 -0.001240 -0.008675 -0.002162 0.028093 -0.005259 0.005638
# 5 -0.005819 0.004293 -0.004128 -0.005259 0.041713 -0.006771
# 6 0.001308 -0.014303 -0.003106 0.005638 -0.006771 0.040581
#
#
# Mechanical properties :
#
#
# Convention : Reuss Voigt Hill
#
# Bulk Modulus (GPa) = 18.50307 26.56156 22.53231
# Shear Modulus (GPa) = 24.76957 31.88932 28.32945
#
# Velocity S-wave (km/s) = 3.26245 3.70175 3.48902
# Velocity P-wave (km/s) = 4.70555 5.44832 5.09050
#
# Compressibility (1/GPa) = 0.05404510
#
# Stress axis : x y z
#
# Youngs Moduli (GPa) = 58.17218 33.96742 58.40480
#
# Poissons Ratio (x) = -0.12015 0.12446
# Poissons Ratio (y) = -0.20578 0.36561
# Poissons Ratio (z) = 0.12397 0.21263
#
# Static dielectric constant tensor:
#      x y z
#    x 1.844090 -0.009300 -0.010400 
#    y -0.009300 1.867540 0.006110 
#    z -0.010400 0.006110 1.847170 
# 
# From -- ./inp_files/157708.got.cif
#   From: 2010.05.17/outbox.cif.g08.bks.cpg/sg2_79_cif.got.tgz:157708.got - 2010.06.03 11:33:40.
