data_PCOD9070552
_publ_section_title
;
Structure prediction by ZEFSAII (Michael W. Deem and Ramdas Pophale) SiO2 
 PCOD9070552
Probable space group: P -1
;
_chemical_formula_sum "Si O2"
_cell_formula_units_Z 13
_cell_length_a 9.778685
_cell_length_b 15.346077
_cell_length_c 12.992429
_cell_angle_alpha 151.760588
_cell_angle_beta 143.893261
_cell_angle_gamma 47.036558
_cell_volume 540.425760
_symmetry_space_group_name_H-M "P -1"
_symmetry_group_IT_number 2
_symmetry_cell_setting 'triclinic'
loop_
_space_group_symop_operation_xyz
x,y,z
-x,-y,-z
loop_
_atom_site_type_symbol
_atom_site_label
_atom_site_fract_x
_atom_site_fract_y
_atom_site_fract_z
Si Si1 0.220604 0.442128 0.511557
Si Si2 0.526745 0.807095 0.093951
Si Si3 0.022855 0.742867 0.020955
Si Si4 0.500000 0.000000 0.500000
Si Si5 0.709900 0.016746 0.224199
Si Si6 0.458387 0.309974 0.715031
Si Si7 0.021502 0.390674 0.794984
O O1 0.123513 0.300755 0.216966
O O2 0.384941 0.350661 0.598393
O O3 0.000000 0.500000 0.500000
O O4 0.352832 0.640144 0.763931
O O5 0.618568 0.954900 0.217034
O O6 0.742394 0.701228 0.150086
O O7 0.435855 0.898074 0.235242
O O8 0.022037 0.541715 0.863295
O O9 0.902101 0.882463 0.164851
O O10 0.305575 0.802387 0.242106
O O11 0.298316 0.151943 0.511422
O O12 0.816567 0.227108 0.500258
O O13 0.500000 0.000000 0.000000
O O14 0.500000 0.500000 0.000000
O O15 0.000000 0.500000 0.000000
#
# Coordination Sequence:
#
# PCOD9070552 Si02
#       7
#     2   2   2   1   2   2   2
#     4  12  26  47  78 115 152 203 259 324 387 462
#     4  12  26  48  77 111 155 204 265 316 393 468
#     4  12  26  48  80 109 159 202 257 318 399 456
#     4  12  26  44  76 102 146 206 252 310 384 446
#     4  12  30  49  73 121 157 202 265 324 389 472
#     4  12  24  50  75 108 152 203 255 320 381 465
#     4  12  26  48  80 110 154 208 255 317 396 465
#
# _framework density 24.055107
#
# number of rings (size 3 to 8) (size 9 to 14) (size 15 to 20)
#    0.000    0.000    6.154    2.308    6.462    1.231 
#    2.769    1.538    0.000    0.000    0.000    0.000 
#    0.000    0.000    0.000    0.000    0.000    0.000 
#
# Total GULP energy -72657.022233 kJ/mol
# GULP energy per Si atom -5589.001710 kJ/mol
# Density = 2.400036 g / cm^3
# Si number density = 24.055107 Si / 1000 Ang^3
#
#
#
# Elastic Constant Matrix: (Units=GPa)
#
#
# Indices 1 2 3 4 5 6 
#
# 1 113.2819 38.3450 33.1743 -2.4611 -4.1387 10.6132
# 2 38.3450 132.1945 40.7803 8.5535 0.2040 21.3088
# 3 33.1743 40.7803 162.6126 4.0450 4.7738 6.8039
# 4 -2.4611 8.5535 4.0450 48.6860 6.6397 0.0321
# 5 -4.1387 0.2040 4.7738 6.6397 46.9966 4.5318
# 6 10.6132 21.3088 6.8039 0.0321 4.5318 45.8404
#
#
#
# Elastic Compliance Matrix: (Units=1/GPa)
#
#
# Indices 1 2 3 4 5 6 
#
# 1 0.010238 -0.002385 -0.001496 0.000919 0.001044 -0.001144
# 2 -0.002385 0.009483 -0.001711 -0.001712 0.000517 -0.003652
# 3 -0.001496 -0.001711 0.006906 -0.000238 -0.000811 0.000197
# 4 0.000919 -0.001712 -0.000238 0.021313 -0.002985 0.000899
# 5 0.001044 0.000517 -0.000811 -0.002985 0.022118 -0.002546
# 6 -0.001144 -0.003652 0.000197 0.000899 -0.002546 0.023999
#
#
# Mechanical properties :
#
#
# Convention : Reuss Voigt Hill
#
# Bulk Modulus (GPa) = 64.76024 70.29870 67.52947
# Shear Modulus (GPa) = 45.29435 48.02387 46.65911
#
# Velocity S-wave (km/s) = 4.34399 4.47297 4.40895
# Velocity P-wave (km/s) = 7.22083 7.48091 7.35202
#
# Compressibility (1/GPa) = 0.01544157
#
# Stress axis : x y z
#
# Youngs Moduli (GPa) = 97.67294 105.45193 144.81202
#
# Poissons Ratio (x) = 0.25150 0.21668
# Poissons Ratio (y) = 0.23294 0.24783
# Poissons Ratio (z) = 0.14614 0.18047
#
# Static dielectric constant tensor:
#      x y z
#    x 2.019390 0.064000 0.151140 
#    y 0.064000 1.980280 0.086040 
#    z 0.151140 0.086040 2.062710 
# 
# From -- ./inp_files/400210.got.cif
#   From: 2010.05.17/outbox.cif.g08.bks.cpg/sg2_201_cif.got.tgz:400210.got - 2010.06.03 11:33:40.
