data_PCOD9070957
_publ_section_title
;
Structure prediction by ZEFSAII (Michael W. Deem and Ramdas Pophale) SiO2 
 PCOD9070957
Probable space group: P -1
;
_chemical_formula_sum "Si O2"
_cell_formula_units_Z 10
_cell_length_a 8.319234
_cell_length_b 8.930646
_cell_length_c 8.577401
_cell_angle_alpha 119.170624
_cell_angle_beta 51.645482
_cell_angle_gamma 126.416581
_cell_volume 394.929698
_symmetry_space_group_name_H-M "P -1"
_symmetry_group_IT_number 2
_symmetry_cell_setting 'triclinic'
loop_
_space_group_symop_operation_xyz
x,y,z
-x,-y,-z
loop_
_atom_site_type_symbol
_atom_site_label
_atom_site_fract_x
_atom_site_fract_y
_atom_site_fract_z
Si Si1 0.939627 0.911396 0.661065
Si Si2 0.445415 0.509503 0.353007
Si Si3 0.183374 0.926467 0.906830
Si Si4 0.878088 0.513754 0.923364
Si Si5 0.671064 0.201003 0.624677
O O1 0.171941 0.902567 0.573146
O O2 0.754732 0.695265 0.665334
O O3 0.000000 0.000000 0.500000
O O4 0.833212 0.034485 0.878907
O O5 0.500000 0.500000 0.500000
O O6 0.380994 0.675274 0.413388
O O7 0.656539 0.533393 0.128471
O O8 0.062226 0.704911 0.835945
O O9 0.436215 0.047545 0.758828
O O10 0.000000 0.000000 0.000000
O O11 0.803233 0.346611 0.758332
O O12 0.000000 0.500000 0.000000
#
# Coordination Sequence:
#
# PCOD9070957 Si02
#       5
#     2   2   2   2   2
#     4  12  28  48  76 114 153 197 258 315 375 455
#     4  12  25  48  74 112 154 199 257 313 379 454
#     4  12  26  49  78 112 150 197 258 309 384 453
#     4  12  26  48  80 111 153 204 250 313 385 452
#     4  12  27  53  78 108 159 204 248 321 378 451
#
# _framework density 25.320961
#
# number of rings (size 3 to 8) (size 9 to 14) (size 15 to 20)
#    0.000    0.000    4.000    6.000    2.800    4.000 
#    3.600    0.000    0.000    0.000    0.000    0.000 
#    0.000    0.000    0.000    0.000    0.000    0.000 
#
# Total GULP energy -56080.526431 kJ/mol
# GULP energy per Si atom -5608.052643 kJ/mol
# Density = 2.526333 g / cm^3
# Si number density = 25.320961 Si / 1000 Ang^3
#
#
#
# Elastic Constant Matrix: (Units=GPa)
#
#
# Indices 1 2 3 4 5 6 
#
# 1 122.5484 53.7779 41.1281 -7.3981 -4.9659 1.4084
# 2 53.7779 192.7166 60.5906 -31.4854 -11.0904 38.1691
# 3 41.1281 60.5906 172.8435 -18.0410 -26.0227 22.8969
# 4 -7.3981 -31.4854 -18.0410 48.7706 7.8101 6.8614
# 5 -4.9659 -11.0904 -26.0227 7.8101 54.4880 -3.9863
# 6 1.4084 38.1691 22.8969 6.8614 -3.9863 58.3909
#
#
#
# Elastic Compliance Matrix: (Units=1/GPa)
#
#
# Indices 1 2 3 4 5 6 
#
# 1 0.009950 -0.002943 -0.001850 -0.001405 -0.000187 0.002561
# 2 -0.002943 0.008284 -0.000928 0.005383 -0.000208 -0.005627
# 3 -0.001850 -0.000928 0.007457 0.001755 0.002785 -0.002289
# 4 -0.001405 0.005383 0.001755 0.025844 -0.002438 -0.007377
# 5 -0.000187 -0.000208 0.002785 -0.002438 0.020024 0.000702
# 6 0.002561 -0.005627 -0.002289 -0.007377 0.000702 0.022555
#
#
# Mechanical properties :
#
#
# Convention : Reuss Voigt Hill
#
# Bulk Modulus (GPa) = 70.17725 88.78909 79.48317
# Shear Modulus (GPa) = 45.32892 54.50403 49.91648
#
# Velocity S-wave (km/s) = 4.23563 4.64457 4.44481
# Velocity P-wave (km/s) = 7.19000 7.99401 7.60264
#
# Compressibility (1/GPa) = 0.01424963
#
# Stress axis : x y z
#
# Youngs Moduli (GPa) = 100.49761 120.71774 134.10651
#
# Poissons Ratio (x) = 0.35522 0.24814
# Poissons Ratio (y) = 0.29572 0.12442
# Poissons Ratio (z) = 0.18595 0.11200
#
# Static dielectric constant tensor:
#      x y z
#    x 2.127750 -0.005880 0.111910 
#    y -0.005880 1.908520 0.062420 
#    z 0.111910 0.062420 2.137230 
# 
# From -- ./inp_files/143879.got.cif
#   From: 2010.05.17/outbox.cif.g08.bks.cpg/sg2_72_cif.got.tgz:143879.got - 2010.06.03 11:33:40.
