data_PCOD9070383
_publ_section_title
;
Structure prediction by ZEFSAII (Michael W. Deem and Ramdas Pophale) SiO2 
 PCOD9070383
Probable space group: P -1
;
_chemical_formula_sum "Si O2"
_cell_formula_units_Z 14
_cell_length_a 8.783345
_cell_length_b 15.063710
_cell_length_c 14.139941
_cell_angle_alpha 150.555370
_cell_angle_beta 126.285645
_cell_angle_gamma 74.757189
_cell_volume 571.396319
_symmetry_space_group_name_H-M "P -1"
_symmetry_group_IT_number 2
_symmetry_cell_setting 'triclinic'
loop_
_space_group_symop_operation_xyz
x,y,z
-x,-y,-z
loop_
_atom_site_type_symbol
_atom_site_label
_atom_site_fract_x
_atom_site_fract_y
_atom_site_fract_z
Si Si1 0.131134 0.201235 0.476831
Si Si2 0.290768 0.916897 0.923149
Si Si3 0.364082 0.395281 0.058182
Si Si4 0.978580 0.620722 0.216360
Si Si5 0.880481 0.233629 0.932301
Si Si6 0.419966 0.572476 0.451506
Si Si7 0.501249 0.926376 0.191261
O O1 0.405763 0.391342 0.718192
O O2 0.085793 0.283775 0.632384
O O3 0.087536 0.960772 0.253006
O O4 0.955589 0.186565 0.319458
O O5 0.330146 0.804986 0.921452
O O6 0.372705 0.151097 0.221441
O O7 0.500000 0.000000 0.000000
O O8 0.399957 0.457375 0.238942
O O9 0.130578 0.355592 0.894915
O O10 0.363925 0.181573 0.844533
O O11 0.844536 0.349487 0.939553
O O12 0.274244 0.796120 0.481320
O O13 0.672430 0.134101 0.841297
O O14 0.145964 0.468185 0.282306
O O15 0.500000 0.500000 0.500000
#
# Coordination Sequence:
#
# PCOD9070383 Si02
#       7
#     2   2   2   2   2   2   2
#     4  12  26  49  80 115 154 199 256 318 381 456
#     4  12  24  47  79 110 154 197 256 319 383 449
#     4  12  29  50  78 111 156 210 249 317 382 455
#     4  12  27  57  74 110 162 201 258 312 379 456
#     4  12  27  48  79 116 150 203 255 317 379 454
#     4  12  25  49  73 110 155 196 254 315 382 448
#     4  12  26  48  80 113 152 206 255 316 387 450
#
# _framework density 24.501380999999999
#
# number of rings (size 3 to 8) (size 9 to 14) (size 15 to 20)
#    0.000    0.000    5.714    3.429    2.000    2.857 
#    2.571    0.000    0.000    0.000    0.000    0.000 
#    0.000    0.000    0.000    0.000    0.000    0.000 
#
# Total GULP energy -78445.198102 kJ/mol
# GULP energy per Si atom -5603.228436 kJ/mol
# Density = 2.444562 g / cm^3
# Si number density = 24.501381 Si / 1000 Ang^3
#
#
#
# Elastic Constant Matrix: (Units=GPa)
#
#
# Indices 1 2 3 4 5 6 
#
# 1 148.6214 33.4942 31.8357 -1.7807 1.6191 22.7508
# 2 33.4942 140.9847 20.8795 -0.8580 -17.0068 -6.4412
# 3 31.8357 20.8795 70.1842 2.6546 -0.5209 15.1804
# 4 -1.7807 -0.8580 2.6546 49.5724 3.6343 0.2827
# 5 1.6191 -17.0068 -0.5209 3.6343 23.5576 3.0484
# 6 22.7508 -6.4412 15.1804 0.2827 3.0484 35.7210
#
#
#
# Elastic Compliance Matrix: (Units=1/GPa)
#
#
# Indices 1 2 3 4 5 6 
#
# 1 0.008407 -0.002070 -0.002224 0.000529 -0.001602 -0.004650
# 2 -0.002070 0.008819 -0.002365 -0.000259 0.006057 0.003399
# 3 -0.002224 -0.002365 0.017375 -0.001001 -0.000192 -0.006370
# 4 0.000529 -0.000259 -0.001001 0.020491 -0.003429 0.000172
# 5 -0.001602 0.006057 -0.000192 -0.003429 0.047696 -0.001850
# 6 -0.004650 0.003399 -0.006370 0.000172 -0.001850 0.034433
#
#
# Mechanical properties :
#
#
# Convention : Reuss Voigt Hill
#
# Bulk Modulus (GPa) = 46.98594 59.13435 53.06015
# Shear Modulus (GPa) = 31.71910 40.00892 35.86401
#
# Velocity S-wave (km/s) = 3.60194 4.04533 3.83006
# Velocity P-wave (km/s) = 6.04294 6.78285 6.42356
#
# Compressibility (1/GPa) = 0.02128296
#
# Stress axis : x y z
#
# Youngs Moduli (GPa) = 118.94733 113.38515 57.55517
#
# Poissons Ratio (x) = 0.23476 0.12798
# Poissons Ratio (y) = 0.24627 0.13612
# Poissons Ratio (z) = 0.26449 0.26817
#
# Static dielectric constant tensor:
#      x y z
#    x 1.902330 0.007540 -0.031460 
#    y 0.007540 2.209510 -0.004740 
#    z -0.031460 -0.004740 1.965560 
# 
# From -- ./inp_files/505977.got.cif
#   From: 2010.05.17/outbox.cif.g08.bks.cpg/sg2_253_cif.got.tgz:505977.got - 2010.06.03 11:33:40.
