data_PCOD9070880
_publ_section_title
;
Structure prediction by ZEFSAII (Michael W. Deem and Ramdas Pophale) SiO2 
 PCOD9070880
Probable space group: P -1
;
_chemical_formula_sum "Si O2"
_cell_formula_units_Z 12
_cell_length_a 19.253697
_cell_length_b 9.082273
_cell_length_c 7.663471
_cell_angle_alpha 133.812592
_cell_angle_beta 30.407470
_cell_angle_gamma 132.633474
_cell_volume 477.498471
_symmetry_space_group_name_H-M "P -1"
_symmetry_group_IT_number 2
_symmetry_cell_setting 'triclinic'
loop_
_space_group_symop_operation_xyz
x,y,z
-x,-y,-z
loop_
_atom_site_type_symbol
_atom_site_label
_atom_site_fract_x
_atom_site_fract_y
_atom_site_fract_z
Si Si1 0.984797 0.963812 0.716841
Si Si2 0.772117 0.266528 0.907339
Si Si3 0.545960 0.892108 0.978707
Si Si4 0.389382 0.492422 0.078851
Si Si5 0.703990 0.653620 0.189968
Si Si6 0.113268 0.408499 0.785294
O O1 0.093454 0.837593 0.460663
O O2 0.030221 0.199031 0.884342
O O3 0.000000 0.000000 0.500000
O O4 0.832539 0.837366 0.000502
O O5 0.638166 0.072590 0.043916
O O6 0.753629 0.435154 0.936860
O O7 0.800289 0.416098 0.134216
O O8 0.642055 0.738736 0.568043
O O9 0.404820 0.741296 0.229826
O O10 0.500000 0.000000 0.000000
O O11 0.236722 0.365745 0.360448
O O12 0.500000 0.500000 0.000000
O O13 0.407239 0.395038 0.769681
O O14 0.000000 0.500000 0.000000
#
# Coordination Sequence:
#
# PCOD9070880 Si02
#       6
#     2   2   2   2   2   2
#     4  12  25  47  76 112 143 194 249 302 379 441
#     4  12  26  49  75 108 153 195 246 308 375 442
#     4  12  29  47  74 109 147 199 249 299 376 446
#     4  12  26  48  76 108 150 195 251 308 371 442
#     4  12  27  49  75 108 153 193 249 310 370 446
#     4  12  27  48  77 114 151 193 252 314 370 441
#
# _framework density 25.130970000000001
#
# number of rings (size 3 to 8) (size 9 to 14) (size 15 to 20)
#    0.000    0.000    5.000    4.000    4.667    4.667 
#    0.000    0.000    0.000    0.000    0.000    0.000 
#    0.000    0.000    0.000    0.000    0.000    0.000 
#
# Total GULP energy -67121.158121 kJ/mol
# GULP energy per Si atom -5593.429843 kJ/mol
# Density = 2.507377 g / cm^3
# Si number density = 25.130970 Si / 1000 Ang^3
#
#
#
# Elastic Constant Matrix: (Units=GPa)
#
#
# Indices 1 2 3 4 5 6 
#
# 1 126.0156 33.7331 28.1643 6.5798 -1.0302 13.5918
# 2 33.7331 196.2597 31.2043 -2.6838 -0.9089 20.8029
# 3 28.1643 31.2043 53.2443 10.4832 -15.9175 -2.7066
# 4 6.5798 -2.6838 10.4832 43.2581 0.5645 -4.2709
# 5 -1.0302 -0.9089 -15.9175 0.5645 36.3133 14.8295
# 6 13.5918 20.8029 -2.7066 -4.2709 14.8295 60.6712
#
#
#
# Elastic Compliance Matrix: (Units=1/GPa)
#
#
# Indices 1 2 3 4 5 6 
#
# 1 0.009432 -0.000646 -0.004965 -0.000440 -0.001158 -0.001861
# 2 -0.000646 0.006006 -0.003745 0.001211 -0.000792 -0.001803
# 3 -0.004965 -0.003745 0.028582 -0.006545 0.012314 0.000201
# 4 -0.000440 0.001211 -0.006545 0.025113 -0.004127 0.002168
# 5 -0.001158 -0.000792 0.012314 -0.004127 0.036242 -0.008069
# 6 -0.001861 -0.001803 0.000201 0.002168 -0.008069 0.019651
#
#
# Mechanical properties :
#
#
# Convention : Reuss Voigt Hill
#
# Bulk Modulus (GPa) = 39.51170 62.41365 50.96268
# Shear Modulus (GPa) = 32.85701 46.87639 39.86670
#
# Velocity S-wave (km/s) = 3.61976 4.32358 3.98723
# Velocity P-wave (km/s) = 5.76426 7.05788 6.44362
#
# Compressibility (1/GPa) = 0.02530896
#
# Stress axis : x y z
#
# Youngs Moduli (GPa) = 106.01826 166.50848 34.98663
#
# Poissons Ratio (x) = 0.10756 0.17371
# Poissons Ratio (y) = 0.06848 0.13102
# Poissons Ratio (z) = 0.52637 0.62355
#
# Static dielectric constant tensor:
#      x y z
#    x 2.058940 -0.094920 0.032110 
#    y -0.094920 2.108200 0.069710 
#    z 0.032110 0.069710 2.069280 
# 
# From -- ./inp_files/33207.got.cif
#   From: 2010.05.17/outbox.cif.g08.bks.cpg/sg2_17_cif.got.tgz:33207.got - 2010.06.03 11:33:40.
