data_PCOD9070997
_publ_section_title
;
Structure prediction by ZEFSAII (Michael W. Deem and Ramdas Pophale) SiO2 
 PCOD9070997
Probable space group: P -1
;
_chemical_formula_sum "Si O2"
_cell_formula_units_Z 10
_cell_length_a 9.360648
_cell_length_b 8.822686
_cell_length_c 9.154445
_cell_angle_alpha 43.778646
_cell_angle_beta 72.816062
_cell_angle_gamma 101.685263
_cell_volume 388.438311
_symmetry_space_group_name_H-M "P -1"
_symmetry_group_IT_number 2
_symmetry_cell_setting 'triclinic'
loop_
_space_group_symop_operation_xyz
x,y,z
-x,-y,-z
loop_
_atom_site_type_symbol
_atom_site_label
_atom_site_fract_x
_atom_site_fract_y
_atom_site_fract_z
Si Si1 0.403959 0.917667 0.426853
Si Si2 0.411123 0.429007 0.736407
Si Si3 0.016706 0.918976 0.213349
Si Si4 0.714446 0.472674 0.793516
Si Si5 0.972282 0.235082 0.257819
O O1 0.500000 0.000000 0.500000
O O2 0.333209 0.604460 0.644460
O O3 0.225721 0.920850 0.483740
O O4 0.573262 0.143766 0.107555
O O5 0.500000 0.500000 0.500000
O O6 0.569729 0.527342 0.742786
O O7 0.243642 0.096798 0.036443
O O8 0.963364 0.057846 0.251088
O O9 0.869124 0.592375 0.531461
O O10 0.000000 0.000000 0.000000
O O11 0.846052 0.641989 0.777668
O O12 0.000000 0.500000 0.000000
#
# Coordination Sequence:
#
# PCOD9070997 Si02
#       5
#     2   2   2   2   2
#     4  12  26  48  79 113 151 194 259 313 369 454
#     4  12  27  50  75 113 156 196 251 315 378 450
#     4  12  26  49  76 111 158 197 247 312 379 450
#     4  12  27  48  83 111 149 204 253 310 384 443
#     4  12  25  48  78 113 150 197 256 310 369 454
#
# _framework density 25.744114
#
# number of rings (size 3 to 8) (size 9 to 14) (size 15 to 20)
#    0.000    0.000    6.000    3.000    0.000    6.400 
#    0.000    5.000    0.000    0.000    0.000    0.000 
#    0.000    0.000    0.000    0.000    0.000    0.000 
#
# Total GULP energy -55999.340659 kJ/mol
# GULP energy per Si atom -5599.934066 kJ/mol
# Density = 2.568552 g / cm^3
# Si number density = 25.744114 Si / 1000 Ang^3
#
#
#
# Elastic Constant Matrix: (Units=GPa)
#
#
# Indices 1 2 3 4 5 6 
#
# 1 145.4221 45.9003 42.4662 8.0914 -9.4668 28.4202
# 2 45.9003 51.8300 14.9883 15.1700 6.3716 12.1218
# 3 42.4662 14.9883 243.5203 1.5201 -10.3211 15.7703
# 4 8.0914 15.1700 1.5201 35.8850 11.7842 -0.4823
# 5 -9.4668 6.3716 -10.3211 11.7842 57.0478 -0.7659
# 6 28.4202 12.1218 15.7703 -0.4823 -0.7659 48.8472
#
#
#
# Elastic Compliance Matrix: (Units=1/GPa)
#
#
# Indices 1 2 3 4 5 6 
#
# 1 0.010833 -0.008878 -0.001000 0.000496 0.002456 -0.003733
# 2 -0.008878 0.031211 -0.000262 -0.010257 -0.002923 -0.002643
# 3 -0.001000 -0.000262 0.004374 -0.000076 0.000660 -0.000756
# 4 0.000496 -0.010257 -0.000076 0.034026 -0.005781 0.002526
# 5 0.002456 -0.002923 0.000660 -0.005781 0.019568 -0.000667
# 6 -0.003733 -0.002643 -0.000756 0.002526 -0.000667 0.023558
#
#
# Mechanical properties :
#
#
# Convention : Reuss Voigt Hill
#
# Bulk Modulus (GPa) = 38.25680 71.94244 55.09962
# Shear Modulus (GPa) = 32.77334 50.85051 41.81193
#
# Velocity S-wave (km/s) = 3.57184 4.44918 4.03443
# Velocity P-wave (km/s) = 5.64831 7.37560 6.56897
#
# Compressibility (1/GPa) = 0.02613914
#
# Stress axis : x y z
#
# Youngs Moduli (GPa) = 92.31391 32.03959 228.60743
#
# Poissons Ratio (x) = 0.28445 0.22858
# Poissons Ratio (y) = 0.81958 0.05979
# Poissons Ratio (z) = 0.09230 0.00838
#
# Static dielectric constant tensor:
#      x y z
#    x 2.022650 -0.007560 -0.025410 
#    y -0.007560 2.036090 -0.022100 
#    z -0.025410 -0.022100 2.094670 
# 
# From -- ./inp_files/144113.got.cif
#   From: 2010.05.17/outbox.cif.g08.bks.cpg/sg2_73_cif.got.tgz:144113.got - 2010.06.03 11:33:40.
