data_PCOD9070415
_publ_section_title
;
Structure prediction by ZEFSAII (Michael W. Deem and Ramdas Pophale) SiO2 
 PCOD9070415
Probable space group: P -1
;
_chemical_formula_sum "Si O2"
_cell_formula_units_Z 14
_cell_length_a 8.018412
_cell_length_b 9.346989
_cell_length_c 8.742490
_cell_angle_alpha 71.373476
_cell_angle_beta 120.426618
_cell_angle_gamma 102.945066
_cell_volume 533.842126
_symmetry_space_group_name_H-M "P -1"
_symmetry_group_IT_number 2
_symmetry_cell_setting 'triclinic'
loop_
_space_group_symop_operation_xyz
x,y,z
-x,-y,-z
loop_
_atom_site_type_symbol
_atom_site_label
_atom_site_fract_x
_atom_site_fract_y
_atom_site_fract_z
Si Si1 0.090174 0.207779 0.729001
Si Si2 0.253618 0.586215 0.429389
Si Si3 0.449825 0.205717 0.700629
Si Si4 0.663199 0.939157 0.873587
Si Si5 0.167803 0.058962 0.365675
Si Si6 0.608661 0.368954 0.177989
Si Si7 0.989910 0.625535 0.817740
O O1 0.296278 0.259940 0.732047
O O2 0.946887 0.332792 0.664064
O O3 0.151208 0.116420 0.935953
O O4 0.975206 0.085524 0.607535
O O5 0.596558 0.329572 0.647882
O O6 0.352830 0.593051 0.638875
O O7 0.177236 0.433540 0.359614
O O8 0.321913 0.112520 0.545974
O O9 0.580793 0.079788 0.874049
O O10 0.720934 0.996101 0.712198
O O11 0.513849 0.792152 0.835751
O O12 0.061526 0.207467 0.214995
O O13 0.809973 0.361294 0.185249
O O14 0.500000 0.500000 0.000000
O O15 0.000000 0.500000 0.000000
#
# Coordination Sequence:
#
# PCOD9070415 Si02
#       7
#     2   2   2   2   2   2   2
#     4  12  26  46  80 110 150 195 251 309 377 446
#     4  12  27  52  77 109 155 201 247 315 376 446
#     4  12  26  46  79 112 148 193 255 306 379 443
#     4  12  25  47  77 113 149 194 249 318 370 442
#     4  12  24  48  72 109 150 196 246 307 374 446
#     4  12  26  49  74 106 152 199 254 309 377 444
#     4  12  29  47  75 110 152 200 251 306 379 451
#
# _framework density 26.224981
#
# number of rings (size 3 to 8) (size 9 to 14) (size 15 to 20)
#    0.000    0.000    2.857    7.286    4.000    1.714 
#    2.571    0.000    0.000    0.000    0.000    0.000 
#    0.000    0.000    0.000    0.000    0.000    0.000 
#
# Total GULP energy -78646.050273 kJ/mol
# GULP energy per Si atom -5617.575020 kJ/mol
# Density = 2.616529 g / cm^3
# Si number density = 26.224981 Si / 1000 Ang^3
#
#
#
# Elastic Constant Matrix: (Units=GPa)
#
#
# Indices 1 2 3 4 5 6 
#
# 1 174.1075 46.2651 10.8052 -6.7057 -5.2513 -1.5676
# 2 46.2651 121.6305 -6.8733 -7.6218 16.3205 3.2093
# 3 10.8052 -6.8733 93.1339 -5.3085 5.1641 -10.3540
# 4 -6.7057 -7.6218 -5.3085 45.5214 0.0927 8.0501
# 5 -5.2513 16.3205 5.1641 0.0927 38.5098 4.8318
# 6 -1.5676 3.2093 -10.3540 8.0501 4.8318 25.5090
#
#
#
# Elastic Compliance Matrix: (Units=1/GPa)
#
#
# Indices 1 2 3 4 5 6 
#
# 1 0.006659 -0.002873 -0.001117 0.000409 0.002306 -0.000248
# 2 -0.002873 0.010148 0.001386 0.001529 -0.004825 -0.000459
# 3 -0.001117 0.001386 0.011707 0.000576 -0.002923 0.004881
# 4 0.000409 0.001529 0.000576 0.023667 0.000208 -0.007442
# 5 0.002306 -0.004825 -0.002923 0.000208 0.029482 -0.006088
# 6 -0.000248 -0.000459 0.004881 -0.007442 -0.006088 0.044727
#
#
# Mechanical properties :
#
#
# Convention : Reuss Voigt Hill
#
# Bulk Modulus (GPa) = 42.90839 54.36286 48.63563
# Shear Modulus (GPa) = 35.87653 44.48637 40.18145
#
# Velocity S-wave (km/s) = 3.70270 4.12313 3.91856
# Velocity P-wave (km/s) = 5.88873 6.59100 6.24974
#
# Compressibility (1/GPa) = 0.02330547
#
# Stress axis : x y z
#
# Youngs Moduli (GPa) = 150.16150 98.53984 85.42205
#
# Poissons Ratio (x) = 0.28315 0.09540
# Poissons Ratio (y) = 0.43148 -0.11838
# Poissons Ratio (z) = 0.16771 -0.13656
#
# Static dielectric constant tensor:
#      x y z
#    x 2.092500 -0.027190 0.014960 
#    y -0.027190 2.013660 -0.049580 
#    z 0.014960 -0.049580 2.096410 
# 
# From -- ./inp_files/153569.got.cif
#   From: 2010.05.17/outbox.cif.g08.bks.cpg/sg2_77_cif.got.tgz:153569.got - 2010.06.03 11:33:40.
