data_PCOD9070620
_publ_section_title
;
Structure prediction by ZEFSAII (Michael W. Deem and Ramdas Pophale) SiO2 
 PCOD9070620
Probable space group: P -1
;
_chemical_formula_sum "Si O2"
_cell_formula_units_Z 16
_cell_length_a 9.322999
_cell_length_b 27.120316
_cell_length_c 26.842096
_cell_angle_alpha 169.155920
_cell_angle_beta 38.018816
_cell_angle_gamma 143.557486
_cell_volume 758.313381
_symmetry_space_group_name_H-M "P -1"
_symmetry_group_IT_number 2
_symmetry_cell_setting 'triclinic'
loop_
_space_group_symop_operation_xyz
x,y,z
-x,-y,-z
loop_
_atom_site_type_symbol
_atom_site_label
_atom_site_fract_x
_atom_site_fract_y
_atom_site_fract_z
Si Si1 0.459176 0.235288 0.553057
Si Si2 0.708309 0.151192 0.054737
Si Si3 0.918060 0.219736 0.273312
Si Si4 0.180243 0.350718 0.645695
Si Si5 0.357531 0.712989 0.232907
Si Si6 0.629980 0.061069 0.870764
Si Si7 0.281291 0.661124 0.085498
Si Si8 0.989352 0.739519 0.596778
O O1 0.322154 0.288127 0.593202
O O2 0.738245 0.258426 0.489087
O O3 0.334444 0.937220 0.313128
O O4 0.430253 0.463256 0.826028
O O5 0.806445 0.467772 0.355607
O O6 0.622869 0.105300 0.975689
O O7 0.500000 0.000000 0.000000
O O8 0.922362 0.004423 0.857423
O O9 0.028786 0.254033 0.332044
O O10 0.000000 0.500000 0.500000
O O11 0.629509 0.116861 0.253309
O O12 0.000000 0.000000 0.000000
O O13 0.913405 0.354946 0.739170
O O14 0.185443 0.113122 0.368993
O O15 0.307737 0.645582 0.881091
O O16 0.346350 0.724623 0.187965
O O17 0.500000 0.000000 0.500000
O O18 0.500000 0.500000 0.000000
O O19 0.000000 0.500000 0.000000
#
# Coordination Sequence:
#
# PCOD9070620 Si02
#       8
#     2   2   2   2   2   2   2   2
#     4  12  26  45  75 107 141 181 243 297 344 410
#     4  12  27  48  70 103 147 186 230 292 355 422
#     4  12  25  43  70 104 137 179 236 286 340 420
#     4  12  26  46  74 103 146 182 233 301 349 413
#     4  12  28  46  71 106 146 184 236 287 351 420
#     4  12  26  45  74 102 140 192 232 281 371 415
#     4  12  26  45  76 102 142 194 235 283 355 420
#     4  12  26  45  72 102 140 182 235 290 346 414
#
# _framework density 21.099457000000001
#
# number of rings (size 3 to 8) (size 9 to 14) (size 15 to 20)
#    0.000    0.000    2.500    7.500    3.500    6.000 
#    0.000    0.000    0.000    0.000    0.000    0.000 
#    0.000    0.000    0.000    0.000    0.000    0.000 
#
# Total GULP energy -89690.578744 kJ/mol
# GULP energy per Si atom -5605.661171 kJ/mol
# Density = 2.105143 g / cm^3
# Si number density = 21.099457 Si / 1000 Ang^3
#
#
#
# Elastic Constant Matrix: (Units=GPa)
#
#
# Indices 1 2 3 4 5 6 
#
# 1 74.2963 30.5315 23.9324 3.1056 14.2418 -2.7045
# 2 30.5315 118.4586 49.9844 -0.0192 -5.9097 -8.1003
# 3 23.9324 49.9844 157.6056 4.5788 0.3381 -14.7692
# 4 3.1056 -0.0192 4.5788 53.6019 -4.4620 -6.6615
# 5 14.2418 -5.9097 0.3381 -4.4620 45.9134 -10.3936
# 6 -2.7045 -8.1003 -14.7692 -6.6615 -10.3936 29.7763
#
#
#
# Elastic Compliance Matrix: (Units=1/GPa)
#
#
# Indices 1 2 3 4 5 6 
#
# 1 0.016929 -0.004304 -0.001427 -0.001797 -0.006664 -0.003069
# 2 -0.004304 0.011023 -0.002622 0.001115 0.003511 0.002783
# 3 -0.001427 -0.002622 0.007696 -0.000112 0.000766 0.003217
# 4 -0.001797 0.001115 -0.000112 0.019834 0.003966 0.005906
# 5 -0.006664 0.003511 0.000766 0.003966 0.027194 0.011109
# 6 -0.003069 0.002783 0.003217 0.005906 0.011109 0.040857
#
#
# Mechanical properties :
#
#
# Convention : Reuss Voigt Hill
#
# Bulk Modulus (GPa) = 52.78880 62.13966 57.46423
# Shear Modulus (GPa) = 34.11790 42.25246 38.18518
#
# Velocity S-wave (km/s) = 4.02556 4.47983 4.25876
# Velocity P-wave (km/s) = 6.83229 7.50155 7.17473
#
# Compressibility (1/GPa) = 0.01894341
#
# Stress axis : x y z
#
# Youngs Moduli (GPa) = 59.07185 90.72108 129.93628
#
# Poissons Ratio (x) = 0.39044 0.18539
# Poissons Ratio (y) = 0.25423 0.34063
# Poissons Ratio (z) = 0.08428 0.23783
#
# Static dielectric constant tensor:
#      x y z
#    x 1.703850 0.047770 -0.037370 
#    y 0.047770 1.688330 0.021850 
#    z -0.037370 0.021850 1.672440 
# 
# From -- ./inp_files/223350.got.cif
#   From: 2010.05.17/outbox.cif.g08.bks.cpg/sg2_112_cif.got.tgz:223350.got - 2010.06.03 11:33:40.
