data_PCOD9070132
_publ_section_title
;
Structure prediction by ZEFSAII (Michael W. Deem and Ramdas Pophale) SiO2 
 PCOD9070132
Probable space group: P -1
;
_chemical_formula_sum "Si O2"
_cell_formula_units_Z 14
_cell_length_a 9.570423
_cell_length_b 5.305084
_cell_length_c 10.660541
_cell_angle_alpha 81.673342
_cell_angle_beta 109.443537
_cell_angle_gamma 103.158251
_cell_volume 495.581010
_symmetry_space_group_name_H-M "P -1"
_symmetry_group_IT_number 2
_symmetry_cell_setting 'triclinic'
loop_
_space_group_symop_operation_xyz
x,y,z
-x,-y,-z
loop_
_atom_site_type_symbol
_atom_site_label
_atom_site_fract_x
_atom_site_fract_y
_atom_site_fract_z
Si Si1 0.625084 0.928792 0.131734
Si Si2 0.153622 0.425924 0.595114
Si Si3 0.852834 0.707560 0.108111
Si Si4 0.232614 0.148976 0.426133
Si Si5 0.831311 0.319070 0.749877
Si Si6 0.614313 0.504605 0.833774
Si Si7 0.435532 0.861271 0.634086
O O1 0.786875 0.961982 0.111923
O O2 0.549356 0.626306 0.154706
O O3 0.616596 0.068514 0.248306
O O4 0.500000 0.000000 0.000000
O O5 0.150757 0.422092 0.745108
O O6 0.163110 0.159023 0.545154
O O7 0.304319 0.616905 0.575583
O O8 0.000000 0.500000 0.500000
O O9 0.024384 0.710404 0.121088
O O10 0.735552 0.592385 0.972660
O O11 0.174691 0.394161 0.327112
O O12 0.171298 0.900645 0.339716
O O13 0.403347 0.104599 0.521152
O O14 0.678767 0.288811 0.788525
O O15 0.583665 0.737373 0.718379
#
# Coordination Sequence:
#
# PCOD9070132 Si02
#       7
#     2   2   2   2   2   2   2
#     4  12  25  44  79 116 151 202 258 327 386 460
#     4  12  24  46  78 116 151 196 260 328 383 447
#     4  12  24  49  78 114 152 202 263 326 385 460
#     4  12  26  50  75 116 151 209 258 321 386 458
#     4  12  31  50  78 112 163 209 257 315 391 473
#     4  12  28  51  72 115 158 207 258 315 399 464
#     4  12  24  45  77 114 152 198 264 324 387 454
#
# _framework density 28.249669999999998
#
# number of rings (size 3 to 8) (size 9 to 14) (size 15 to 20)
#    0.000    0.000    7.143    1.714    4.000    3.429 
#    0.000    2.143    0.000    0.000    0.000    0.000 
#    0.000    0.000    0.000    0.000    0.000    0.000 
#
# Total GULP energy -78263.448889 kJ/mol
# GULP energy per Si atom -5590.246349 kJ/mol
# Density = 2.818537 g / cm^3
# Si number density = 28.249670 Si / 1000 Ang^3
#
#
#
# Elastic Constant Matrix: (Units=GPa)
#
#
# Indices 1 2 3 4 5 6 
#
# 1 118.5383 52.8348 16.9410 -18.6825 43.7035 -40.3622
# 2 52.8348 155.2636 77.3449 -0.4993 15.7930 -38.8798
# 3 16.9410 77.3449 161.3878 -17.1503 36.6366 -16.5998
# 4 -18.6825 -0.4993 -17.1503 64.2154 -8.2280 0.5036
# 5 43.7035 15.7930 36.6366 -8.2280 43.5219 -14.6680
# 6 -40.3622 -38.8798 -16.5998 0.5036 -14.6680 65.5144
#
#
#
# Elastic Compliance Matrix: (Units=1/GPa)
#
#
# Indices 1 2 3 4 5 6 
#
# 1 0.021850 -0.007420 0.007575 0.005377 -0.022631 0.005869
# 2 -0.007420 0.012410 -0.007336 -0.002810 0.009641 0.003115
# 3 0.007575 -0.007336 0.012701 0.003629 -0.014893 0.000169
# 4 0.005377 -0.002810 0.003629 0.017616 -0.003553 0.001633
# 5 -0.022631 0.009641 -0.014893 -0.003553 0.054119 0.000150
# 6 0.005869 0.003115 0.000169 0.001633 0.000150 0.020792
#
#
# Mechanical properties :
#
#
# Convention : Reuss Voigt Hill
#
# Bulk Modulus (GPa) = 30.67514 81.04791 55.86153
# Shear Modulus (GPa) = 30.35528 53.85494 42.10511
#
# Velocity S-wave (km/s) = 3.28157 4.37096 3.86484
# Velocity P-wave (km/s) = 5.02398 7.36382 6.30342
#
# Compressibility (1/GPa) = 0.03259969
#
# Stress axis : x y z
#
# Youngs Moduli (GPa) = 45.76602 80.57918 78.73696
#
# Poissons Ratio (x) = 0.59789 -0.59642
# Poissons Ratio (y) = 0.33958 0.57758
# Poissons Ratio (z) = -0.34667 0.59109
#
# Static dielectric constant tensor:
#      x y z
#    x 2.361040 0.095530 -0.118260 
#    y 0.095530 2.300780 -0.091280 
#    z -0.118260 -0.091280 2.246580 
# 
# From -- ./inp_files/410892.got.cif
#   From: 2010.05.17/outbox.cif.g08.bks.cpg/sg2_206_cif.got.tgz:410892.got - 2010.06.03 11:33:40.
