data_PCOD9070449
_publ_section_title
;
Structure prediction by ZEFSAII (Michael W. Deem and Ramdas Pophale) SiO2 
 PCOD9070449
Probable space group: P -1
;
_chemical_formula_sum "Si O2"
_cell_formula_units_Z 14
_cell_length_a 8.822706
_cell_length_b 9.069168
_cell_length_c 13.175400
_cell_angle_alpha 111.845019
_cell_angle_beta 122.955614
_cell_angle_gamma 44.776671
_cell_volume 622.881543
_symmetry_space_group_name_H-M "P -1"
_symmetry_group_IT_number 2
_symmetry_cell_setting 'triclinic'
loop_
_space_group_symop_operation_xyz
x,y,z
-x,-y,-z
loop_
_atom_site_type_symbol
_atom_site_label
_atom_site_fract_x
_atom_site_fract_y
_atom_site_fract_z
Si Si1 0.023545 0.667142 0.011337
Si Si2 0.629719 0.217059 0.662228
Si Si3 0.029621 0.828907 0.394355
Si Si4 0.559263 0.410835 0.164005
Si Si5 0.830306 0.571454 0.552290
Si Si6 0.697894 0.980012 0.137309
Si Si7 0.939972 0.792311 0.793952
O O1 0.298482 0.542313 0.055029
O O2 0.924019 0.832323 0.107255
O O3 0.883971 0.792597 0.891037
O O4 0.000000 0.500000 0.000000
O O5 0.477326 0.431039 0.726316
O O6 0.435741 0.236131 0.529986
O O7 0.798008 0.208816 0.641452
O O8 0.775172 0.018450 0.738749
O O9 0.799610 0.885978 0.263779
O O10 0.144618 0.621892 0.447892
O O11 0.000000 0.000000 0.500000
O O12 0.785536 0.315918 0.152365
O O13 0.610494 0.209148 0.177278
O O14 0.000000 0.500000 0.500000
O O15 0.905165 0.647142 0.687013
O O16 0.500000 0.000000 0.000000
#
# Coordination Sequence:
#
# PCOD9070449 Si02
#       7
#     2   2   2   2   2   2   2
#     4  12  26  47  74 110 149 196 247 304 375 448
#     4  12  26  50  75 109 147 197 253 310 376 446
#     4  12  26  50  81 110 149 203 254 309 378 449
#     4  12  24  48  76 103 154 189 250 299 382 438
#     4  12  26  47  75 109 151 193 252 311 372 445
#     4  12  26  46  77 114 152 192 258 309 369 453
#     4  12  27  47  77 109 151 196 249 309 377 450
#
# _framework density 22.476185000000001
#
# number of rings (size 3 to 8) (size 9 to 14) (size 15 to 20)
#    0.000    0.000    5.714    3.857    0.000    5.714 
#    0.000    0.000    0.000    0.000    0.000    0.000 
#    0.000    0.000    0.000    0.000    0.000    0.000 
#
# Total GULP energy -78249.341686 kJ/mol
# GULP energy per Si atom -5589.238692 kJ/mol
# Density = 2.242503 g / cm^3
# Si number density = 22.476185 Si / 1000 Ang^3
#
#
#
# Elastic Constant Matrix: (Units=GPa)
#
#
# Indices 1 2 3 4 5 6 
#
# 1 85.0822 37.0583 48.8206 -21.1403 1.9661 8.0562
# 2 37.0583 143.0029 40.6899 -7.2365 -14.4877 13.4643
# 3 48.8206 40.6899 124.7641 -20.6311 -8.2393 4.7161
# 4 -21.1403 -7.2365 -20.6311 42.1832 -1.6403 2.1892
# 5 1.9661 -14.4877 -8.2393 -1.6403 46.1801 -7.1602
# 6 8.0562 13.4643 4.7161 2.1892 -7.1602 34.6111
#
#
#
# Elastic Compliance Matrix: (Units=1/GPa)
#
#
# Indices 1 2 3 4 5 6 
#
# 1 0.017786 -0.002830 -0.005110 0.005990 -0.002857 -0.003313
# 2 -0.002830 0.008548 -0.001547 -0.000520 0.002203 -0.001967
# 3 -0.005110 -0.001547 0.011059 0.002629 0.001877 0.000506
# 4 0.005990 -0.000520 0.002629 0.028093 0.000551 -0.003213
# 5 -0.002857 0.002203 0.001877 0.000551 0.023501 0.004379
# 6 -0.003313 -0.001967 0.000506 -0.003213 0.004379 0.031469
#
#
# Mechanical properties :
#
#
# Convention : Reuss Voigt Hill
#
# Bulk Modulus (GPa) = 54.28822 67.33187 60.81005
# Shear Modulus (GPa) = 34.34822 39.68025 37.01424
#
# Velocity S-wave (km/s) = 3.91347 4.20627 4.06251
# Velocity P-wave (km/s) = 6.68030 7.32204 7.00852
#
# Compressibility (1/GPa) = 0.01842020
#
# Stress axis : x y z
#
# Youngs Moduli (GPa) = 56.22459 116.98150 90.42647
#
# Poissons Ratio (x) = 0.33101 0.46206
# Poissons Ratio (y) = 0.15909 0.13988
# Poissons Ratio (z) = 0.28730 0.18096
#
# Static dielectric constant tensor:
#      x y z
#    x 1.858470 -0.022300 0.060780 
#    y -0.022300 1.831050 -0.025670 
#    z 0.060780 -0.025670 1.908660 
# 
# From -- ./inp_files/369312.got.cif
#   From: 2010.05.17/outbox.cif.g08.bks.cpg/sg2_185_cif.got.tgz:369312.got - 2010.06.03 11:33:40.
