data_PCOD9070893
_publ_section_title
;
Structure prediction by ZEFSAII (Michael W. Deem and Ramdas Pophale) SiO2 
 PCOD9070893
Probable space group: P -1
;
_chemical_formula_sum "Si O2"
_cell_formula_units_Z 15
_cell_length_a 12.276765
_cell_length_b 18.433280
_cell_length_c 8.404292
_cell_angle_alpha 126.927612
_cell_angle_beta 67.824201
_cell_angle_gamma 152.614165
_cell_volume 633.262843
_symmetry_space_group_name_H-M "P -1"
_symmetry_group_IT_number 2
_symmetry_cell_setting 'triclinic'
loop_
_space_group_symop_operation_xyz
x,y,z
-x,-y,-z
loop_
_atom_site_type_symbol
_atom_site_label
_atom_site_fract_x
_atom_site_fract_y
_atom_site_fract_z
Si Si1 0.350948 0.724968 0.666789
Si Si2 0.538938 0.045462 0.315103
Si Si3 0.709465 0.501406 0.759260
Si Si4 0.999122 0.571523 0.235519
Si Si5 0.059137 0.308344 0.779682
Si Si6 0.000000 0.000000 0.000000
Si Si7 0.192575 0.942045 0.926773
Si Si8 0.143104 0.155486 0.487903
O O1 0.342757 0.819383 0.724226
O O2 0.296595 0.610316 0.416307
O O3 0.155767 0.573263 0.719267
O O4 0.642472 0.913642 0.820829
O O5 0.613230 0.992031 0.186090
O O6 0.707167 0.201830 0.573332
O O7 0.234110 0.859159 0.239119
O O8 0.447130 0.360915 0.642151
O O9 0.947335 0.713834 0.817730
O O10 0.752131 0.547957 0.983895
O O11 0.862909 0.570631 0.247741
O O12 0.000000 0.500000 0.000000
O O13 0.057148 0.201560 0.598757
O O14 0.898504 0.035400 0.092400
O O15 0.916176 0.926830 0.760097
O O16 0.000000 0.000000 0.500000
#
# Coordination Sequence:
#
# PCOD9070893 Si02
#       8
#     2   2   2   2   2   1   2   2
#     4  12  25  47  77 114 157 207 264 321 399 481
#     4  12  25  49  78 114 161 207 264 325 403 483
#     4  12  26  51  81 112 158 210 273 321 403 485
#     4  12  27  43  69 119 160 202 260 325 409 473
#     4  12  27  49  78 116 159 209 260 343 397 475
#     4  12  28  52  82 116 164 206 270 336 384 484
#     4  12  26  47  81 117 153 208 267 325 397 474
#     4  12  28  54  80 117 158 215 276 328 403 477
#
# _framework density 23.686845999999999
#
# number of rings (size 3 to 8) (size 9 to 14) (size 15 to 20)
#    0.000    0.000    4.000    5.600    1.867    3.733 
#    0.000    0.000    0.000    0.000    0.000    0.000 
#    0.000    0.000    0.000    0.000    0.000    0.000 
#
# Total GULP energy -83858.894494 kJ/mol
# GULP energy per Si atom -5590.592966 kJ/mol
# Density = 2.363293 g / cm^3
# Si number density = 23.686846 Si / 1000 Ang^3
#
#
#
# Elastic Constant Matrix: (Units=GPa)
#
#
# Indices 1 2 3 4 5 6 
#
# 1 199.6196 32.0149 46.9571 -7.0520 -9.9926 -10.3364
# 2 32.0149 70.8780 34.4443 3.5316 5.3845 1.3134
# 3 46.9571 34.4443 167.4197 -12.1205 8.7168 -5.0476
# 4 -7.0520 3.5316 -12.1205 37.9138 3.3176 11.3721
# 5 -9.9926 5.3845 8.7168 3.3176 58.0097 -2.9893
# 6 -10.3364 1.3134 -5.0476 11.3721 -2.9893 24.2669
#
#
#
# Elastic Compliance Matrix: (Units=1/GPa)
#
#
# Indices 1 2 3 4 5 6 
#
# 1 0.005855 -0.002233 -0.001184 0.000022 0.001524 0.002546
# 2 -0.002233 0.016819 -0.002975 -0.002338 -0.001446 -0.001563
# 3 -0.001184 -0.002975 0.007153 0.002494 -0.001154 -0.000166
# 4 0.000022 -0.002338 0.002494 0.032044 -0.002744 -0.014700
# 5 0.001524 -0.001446 -0.001154 -0.002744 0.018172 0.004012
# 6 0.002546 -0.001563 -0.000166 -0.014700 0.004012 0.049726
#
#
# Mechanical properties :
#
#
# Convention : Reuss Voigt Hill
#
# Bulk Modulus (GPa) = 58.67763 73.86110 66.26936
# Shear Modulus (GPa) = 33.73060 45.67149 39.70105
#
# Velocity S-wave (km/s) = 3.77772 4.39582 4.09844
# Velocity P-wave (km/s) = 6.62225 7.55078 7.10171
#
# Compressibility (1/GPa) = 0.01704227
#
# Stress axis : x y z
#
# Youngs Moduli (GPa) = 170.79261 59.45823 139.80758
#
# Poissons Ratio (x) = 0.13280 0.16549
# Poissons Ratio (y) = 0.38146 0.41591
# Poissons Ratio (z) = 0.20217 0.17688
#
# Static dielectric constant tensor:
#      x y z
#    x 1.877800 -0.005630 0.011240 
#    y -0.005630 1.959700 0.010570 
#    z 0.011240 0.010570 1.902460 
# 
# From -- ./inp_files/279842.got.cif
#   From: 2010.05.17/outbox.cif.g08.bks.cpg/sg2_140_cif.got.tgz:279842.got - 2010.06.03 11:33:40.
