data_PCOD9070233
_publ_section_title
;
Structure prediction by ZEFSAII (Michael W. Deem and Ramdas Pophale) SiO2 
 PCOD9070233
Probable space group: P -1
;
_chemical_formula_sum "Si O2"
_cell_formula_units_Z 13
_cell_length_a 11.984824
_cell_length_b 18.156040
_cell_length_c 14.370139
_cell_angle_alpha 158.362709
_cell_angle_beta 33.204724
_cell_angle_gamma 146.394178
_cell_volume 607.444344
_symmetry_space_group_name_H-M "P -1"
_symmetry_group_IT_number 2
_symmetry_cell_setting 'triclinic'
loop_
_space_group_symop_operation_xyz
x,y,z
-x,-y,-z
loop_
_atom_site_type_symbol
_atom_site_label
_atom_site_fract_x
_atom_site_fract_y
_atom_site_fract_z
Si Si1 0.679598 0.021005 0.976148
Si Si2 0.333955 0.556542 0.438605
Si Si3 0.444114 0.628558 0.775135
Si Si4 0.502863 0.290461 0.695529
Si Si5 0.000000 0.500000 0.000000
Si Si6 0.061253 0.814408 0.685777
Si Si7 0.908556 0.105427 0.462504
O O1 0.576469 0.864321 0.946978
O O2 0.732617 0.252418 0.246068
O O3 0.883303 0.959204 0.724596
O O4 0.500000 0.000000 0.000000
O O5 0.489752 0.473566 0.299280
O O6 0.458284 0.633987 0.348841
O O7 0.115478 0.380386 0.378580
O O8 0.500000 0.500000 0.500000
O O9 0.195612 0.594439 0.905016
O O10 0.705838 0.210096 0.486431
O O11 0.294377 0.096472 0.625673
O O12 0.500000 0.500000 0.000000
O O13 0.898811 0.300409 0.761535
O O14 0.049969 0.835560 0.606370
O O15 0.000000 0.000000 0.000000
#
# Coordination Sequence:
#
# PCOD9070233 Si02
#       7
#     2   2   2   2   1   2   2
#     4  12  24  46  76 110 151 199 252 309 391 474
#     4  12  25  46  78 103 152 196 257 318 385 459
#     4  12  24  48  70 111 149 205 248 315 388 467
#     4  12  28  48  72 115 154 199 268 327 382 462
#     4  12  26  42  78 108 152 198 252 310 402 460
#     4  12  26  49  79 108 153 211 265 320 394 464
#     4  12  26  47  76 114 157 200 256 327 395 464
#
# _framework density 21.401138
#
# number of rings (size 3 to 8) (size 9 to 14) (size 15 to 20)
#    0.000    0.000    4.615    4.615    4.308    1.231 
#    0.000    3.077    0.000    0.000    0.000    0.000 
#    0.000    0.000    0.000    0.000    0.000    0.000 
#
# Total GULP energy -72469.456916 kJ/mol
# GULP energy per Si atom -5574.573609 kJ/mol
# Density = 2.135243 g / cm^3
# Si number density = 21.401138 Si / 1000 Ang^3
#
#
#
# Elastic Constant Matrix: (Units=GPa)
#
#
# Indices 1 2 3 4 5 6 
#
# 1 93.0214 -2.0248 30.3294 0.0377 -8.0902 -13.2882
# 2 -2.0248 109.4715 20.1234 20.1686 0.6046 15.5649
# 3 30.3294 20.1234 124.9918 14.3757 18.0001 5.8385
# 4 0.0377 20.1686 14.3757 32.8195 -2.6942 14.0584
# 5 -8.0902 0.6046 18.0001 -2.6942 38.3767 2.9258
# 6 -13.2882 15.5649 5.8385 14.0584 2.9258 38.1706
#
#
#
# Elastic Compliance Matrix: (Units=1/GPa)
#
#
# Indices 1 2 3 4 5 6 
#
# 1 0.013141 0.000309 -0.004067 -0.000120 0.004300 0.004786
# 2 0.000309 0.010590 -0.001131 -0.005053 0.000241 -0.002196
# 3 -0.004067 -0.001131 0.010545 -0.004171 -0.006035 -0.000569
# 4 -0.000120 -0.005053 -0.004171 0.041490 0.005920 -0.013078
# 5 0.004300 0.000241 -0.006035 0.005920 0.030373 -0.002187
# 6 0.004786 -0.002196 -0.000569 -0.013078 -0.002187 0.033831
#
#
# Mechanical properties :
#
#
# Convention : Reuss Voigt Hill
#
# Bulk Modulus (GPa) = 40.82188 47.14897 43.98542
# Shear Modulus (GPa) = 31.66278 40.47713 36.06996
#
# Velocity S-wave (km/s) = 3.85059 4.35369 4.10984
# Velocity P-wave (km/s) = 6.23582 6.88126 6.56647
#
# Compressibility (1/GPa) = 0.02449667
#
# Stress axis : x y z
#
# Youngs Moduli (GPa) = 76.09968 94.42771 94.83256
#
# Poissons Ratio (x) = -0.02915 0.38570
# Poissons Ratio (y) = -0.02349 0.10725
# Poissons Ratio (z) = 0.30951 0.10679
#
# Static dielectric constant tensor:
#      x y z
#    x 1.775760 0.071480 -0.119140 
#    y 0.071480 1.928430 0.170860 
#    z -0.119140 0.170860 1.603320 
# 
# From -- ./inp_files/523505.got.cif
#   From: 2010.05.17/outbox.cif.g08.bks.cpg/sg2_262_cif.got.tgz:523505.got - 2010.06.03 11:33:40.
