data_PCOD9070709
_publ_section_title
;
Structure prediction by ZEFSAII (Michael W. Deem and Ramdas Pophale) SiO2 
 PCOD9070709
Probable space group: P -1
;
_chemical_formula_sum "Si O2"
_cell_formula_units_Z 16
_cell_length_a 12.481725
_cell_length_b 6.640309
_cell_length_c 11.758105
_cell_angle_alpha 79.941821
_cell_angle_beta 49.697521
_cell_angle_gamma 87.007764
_cell_volume 729.401833
_symmetry_space_group_name_H-M "P -1"
_symmetry_group_IT_number 2
_symmetry_cell_setting 'triclinic'
loop_
_space_group_symop_operation_xyz
x,y,z
-x,-y,-z
loop_
_atom_site_type_symbol
_atom_site_label
_atom_site_fract_x
_atom_site_fract_y
_atom_site_fract_z
Si Si1 0.637020 0.567443 0.224168
Si Si2 0.125865 0.799064 0.202087
Si Si3 0.160971 0.043487 0.922083
Si Si4 0.644936 0.144010 0.381648
Si Si5 0.654556 0.234975 0.612066
Si Si6 0.763305 0.912284 0.719407
Si Si7 0.118510 0.402466 0.505142
Si Si8 0.649124 0.519890 0.957867
O O1 0.775764 0.720506 0.134746
O O2 0.622058 0.376557 0.338191
O O3 0.500555 0.696608 0.310652
O O4 0.638135 0.483945 0.102950
O O5 0.241684 0.633493 0.150133
O O6 0.969471 0.685890 0.316446
O O7 0.127227 0.935798 0.301799
O O8 0.168349 0.935088 0.050340
O O9 0.255301 0.941939 0.773064
O O10 0.000000 0.000000 0.000000
O O11 0.708722 0.150802 0.463746
O O12 0.500000 0.000000 0.500000
O O13 0.757973 0.427749 0.562392
O O14 0.653930 0.056842 0.723941
O O15 0.820169 0.775524 0.593645
O O16 0.704303 0.752330 0.870001
O O17 0.000000 0.500000 0.500000
O O18 0.500000 0.500000 0.000000
#
# Coordination Sequence:
#
# PCOD9070709 Si02
#       8
#     2   2   2   2   2   2   2   2
#     4  12  27  51  74 110 147 197 262 307 375 451
#     4  12  26  48  70 109 155 194 246 309 376 453
#     4  12  30  49  77 111 150 205 254 314 382 442
#     4  12  29  51  79 106 152 200 260 315 371 449
#     4  12  29  45  79 109 147 199 251 313 375 446
#     4  12  25  45  74 110 148 195 244 307 383 441
#     4  12  26  45  70 112 151 190 243 299 377 456
#     4  12  26  43  75 107 153 193 244 308 375 452
#
# _framework density 21.935782
#
# number of rings (size 3 to 8) (size 9 to 14) (size 15 to 20)
#    0.000    0.000    6.250    2.250    8.750    2.500 
#    0.000    0.000    0.000    0.000    0.000    0.000 
#    0.000    0.000    0.000    0.000    0.000    0.000 
#
# Total GULP energy -89561.465407 kJ/mol
# GULP energy per Si atom -5597.591588 kJ/mol
# Density = 2.188585 g / cm^3
# Si number density = 21.935782 Si / 1000 Ang^3
#
#
#
# Elastic Constant Matrix: (Units=GPa)
#
#
# Indices 1 2 3 4 5 6 
#
# 1 97.4234 43.0220 20.5513 -9.4796 -7.8363 15.0026
# 2 43.0220 101.4604 25.5677 -12.8131 -2.3710 8.8846
# 3 20.5513 25.5677 97.2687 -5.8843 3.1728 4.9597
# 4 -9.4796 -12.8131 -5.8843 53.8599 2.7552 8.6273
# 5 -7.8363 -2.3710 3.1728 2.7552 43.8957 -2.5594
# 6 15.0026 8.8846 4.9597 8.6273 -2.5594 34.0406
#
#
#
# Elastic Compliance Matrix: (Units=1/GPa)
#
#
# Indices 1 2 3 4 5 6 
#
# 1 0.013752 -0.004784 -0.001347 0.001829 0.001891 -0.004937
# 2 -0.004784 0.012833 -0.002143 0.002231 -0.000234 -0.001512
# 3 -0.001347 -0.002143 0.011248 0.000666 -0.001255 -0.000749
# 4 0.001829 0.002231 0.000666 0.020650 -0.001295 -0.006816
# 5 0.001891 -0.000234 -0.001255 -0.001295 0.023365 0.001495
# 6 -0.004937 -0.001512 -0.000749 -0.006816 0.001495 0.033896
#
#
# Mechanical properties :
#
#
# Convention : Reuss Voigt Hill
#
# Bulk Modulus (GPa) = 46.98191 52.71495 49.84843
# Shear Modulus (GPa) = 35.87100 40.16002 38.01551
#
# Velocity S-wave (km/s) = 4.04824 4.28343 4.16749
# Velocity P-wave (km/s) = 6.58144 6.96759 6.77727
#
# Compressibility (1/GPa) = 0.02128479
#
# Stress axis : x y z
#
# Youngs Moduli (GPa) = 72.71825 77.92241 88.90370
#
# Poissons Ratio (x) = 0.37279 0.11978
# Poissons Ratio (y) = 0.34789 0.19050
# Poissons Ratio (z) = 0.09797 0.16697
#
# Static dielectric constant tensor:
#      x y z
#    x 1.796600 0.054480 -0.016260 
#    y 0.054480 1.878980 -0.033500 
#    z -0.016260 -0.033500 1.838860 
# 
# From -- ./inp_files/410213.got.cif
#   From: 2010.05.17/outbox.cif.g08.bks.cpg/sg2_206_cif.got.tgz:410213.got - 2010.06.03 11:33:40.
