data_PCOD9070193
_publ_section_title
;
Structure prediction by ZEFSAII (Michael W. Deem and Ramdas Pophale) SiO2 
 PCOD9070193
Probable space group: P -1
;
_chemical_formula_sum "Si O2"
_cell_formula_units_Z 16
_cell_length_a 8.759466
_cell_length_b 20.101930
_cell_length_c 22.934775
_cell_angle_alpha 23.098214
_cell_angle_beta 147.783886
_cell_angle_gamma 150.193610
_cell_volume 763.387833
_symmetry_space_group_name_H-M "P -1"
_symmetry_group_IT_number 2
_symmetry_cell_setting 'triclinic'
loop_
_space_group_symop_operation_xyz
x,y,z
-x,-y,-z
loop_
_atom_site_type_symbol
_atom_site_label
_atom_site_fract_x
_atom_site_fract_y
_atom_site_fract_z
Si Si1 0.236265 0.108471 0.437381
Si Si2 0.948708 0.173622 0.620865
Si Si3 0.128657 0.872781 0.982134
Si Si4 0.041607 0.213983 0.480691
Si Si5 0.201124 0.496696 0.123157
Si Si6 0.086651 0.201498 0.893949
Si Si7 0.218662 0.559102 0.465671
Si Si8 0.833129 0.490033 0.127751
O O1 0.581868 0.124986 0.547793
O O2 0.266388 0.316245 0.279764
O O3 0.000000 0.000000 0.500000
O O4 0.097557 0.989531 0.429998
O O5 0.032078 0.199019 0.559144
O O6 0.152757 0.369159 0.562105
O O7 0.990430 0.000095 0.801740
O O8 0.995502 0.824577 0.043247
O O9 0.046466 0.681142 0.075980
O O10 0.500000 0.000000 0.000000
O O11 0.409577 0.333040 0.485868
O O12 0.833829 0.319941 0.304444
O O13 0.539622 0.673108 0.094528
O O14 0.995768 0.478282 0.129244
O O15 0.000000 0.500000 0.000000
O O16 0.893822 0.306987 0.716504
O O17 0.000000 0.000000 0.000000
O O18 0.000000 0.500000 0.500000
O O19 0.500000 0.500000 0.000000
#
# Coordination Sequence:
#
# PCOD9070193 Si02
#       8
#     2   2   2   2   2   2   2   2
#     4  12  26  48  71 105 142 186 243 290 353 420
#     4  12  26  46  72 105 142 187 239 295 352 418
#     4  12  26  46  72 104 146 184 236 292 355 422
#     4  12  26  45  74 103 142 187 236 292 355 421
#     4  12  28  46  74 105 143 188 236 295 354 425
#     4  12  26  47  73 107 144 186 235 291 357 419
#     4  12  24  46  74 105 143 183 239 295 351 422
#     4  12  26  47  70 104 143 185 233 291 360 422
#
# _framework density 20.959201
#
# number of rings (size 3 to 8) (size 9 to 14) (size 15 to 20)
#    0.000    0.000    2.500    7.500    7.000    0.000 
#    0.000    0.000    0.000    0.000    0.000    0.000 
#    0.000    0.000    0.000    0.000    0.000    0.000 
#
# Total GULP energy -89674.306759 kJ/mol
# GULP energy per Si atom -5604.644172 kJ/mol
# Density = 2.091150 g / cm^3
# Si number density = 20.959201 Si / 1000 Ang^3
#
#
#
# Elastic Constant Matrix: (Units=GPa)
#
#
# Indices 1 2 3 4 5 6 
#
# 1 108.1667 25.0340 77.4828 -0.0181 -0.5228 -15.3289
# 2 25.0340 128.5150 30.4804 -11.5596 18.9768 -2.3936
# 3 77.4828 30.4804 126.5679 -0.9037 -7.4413 -9.0968
# 4 -0.0181 -11.5596 -0.9037 46.2764 -3.6105 16.6903
# 5 -0.5228 18.9768 -7.4413 -3.6105 37.0474 -0.0277
# 6 -15.3289 -2.3936 -9.0968 16.6903 -0.0277 53.1412
#
#
#
# Elastic Compliance Matrix: (Units=1/GPa)
#
#
# Indices 1 2 3 4 5 6 
#
# 1 0.017281 -0.000809 -0.010218 -0.001885 -0.001575 0.003790
# 2 -0.000809 0.009361 -0.002100 0.002220 -0.005012 -0.000871
# 3 -0.010218 -0.002100 0.014854 0.000280 0.003942 -0.000585
# 4 -0.001885 0.002220 0.000280 0.025280 0.001350 -0.008335
# 5 -0.001575 -0.005012 0.003942 0.001350 0.030461 -0.000413
# 6 0.003790 -0.000871 -0.000585 -0.008335 -0.000413 0.022389
#
#
# Mechanical properties :
#
#
# Convention : Reuss Voigt Hill
#
# Bulk Modulus (GPa) = 65.61537 69.91599 67.76568
# Shear Modulus (GPa) = 33.12149 42.64316 37.88232
#
# Velocity S-wave (km/s) = 3.97959 4.51552 4.25600
# Velocity P-wave (km/s) = 7.24503 7.78570 7.52022
#
# Compressibility (1/GPa) = 0.01524033
#
# Stress axis : x y z
#
# Youngs Moduli (GPa) = 57.86795 106.83132 67.32414
#
# Poissons Ratio (x) = 0.08645 0.68790
# Poissons Ratio (y) = 0.04683 0.14140
# Poissons Ratio (z) = 0.59128 0.22438
#
# Static dielectric constant tensor:
#      x y z
#    x 1.721090 -0.001470 -0.006940 
#    y -0.001470 1.717320 0.000350 
#    z -0.006940 0.000350 1.709450 
# 
# From -- ./inp_files/186732.got.cif
#   From: 2010.05.17/outbox.cif.g08.bks.cpg/sg2_94_cif.got.tgz:186732.got - 2010.06.03 11:33:40.
