data_PCOD9070197
_publ_section_title
;
Structure prediction by ZEFSAII (Michael W. Deem and Ramdas Pophale) SiO2 
 PCOD9070197
Probable space group: P -1
;
_chemical_formula_sum "Si O2"
_cell_formula_units_Z 15
_cell_length_a 7.463122
_cell_length_b 11.737695
_cell_length_c 6.765682
_cell_angle_alpha 89.232828
_cell_angle_beta 98.468913
_cell_angle_gamma 112.723658
_cell_volume 540.092767
_symmetry_space_group_name_H-M "P -1"
_symmetry_group_IT_number 2
_symmetry_cell_setting 'triclinic'
loop_
_space_group_symop_operation_xyz
x,y,z
-x,-y,-z
loop_
_atom_site_type_symbol
_atom_site_label
_atom_site_fract_x
_atom_site_fract_y
_atom_site_fract_z
Si Si1 0.250757 0.166793 0.610613
Si Si2 0.159661 0.219136 0.218866
Si Si3 0.098685 0.975511 0.172441
Si Si4 0.665282 0.590682 0.379081
Si Si5 0.000000 0.500000 0.500000
Si Si6 0.207185 0.713483 0.810770
Si Si7 0.502485 0.382898 0.986487
Si Si8 0.472723 0.992727 0.729522
O O1 0.194106 0.096749 0.368039
O O2 0.352037 0.079756 0.732309
O O3 0.399016 0.301914 0.753701
O O4 0.040933 0.123189 0.691648
O O5 0.036763 0.091204 0.062878
O O6 0.240352 0.282976 0.453082
O O7 0.350155 0.286962 0.114120
O O8 0.000478 0.283895 0.158524
O O9 0.305983 0.965336 0.153632
O O10 0.500000 0.500000 0.500000
O O11 0.572063 0.513694 0.148477
O O12 0.867616 0.571641 0.400147
O O13 0.168886 0.632222 0.608502
O O14 0.298000 0.644556 0.980098
O O15 0.350513 0.853157 0.781380
O O16 0.500000 0.000000 0.500000
#
# Coordination Sequence:
#
# PCOD9070197 Si02
#       8
#     2   2   2   2   1   2   2   2
#     4  12  25  45  77 111 147 201 249 302 377 447
#     4  12  24  46  74 107 149 194 246 310 371 446
#     4  12  26  44  73 110 151 190 246 314 369 441
#     4  12  29  49  75 111 153 195 253 312 368 451
#     4  12  28  46  76 110 144 194 256 304 368 446
#     4  12  26  47  76 109 150 198 254 304 384 441
#     4  12  26  47  74 105 149 197 246 311 377 441
#     4  12  25  44  77 107 147 198 243 303 376 448
#
# _framework density 27.773007
#
# number of rings (size 3 to 8) (size 9 to 14) (size 15 to 20)
#    0.000    0.000    6.667    2.800    1.867    3.200 
#    0.000    0.000    0.000    0.000    0.000    0.000 
#    0.000    0.000    0.000    0.000    0.000    0.000 
#
# Total GULP energy -83650.368398 kJ/mol
# GULP energy per Si atom -5576.691227 kJ/mol
# Density = 2.770979 g / cm^3
# Si number density = 27.773007 Si / 1000 Ang^3
#
#
#
# Elastic Constant Matrix: (Units=GPa)
#
#
# Indices 1 2 3 4 5 6 
#
# 1 156.5693 72.4725 78.2318 0.5780 49.9021 -18.3917
# 2 72.4725 201.5398 47.9403 39.8623 15.7925 -37.1627
# 3 78.2318 47.9403 227.0837 6.4915 55.0539 -31.8152
# 4 0.5780 39.8623 6.4915 75.3497 2.7737 -5.5234
# 5 49.9021 15.7925 55.0539 2.7737 62.9352 8.2701
# 6 -18.3917 -37.1627 -31.8152 -5.5234 8.2701 39.6583
#
#
#
# Elastic Compliance Matrix: (Units=1/GPa)
#
#
# Indices 1 2 3 4 5 6 
#
# 1 0.011098 -0.002902 -0.000830 0.002085 -0.007924 0.003704
# 2 -0.002902 0.007767 0.000456 -0.003667 -0.000664 0.005926
# 3 -0.000830 0.000456 0.007247 -0.000079 -0.006745 0.007252
# 4 0.002085 -0.003667 -0.000079 0.015241 -0.001317 -0.000136
# 5 -0.007924 -0.000664 -0.006745 -0.001317 0.030431 -0.016238
# 6 0.003704 0.005926 0.007252 -0.000136 -0.016238 0.041671
#
#
# Mechanical properties :
#
#
# Convention : Reuss Voigt Hill
#
# Bulk Modulus (GPa) = 51.12463 109.16468 80.14465
# Shear Modulus (GPa) = 39.51760 61.35850 50.43805
#
# Velocity S-wave (km/s) = 3.77620 4.70540 4.26617
# Velocity P-wave (km/s) = 6.12053 8.30135 7.29292
#
# Compressibility (1/GPa) = 0.01956005
#
# Stress axis : x y z
#
# Youngs Moduli (GPa) = 90.10767 128.75317 137.99097
#
# Poissons Ratio (x) = 0.37359 0.11457
# Poissons Ratio (y) = 0.26145 -0.06294
# Poissons Ratio (z) = 0.07481 -0.05872
#
# Static dielectric constant tensor:
#      x y z
#    x 1.970070 -0.040360 0.061070 
#    y -0.040360 2.128580 0.229090 
#    z 0.061070 0.229090 2.390580 
# 
# From -- ./inp_files/197546.got.cif
#   From: 2010.05.17/outbox.cif.g08.bks.cpg/sg2_99_cif.got.tgz:197546.got - 2010.06.03 11:33:40.
