data_PCOD9070905
_publ_section_title
;
Structure prediction by ZEFSAII (Michael W. Deem and Ramdas Pophale) SiO2 
 PCOD9070905
Probable space group: P -1
;
_chemical_formula_sum "Si O2"
_cell_formula_units_Z 16
_cell_length_a 11.377039
_cell_length_b 8.858368
_cell_length_c 15.317163
_cell_angle_alpha 69.655581
_cell_angle_beta 38.336059
_cell_angle_gamma 49.798637
_cell_volume 689.108268
_symmetry_space_group_name_H-M "P -1"
_symmetry_group_IT_number 2
_symmetry_cell_setting 'triclinic'
loop_
_space_group_symop_operation_xyz
x,y,z
-x,-y,-z
loop_
_atom_site_type_symbol
_atom_site_label
_atom_site_fract_x
_atom_site_fract_y
_atom_site_fract_z
Si Si1 0.565092 0.476684 0.787075
Si Si2 0.776465 0.058291 0.059525
Si Si3 0.008976 0.628289 0.544836
Si Si4 0.938639 0.112515 0.777887
Si Si5 0.508192 0.094626 0.751061
Si Si6 0.425878 0.725777 0.481558
Si Si7 0.109377 0.361892 0.705578
Si Si8 0.178854 0.430546 0.991865
O O1 0.466263 0.699008 0.836987
O O2 0.714266 0.298388 0.810656
O O3 0.315985 0.525802 0.893090
O O4 0.748326 0.403409 0.614683
O O5 0.689016 0.928937 0.164550
O O6 0.855795 0.034927 0.917376
O O7 0.000000 0.000000 0.000000
O O8 0.000000 0.500000 0.500000
O O9 0.023678 0.523271 0.645683
O O10 0.773566 0.870134 0.635436
O O11 0.046226 0.213381 0.744549
O O12 0.149037 0.916760 0.635130
O O13 0.523589 0.244949 0.652719
O O14 0.409327 0.186819 0.886728
O O15 0.500000 0.500000 0.500000
O O16 0.603823 0.751220 0.425943
O O17 0.965300 0.498225 0.848437
O O18 0.000000 0.500000 0.000000
#
# Coordination Sequence:
#
# PCOD9070905 Si02
#       8
#     2   2   2   2   2   2   2   2
#     4  12  26  49  80 110 159 199 257 321 384 469
#     4  12  26  43  79 116 150 203 257 316 384 452
#     4  12  25  47  78 117 151 196 256 321 382 456
#     4  12  26  50  78 117 149 202 264 319 391 458
#     4  12  26  50  74 107 160 197 255 314 384 459
#     4  12  29  49  76 111 158 204 257 316 388 467
#     4  12  26  48  80 110 159 200 257 323 381 459
#     4  12  28  49  74 109 160 204 255 318 384 462
#
# _framework density 23.218412000000001
#
# number of rings (size 3 to 8) (size 9 to 14) (size 15 to 20)
#    0.000    0.000    6.250    2.250    7.000    2.000 
#    0.000    0.000    0.000    0.000    0.000    0.000 
#    0.000    0.000    0.000    0.000    0.000    0.000 
#
# Total GULP energy -89584.941138 kJ/mol
# GULP energy per Si atom -5599.058821 kJ/mol
# Density = 2.316557 g / cm^3
# Si number density = 23.218412 Si / 1000 Ang^3
#
#
#
# Elastic Constant Matrix: (Units=GPa)
#
#
# Indices 1 2 3 4 5 6 
#
# 1 80.5813 17.5710 42.2580 -6.5935 6.1037 -0.6262
# 2 17.5710 89.5996 56.1464 2.2163 14.4834 -18.6429
# 3 42.2580 56.1464 174.6380 -0.2266 12.7096 -14.4075
# 4 -6.5935 2.2163 -0.2266 50.9834 0.8950 -0.6956
# 5 6.1037 14.4834 12.7096 0.8950 39.1880 -3.4665
# 6 -0.6262 -18.6429 -14.4075 -0.6956 -3.4665 23.1155
#
#
#
# Elastic Compliance Matrix: (Units=1/GPa)
#
#
# Indices 1 2 3 4 5 6 
#
# 1 0.014620 -0.001267 -0.003281 0.001912 -0.001033 -0.002768
# 2 -0.001267 0.016644 -0.003917 -0.000698 -0.003751 0.010364
# 3 -0.003281 -0.003917 0.007948 -0.000188 -0.000470 0.001629
# 4 0.001912 -0.000698 -0.000188 0.019897 -0.000442 -0.000096
# 5 -0.001033 -0.003751 -0.000470 -0.000442 0.027293 0.000733
# 6 -0.002768 0.010364 0.001629 -0.000096 0.000733 0.052667
#
#
# Mechanical properties :
#
#
# Convention : Reuss Voigt Hill
#
# Bulk Modulus (GPa) = 44.88218 64.08553 54.48385
# Shear Modulus (GPa) = 30.59462 37.91361 34.25412
#
# Velocity S-wave (km/s) = 3.63394 4.04531 3.84513
# Velocity P-wave (km/s) = 6.08109 7.03424 6.57496
#
# Compressibility (1/GPa) = 0.02228056
#
# Stress axis : x y z
#
# Youngs Moduli (GPa) = 68.39990 60.08151 125.82012
#
# Poissons Ratio (x) = 0.07615 0.41280
# Poissons Ratio (y) = 0.08669 0.49288
# Poissons Ratio (z) = 0.22441 0.23536
#
# Static dielectric constant tensor:
#      x y z
#    x 1.921990 0.041520 -0.021900 
#    y 0.041520 1.815700 0.002700 
#    z -0.021900 0.002700 1.847370 
# 
# From -- ./inp_files/515301.got.cif
#   From: 2010.05.17/outbox.cif.g08.bks.cpg/sg2_258_cif.got.tgz:515301.got - 2010.06.03 11:33:40.
