data_PCOD9070416
_publ_section_title
;
Structure prediction by ZEFSAII (Michael W. Deem and Ramdas Pophale) SiO2 
 PCOD9070416
Probable space group: P -1
;
_chemical_formula_sum "Si O2"
_cell_formula_units_Z 13
_cell_length_a 11.046551
_cell_length_b 10.420738
_cell_length_c 11.787201
_cell_angle_alpha 118.472090
_cell_angle_beta 61.418878
_cell_angle_gamma 154.977844
_cell_volume 500.549057
_symmetry_space_group_name_H-M "P -1"
_symmetry_group_IT_number 2
_symmetry_cell_setting 'triclinic'
loop_
_space_group_symop_operation_xyz
x,y,z
-x,-y,-z
loop_
_atom_site_type_symbol
_atom_site_label
_atom_site_fract_x
_atom_site_fract_y
_atom_site_fract_z
Si Si1 0.075051 0.222095 0.224710
Si Si2 0.500000 0.500000 0.500000
Si Si3 0.733126 0.107120 0.494873
Si Si4 0.768759 0.491949 0.949887
Si Si5 0.661281 0.136270 0.104664
Si Si6 0.602044 0.571954 0.224267
Si Si7 0.771885 0.474353 0.385021
O O1 0.089751 0.270760 0.106543
O O2 0.405127 0.515865 0.236378
O O3 0.911845 0.197469 0.353652
O O4 0.923219 0.933009 0.213411
O O5 0.498853 0.455937 0.348558
O O6 0.805487 0.678695 0.450183
O O7 0.982375 0.377555 0.588776
O O8 0.500000 0.000000 0.500000
O O9 0.535428 0.813337 0.532552
O O10 0.033984 0.658452 0.960546
O O11 0.555265 0.171806 0.857831
O O12 0.584499 0.413146 0.088027
O O13 0.721995 0.338232 0.234866
O O14 0.500000 0.000000 0.000000
#
# Coordination Sequence:
#
# PCOD9070416 Si02
#       7
#     2   1   2   2   2   2   2
#     4  12  24  48  72 115 152 198 264 316 395 465
#     4  12  26  50  76 114 158 204 262 320 400 470
#     4  12  25  47  74 114 156 203 255 322 398 467
#     4  12  26  48  78 111 153 208 258 330 388 471
#     4  12  27  50  74 114 153 206 266 316 400 466
#     4  12  26  46  76 111 155 202 259 322 390 466
#     4  12  27  47  77 114 156 204 258 325 391 468
#
# _framework density 25.97148
#
# number of rings (size 3 to 8) (size 9 to 14) (size 15 to 20)
#    0.000    0.000    3.077    6.462    0.000    6.154 
#    0.000    0.000    0.000    0.000    0.000    0.000 
#    0.000    0.000    0.000    0.000    0.000    0.000 
#
# Total GULP energy -72563.558487 kJ/mol
# GULP energy per Si atom -5581.812191 kJ/mol
# Density = 2.591237 g / cm^3
# Si number density = 25.971480 Si / 1000 Ang^3
#
#
#
# Elastic Constant Matrix: (Units=GPa)
#
#
# Indices 1 2 3 4 5 6 
#
# 1 93.4023 19.5082 66.9197 -5.5412 -6.7905 40.9536
# 2 19.5082 102.6717 27.1806 3.9874 -5.9125 15.4761
# 3 66.9197 27.1806 216.8154 -11.4553 -7.5511 21.3053
# 4 -5.5412 3.9874 -11.4553 35.3309 7.6396 -6.9127
# 5 -6.7905 -5.9125 -7.5511 7.6396 43.5428 1.4579
# 6 40.9536 15.4761 21.3053 -6.9127 1.4579 54.6656
#
#
#
# Elastic Compliance Matrix: (Units=1/GPa)
#
#
# Indices 1 2 3 4 5 6 
#
# 1 0.020324 -0.000289 -0.004890 -0.001667 0.003028 -0.013530
# 2 -0.000289 0.010688 -0.001051 -0.002513 0.001758 -0.002765
# 3 -0.004890 -0.001051 0.006163 0.001743 -0.000202 0.001785
# 4 -0.001667 -0.002513 0.001743 0.031234 -0.005960 0.005390
# 5 0.003028 0.001758 -0.000202 -0.005960 0.024825 -0.004103
# 6 -0.013530 -0.002765 0.001785 0.005390 -0.004103 0.029307
#
#
# Mechanical properties :
#
#
# Convention : Reuss Voigt Hill
#
# Bulk Modulus (GPa) = 40.45862 71.12293 55.79078
# Shear Modulus (GPa) = 34.90683 46.65992 40.78338
#
# Velocity S-wave (km/s) = 3.67010 4.24321 3.96702
# Velocity P-wave (km/s) = 5.79408 7.17293 6.52006
#
# Compressibility (1/GPa) = 0.02471661
#
# Stress axis : x y z
#
# Youngs Moduli (GPa) = 49.20376 93.55969 162.26273
#
# Poissons Ratio (x) = 0.02700 0.79343
# Poissons Ratio (y) = 0.01420 0.17049
# Poissons Ratio (z) = 0.24060 0.09831
#
# Static dielectric constant tensor:
#      x y z
#    x 0.356920 3.200580 -0.603710 
#    y 3.200580 -3.890250 1.117880 
#    z -0.603710 1.117880 1.794060 
# 
# From -- ./inp_files/427759.got.cif
#   From: 2010.05.17/outbox.cif.g08.bks.cpg/sg2_214_cif.got.tgz:427759.got - 2010.06.03 11:33:40.
