data_PCOD9070720
_publ_section_title
;
Structure prediction by ZEFSAII (Michael W. Deem and Ramdas Pophale) SiO2 
 PCOD9070720
Probable space group: P -1
;
_chemical_formula_sum "Si O2"
_cell_formula_units_Z 16
_cell_length_a 8.810627
_cell_length_b 18.059931
_cell_length_c 5.291322
_cell_angle_alpha 54.797215
_cell_angle_beta 72.850119
_cell_angle_gamma 63.360703
_cell_volume 614.178298
_symmetry_space_group_name_H-M "P -1"
_symmetry_group_IT_number 2
_symmetry_cell_setting 'triclinic'
loop_
_space_group_symop_operation_xyz
x,y,z
-x,-y,-z
loop_
_atom_site_type_symbol
_atom_site_label
_atom_site_fract_x
_atom_site_fract_y
_atom_site_fract_z
Si Si1 0.644236 0.655821 0.098499
Si Si2 0.886178 0.108465 0.915405
Si Si3 0.029040 0.383389 0.684923
Si Si4 0.122076 0.168710 0.059389
Si Si5 0.565396 0.809717 0.450736
Si Si6 0.818738 0.454139 0.130443
Si Si7 0.650528 0.298925 0.487739
Si Si8 0.343520 0.974713 0.530905
O O1 0.650889 0.754200 0.775066
O O2 0.775689 0.630584 0.319543
O O3 0.712314 0.561642 0.070731
O O4 0.452753 0.677282 0.242547
O O5 0.715715 0.096551 0.130540
O O6 0.817890 0.201992 0.587788
O O7 0.994142 0.139471 0.006468
O O8 0.000000 0.000000 0.000000
O O9 0.026877 0.278101 0.972041
O O10 0.945103 0.403583 0.405649
O O11 0.923534 0.453070 0.824974
O O12 0.288440 0.172088 0.818741
O O13 0.193120 0.077677 0.387982
O O14 0.478724 0.734491 0.548008
O O15 0.414055 0.912611 0.365870
O O16 0.700801 0.392558 0.238000
O O17 0.500000 0.000000 0.500000
#
# Coordination Sequence:
#
# PCOD9070720 Si02
#       8
#     2   2   2   2   2   2   2   2
#     4  12  27  51  77 111 152 204 260 320 392 459
#     4  12  26  46  72 110 153 199 258 317 390 460
#     4  12  27  51  79 117 151 206 261 324 390 466
#     4  12  25  46  75 107 154 201 253 318 391 463
#     4  12  26  48  75 111 153 201 257 321 387 472
#     4  12  30  49  83 112 158 204 265 328 391 462
#     4  12  27  48  74 111 156 202 258 321 391 466
#     4  12  25  45  75 110 149 198 256 321 394 469
#
# _framework density 26.051068000000001
#
# number of rings (size 3 to 8) (size 9 to 14) (size 15 to 20)
#    0.000    0.000    3.750    5.625    7.000    0.500 
#    0.000    0.000    0.000    0.000    0.000    0.000 
#    0.000    0.000    0.000    0.000    0.000    0.000 
#
# Total GULP energy -89553.926395 kJ/mol
# GULP energy per Si atom -5597.120400 kJ/mol
# Density = 2.599177 g / cm^3
# Si number density = 26.051068 Si / 1000 Ang^3
#
#
#
# Elastic Constant Matrix: (Units=GPa)
#
#
# Indices 1 2 3 4 5 6 
#
# 1 107.2724 17.9926 -2.6189 -7.0745 -1.2633 30.4124
# 2 17.9926 130.6808 -33.1435 -16.0763 14.9375 -5.4199
# 3 -2.6189 -33.1435 43.3172 -6.5855 12.4663 -13.0724
# 4 -7.0745 -16.0763 -6.5855 49.8679 -6.1290 -2.7171
# 5 -1.2633 14.9375 12.4663 -6.1290 48.7820 -9.1750
# 6 30.4124 -5.4199 -13.0724 -2.7171 -9.1750 48.2007
#
#
#
# Elastic Compliance Matrix: (Units=1/GPa)
#
#
# Indices 1 2 3 4 5 6 
#
# 1 0.012486 -0.003602 -0.005218 -0.000489 0.000901 -0.009554
# 2 -0.003602 0.013561 0.014831 0.005457 -0.006038 0.006978
# 3 -0.005218 0.014831 0.043435 0.009144 -0.011805 0.015008
# 4 -0.000489 0.005457 0.009144 0.023176 -0.000231 0.004664
# 5 0.000901 -0.006038 -0.011805 -0.000231 0.025430 0.000378
# 6 -0.009554 0.006978 0.015008 0.004664 0.000378 0.031965
#
#
# Mechanical properties :
#
#
# Convention : Reuss Voigt Hill
#
# Bulk Modulus (GPa) = 12.26952 27.30342 19.78647
# Shear Modulus (GPa) = 30.26669 49.30613 39.78641
#
# Velocity S-wave (km/s) = 3.41225 4.35521 3.91224
# Velocity P-wave (km/s) = 4.49940 5.98280 5.29332
#
# Compressibility (1/GPa) = 0.08150277
#
# Stress axis : x y z
#
# Youngs Moduli (GPa) = 80.09042 73.74332 23.02316
#
# Poissons Ratio (x) = 0.26562 0.12014
# Poissons Ratio (y) = 0.28848 -0.34146
# Poissons Ratio (z) = 0.41793 -1.09369
#
# Static dielectric constant tensor:
#      x y z
#    x 2.039010 0.087670 -0.091070 
#    y 0.087670 1.632470 0.635920 
#    z -0.091070 0.635920 1.371170 
# 
# From -- ./inp_files/46593.got.cif
#   From: 2010.05.17/outbox.cif.g08.bks.cpg/sg2_24_cif.got.tgz:46593.got - 2010.06.03 11:33:40.
