data_PCOD9070402
_publ_section_title
;
Structure prediction by ZEFSAII (Michael W. Deem and Ramdas Pophale) SiO2 
 PCOD9070402
Probable space group: P -1
;
_chemical_formula_sum "Si O2"
_cell_formula_units_Z 16
_cell_length_a 16.760243
_cell_length_b 8.964670
_cell_length_c 8.698107
_cell_angle_alpha 31.623933
_cell_angle_beta 86.917596
_cell_angle_gamma 79.582368
_cell_volume 661.117523
_symmetry_space_group_name_H-M "P -1"
_symmetry_group_IT_number 2
_symmetry_cell_setting 'triclinic'
loop_
_space_group_symop_operation_xyz
x,y,z
-x,-y,-z
loop_
_atom_site_type_symbol
_atom_site_label
_atom_site_fract_x
_atom_site_fract_y
_atom_site_fract_z
Si Si1 0.914433 0.454078 0.868148
Si Si2 0.072921 0.566386 0.590204
Si Si3 0.410517 0.022811 0.916971
Si Si4 0.860903 0.095014 0.928130
Si Si5 0.123990 0.889661 0.588714
Si Si6 0.407540 0.097485 0.488208
Si Si7 0.687094 0.360849 0.187220
Si Si8 0.315640 0.644085 0.441903
O O1 0.859247 0.296178 0.903697
O O2 0.989641 0.514783 0.711641
O O3 0.879590 0.765081 0.690700
O O4 0.943129 0.200486 0.215006
O O5 0.064738 0.820562 0.244492
O O6 0.116642 0.711296 0.591492
O O7 0.121657 0.259117 0.773110
O O8 0.416248 0.109620 0.661487
O O9 0.338222 0.293227 0.746703
O O10 0.500000 0.000000 0.000000
O O11 0.379905 0.748598 0.230056
O O12 0.774694 0.217725 0.739491
O O13 0.215833 0.719747 0.782073
O O14 0.500000 0.000000 0.500000
O O15 0.355609 0.861052 0.694118
O O16 0.358348 0.341917 0.157818
O O17 0.676921 0.304161 0.421373
#
# Coordination Sequence:
#
# PCOD9070402 Si02
#       8
#     2   2   2   2   2   2   2   2
#     4  12  26  44  72 106 147 190 251 315 370 443
#     4  12  24  48  71 104 143 199 248 306 375 447
#     4  12  27  48  76 109 146 189 244 302 369 442
#     4  12  26  44  73 104 147 193 250 305 377 439
#     4  12  26  44  71 106 147 194 248 307 376 438
#     4  12  27  48  76 109 147 190 242 301 371 443
#     4  12  26  46  73 104 150 195 245 303 369 444
#     4  12  26  46  74 105 149 195 246 304 367 443
#
# _framework density 24.201447000000002
#
# number of rings (size 3 to 8) (size 9 to 14) (size 15 to 20)
#    0.000    0.000    1.250    9.000    7.000    0.000 
#    0.000    0.000    0.000    0.000    0.000    0.000 
#    0.000    0.000    0.000    0.000    0.000    0.000 
#
# Total GULP energy -89264.485840 kJ/mol
# GULP energy per Si atom -5579.030365 kJ/mol
# Density = 2.414636 g / cm^3
# Si number density = 24.201447 Si / 1000 Ang^3
#
#
#
# Elastic Constant Matrix: (Units=GPa)
#
#
# Indices 1 2 3 4 5 6 
#
# 1 114.2511 56.0097 46.6827 1.9665 15.0185 25.8001
# 2 56.0097 143.1224 41.3865 -7.7078 8.1478 27.2797
# 3 46.6827 41.3865 155.6559 -13.2324 12.4152 18.8973
# 4 1.9665 -7.7078 -13.2324 52.5750 -5.7940 -5.8691
# 5 15.0185 8.1478 12.4152 -5.7940 49.9401 13.3386
# 6 25.8001 27.2797 18.8973 -5.8691 13.3386 37.8128
#
#
#
# Elastic Compliance Matrix: (Units=1/GPa)
#
#
# Indices 1 2 3 4 5 6 
#
# 1 0.012747 -0.003408 -0.002396 -0.002300 -0.001663 -0.004812
# 2 -0.003408 0.009388 -0.000968 0.000900 0.000949 -0.004159
# 3 -0.002396 -0.000968 0.007719 0.001710 -0.000558 -0.001062
# 4 -0.002300 0.000900 0.001710 0.020151 0.001772 0.002568
# 5 -0.001663 0.000949 -0.000558 0.001772 0.022572 -0.006958
# 6 -0.004812 -0.004159 -0.001062 0.002568 -0.006958 0.036113
#
#
# Mechanical properties :
#
#
# Convention : Reuss Voigt Hill
#
# Bulk Modulus (GPa) = 61.30898 77.90968 69.60933
# Shear Modulus (GPa) = 39.16345 45.99564 42.57954
#
# Velocity S-wave (km/s) = 4.02708 4.36424 4.19905
# Velocity P-wave (km/s) = 6.85646 7.59325 7.23424
#
# Compressibility (1/GPa) = 0.01631082
#
# Stress axis : x y z
#
# Youngs Moduli (GPa) = 78.45066 106.52216 129.54676
#
# Poissons Ratio (x) = 0.36299 0.31033
# Poissons Ratio (y) = 0.26733 0.12544
# Poissons Ratio (z) = 0.18793 0.10315
#
# Static dielectric constant tensor:
#      x y z
#    x 1.912390 0.047280 0.030790 
#    y 0.047280 2.358820 0.203420 
#    z 0.030790 0.203420 1.990600 
# 
# From -- ./inp_files/328281.got.cif
#   From: 2010.05.17/outbox.cif.g08.bks.cpg/sg2_165_cif.got.tgz:328281.got - 2010.06.03 11:33:40.
