data_PCOD9070542
_publ_section_title
;
Structure prediction by ZEFSAII (Michael W. Deem and Ramdas Pophale) SiO2 
 PCOD9070542
Probable space group: P -1
;
_chemical_formula_sum "Si O2"
_cell_formula_units_Z 14
_cell_length_a 12.823189
_cell_length_b 9.222434
_cell_length_c 11.984308
_cell_angle_alpha 58.143340
_cell_angle_beta 134.784855
_cell_angle_gamma 145.025142
_cell_volume 572.339806
_symmetry_space_group_name_H-M "P -1"
_symmetry_group_IT_number 2
_symmetry_cell_setting 'triclinic'
loop_
_space_group_symop_operation_xyz
x,y,z
-x,-y,-z
loop_
_atom_site_type_symbol
_atom_site_label
_atom_site_fract_x
_atom_site_fract_y
_atom_site_fract_z
Si Si1 0.479145 0.440915 0.637847
Si Si2 0.990071 0.793171 0.079405
Si Si3 0.373670 0.058467 0.419967
Si Si4 0.537124 0.340952 0.040164
Si Si5 0.813522 0.053047 0.255465
Si Si6 0.917889 0.620278 0.870451
Si Si7 0.218756 0.743555 0.635957
O O1 0.500000 0.500000 0.500000
O O2 0.529478 0.669240 0.638623
O O3 0.259089 0.173460 0.634238
O O4 0.672771 0.464577 0.784394
O O5 0.751047 0.537209 0.043695
O O6 0.150665 0.857225 0.265094
O O7 0.061291 0.822328 0.995339
O O8 0.000000 0.000000 0.000000
O O9 0.500000 0.000000 0.500000
O O10 0.325315 0.985290 0.543494
O O11 0.613244 0.270030 0.219916
O O12 0.500000 0.500000 0.000000
O O13 0.357013 0.109061 0.912161
O O14 0.034585 0.269242 0.262188
O O15 0.812162 0.204735 0.283886
O O16 0.000000 0.500000 0.000000
O O17 0.000000 0.500000 0.500000
#
# Coordination Sequence:
#
# PCOD9070542 Si02
#       7
#     2   2   2   2   2   2   2
#     4  12  28  53  75 117 160 203 269 337 404 487
#     4  12  24  50  73 112 159 203 269 332 389 496
#     4  12  29  50  78 112 163 211 265 341 415 475
#     4  12  27  48  80 118 158 212 272 333 412 483
#     4  12  28  51  83 116 162 215 267 331 414 483
#     4  12  29  47  80 116 157 209 268 326 403 482
#     4  12  28  51  77 115 163 206 273 337 401 489
#
# _framework density 24.460992999999998
#
# number of rings (size 3 to 8) (size 9 to 14) (size 15 to 20)
#    0.000    0.000    5.714    2.143   10.000    0.571 
#    0.000    0.000    0.000    0.000    0.000    0.000 
#    0.000    0.000    0.000    0.000    0.000    0.000 
#
# Total GULP energy -78151.622469 kJ/mol
# GULP energy per Si atom -5582.258748 kJ/mol
# Density = 2.440532 g / cm^3
# Si number density = 24.460993 Si / 1000 Ang^3
#
#
#
# Elastic Constant Matrix: (Units=GPa)
#
#
# Indices 1 2 3 4 5 6 
#
# 1 163.8247 57.7784 62.0256 -5.0195 -12.2715 -20.6170
# 2 57.7784 104.8039 14.8347 -12.7070 3.9410 -13.0948
# 3 62.0256 14.8347 138.2944 -2.7597 -6.0790 -6.8507
# 4 -5.0195 -12.7070 -2.7597 48.4282 1.5614 -13.3641
# 5 -12.2715 3.9410 -6.0790 1.5614 47.9468 -6.6692
# 6 -20.6170 -13.0948 -6.8507 -13.3641 -6.6692 56.6331
#
#
#
# Elastic Compliance Matrix: (Units=1/GPa)
#
#
# Indices 1 2 3 4 5 6 
#
# 1 0.009562 -0.004556 -0.003562 0.000154 0.002692 0.002350
# 2 -0.004556 0.012689 0.000764 0.003506 -0.001953 0.001965
# 3 -0.003562 0.000764 0.008761 0.000336 0.000130 0.000034
# 4 0.000154 0.003506 0.000336 0.023377 -0.000075 0.006415
# 5 0.002692 -0.001953 0.000130 -0.000075 0.022161 0.003136
# 6 0.002350 0.001965 0.000034 0.006415 0.003136 0.020855
#
#
# Mechanical properties :
#
#
# Convention : Reuss Voigt Hill
#
# Bulk Modulus (GPa) = 61.33775 75.13339 68.23557
# Shear Modulus (GPa) = 42.53613 48.75392 45.64502
#
# Velocity S-wave (km/s) = 4.17458 4.46929 4.32445
# Velocity P-wave (km/s) = 6.95459 7.57727 7.27260
#
# Compressibility (1/GPa) = 0.01630317
#
# Stress axis : x y z
#
# Youngs Moduli (GPa) = 104.58511 78.80615 114.14671
#
# Poissons Ratio (x) = 0.35904 0.40658
# Poissons Ratio (y) = 0.47649 -0.08717
# Poissons Ratio (z) = 0.37252 -0.06018
#
# Static dielectric constant tensor:
#      x y z
#    x 1.908090 0.060090 -0.036730 
#    y 0.060090 1.986450 0.125290 
#    z -0.036730 0.125290 1.911720 
# 
# From -- ./inp_files/419243.got.cif
#   From: 2010.05.17/outbox.cif.g08.bks.cpg/sg2_210_cif.got.tgz:419243.got - 2010.06.03 11:33:40.
