data_PCOD9070184
_publ_section_title
;
Structure prediction by ZEFSAII (Michael W. Deem and Ramdas Pophale) SiO2 
 PCOD9070184
Probable space group: P -1
;
_chemical_formula_sum "Si O2"
_cell_formula_units_Z 14
_cell_length_a 11.168101
_cell_length_b 17.644993
_cell_length_c 9.234155
_cell_angle_alpha 48.738214
_cell_angle_beta 71.115225
_cell_angle_gamma 33.671891
_cell_volume 638.163462
_symmetry_space_group_name_H-M "P -1"
_symmetry_group_IT_number 2
_symmetry_cell_setting 'triclinic'
loop_
_space_group_symop_operation_xyz
x,y,z
-x,-y,-z
loop_
_atom_site_type_symbol
_atom_site_label
_atom_site_fract_x
_atom_site_fract_y
_atom_site_fract_z
Si Si1 0.973391 0.445007 0.942442
Si Si2 0.828423 0.139145 0.530316
Si Si3 0.238805 0.575057 0.746014
Si Si4 0.689258 0.618383 0.553240
Si Si5 0.830545 0.178036 0.956584
Si Si6 0.532830 0.881455 0.035142
Si Si7 0.974792 0.283764 0.657692
O O1 0.246458 0.253165 0.998298
O O2 0.781447 0.606468 0.680936
O O3 0.000000 0.500000 0.000000
O O4 0.876002 0.406713 0.096477
O O5 0.816842 0.266123 0.416563
O O6 0.539445 0.299868 0.423191
O O7 0.000000 0.000000 0.500000
O O8 0.978881 0.963907 0.805056
O O9 0.108626 0.626605 0.582787
O O10 0.543932 0.342454 0.903096
O O11 0.593075 0.753264 0.288987
O O12 0.925166 0.397642 0.661554
O O13 0.800435 0.309815 0.736974
O O14 0.000000 0.000000 0.000000
O O15 0.500000 0.000000 0.000000
O O16 0.267415 0.046305 0.848083
#
# Coordination Sequence:
#
# PCOD9070184 Si02
#       7
#     2   2   2   2   2   2   2
#     4  12  30  50  73 106 156 196 240 312 368 436
#     4  12  27  43  75 110 153 189 238 314 376 438
#     4  12  28  47  73 117 152 188 243 309 382 431
#     4  12  26  50  76 107 145 195 254 303 366 439
#     4  12  24  46  73 112 146 190 245 299 373 443
#     4  12  28  49  77 105 141 202 260 291 356 449
#     4  12  25  46  79 107 145 194 248 305 361 442
#
# _framework density 21.937951999999999
#
# number of rings (size 3 to 8) (size 9 to 14) (size 15 to 20)
#    0.000    0.000    5.714    3.429    8.000    2.857 
#    0.000    0.000    0.000    0.000    0.000    0.000 
#    0.000    0.000    0.000    0.000    0.000    0.000 
#
# Total GULP energy -78272.287460 kJ/mol
# GULP energy per Si atom -5590.877676 kJ/mol
# Density = 2.188802 g / cm^3
# Si number density = 21.937952 Si / 1000 Ang^3
#
#
#
# Elastic Constant Matrix: (Units=GPa)
#
#
# Indices 1 2 3 4 5 6 
#
# 1 71.1792 49.4771 14.9754 -3.6100 15.3157 -9.8088
# 2 49.4771 167.7381 37.6061 3.1902 16.2678 -10.8204
# 3 14.9754 37.6061 75.1778 -4.7843 26.3852 -14.3246
# 4 -3.6100 3.1902 -4.7843 29.9475 2.7192 2.2441
# 5 15.3157 16.2678 26.3852 2.7192 45.0269 -0.2850
# 6 -9.8088 -10.8204 -14.3246 2.2441 -0.2850 50.7177
#
#
#
# Elastic Compliance Matrix: (Units=1/GPa)
#
#
# Indices 1 2 3 4 5 6 
#
# 1 0.019242 -0.005366 0.001635 0.003461 -0.005756 0.002853
# 2 -0.005366 0.008282 -0.003635 -0.002195 0.001094 -0.000194
# 3 0.001635 -0.003635 0.019926 0.004412 -0.011155 0.004911
# 4 0.003461 -0.002195 0.004412 0.035221 -0.005098 -0.000140
# 5 -0.005756 0.001094 -0.011155 -0.005098 0.030593 -0.003633
# 6 0.002853 -0.000194 0.004911 -0.000140 -0.003633 0.021600
#
#
# Mechanical properties :
#
#
# Convention : Reuss Voigt Hill
#
# Bulk Modulus (GPa) = 30.56349 57.57915 44.07132
# Shear Modulus (GPa) = 31.15231 39.27421 35.21326
#
# Velocity S-wave (km/s) = 3.77240 4.23571 4.01075
# Velocity P-wave (km/s) = 5.73905 7.08696 6.44832
#
# Compressibility (1/GPa) = 0.03271878
#
# Stress axis : x y z
#
# Youngs Moduli (GPa) = 51.96958 120.73686 50.18624
#
# Poissons Ratio (x) = 0.64787 -0.08206
# Poissons Ratio (y) = 0.27887 0.18242
# Poissons Ratio (z) = -0.08497 0.43887
#
# Static dielectric constant tensor:
#      x y z
#    x 1.787200 -0.054430 0.022640 
#    y -0.054430 1.674220 0.025400 
#    z 0.022640 0.025400 1.808470 
# 
# From -- ./inp_files/26890.got.cif
#   From: 2010.05.17/outbox.cif.g08.bks.cpg/sg2_14_cif.got.tgz:26890.got - 2010.06.03 11:33:40.
