data_PCOD9070776
_publ_section_title
;
Structure prediction by ZEFSAII (Michael W. Deem and Ramdas Pophale) SiO2 
 PCOD9070776
Probable space group: P -1
;
_chemical_formula_sum "Si O2"
_cell_formula_units_Z 12
_cell_length_a 9.094717
_cell_length_b 12.833930
_cell_length_c 15.604112
_cell_angle_alpha 30.786655
_cell_angle_beta 66.160244
_cell_angle_gamma 45.755157
_cell_volume 565.293969
_symmetry_space_group_name_H-M "P -1"
_symmetry_group_IT_number 2
_symmetry_cell_setting 'triclinic'
loop_
_space_group_symop_operation_xyz
x,y,z
-x,-y,-z
loop_
_atom_site_type_symbol
_atom_site_label
_atom_site_fract_x
_atom_site_fract_y
_atom_site_fract_z
Si Si1 0.784841 0.266936 0.070489
Si Si2 0.150856 0.154271 0.182804
Si Si3 0.512766 0.890970 0.982212
Si Si4 0.631510 0.670619 0.672464
Si Si5 0.962903 0.728433 0.287808
Si Si6 0.719652 0.244685 0.408894
O O1 0.962522 0.172767 0.170899
O O2 0.899484 0.973754 0.194609
O O3 0.500000 0.500000 0.000000
O O4 0.779274 0.457255 0.870302
O O5 0.341390 0.079405 0.127708
O O6 0.291599 0.898467 0.405817
O O7 0.000000 0.500000 0.000000
O O8 0.265457 0.083012 0.854108
O O9 0.624041 0.564335 0.207078
O O10 0.500000 0.000000 0.000000
O O11 0.413726 0.727461 0.660006
O O12 0.805301 0.486362 0.678635
O O13 0.500000 0.000000 0.500000
O O14 0.000000 0.500000 0.500000
O O15 0.000000 0.000000 0.500000
#
# Coordination Sequence:
#
# PCOD9070776 Si02
#       6
#     2   2   2   2   2   2
#     4  12  25  46  74 105 145 188 238 299 361 430
#     4  12  25  46  74 106 145 189 243 293 360 436
#     4  12  28  47  73 109 146 189 240 302 365 430
#     4  12  26  47  75 101 142 194 243 298 364 425
#     4  12  27  49  72 107 146 187 247 300 359 432
#     4  12  26  47  75 105 147 189 243 297 362 435
#
# _framework density 21.227893000000002
#
# number of rings (size 3 to 8) (size 9 to 14) (size 15 to 20)
#    0.000    0.000    3.333    6.500    7.000    0.667 
#    0.000    0.000    0.000    0.000    0.000    0.000 
#    0.000    0.000    0.000    0.000    0.000    0.000 
#
# Total GULP energy -67006.918538 kJ/mol
# GULP energy per Si atom -5583.909878 kJ/mol
# Density = 2.117958 g / cm^3
# Si number density = 21.227893 Si / 1000 Ang^3
#
#
#
# Elastic Constant Matrix: (Units=GPa)
#
#
# Indices 1 2 3 4 5 6 
#
# 1 119.0032 27.3058 20.9685 -28.6811 4.7066 18.1289
# 2 27.3058 102.3215 31.1022 -14.4177 -14.8844 -0.8588
# 3 20.9685 31.1022 172.7815 -6.5377 -11.8340 15.7421
# 4 -28.6811 -14.4177 -6.5377 50.7000 7.0127 -7.4465
# 5 4.7066 -14.8844 -11.8340 7.0127 45.5221 -0.3216
# 6 18.1289 -0.8588 15.7421 -7.4465 -0.3216 41.1023
#
#
#
# Elastic Compliance Matrix: (Units=1/GPa)
#
#
# Indices 1 2 3 4 5 6 
#
# 1 0.011045 -0.002491 -0.000549 0.005323 -0.002946 -0.003772
# 2 -0.002491 0.011697 -0.001721 0.001563 0.003410 0.002312
# 3 -0.000549 -0.001721 0.006443 -0.000482 0.001227 -0.002339
# 4 0.005323 0.001563 -0.000482 0.023969 -0.003842 0.002182
# 5 -0.002946 0.003410 0.001227 -0.003842 0.024300 0.000395
# 6 -0.003772 0.002312 -0.002339 0.002182 0.000395 0.027336
#
#
# Mechanical properties :
#
#
# Convention : Reuss Voigt Hill
#
# Bulk Modulus (GPa) = 50.85591 61.42880 56.14236
# Shear Modulus (GPa) = 41.36777 48.44685 44.90731
#
# Velocity S-wave (km/s) = 4.41925 4.78245 4.60443
# Velocity P-wave (km/s) = 7.07452 7.71339 7.40085
#
# Compressibility (1/GPa) = 0.01966340
#
# Stress axis : x y z
#
# Youngs Moduli (GPa) = 90.53540 85.49367 155.20764
#
# Poissons Ratio (x) = 0.21296 0.08516
# Poissons Ratio (y) = 0.22552 0.26714
# Poissons Ratio (z) = 0.04968 0.14715
#
# Static dielectric constant tensor:
#      x y z
#    x 1.702690 -0.044060 0.012100 
#    y -0.044060 1.903940 -0.137520 
#    z 0.012100 -0.137520 1.814890 
# 
# From -- ./inp_files/148646.got.cif
#   From: 2010.05.17/outbox.cif.g08.bks.cpg/sg2_75_cif.got.tgz:148646.got - 2010.06.03 11:33:40.
