data_PCOD9070174
_publ_section_title
;
Structure prediction by ZEFSAII (Michael W. Deem and Ramdas Pophale) SiO2 
 PCOD9070174
Probable space group: P -1
;
_chemical_formula_sum "Si O2"
_cell_formula_units_Z 16
_cell_length_a 9.242380
_cell_length_b 8.709635
_cell_length_c 13.701377
_cell_angle_alpha 133.566456
_cell_angle_beta 106.718484
_cell_angle_gamma 95.945125
_cell_volume 689.183845
_symmetry_space_group_name_H-M "P -1"
_symmetry_group_IT_number 2
_symmetry_cell_setting 'triclinic'
loop_
_space_group_symop_operation_xyz
x,y,z
-x,-y,-z
loop_
_atom_site_type_symbol
_atom_site_label
_atom_site_fract_x
_atom_site_fract_y
_atom_site_fract_z
Si Si1 0.458758 0.384678 0.838114
Si Si2 0.915409 0.173866 0.019719
Si Si3 0.649976 0.262989 0.144607
Si Si4 0.612258 0.393052 0.524251
Si Si5 0.862922 0.591540 0.503439
Si Si6 0.670244 0.105767 0.757994
Si Si7 0.107885 0.934282 0.565759
Si Si8 0.789233 0.330612 0.691034
O O1 0.421424 0.567388 0.845281
O O2 0.613393 0.316120 0.823772
O O3 0.284755 0.151427 0.711072
O O4 0.500000 0.500000 0.000000
O O5 0.799944 0.227994 0.101655
O O6 0.068180 0.426438 0.137225
O O7 0.796780 0.110242 0.870548
O O8 0.000000 0.000000 0.000000
O O9 0.723704 0.404952 0.322149
O O10 0.500000 0.000000 0.000000
O O11 0.500000 0.500000 0.500000
O O12 0.783934 0.568846 0.583353
O O13 0.638528 0.382986 0.640533
O O14 0.505665 0.119534 0.356473
O O15 0.000000 0.500000 0.500000
O O16 0.980149 0.842942 0.591444
O O17 0.742254 0.121396 0.668879
O O18 0.147944 0.744746 0.429818
O O19 0.000000 0.000000 0.500000
#
# Coordination Sequence:
#
# PCOD9070174 Si02
#       8
#     2   2   2   2   2   2   2   2
#     4  12  26  49  76 109 150 195 261 314 377 459
#     4  12  26  51  70 112 157 198 253 312 382 460
#     4  12  27  46  74 107 150 199 253 313 378 450
#     4  12  27  46  72 112 149 195 250 306 385 447
#     4  12  24  46  73 103 146 193 249 310 368 440
#     4  12  27  47  76 110 153 204 250 315 384 454
#     4  12  25  47  76 107 146 194 258 311 375 450
#     4  12  26  49  71 111 151 195 257 309 376 456
#
# _framework density 23.215869000000001
#
# number of rings (size 3 to 8) (size 9 to 14) (size 15 to 20)
#    0.000    0.000    6.250    2.250    7.000    0.000 
#    0.000    0.000    0.000    0.000    0.000    0.000 
#    0.000    0.000    0.000    0.000    0.000    0.000 
#
# Total GULP energy -89138.430847 kJ/mol
# GULP energy per Si atom -5571.151928 kJ/mol
# Density = 2.316303 g / cm^3
# Si number density = 23.215869 Si / 1000 Ang^3
#
#
#
# Elastic Constant Matrix: (Units=GPa)
#
#
# Indices 1 2 3 4 5 6 
#
# 1 90.4888 38.2431 2.7581 7.3670 8.8406 -22.1521
# 2 38.2431 144.1302 31.8778 -0.7104 11.4806 -19.4995
# 3 2.7581 31.8778 112.4089 -2.7685 33.3988 -10.0708
# 4 7.3670 -0.7104 -2.7685 47.6194 -1.4240 10.1194
# 5 8.8406 11.4806 33.3988 -1.4240 39.0005 -1.6710
# 6 -22.1521 -19.4995 -10.0708 10.1194 -1.6710 44.3990
#
#
#
# Elastic Compliance Matrix: (Units=1/GPa)
#
#
# Indices 1 2 3 4 5 6 
#
# 1 0.014824 -0.003149 0.002358 -0.003876 -0.004282 0.007270
# 2 -0.003149 0.008472 -0.002240 0.000146 0.000213 0.001616
# 3 0.002358 -0.002240 0.012940 -0.000576 -0.010855 0.002850
# 4 -0.003876 0.000146 -0.000576 0.023156 0.001866 -0.007208
# 5 -0.004282 0.000213 -0.010855 0.001866 0.035759 -0.003585
# 6 0.007270 0.001616 0.002850 -0.007208 -0.003585 0.029014
#
#
# Mechanical properties :
#
#
# Convention : Reuss Voigt Hill
#
# Bulk Modulus (GPa) = 33.14331 54.75398 43.94865
# Shear Modulus (GPa) = 35.64155 44.48039 40.06097
#
# Velocity S-wave (km/s) = 3.92244 4.38190 4.15852
# Velocity P-wave (km/s) = 5.90095 7.01693 6.48300
#
# Compressibility (1/GPa) = 0.03017200
#
# Stress axis : x y z
#
# Youngs Moduli (GPa) = 67.45877 118.04158 77.27973
#
# Poissons Ratio (x) = 0.37173 -0.18219
# Poissons Ratio (y) = 0.21244 0.17311
# Poissons Ratio (z) = -0.15904 0.26442
#
# Static dielectric constant tensor:
#      x y z
#    x 8.868350 -0.316690 -0.160310 
#    y -0.316690 1.939710 -0.064670 
#    z -0.160310 -0.064670 1.878980 
# 
# From -- ./inp_files/495770.got.cif
#   From: 2010.05.17/outbox.cif.g08.bks.cpg/sg2_248_cif.got.tgz:495770.got - 2010.06.03 11:33:40.
