data_PCOD9070212
_publ_section_title
;
Structure prediction by ZEFSAII (Michael W. Deem and Ramdas Pophale) SiO2 
 PCOD9070212
Probable space group: P -1
;
_chemical_formula_sum "Si O2"
_cell_formula_units_Z 12
_cell_length_a 9.367718
_cell_length_b 8.263610
_cell_length_c 11.867840
_cell_angle_alpha 118.413089
_cell_angle_beta 85.978525
_cell_angle_gamma 135.082730
_cell_volume 515.202056
_symmetry_space_group_name_H-M "P -1"
_symmetry_group_IT_number 2
_symmetry_cell_setting 'triclinic'
loop_
_space_group_symop_operation_xyz
x,y,z
-x,-y,-z
loop_
_atom_site_type_symbol
_atom_site_label
_atom_site_fract_x
_atom_site_fract_y
_atom_site_fract_z
Si Si1 0.254472 0.229534 0.374046
Si Si2 0.210224 0.585753 0.545531
Si Si3 0.754773 0.775733 0.881227
Si Si4 0.426084 0.747444 0.989158
Si Si5 0.036199 0.359766 0.721173
Si Si6 0.641285 0.248887 0.743245
O O1 0.500000 0.500000 0.500000
O O2 0.162811 0.344256 0.411170
O O3 0.245560 0.142623 0.218796
O O4 0.127031 0.975439 0.385124
O O5 0.000000 0.500000 0.500000
O O6 0.197630 0.538806 0.664759
O O7 0.436947 0.914039 0.605840
O O8 0.599640 0.754459 0.958425
O O9 0.649836 0.467142 0.772562
O O10 0.000000 0.000000 0.000000
O O11 0.185840 0.466078 0.856597
O O12 0.397372 0.765597 0.126415
O O13 0.500000 0.000000 0.000000
O O14 0.876013 0.378687 0.748735
#
# Coordination Sequence:
#
# PCOD9070212 Si02
#       6
#     2   2   2   2   2   2
#     4  12  26  48  73 107 144 189 243 290 357 426
#     4  12  28  44  73 106 144 190 236 292 362 428
#     4  12  28  47  76 107 146 191 238 299 362 424
#     4  12  24  46  75 105 140 185 245 293 355 426
#     4  12  25  48  74 104 144 189 239 299 352 426
#     4  12  26  47  73 106 148 185 237 296 361 426
#
# _framework density 23.291833
#
# number of rings (size 3 to 8) (size 9 to 14) (size 15 to 20)
#    0.000    0.000    3.333    6.500    7.000    1.333 
#    0.000    0.000    0.000    0.000    0.000    0.000 
#    0.000    0.000    0.000    0.000    0.000    0.000 
#
# Total GULP energy -67205.747292 kJ/mol
# GULP energy per Si atom -5600.478941 kJ/mol
# Density = 2.323882 g / cm^3
# Si number density = 23.291833 Si / 1000 Ang^3
#
#
#
# Elastic Constant Matrix: (Units=GPa)
#
#
# Indices 1 2 3 4 5 6 
#
# 1 103.3946 10.1582 -5.5470 11.7433 -15.9332 8.2906
# 2 10.1582 117.8076 16.0843 1.9317 -7.7724 -10.1764
# 3 -5.5470 16.0843 54.3104 -8.3408 1.4578 7.4326
# 4 11.7433 1.9317 -8.3408 55.2473 3.2444 -0.8905
# 5 -15.9332 -7.7724 1.4578 3.2444 44.2658 3.6076
# 6 8.2906 -10.1764 7.4326 -0.8905 3.6076 40.7464
#
#
#
# Elastic Compliance Matrix: (Units=1/GPa)
#
#
# Indices 1 2 3 4 5 6 
#
# 1 0.011025 -0.001106 0.001413 -0.002388 0.004163 -0.003198
# 2 -0.001106 0.009409 -0.003450 -0.000633 0.001162 0.003087
# 3 0.001413 -0.003450 0.020699 0.002903 -0.000600 -0.004808
# 4 -0.002388 -0.000633 0.002903 0.019223 -0.002511 0.000441
# 5 0.004163 0.001162 -0.000600 -0.002511 0.024717 -0.002691
# 6 -0.003198 0.003087 -0.004808 0.000441 -0.002691 0.027089
#
#
# Mechanical properties :
#
#
# Convention : Reuss Voigt Hill
#
# Bulk Modulus (GPa) = 28.69790 35.21151 31.95471
# Shear Modulus (GPa) = 38.44282 45.03970 41.74126
#
# Velocity S-wave (km/s) = 4.06702 4.40217 4.23791
# Velocity P-wave (km/s) = 5.86532 6.40228 6.13967
#
# Compressibility (1/GPa) = 0.03484575
#
# Stress axis : x y z
#
# Youngs Moduli (GPa) = 90.70010 106.28538 48.31198
#
# Poissons Ratio (x) = 0.11755 -0.06826
# Poissons Ratio (y) = 0.10031 0.16669
# Poissons Ratio (z) = -0.12815 0.36672
#
# Static dielectric constant tensor:
#      x y z
#    x 1.643580 -0.105450 0.056430 
#    y -0.105450 1.949850 0.052430 
#    z 0.056430 0.052430 1.973700 
# 
# From -- ./inp_files/20925.got.cif
#   From: 2010.05.17/outbox.cif.g08.bks.cpg/sg2_11_cif.got.tgz:20925.got - 2010.06.03 11:33:40.
