data_PCOD9070719
_publ_section_title
;
Structure prediction by ZEFSAII (Michael W. Deem and Ramdas Pophale) SiO2 
 PCOD9070719
Probable space group: P -1
;
_chemical_formula_sum "Si O2"
_cell_formula_units_Z 15
_cell_length_a 21.059020
_cell_length_b 12.258155
_cell_length_c 8.537988
_cell_angle_alpha 51.132848
_cell_angle_beta 38.679098
_cell_angle_gamma 29.559733
_cell_volume 669.969141
_symmetry_space_group_name_H-M "P -1"
_symmetry_group_IT_number 2
_symmetry_cell_setting 'triclinic'
loop_
_space_group_symop_operation_xyz
x,y,z
-x,-y,-z
loop_
_atom_site_type_symbol
_atom_site_label
_atom_site_fract_x
_atom_site_fract_y
_atom_site_fract_z
Si Si1 0.094409 0.826267 0.331270
Si Si2 0.311152 0.369364 0.472101
Si Si3 0.373090 0.907833 0.077970
Si Si4 0.169246 0.238039 0.899916
Si Si5 0.500000 0.000000 0.000000
Si Si6 0.369387 0.392291 0.690778
Si Si7 0.735163 0.108881 0.193128
Si Si8 0.195361 0.864652 0.630375
O O1 0.165296 0.602922 0.452421
O O2 0.241524 0.770491 0.050885
O O3 0.000000 0.000000 0.500000
O O4 0.970506 0.951778 0.312674
O O5 0.299421 0.215028 0.612688
O O6 0.304049 0.410644 0.632022
O O7 0.475977 0.251337 0.188211
O O8 0.328719 0.804459 0.324723
O O9 0.417370 0.966922 0.077229
O O10 0.223043 0.122944 0.068306
O O11 0.172516 0.108603 0.887883
O O12 0.000000 0.500000 0.000000
O O13 0.391480 0.239670 0.902748
O O14 0.549662 0.261634 0.432828
O O15 0.256256 0.641101 0.741509
O O16 0.812592 0.046650 0.270400
#
# Coordination Sequence:
#
# PCOD9070719 Si02
#       8
#     2   2   2   2   1   2   2   2
#     4  12  26  47  71 106 146 189 246 289 358 435
#     4  12  25  45  75 107 139 198 238 302 355 428
#     4  12  25  46  74 105 144 188 249 294 361 431
#     4  12  26  47  72 103 148 192 242 299 361 434
#     4  12  26  44  72 110 144 178 236 304 356 430
#     4  12  25  47  77 107 148 184 243 297 363 425
#     4  12  26  47  71 106 144 193 240 300 361 428
#     4  12  27  47  72 109 147 191 234 308 360 429
#
# _framework density 22.389091000000001
#
# number of rings (size 3 to 8) (size 9 to 14) (size 15 to 20)
#    0.000    0.000    5.333    5.200    1.867    1.067 
#    2.400    1.333    0.000    0.000    0.000    0.000 
#    0.000    0.000    0.000    0.000    0.000    0.000 
#
# Total GULP energy -83797.568375 kJ/mol
# GULP energy per Si atom -5586.504558 kJ/mol
# Density = 2.233813 g / cm^3
# Si number density = 22.389091 Si / 1000 Ang^3
#
#
#
# Elastic Constant Matrix: (Units=GPa)
#
#
# Indices 1 2 3 4 5 6 
#
# 1 137.2059 64.1413 -0.1120 -7.5211 11.2658 -0.3738
# 2 64.1413 125.6615 10.5576 -27.7438 7.5274 -14.2272
# 3 -0.1120 10.5576 50.1637 -18.7747 0.0992 2.5102
# 4 -7.5211 -27.7438 -18.7747 41.1733 -0.9004 -6.3327
# 5 11.2658 7.5274 0.0992 -0.9004 21.1084 -8.6971
# 6 -0.3738 -14.2272 2.5102 -6.3327 -8.6971 32.8162
#
#
#
# Elastic Compliance Matrix: (Units=1/GPa)
#
#
# Indices 1 2 3 4 5 6 
#
# 1 0.010467 -0.006217 0.000496 -0.002876 -0.005389 -0.004597
# 2 -0.006217 0.014117 0.000275 0.009861 0.002213 0.008518
# 3 0.000496 0.000275 0.024100 0.011352 0.000227 0.000532
# 4 -0.002876 0.009861 0.011352 0.037492 0.004418 0.011780
# 5 -0.005389 0.002213 0.000227 0.004418 0.056536 0.016717
# 6 -0.004597 0.008518 0.000532 0.011780 0.016717 0.040776
#
#
# Mechanical properties :
#
#
# Convention : Reuss Voigt Hill
#
# Bulk Modulus (GPa) = 26.46067 51.35611 38.90839
# Shear Modulus (GPa) = 24.15720 34.91585 29.53652
#
# Velocity S-wave (km/s) = 3.28833 3.95334 3.63607
# Velocity P-wave (km/s) = 5.12462 6.62014 5.91980
#
# Compressibility (1/GPa) = 0.03779194
#
# Stress axis : x y z
#
# Youngs Moduli (GPa) = 95.53424 70.83585 41.49448
#
# Poissons Ratio (x) = 0.44040 -0.02059
# Poissons Ratio (y) = 0.59396 -0.01141
# Poissons Ratio (z) = -0.04740 -0.01948
#
# Static dielectric constant tensor:
#      x y z
#    x 1.805150 -0.018070 -0.022150 
#    y -0.018070 1.783810 0.028510 
#    z -0.022150 0.028510 1.887860 
# 
# From -- ./inp_files/153764.got.cif
#   From: 2010.05.17/outbox.cif.g08.bks.cpg/sg2_77_cif.got.tgz:153764.got - 2010.06.03 11:33:40.
