data_PCOD9070373
_publ_section_title
;
Structure prediction by ZEFSAII (Michael W. Deem and Ramdas Pophale) SiO2 
 PCOD9070373
Probable space group: P -1
;
_chemical_formula_sum "Si O2"
_cell_formula_units_Z 14
_cell_length_a 7.588784
_cell_length_b 13.797380
_cell_length_c 7.372113
_cell_angle_alpha 111.551313
_cell_angle_beta 121.791370
_cell_angle_gamma 96.156268
_cell_volume 564.337598
_symmetry_space_group_name_H-M "P -1"
_symmetry_group_IT_number 2
_symmetry_cell_setting 'triclinic'
loop_
_space_group_symop_operation_xyz
x,y,z
-x,-y,-z
loop_
_atom_site_type_symbol
_atom_site_label
_atom_site_fract_x
_atom_site_fract_y
_atom_site_fract_z
Si Si1 0.201154 0.144949 0.028628
Si Si2 0.825944 0.372773 0.339327
Si Si3 0.137465 0.855797 0.878757
Si Si4 0.034149 0.157715 0.584603
Si Si5 0.521407 0.041702 0.331521
Si Si6 0.509067 0.378906 0.469219
Si Si7 0.551224 0.630808 0.142676
O O1 0.160463 0.114503 0.774423
O O2 0.363984 0.104785 0.210986
O O3 0.306526 0.280630 0.195038
O O4 0.963348 0.116272 0.975613
O O5 0.913350 0.274457 0.275468
O O6 0.724592 0.368708 0.482441
O O7 0.000000 0.500000 0.500000
O O8 0.628471 0.348260 0.068859
O O9 0.006639 0.891566 0.673759
O O10 0.403515 0.925002 0.073706
O O11 0.202987 0.287106 0.733628
O O12 0.222553 0.876961 0.513174
O O13 0.500000 0.000000 0.500000
O O14 0.500000 0.500000 0.500000
O O15 0.488137 0.354906 0.655735
O O16 0.500000 0.500000 0.000000
#
# Coordination Sequence:
#
# PCOD9070373 Si02
#       7
#     2   2   2   2   2   2   2
#     4  12  26  51  79 116 163 209 267 337 406 479
#     4  12  27  46  78 119 157 204 271 331 405 487
#     4  12  27  49  78 115 159 214 267 329 409 478
#     4  12  26  49  80 113 161 206 271 325 410 474
#     4  12  29  52  80 118 163 214 279 335 400 478
#     4  12  24  47  78 113 161 203 266 332 401 484
#     4  12  25  47  80 115 160 214 262 332 413 478
#
# _framework density 24.807845
#
# number of rings (size 3 to 8) (size 9 to 14) (size 15 to 20)
#    0.000    0.000    5.714    3.429    2.000    2.286 
#    0.000    0.000    0.000    0.000    0.000    0.000 
#    0.000    0.000    0.000    0.000    0.000    0.000 
#
# Total GULP energy -78305.554718 kJ/mol
# GULP energy per Si atom -5593.253908 kJ/mol
# Density = 2.475138 g / cm^3
# Si number density = 24.807845 Si / 1000 Ang^3
#
#
#
# Elastic Constant Matrix: (Units=GPa)
#
#
# Indices 1 2 3 4 5 6 
#
# 1 144.8100 41.6003 50.9656 -4.6806 9.5908 28.0361
# 2 41.6003 157.7843 53.1890 8.7098 15.2739 10.7254
# 3 50.9656 53.1890 183.2429 -16.4178 7.8727 19.6855
# 4 -4.6806 8.7098 -16.4178 48.4593 12.3141 11.5889
# 5 9.5908 15.2739 7.8727 12.3141 55.3862 2.9525
# 6 28.0361 10.7254 19.6855 11.5889 2.9525 49.2830
#
#
#
# Elastic Compliance Matrix: (Units=1/GPa)
#
#
# Indices 1 2 3 4 5 6 
#
# 1 0.008844 -0.001599 -0.001264 0.002103 -0.001133 -0.004605
# 2 -0.001599 0.007601 -0.001959 -0.002040 -0.001118 0.000585
# 3 -0.001264 -0.001959 0.006973 0.003380 -0.000857 -0.002383
# 4 0.002103 -0.002040 0.003380 0.025629 -0.005565 -0.007796
# 5 -0.001133 -0.001118 -0.000857 -0.005565 0.019847 0.001349
# 6 -0.004605 0.000585 -0.002383 -0.007796 0.001349 0.025488
#
#
# Mechanical properties :
#
#
# Convention : Reuss Voigt Hill
#
# Bulk Modulus (GPa) = 72.59989 86.37189 79.48589
# Shear Modulus (GPa) = 46.03305 53.29785 49.66545
#
# Velocity S-wave (km/s) = 4.31232 4.64014 4.47923
# Velocity P-wave (km/s) = 7.35685 7.97495 7.67213
#
# Compressibility (1/GPa) = 0.01377413
#
# Stress axis : x y z
#
# Youngs Moduli (GPa) = 113.06584 131.56346 143.40780
#
# Poissons Ratio (x) = 0.21039 0.18126
# Poissons Ratio (y) = 0.18081 0.28094
# Poissons Ratio (z) = 0.14291 0.25774
#
# Static dielectric constant tensor:
#      x y z
#    x 2.017990 0.025400 0.011430 
#    y 0.025400 2.102160 -0.033380 
#    z 0.011430 -0.033380 1.945620 
# 
# From -- ./inp_files/188906.got.cif
#   From: 2010.05.17/outbox.cif.g08.bks.cpg/sg2_95_cif.got.tgz:188906.got - 2010.06.03 11:33:40.
