data_PCOD9070055
_publ_section_title
;
Structure prediction by ZEFSAII (Michael W. Deem and Ramdas Pophale) SiO2 
 PCOD9070055
Probable space group: P -1
;
_chemical_formula_sum "Si O2"
_cell_formula_units_Z 11
_cell_length_a 14.665065
_cell_length_b 9.260188
_cell_length_c 6.860860
_cell_angle_alpha 126.796246
_cell_angle_beta 49.271416
_cell_angle_gamma 140.779178
_cell_volume 437.870310
_symmetry_space_group_name_H-M "P -1"
_symmetry_group_IT_number 2
_symmetry_cell_setting 'triclinic'
loop_
_space_group_symop_operation_xyz
x,y,z
-x,-y,-z
loop_
_atom_site_type_symbol
_atom_site_label
_atom_site_fract_x
_atom_site_fract_y
_atom_site_fract_z
Si Si1 0.150007 0.037928 0.888242
Si Si2 0.123728 0.717588 0.367430
Si Si3 0.500000 0.000000 0.500000
Si Si4 0.584504 0.438167 0.974702
Si Si5 0.647725 0.345228 0.203259
Si Si6 0.969947 0.772964 0.277272
O O1 0.197223 0.951272 0.578108
O O2 0.255897 0.302285 0.019064
O O3 0.000000 0.000000 0.000000
O O4 0.097201 0.865559 0.003711
O O5 0.000000 0.500000 0.500000
O O6 0.019354 0.686932 0.309074
O O7 0.257210 0.715442 0.099972
O O8 0.430555 0.765662 0.276575
O O9 0.449524 0.841295 0.643122
O O10 0.500000 0.500000 0.000000
O O11 0.550850 0.366251 0.193585
O O12 0.793937 0.590136 0.297295
O O13 0.000000 0.000000 0.500000
#
# Coordination Sequence:
#
# PCOD9070055 Si02
#       6
#     2   2   1   2   2   2
#     4  12  24  50  81 122 161 201 274 343 411 478
#     4  12  26  44  82 124 161 201 267 347 417 474
#     4  12  32  56  78 108 178 220 274 324 414 494
#     4  12  30  54  83 117 164 225 276 339 409 497
#     4  12  28  52  79 121 162 219 278 331 413 498
#     4  12  24  44  80 119 159 204 259 341 413 481
#
# _framework density 25.121593000000001
#
# number of rings (size 3 to 8) (size 9 to 14) (size 15 to 20)
#    0.000    0.000    5.455    2.182    7.636    0.727 
#    0.000    0.000    0.000    0.000    0.000    0.000 
#    0.000    0.000    0.000    0.000    0.000    0.000 
#
# Total GULP energy -61342.050895 kJ/mol
# GULP energy per Si atom -5576.550081 kJ/mol
# Density = 2.506442 g / cm^3
# Si number density = 25.121593 Si / 1000 Ang^3
#
#
#
# Elastic Constant Matrix: (Units=GPa)
#
#
# Indices 1 2 3 4 5 6 
#
# 1 149.3874 68.6180 66.1998 -2.9359 51.4888 -21.4401
# 2 68.6180 201.5083 72.6396 27.0274 46.5242 -8.0045
# 3 66.1998 72.6396 141.1027 24.8348 40.7375 -5.3675
# 4 -2.9359 27.0274 24.8348 75.1721 -15.8305 30.7582
# 5 51.4888 46.5242 40.7375 -15.8305 45.1441 -10.4077
# 6 -21.4401 -8.0045 -5.3675 30.7582 -10.4077 47.2563
#
#
#
# Elastic Compliance Matrix: (Units=1/GPa)
#
#
# Indices 1 2 3 4 5 6 
#
# 1 0.012512 0.000038 -0.000985 -0.004263 -0.013686 0.005332
# 2 0.000038 0.008285 -0.000180 -0.006380 -0.009878 0.003377
# 3 -0.000985 -0.000180 0.012788 -0.008285 -0.012293 0.003661
# 4 -0.004263 -0.006380 -0.008285 0.031164 0.025552 -0.018613
# 5 -0.013686 -0.009878 -0.012293 0.025552 0.065339 -0.011520
# 6 0.005332 0.003377 0.003661 -0.018613 -0.011520 0.034146
#
#
# Mechanical properties :
#
#
# Convention : Reuss Voigt Hill
#
# Bulk Modulus (GPa) = 31.91648 100.76813 66.34231
# Shear Modulus (GPa) = 28.25972 52.48390 40.37181
#
# Velocity S-wave (km/s) = 3.35762 4.57573 4.01316
# Velocity P-wave (km/s) = 5.26914 8.25322 6.92385
#
# Compressibility (1/GPa) = 0.03133177
#
# Stress axis : x y z
#
# Youngs Moduli (GPa) = 79.92549 120.70087 78.19725
#
# Poissons Ratio (x) = -0.00460 0.07703
# Poissons Ratio (y) = -0.00305 0.01404
# Poissons Ratio (z) = 0.07873 0.02168
#
# Static dielectric constant tensor:
#      x y z
#    x 1.931780 0.011660 -0.064220 
#    y 0.011660 1.944540 -0.015850 
#    z -0.064220 -0.015850 1.979730 
# 
# From -- ./inp_files/89434.got.cif
#   From: 2010.05.17/outbox.cif.g08.bks.cpg/sg2_45_cif.got.tgz:89434.got - 2010.06.03 11:33:40.
