data_PCOD9070969
_publ_section_title
;
Structure prediction by ZEFSAII (Michael W. Deem and Ramdas Pophale) SiO2 
 PCOD9070969
Probable space group: P -1
;
_chemical_formula_sum "Si O2"
_cell_formula_units_Z 16
_cell_length_a 9.296719
_cell_length_b 15.752159
_cell_length_c 9.884849
_cell_angle_alpha 115.056933
_cell_angle_beta 113.554184
_cell_angle_gamma 34.233701
_cell_volume 734.233850
_symmetry_space_group_name_H-M "P -1"
_symmetry_group_IT_number 2
_symmetry_cell_setting 'triclinic'
loop_
_space_group_symop_operation_xyz
x,y,z
-x,-y,-z
loop_
_atom_site_type_symbol
_atom_site_label
_atom_site_fract_x
_atom_site_fract_y
_atom_site_fract_z
Si Si1 0.049697 0.860017 0.543989
Si Si2 0.781458 0.138861 0.108743
Si Si3 0.022337 0.378004 0.915376
Si Si4 0.370896 0.432583 0.552125
Si Si5 0.876211 0.729707 0.405129
Si Si6 0.516933 0.454196 0.129245
Si Si7 0.431895 0.139457 0.103052
Si Si8 0.497660 0.833148 0.542776
O O1 0.092609 0.886425 0.722119
O O2 0.340004 0.708345 0.495267
O O3 0.942722 0.806455 0.476409
O O4 0.810238 0.026264 0.494897
O O5 0.658372 0.287929 0.090567
O O6 0.592844 0.142568 0.082887
O O7 0.000000 0.000000 0.000000
O O8 0.763364 0.440486 0.848001
O O9 0.181466 0.279631 0.773570
O O10 0.000000 0.500000 0.000000
O O11 0.146845 0.286697 0.040017
O O12 0.362424 0.521272 0.715721
O O13 0.361583 0.332857 0.540690
O O14 0.137621 0.556609 0.443065
O O15 0.637861 0.829722 0.482733
O O16 0.500000 0.500000 0.000000
O O17 0.455092 0.152293 0.278139
O O18 0.500000 0.000000 0.000000
#
# Coordination Sequence:
#
# PCOD9070969 Si02
#       8
#     2   2   2   2   2   2   2   2
#     4  12  25  48  76 103 150 196 253 303 373 436
#     4  12  29  49  75 109 152 195 247 314 373 441
#     4  12  26  46  74 103 152 194 246 306 377 437
#     4  12  25  48  76 105 144 193 258 306 362 439
#     4  12  26  47  74 106 145 200 250 306 371 442
#     4  12  29  48  78 111 144 198 254 310 373 445
#     4  12  29  47  72 109 157 198 241 303 378 447
#     4  12  29  45  73 113 152 195 250 309 369 444
#
# _framework density 21.791422000000001
#
# number of rings (size 3 to 8) (size 9 to 14) (size 15 to 20)
#    0.000    0.000    5.000    3.750   10.500    0.000 
#    0.000    0.000    0.000    0.000    0.000    0.000 
#    0.000    0.000    0.000    0.000    0.000    0.000 
#
# Total GULP energy -89455.336718 kJ/mol
# GULP energy per Si atom -5590.958545 kJ/mol
# Density = 2.174182 g / cm^3
# Si number density = 21.791422 Si / 1000 Ang^3
#
#
#
# Elastic Constant Matrix: (Units=GPa)
#
#
# Indices 1 2 3 4 5 6 
#
# 1 67.2266 9.6507 47.7779 16.4961 -0.2691 8.4262
# 2 9.6507 115.9222 33.6307 -5.7224 -1.4886 10.2966
# 3 47.7779 33.6307 113.1621 -2.0450 -5.8748 -0.6501
# 4 16.4961 -5.7224 -2.0450 38.1528 1.5574 5.3553
# 5 -0.2691 -1.4886 -5.8748 1.5574 36.7462 12.8422
# 6 8.4262 10.2966 -0.6501 5.3553 12.8422 41.7252
#
#
#
# Elastic Compliance Matrix: (Units=1/GPa)
#
#
# Indices 1 2 3 4 5 6 
#
# 1 0.026294 0.001024 -0.011614 -0.011233 0.000400 -0.004425
# 2 0.001024 0.009853 -0.003308 0.001260 0.000920 -0.003135
# 3 -0.011614 -0.003308 0.014884 0.004938 0.001106 0.002419
# 4 -0.011233 0.001260 0.004938 0.031809 0.000141 -0.002092
# 5 0.000400 0.000920 0.001106 0.000141 0.030851 -0.009804
# 6 -0.004425 -0.003135 0.002419 -0.002092 -0.009804 0.028957
#
#
# Mechanical properties :
#
#
# Convention : Reuss Voigt Hill
#
# Bulk Modulus (GPa) = 43.03654 53.15883 48.09768
# Shear Modulus (GPa) = 28.05996 37.00829 32.53412
#
# Velocity S-wave (km/s) = 3.59229 4.12551 3.86810
# Velocity P-wave (km/s) = 6.08262 6.86589 6.48609
#
# Compressibility (1/GPa) = 0.02323607
#
# Stress axis : x y z
#
# Youngs Moduli (GPa) = 38.03077 101.48753 67.18648
#
# Poissons Ratio (x) = -0.10391 0.78028
# Poissons Ratio (y) = -0.03894 0.22226
# Poissons Ratio (z) = 0.44168 0.33573
#
# Static dielectric constant tensor:
#      x y z
#    x 1.954650 -0.236870 0.395350 
#    y -0.236870 2.303530 -0.782360 
#    z 0.395350 -0.782360 2.996750 
# 
# From -- ./inp_files/208461.got.cif
#   From: 2010.05.17/outbox.cif.g08.bks.cpg/sg2_105_cif.got.tgz:208461.got - 2010.06.03 11:33:40.
