data_PCOD9070678
_publ_section_title
;
Structure prediction by ZEFSAII (Michael W. Deem and Ramdas Pophale) SiO2 
 PCOD9070678
Probable space group: P -1
;
_chemical_formula_sum "Si O2"
_cell_formula_units_Z 12
_cell_length_a 8.002816
_cell_length_b 9.308796
_cell_length_c 18.146346
_cell_angle_alpha 133.655800
_cell_angle_beta 137.056867
_cell_angle_gamma 32.353278
_cell_volume 483.158917
_symmetry_space_group_name_H-M "P -1"
_symmetry_group_IT_number 2
_symmetry_cell_setting 'triclinic'
loop_
_space_group_symop_operation_xyz
x,y,z
-x,-y,-z
loop_
_atom_site_type_symbol
_atom_site_label
_atom_site_fract_x
_atom_site_fract_y
_atom_site_fract_z
Si Si1 0.501126 0.484348 0.388493
Si Si2 0.668947 0.326603 0.220164
Si Si3 0.009523 0.725408 0.063256
Si Si4 0.101585 0.720030 0.931977
Si Si5 0.235664 0.262212 0.317253
Si Si6 0.272900 0.052494 0.514214
O O1 0.523928 0.394547 0.280009
O O2 0.366855 0.398022 0.372938
O O3 0.283059 0.806402 0.429937
O O4 0.886915 0.330080 0.477929
O O5 0.388475 0.559814 0.154708
O O6 0.955984 0.338965 0.313719
O O7 0.802129 0.032521 0.134970
O O8 0.928549 0.742519 0.957757
O O9 0.000000 0.500000 0.000000
O O10 0.942227 0.724203 0.808517
O O11 0.500000 0.500000 0.000000
O O12 0.000000 0.000000 0.000000
O O13 0.566849 0.985267 0.367391
O O14 0.500000 0.000000 0.500000
#
# Coordination Sequence:
#
# PCOD9070678 Si02
#       6
#     2   2   2   2   2   2
#     4  12  28  49  76 113 143 193 248 299 370 439
#     4  12  26  46  77 106 149 194 240 303 369 421
#     4  12  25  47  72 105 148 195 247 297 354 435
#     4  12  25  45  69 105 143 189 238 291 358 425
#     4  12  27  48  78 106 151 190 247 303 365 435
#     4  12  27  50  78 106 149 192 242 307 371 433
#
# _framework density 24.836548000000001
#
# number of rings (size 3 to 8) (size 9 to 14) (size 15 to 20)
#    0.000    0.000    5.000    4.000    0.000    5.333 
#    0.000    0.000    0.000    0.000    0.000    0.000 
#    0.000    0.000    0.000    0.000    0.000    0.000 
#
# Total GULP energy -66970.315709 kJ/mol
# GULP energy per Si atom -5580.859642 kJ/mol
# Density = 2.478002 g / cm^3
# Si number density = 24.836548 Si / 1000 Ang^3
#
#
#
# Elastic Constant Matrix: (Units=GPa)
#
#
# Indices 1 2 3 4 5 6 
#
# 1 135.9306 14.4320 48.2871 14.9274 -9.1881 33.5134
# 2 14.4320 96.8622 34.7097 1.2956 -14.6648 4.4570
# 3 48.2871 34.7097 131.0889 -17.4272 -12.0885 -0.1640
# 4 14.9274 1.2956 -17.4272 52.8675 12.6093 1.7229
# 5 -9.1881 -14.6648 -12.0885 12.6093 54.1333 -6.6734
# 6 33.5134 4.4570 -0.1640 1.7229 -6.6734 51.6095
#
#
#
# Elastic Compliance Matrix: (Units=1/GPa)
#
#
# Indices 1 2 3 4 5 6 
#
# 1 0.011437 0.000654 -0.004934 -0.004945 0.001285 -0.007168
# 2 0.000654 0.011993 -0.003447 -0.002298 0.003001 -0.001007
# 3 -0.004934 -0.003447 0.011024 0.005017 -0.000064 0.003361
# 4 -0.004945 -0.002298 0.005017 0.023276 -0.005525 0.001934
# 5 0.001285 0.003001 -0.000064 -0.005525 0.020999 0.001806
# 6 -0.007168 -0.001007 0.003361 0.001934 0.001806 0.024297
#
#
# Mechanical properties :
#
#
# Convention : Reuss Voigt Hill
#
# Bulk Modulus (GPa) = 52.62713 62.08213 57.35463
# Shear Modulus (GPa) = 40.06008 49.48558 44.77283
#
# Velocity S-wave (km/s) = 4.02051 4.46853 4.25043
# Velocity P-wave (km/s) = 6.54126 7.18848 6.87249
#
# Compressibility (1/GPa) = 0.01900161
#
# Stress axis : x y z
#
# Youngs Moduli (GPa) = 87.43582 83.38231 90.71335
#
# Poissons Ratio (x) = -0.05457 0.44758
# Poissons Ratio (y) = -0.05722 0.31265
# Poissons Ratio (z) = 0.43141 0.28738
#
# Static dielectric constant tensor:
#      x y z
#    x 1.995700 -0.058420 -0.054810 
#    y -0.058420 1.868450 0.015060 
#    z -0.054810 0.015060 2.023090 
# 
# From -- ./inp_files/360221.got.cif
#   From: 2010.05.17/outbox.cif.g08.bks.cpg/sg2_181_cif.got.tgz:360221.got - 2010.06.03 11:33:40.
