data_PCOD9070426
_publ_section_title
;
Structure prediction by ZEFSAII (Michael W. Deem and Ramdas Pophale) SiO2 
 PCOD9070426
Probable space group: P -1
;
_chemical_formula_sum "Si O2"
_cell_formula_units_Z 16
_cell_length_a 14.836445
_cell_length_b 9.731254
_cell_length_c 9.815503
_cell_angle_alpha 68.044360
_cell_angle_beta 73.667040
_cell_angle_gamma 35.463366
_cell_volume 761.849958
_symmetry_space_group_name_H-M "P -1"
_symmetry_group_IT_number 2
_symmetry_cell_setting 'triclinic'
loop_
_space_group_symop_operation_xyz
x,y,z
-x,-y,-z
loop_
_atom_site_type_symbol
_atom_site_label
_atom_site_fract_x
_atom_site_fract_y
_atom_site_fract_z
Si Si1 0.569654 0.487197 0.609727
Si Si2 0.960330 0.378779 0.537399
Si Si3 0.921109 0.440316 0.072344
Si Si4 0.914938 0.962105 0.620156
Si Si5 0.416791 0.046111 0.884073
Si Si6 0.976374 0.860239 0.115144
Si Si7 0.387537 0.226676 0.563407
Si Si8 0.606897 0.251852 0.128213
O O1 0.500000 0.500000 0.500000
O O2 0.607492 0.607241 0.517150
O O3 0.453133 0.645778 0.729172
O O4 0.741756 0.202913 0.663031
O O5 0.790597 0.592584 0.459326
O O6 0.000000 0.500000 0.500000
O O7 0.082349 0.157839 0.460260
O O8 0.967492 0.264349 0.711789
O O9 0.758920 0.692036 0.108118
O O10 0.991944 0.230764 0.224270
O O11 0.000000 0.500000 0.000000
O O12 0.926552 0.358756 0.952555
O O13 0.000000 0.000000 0.500000
O O14 0.461060 0.096812 0.724566
O O15 0.425507 0.868814 0.883048
O O16 0.500000 0.000000 0.000000
O O17 0.791575 0.053547 0.114085
O O18 0.000000 0.000000 0.000000
O O19 0.500000 0.000000 0.500000
O O20 0.500000 0.500000 0.000000
#
# Coordination Sequence:
#
# PCOD9070426 Si02
#       8
#     2   2   2   2   2   2   2   2
#     4  12  28  46  77 110 149 198 247 303 378 445
#     4  12  26  48  78 107 145 196 254 308 372 442
#     4  12  25  46  71 105 144 191 247 305 365 433
#     4  12  24  48  74 103 146 194 244 306 365 438
#     4  12  28  49  75 109 151 199 246 304 376 447
#     4  12  28  46  78 109 147 196 252 308 378 444
#     4  12  27  49  74 107 151 194 249 310 369 444
#     4  12  28  51  71 109 158 193 246 313 371 446
#
# _framework density 21.00151
#
# number of rings (size 3 to 8) (size 9 to 14) (size 15 to 20)
#    0.000    0.000    5.000    3.750    8.750    0.000 
#    0.000    0.000    0.000    0.000    0.000    0.000 
#    0.000    0.000    0.000    0.000    0.000    0.000 
#
# Total GULP energy -89315.456264 kJ/mol
# GULP energy per Si atom -5582.216017 kJ/mol
# Density = 2.095371 g / cm^3
# Si number density = 21.001510 Si / 1000 Ang^3
#
#
#
# Elastic Constant Matrix: (Units=GPa)
#
#
# Indices 1 2 3 4 5 6 
#
# 1 81.5642 17.8976 18.1777 0.0374 2.9153 16.7643
# 2 17.8976 130.3647 25.5132 12.9844 9.8963 16.7873
# 3 18.1777 25.5132 131.9880 7.1008 23.9254 2.3578
# 4 0.0374 12.9844 7.1008 48.3430 4.3288 11.2387
# 5 2.9153 9.8963 23.9254 4.3288 32.6282 1.1263
# 6 16.7643 16.7873 2.3578 11.2387 1.1263 34.4591
#
#
#
# Elastic Compliance Matrix: (Units=1/GPa)
#
#
# Indices 1 2 3 4 5 6 
#
# 1 0.014319 -0.000929 -0.001837 0.002129 0.000312 -0.007093
# 2 -0.000929 0.008678 -0.001167 -0.001281 -0.001412 -0.003232
# 3 -0.001837 -0.001167 0.009191 -0.000783 -0.006162 0.001290
# 4 0.002129 -0.001281 -0.000783 0.023147 -0.002028 -0.007841
# 5 0.000312 -0.001412 -0.006162 -0.002028 0.035821 0.000448
# 6 -0.007093 -0.003232 0.001290 -0.007841 0.000448 0.036499
#
#
# Mechanical properties :
#
#
# Convention : Reuss Voigt Hill
#
# Bulk Modulus (GPa) = 41.11371 51.89934 46.50652
# Shear Modulus (GPa) = 34.81211 41.90796 38.36004
#
# Velocity S-wave (km/s) = 4.07578 4.47192 4.27844
# Velocity P-wave (km/s) = 6.46285 7.17147 6.82636
#
# Compressibility (1/GPa) = 0.02432279
#
# Stress axis : x y z
#
# Youngs Moduli (GPa) = 69.83665 115.23943 108.80099
#
# Poissons Ratio (x) = 0.10703 0.19985
# Poissons Ratio (y) = 0.06486 0.12696
# Poissons Ratio (z) = 0.12828 0.13447
#
# Static dielectric constant tensor:
#      x y z
#    x 1.845540 0.055680 0.099650 
#    y 0.055680 1.812210 0.030600 
#    z 0.099650 0.030600 1.804410 
# 
# From -- ./inp_files/190699.got.cif
#   From: 2010.05.17/outbox.cif.g08.bks.cpg/sg2_96_cif.got.tgz:190699.got - 2010.06.03 11:33:40.
