data_PCOD9070119
_publ_section_title
;
Structure prediction by ZEFSAII (Michael W. Deem and Ramdas Pophale) SiO2 
 PCOD9070119
Probable space group: P -1
;
_chemical_formula_sum "Si O2"
_cell_formula_units_Z 13
_cell_length_a 16.938793
_cell_length_b 13.897666
_cell_length_c 10.465094
_cell_angle_alpha 30.295559
_cell_angle_beta 140.050838
_cell_angle_gamma 154.058495
_cell_volume 543.120214
_symmetry_space_group_name_H-M "P -1"
_symmetry_group_IT_number 2
_symmetry_cell_setting 'triclinic'
loop_
_space_group_symop_operation_xyz
x,y,z
-x,-y,-z
loop_
_atom_site_type_symbol
_atom_site_label
_atom_site_fract_x
_atom_site_fract_y
_atom_site_fract_z
Si Si1 0.302216 0.046708 0.661752
Si Si2 0.822514 0.398178 0.154938
Si Si3 0.992968 0.982542 0.663642
Si Si4 0.384712 0.479198 0.678063
Si Si5 0.000000 0.500000 0.500000
Si Si6 0.337051 0.712426 0.552301
Si Si7 0.572287 0.871439 0.990039
O O1 0.194211 0.734415 0.846211
O O2 0.178169 0.086488 0.430316
O O3 0.479080 0.257026 0.550707
O O4 0.358566 0.114816 0.801258
O O5 0.879883 0.320512 0.427035
O O6 0.629083 0.277099 0.074256
O O7 0.967784 0.733041 0.954871
O O8 0.177620 0.270571 0.618825
O O9 0.000000 0.000000 0.500000
O O10 0.396521 0.579991 0.718152
O O11 0.423059 0.300430 0.904449
O O12 0.844779 0.482923 0.368790
O O13 0.500000 0.000000 0.500000
O O14 0.308711 0.823232 0.269821
#
# Coordination Sequence:
#
# PCOD9070119 Si02
#       7
#     2   2   2   2   1   2   2
#     4  12  25  46  77 111 153 192 247 304 377 444
#     4  12  26  48  77 106 152 202 245 306 369 438
#     4  12  26  44  71 116 151 189 241 303 376 439
#     4  12  25  46  76 109 146 193 243 305 371 444
#     4  12  26  52  70 104 148 192 254 302 356 442
#     4  12  27  50  74 103 143 199 255 301 367 437
#     4  12  24  45  76 110 148 193 243 309 372 440
#
# _framework density 23.935769000000001
#
# number of rings (size 3 to 8) (size 9 to 14) (size 15 to 20)
#    0.000    0.000    6.154    3.692    2.154    1.231 
#    0.000    5.385    0.000    0.000    0.000    0.000 
#    0.000    0.000    0.000    0.000    0.000    0.000 
#
# Total GULP energy -72548.878375 kJ/mol
# GULP energy per Si atom -5580.682952 kJ/mol
# Density = 2.388129 g / cm^3
# Si number density = 23.935769 Si / 1000 Ang^3
#
#
#
# Elastic Constant Matrix: (Units=GPa)
#
#
# Indices 1 2 3 4 5 6 
#
# 1 138.3864 45.2965 19.9035 -10.6704 24.9487 -31.4300
# 2 45.2965 133.7314 16.5851 8.8145 19.6963 -10.3945
# 3 19.9035 16.5851 27.7949 -4.8294 15.6238 0.5153
# 4 -10.6704 8.8145 -4.8294 30.5320 5.5518 2.2737
# 5 24.9487 19.6963 15.6238 5.5518 35.2212 -4.1053
# 6 -31.4300 -10.3945 0.5153 2.2737 -4.1053 41.2085
#
#
#
# Elastic Compliance Matrix: (Units=1/GPa)
#
#
# Indices 1 2 3 4 5 6 
#
# 1 0.011453 -0.002452 -0.003143 0.004611 -0.005214 0.007382
# 2 -0.002452 0.009254 -0.003917 -0.004015 -0.000994 0.000636
# 3 -0.003143 -0.003917 0.056353 0.013772 -0.023591 -0.007200
# 4 0.004611 -0.004015 0.013772 0.040272 -0.013624 -0.001247
# 5 -0.005214 -0.000994 -0.023591 -0.013624 0.045410 0.001343
# 6 0.007382 0.000636 -0.007200 -0.001247 0.001343 0.030350
#
#
# Mechanical properties :
#
#
# Convention : Reuss Voigt Hill
#
# Bulk Modulus (GPa) = 17.23063 51.49810 34.36437
# Shear Modulus (GPa) = 21.60193 35.93418 28.76806
#
# Velocity S-wave (km/s) = 3.00742 3.87883 3.47058
# Velocity P-wave (km/s) = 4.39019 6.45153 5.51797
#
# Compressibility (1/GPa) = 0.05803617
#
# Stress axis : x y z
#
# Youngs Moduli (GPa) = 87.31467 108.05768 17.74533
#
# Poissons Ratio (x) = 0.26492 0.05578
# Poissons Ratio (y) = 0.21407 0.06951
# Poissons Ratio (z) = 0.27445 0.42326
#
# Static dielectric constant tensor:
#      x y z
#    x 1.912460 0.012510 -0.027990 
#    y 0.012510 1.866030 -0.003950 
#    z -0.027990 -0.003950 1.981880 
# 
# From -- ./inp_files/304454.got.cif
#   From: 2010.05.17/outbox.cif.g08.bks.cpg/sg2_153_cif.got.tgz:304454.got - 2010.06.03 11:33:40.
