data_PCOD9070573
_publ_section_title
;
Structure prediction by ZEFSAII (Michael W. Deem and Ramdas Pophale) SiO2 
 PCOD9070573
Probable space group: P -1
;
_chemical_formula_sum "Si O2"
_cell_formula_units_Z 13
_cell_length_a 8.729862
_cell_length_b 9.098321
_cell_length_c 9.886737
_cell_angle_alpha 72.968809
_cell_angle_beta 131.384026
_cell_angle_gamma 110.809817
_cell_volume 548.864152
_symmetry_space_group_name_H-M "P -1"
_symmetry_group_IT_number 2
_symmetry_cell_setting 'triclinic'
loop_
_space_group_symop_operation_xyz
x,y,z
-x,-y,-z
loop_
_atom_site_type_symbol
_atom_site_label
_atom_site_fract_x
_atom_site_fract_y
_atom_site_fract_z
Si Si1 0.647544 0.645442 0.398340
Si Si2 0.756633 0.931203 0.897505
Si Si3 0.377617 0.678315 0.660570
Si Si4 0.000000 0.500000 0.000000
Si Si5 0.103566 0.710095 0.756696
Si Si6 0.733928 0.266434 0.710216
Si Si7 0.712302 0.942561 0.166397
O O1 0.601110 0.498233 0.309350
O O2 0.453756 0.649195 0.381702
O O3 0.694294 0.809251 0.301636
O O4 0.860864 0.638380 0.601144
O O5 0.609147 0.792137 0.765950
O O6 0.669646 0.087694 0.775102
O O7 0.750985 0.873978 0.063150
O O8 0.000000 0.000000 0.000000
O O9 0.253669 0.691986 0.723546
O O10 0.253353 0.729565 0.446041
O O11 0.063091 0.635347 0.120714
O O12 0.856072 0.375073 0.058779
O O13 0.125556 0.895955 0.746259
O O14 0.500000 0.000000 0.000000
#
# Coordination Sequence:
#
# PCOD9070573 Si02
#       7
#     2   2   2   1   2   2   2
#     4  12  27  46  79 110 153 203 252 313 385 446
#     4  12  29  47  77 110 156 200 255 314 378 449
#     4  12  28  49  75 116 153 198 257 317 374 451
#     4  12  26  46  82 104 152 196 254 310 376 450
#     4  12  26  50  79 110 155 200 254 312 381 455
#     4  12  27  50  75 108 158 195 255 311 383 452
#     4  12  24  51  72 109 152 206 249 311 378 454
#
# _framework density 23.685276999999999
#
# number of rings (size 3 to 8) (size 9 to 14) (size 15 to 20)
#    0.000    0.000    6.154    1.846    6.462    0.615 
#    0.000    0.000    0.000    0.000    0.000    0.000 
#    0.000    0.000    0.000    0.000    0.000    0.000 
#
# Total GULP energy -72523.715924 kJ/mol
# GULP energy per Si atom -5578.747379 kJ/mol
# Density = 2.363137 g / cm^3
# Si number density = 23.685277 Si / 1000 Ang^3
#
#
#
# Elastic Constant Matrix: (Units=GPa)
#
#
# Indices 1 2 3 4 5 6 
#
# 1 35.0884 -12.2721 28.4633 -3.1388 -7.9911 11.5132
# 2 -12.2721 147.8904 24.1821 28.2767 1.2039 17.4033
# 3 28.4633 24.1821 72.1475 16.5416 -16.4321 1.2751
# 4 -3.1388 28.2767 16.5416 56.6100 12.7984 -1.3010
# 5 -7.9911 1.2039 -16.4321 12.7984 53.4357 -5.2454
# 6 11.5132 17.4033 1.2751 -1.3010 -5.2454 30.5969
#
#
#
# Elastic Compliance Matrix: (Units=1/GPa)
#
#
# Indices 1 2 3 4 5 6 
#
# 1 0.075220 0.015089 -0.037324 0.008078 -0.006039 -0.036023
# 2 0.015089 0.011383 -0.009466 -0.001995 -0.001623 -0.012120
# 3 -0.037324 -0.009466 0.035863 -0.009605 0.009847 0.019214
# 4 0.008078 -0.001995 -0.009605 0.023575 -0.007523 -0.001792
# 5 -0.006039 -0.001623 0.009847 -0.007523 0.023312 0.006462
# 6 -0.036023 -0.012120 0.019214 -0.001792 0.006462 0.053363
#
#
# Mechanical properties :
#
#
# Convention : Reuss Voigt Hill
#
# Bulk Modulus (GPa) = 16.93080 37.31919 27.12500
# Shear Modulus (GPa) = 16.35024 42.44539 29.39782
#
# Velocity S-wave (km/s) = 2.63023 4.23786 3.52687
# Velocity P-wave (km/s) = 4.04820 6.30369 5.29738
#
# Compressibility (1/GPa) = 0.05906396
#
# Stress axis : x y z
#
# Youngs Moduli (GPa) = 13.29431 87.85394 27.88362
#
# Poissons Ratio (x) = -1.32559 1.04072
# Poissons Ratio (y) = -0.20059 0.26394
# Poissons Ratio (z) = 0.49619 0.83162
#
# Static dielectric constant tensor:
#      x y z
#    x 1.921640 0.097690 0.103050 
#    y 0.097690 2.147850 0.060920 
#    z 0.103050 0.060920 1.959030 
# 
# From -- ./inp_files/158241.got.cif
#   From: 2010.05.17/outbox.cif.g08.bks.cpg/sg2_80_cif.got.tgz:158241.got - 2010.06.03 11:33:40.
