data_PCOD9070021
_publ_section_title
;
Structure prediction by ZEFSAII (Michael W. Deem and Ramdas Pophale) SiO2 
 PCOD9070021
Probable space group: P -1
;
_chemical_formula_sum "Si O2"
_cell_formula_units_Z 16
_cell_length_a 7.521546
_cell_length_b 7.926299
_cell_length_c 14.626676
_cell_angle_alpha 88.828219
_cell_angle_beta 65.676127
_cell_angle_gamma 59.438744
_cell_volume 664.082797
_symmetry_space_group_name_H-M "P -1"
_symmetry_group_IT_number 2
_symmetry_cell_setting 'triclinic'
loop_
_space_group_symop_operation_xyz
x,y,z
-x,-y,-z
loop_
_atom_site_type_symbol
_atom_site_label
_atom_site_fract_x
_atom_site_fract_y
_atom_site_fract_z
Si Si1 0.808982 0.218457 0.998669
Si Si2 0.709340 0.446245 0.386314
Si Si3 0.901348 0.878117 0.567129
Si Si4 0.332846 0.283816 0.138284
Si Si5 0.856194 0.277454 0.781252
Si Si6 0.752804 0.809182 0.423864
Si Si7 0.167235 0.550371 0.838426
Si Si8 0.540264 0.116958 0.779466
O O1 0.881066 0.250172 0.884538
O O2 0.789021 0.369454 0.079054
O O3 0.556658 0.250255 0.038532
O O4 0.000000 0.000000 0.000000
O O5 0.500000 0.500000 0.500000
O O6 0.739778 0.630308 0.389280
O O7 0.707140 0.421297 0.277255
O O8 0.937381 0.249705 0.381415
O O9 0.894406 0.745208 0.490009
O O10 0.644815 0.032725 0.658333
O O11 0.000000 0.000000 0.500000
O O12 0.248414 0.484069 0.215732
O O13 0.106395 0.336829 0.127721
O O14 0.422727 0.073897 0.172512
O O15 0.692708 0.201909 0.784227
O O16 0.100134 0.148516 0.678225
O O17 0.500000 0.000000 0.500000
O O18 0.281843 0.312450 0.828390
#
# Coordination Sequence:
#
# PCOD9070021 Si02
#       8
#     2   2   2   2   2   2   2   2
#     4  12  31  52  84 120 162 220 271 338 407 479
#     4  12  27  47  74 117 158 206 267 328 401 484
#     4  12  24  44  74 113 153 205 258 326 398 472
#     4  12  28  54  78 121 162 209 275 336 399 476
#     4  12  27  55  76 117 168 205 278 340 396 492
#     4  12  26  47  77 115 156 208 262 329 407 477
#     4  12  27  53  81 117 164 214 269 337 403 486
#     4  12  26  49  85 114 162 215 267 335 407 484
#
# _framework density 24.093378999999999
#
# number of rings (size 3 to 8) (size 9 to 14) (size 15 to 20)
#    0.000    0.000    5.000    3.750    1.750    3.500 
#    0.000    0.000    0.000    0.000    0.000    0.000 
#    0.000    0.000    0.000    0.000    0.000    0.000 
#
# Total GULP energy -89677.805246 kJ/mol
# GULP energy per Si atom -5604.862828 kJ/mol
# Density = 2.403854 g / cm^3
# Si number density = 24.093379 Si / 1000 Ang^3
#
#
#
# Elastic Constant Matrix: (Units=GPa)
#
#
# Indices 1 2 3 4 5 6 
#
# 1 93.7560 20.0295 71.3018 -14.6937 3.6921 -0.8793
# 2 20.0295 155.2369 48.4074 -6.7155 0.6529 -14.0536
# 3 71.3018 48.4074 163.2728 4.6090 7.3160 -6.3371
# 4 -14.6937 -6.7155 4.6090 33.1008 -7.1819 -4.9211
# 5 3.6921 0.6529 7.3160 -7.1819 51.0103 5.8781
# 6 -0.8793 -14.0536 -6.3371 -4.9211 5.8781 35.3838
#
#
#
# Elastic Compliance Matrix: (Units=1/GPa)
#
#
# Indices 1 2 3 4 5 6 
#
# 1 0.018618 0.000765 -0.008679 0.009956 0.001244 0.000390
# 2 0.000765 0.007511 -0.002537 0.002701 0.000261 0.002880
# 3 -0.008679 -0.002537 0.010931 -0.006257 -0.001807 0.000164
# 4 0.009956 0.002701 -0.006257 0.037809 0.004931 0.004639
# 5 0.001244 0.000261 -0.001807 0.004931 0.020805 -0.002960
# 6 0.000390 0.002880 0.000164 0.004639 -0.002960 0.030581
#
#
# Mechanical properties :
#
#
# Convention : Reuss Voigt Hill
#
# Bulk Modulus (GPa) = 61.89025 76.86033 69.37529
# Shear Modulus (GPa) = 32.77758 42.06746 37.42252
#
# Velocity S-wave (km/s) = 3.69241 4.18307 3.94538
# Velocity P-wave (km/s) = 6.62737 7.43647 7.04354
#
# Compressibility (1/GPa) = 0.01615763
#
# Stress axis : x y z
#
# Youngs Moduli (GPa) = 53.71131 133.14378 91.48269
#
# Poissons Ratio (x) = -0.10185 0.79398
# Poissons Ratio (y) = -0.04109 0.23209
# Poissons Ratio (z) = 0.46616 0.33779
#
# Static dielectric constant tensor:
#      x y z
#    x 1.935380 -0.016990 -0.005970 
#    y -0.016990 1.904670 0.014560 
#    z -0.005970 0.014560 1.969890 
# 
# From -- ./inp_files/556137.got.cif
#   From: 2010.05.17/outbox.cif.g08.bks.cpg/sg2_279_cif.got.tgz:556137.got - 2010.06.03 11:33:40.
