data_PCOD9070206
_publ_section_title
;
Structure prediction by ZEFSAII (Michael W. Deem and Ramdas Pophale) SiO2 
 PCOD9070206
Probable space group: P -1
;
_chemical_formula_sum "Si O2"
_cell_formula_units_Z 12
_cell_length_a 7.985361
_cell_length_b 8.604292
_cell_length_c 9.895098
_cell_angle_alpha 100.709196
_cell_angle_beta 69.021492
_cell_angle_gamma 125.085158
_cell_volume 519.287168
_symmetry_space_group_name_H-M "P -1"
_symmetry_group_IT_number 2
_symmetry_cell_setting 'triclinic'
loop_
_space_group_symop_operation_xyz
x,y,z
-x,-y,-z
loop_
_atom_site_type_symbol
_atom_site_label
_atom_site_fract_x
_atom_site_fract_y
_atom_site_fract_z
Si Si1 0.035920 0.146532 0.896675
Si Si2 0.479181 0.521857 0.848256
Si Si3 0.670369 0.183003 0.073104
Si Si4 0.093098 0.917055 0.363920
Si Si5 0.289319 0.469434 0.481159
Si Si6 0.567769 0.134878 0.377294
O O1 0.941647 0.036060 0.767791
O O2 0.283042 0.310735 0.831381
O O3 0.904385 0.248595 0.960600
O O4 0.000000 0.000000 0.000000
O O5 0.401881 0.668006 0.879864
O O6 0.669014 0.563550 0.693517
O O7 0.500000 0.500000 0.000000
O O8 0.702158 0.139828 0.212212
O O9 0.500000 0.000000 0.000000
O O10 0.937411 0.695190 0.413397
O O11 0.342169 0.036816 0.345767
O O12 0.000000 0.000000 0.500000
O O13 0.500000 0.500000 0.500000
O O14 0.317109 0.663399 0.549767
O O15 0.500000 0.000000 0.500000
#
# Coordination Sequence:
#
# PCOD9070206 Si02
#       6
#     2   2   2   2   2   2
#     4  12  27  44  74 107 142 193 243 293 372 432
#     4  12  27  46  74 106 145 192 242 301 359 432
#     4  12  25  46  69 104 150 186 239 301 359 426
#     4  12  24  46  75 102 145 191 241 296 359 431
#     4  12  24  47  74 103 143 193 240 290 366 426
#     4  12  28  46  73 109 148 188 240 304 360 435
#
# _framework density 23.108599999999999
#
# number of rings (size 3 to 8) (size 9 to 14) (size 15 to 20)
#    0.000    0.000    6.667    1.500    9.333    0.667 
#    0.000    0.000    0.000    0.000    0.000    0.000 
#    0.000    0.000    0.000    0.000    0.000    0.000 
#
# Total GULP energy -66895.242980 kJ/mol
# GULP energy per Si atom -5574.603582 kJ/mol
# Density = 2.305600 g / cm^3
# Si number density = 23.108600 Si / 1000 Ang^3
#
#
#
# Elastic Constant Matrix: (Units=GPa)
#
#
# Indices 1 2 3 4 5 6 
#
# 1 33.2906 7.9450 24.5355 -3.4053 17.5487 6.0826
# 2 7.9450 146.1977 17.3720 -5.2710 11.0339 -9.4272
# 3 24.5355 17.3720 173.0007 8.9620 33.2908 -12.9127
# 4 -3.4053 -5.2710 8.9620 39.7165 3.0441 -1.4710
# 5 17.5487 11.0339 33.2908 3.0441 47.2638 -4.6396
# 6 6.0826 -9.4272 -12.9127 -1.4710 -4.6396 28.7781
#
#
#
# Elastic Compliance Matrix: (Units=1/GPa)
#
#
# Indices 1 2 3 4 5 6 
#
# 1 0.044719 -0.001485 -0.004699 0.005298 -0.014677 -0.014142
# 2 -0.001485 0.007206 -0.000228 0.001034 -0.000792 0.002497
# 3 -0.004699 -0.000228 0.007400 -0.001741 -0.002942 0.003676
# 4 0.005298 0.001034 -0.001741 0.026349 -0.002744 -0.000658
# 5 -0.014677 -0.000792 -0.002942 -0.002744 0.029646 0.006162
# 6 -0.014142 0.002497 0.003676 -0.000658 0.006162 0.041165
#
#
# Mechanical properties :
#
#
# Convention : Reuss Voigt Hill
#
# Bulk Modulus (GPa) = 21.50465 50.24377 35.87421
# Shear Modulus (GPa) = 27.05516 43.32744 35.19130
#
# Velocity S-wave (km/s) = 3.42538 4.33477 3.90663
# Velocity P-wave (km/s) = 4.99704 6.84421 5.99223
#
# Compressibility (1/GPa) = 0.04650156
#
# Stress axis : x y z
#
# Youngs Moduli (GPa) = 22.36209 138.77557 135.13112
#
# Poissons Ratio (x) = 0.20609 0.63495
# Poissons Ratio (y) = 0.03321 0.03077
# Poissons Ratio (z) = 0.10507 0.03160
#
# Static dielectric constant tensor:
#      x y z
#    x 1.872770 -0.071630 0.024640 
#    y -0.071630 1.780100 0.081300 
#    z 0.024640 0.081300 1.964080 
# 
# From -- ./inp_files/148625.got.cif
#   From: 2010.05.17/outbox.cif.g08.bks.cpg/sg2_75_cif.got.tgz:148625.got - 2010.06.03 11:33:40.
