data_PCOD9070849
_publ_section_title
;
Structure prediction by ZEFSAII (Michael W. Deem and Ramdas Pophale) SiO2 
 PCOD9070849
Probable space group: P -1
;
_chemical_formula_sum "Si O2"
_cell_formula_units_Z 16
_cell_length_a 8.692301
_cell_length_b 23.411909
_cell_length_c 9.054627
_cell_angle_alpha 43.026936
_cell_angle_beta 94.144632
_cell_angle_gamma 126.529107
_cell_volume 757.426922
_symmetry_space_group_name_H-M "P -1"
_symmetry_group_IT_number 2
_symmetry_cell_setting 'triclinic'
loop_
_space_group_symop_operation_xyz
x,y,z
-x,-y,-z
loop_
_atom_site_type_symbol
_atom_site_label
_atom_site_fract_x
_atom_site_fract_y
_atom_site_fract_z
Si Si1 0.821775 0.236262 0.440757
Si Si2 0.457342 0.722963 0.716870
Si Si3 0.963763 0.007566 0.654899
Si Si4 0.955830 0.273232 0.713201
Si Si5 0.214650 0.554253 0.304788
Si Si6 0.427583 0.009484 0.320728
Si Si7 0.674477 0.716834 0.248696
Si Si8 0.371410 0.527709 0.874056
O O1 0.641605 0.238489 0.448289
O O2 0.909512 0.239856 0.598828
O O3 0.673891 0.105077 0.581275
O O4 0.077685 0.377537 0.108982
O O5 0.384855 0.608225 0.840738
O O6 0.759064 0.856790 0.512710
O O7 0.312103 0.657916 0.987146
O O8 0.787454 0.012893 0.638840
O O9 0.000000 0.000000 0.500000
O O10 0.823834 0.868930 0.985164
O O11 0.100877 0.422462 0.469548
O O12 0.122182 0.268433 0.796289
O O13 0.684589 0.159514 0.988804
O O14 0.464580 0.637088 0.257879
O O15 0.000000 0.500000 0.500000
O O16 0.500000 0.000000 0.500000
O O17 0.521709 0.623842 0.559688
O O18 0.500000 0.500000 0.000000
#
# Coordination Sequence:
#
# PCOD9070849 Si02
#       8
#     2   2   2   2   2   2   2   2
#     4  12  26  48  72 105 150 188 242 296 365 436
#     4  12  26  46  75 105 148 190 238 302 364 428
#     4  12  26  49  73 106 146 184 244 299 361 430
#     4  12  27  48  71 105 148 192 241 298 364 434
#     4  12  26  45  75 109 144 190 246 302 361 426
#     4  12  29  47  76 106 143 193 242 302 365 432
#     4  12  26  46  77 106 145 191 245 298 364 431
#     4  12  25  47  73 109 146 188 240 299 364 431
#
# _framework density 21.12415
#
# number of rings (size 3 to 8) (size 9 to 14) (size 15 to 20)
#    0.000    0.000    3.750    5.625    7.000    0.500 
#    0.000    0.000    0.000    0.000    0.000    0.000 
#    0.000    0.000    0.000    0.000    0.000    0.000 
#
# Total GULP energy -89659.091118 kJ/mol
# GULP energy per Si atom -5603.693195 kJ/mol
# Density = 2.107607 g / cm^3
# Si number density = 21.124150 Si / 1000 Ang^3
#
#
#
# Elastic Constant Matrix: (Units=GPa)
#
#
# Indices 1 2 3 4 5 6 
#
# 1 117.6981 1.2720 -12.4364 -16.7684 4.6485 19.7579
# 2 1.2720 55.1512 -8.8150 -14.2748 13.1803 10.1352
# 3 -12.4364 -8.8150 84.4331 -11.8571 -1.1587 12.4993
# 4 -16.7684 -14.2748 -11.8571 37.8143 0.4957 -4.3525
# 5 4.6485 13.1803 -1.1587 0.4957 35.7556 -3.8723
# 6 19.7579 10.1352 12.4993 -4.3525 -3.8723 37.2499
#
#
#
# Elastic Compliance Matrix: (Units=1/GPa)
#
#
# Indices 1 2 3 4 5 6 
#
# 1 0.011591 0.004976 0.004490 0.007495 -0.004228 -0.008572
# 2 0.004976 0.027924 0.007238 0.013759 -0.012232 -0.012330
# 3 0.004490 0.007238 0.015763 0.008678 -0.003839 -0.009025
# 4 0.007495 0.013759 0.008678 0.036965 -0.007040 -0.007043
# 5 -0.004228 -0.012232 -0.003839 -0.007040 0.034036 0.009574
# 6 -0.008572 -0.012330 -0.009025 -0.007043 0.009574 0.037948
#
#
# Mechanical properties :
#
#
# Convention : Reuss Voigt Hill
#
# Bulk Modulus (GPa) = 11.27567 24.14708 17.71137
# Shear Modulus (GPa) = 31.17572 40.64808 35.91190
#
# Velocity S-wave (km/s) = 3.84583 4.39138 4.12763
# Velocity P-wave (km/s) = 5.00698 6.09657 5.57844
#
# Compressibility (1/GPa) = 0.08868652
#
# Stress axis : x y z
#
# Youngs Moduli (GPa) = 86.27502 35.81108 63.44060
#
# Poissons Ratio (x) = -0.17820 -0.28487
# Poissons Ratio (y) = -0.42931 -0.45917
# Poissons Ratio (z) = -0.38740 -0.25920
#
# Static dielectric constant tensor:
#      x y z
#    x 1.739450 0.004250 -0.005980 
#    y 0.004250 1.727170 0.018420 
#    z -0.005980 0.018420 1.750290 
# 
# From -- ./inp_files/225980.got.cif
#   From: 2010.05.17/outbox.cif.g08.bks.cpg/sg2_113_cif.got.tgz:225980.got - 2010.06.03 11:33:40.
