data_PCOD9070106
_publ_section_title
;
Structure prediction by ZEFSAII (Michael W. Deem and Ramdas Pophale) SiO2 
 PCOD9070106
Probable space group: P -1
;
_chemical_formula_sum "Si O2"
_cell_formula_units_Z 12
_cell_length_a 9.851251
_cell_length_b 12.359688
_cell_length_c 9.881160
_cell_angle_alpha 144.738486
_cell_angle_beta 137.386267
_cell_angle_gamma 56.351924
_cell_volume 466.873754
_symmetry_space_group_name_H-M "P -1"
_symmetry_group_IT_number 2
_symmetry_cell_setting 'triclinic'
loop_
_space_group_symop_operation_xyz
x,y,z
-x,-y,-z
loop_
_atom_site_type_symbol
_atom_site_label
_atom_site_fract_x
_atom_site_fract_y
_atom_site_fract_z
Si Si1 0.069936 0.787830 0.122978
Si Si2 0.501484 0.297779 0.007619
Si Si3 0.044964 0.602030 0.493961
Si Si4 0.262957 0.096815 0.398982
Si Si5 0.486866 0.715657 0.455662
Si Si6 0.652819 0.843006 0.972544
O O1 0.270143 0.789921 0.363274
O O2 0.887512 0.888589 0.152270
O O3 0.148912 0.895570 0.153314
O O4 0.991979 0.568804 0.814284
O O5 0.726252 0.303181 0.235579
O O6 0.475954 0.512591 0.169071
O O7 0.448724 0.161854 0.703442
O O8 0.358597 0.231831 0.960434
O O9 0.000000 0.500000 0.500000
O O10 0.893337 0.756133 0.526766
O O11 0.344534 0.144660 0.357411
O O12 0.561603 0.692904 0.638995
O O13 0.500000 0.000000 0.000000
#
# Coordination Sequence:
#
# PCOD9070106 Si02
#       6
#     2   2   2   2   2   2
#     4  12  27  45  75 109 143 192 245 294 362 429
#     4  12  25  47  75 104 148 192 235 299 362 426
#     4  12  24  45  75 107 145 188 239 295 364 425
#     4  12  26  48  76 111 146 186 241 305 357 428
#     4  12  25  47  75 106 146 190 242 296 363 427
#     4  12  28  48  70 106 149 192 244 296 358 432
#
# _framework density 25.70288
#
# number of rings (size 3 to 8) (size 9 to 14) (size 15 to 20)
#    0.000    0.000    5.000    4.500    0.000    8.667 
#    0.000    0.000    0.000    0.000    0.000    0.000 
#    0.000    0.000    0.000    0.000    0.000    0.000 
#
# Total GULP energy -67324.610936 kJ/mol
# GULP energy per Si atom -5610.384245 kJ/mol
# Density = 2.564438 g / cm^3
# Si number density = 25.702880 Si / 1000 Ang^3
#
#
#
# Elastic Constant Matrix: (Units=GPa)
#
#
# Indices 1 2 3 4 5 6 
#
# 1 147.6907 32.1322 28.5338 -12.8296 32.1130 -11.9994
# 2 32.1322 93.0647 14.2549 5.7231 15.0155 -16.9454
# 3 28.5338 14.2549 114.0895 0.8138 6.5729 -4.7859
# 4 -12.8296 5.7231 0.8138 35.4540 -3.0604 -0.8396
# 5 32.1130 15.0155 6.5729 -3.0604 43.5830 -13.8939
# 6 -11.9994 -16.9454 -4.7859 -0.8396 -13.8939 61.5905
#
#
#
# Elastic Compliance Matrix: (Units=1/GPa)
#
#
# Indices 1 2 3 4 5 6 
#
# 1 0.009030 -0.002202 -0.001698 0.003186 -0.005469 -0.000169
# 2 -0.002202 0.012580 -0.000781 -0.002924 -0.002009 0.002478
# 3 -0.001698 -0.000781 0.009293 -0.000686 0.000133 0.000197
# 4 0.003186 -0.002924 -0.000686 0.029941 0.000992 0.000395
# 5 -0.005469 -0.002009 0.000133 0.000992 0.029316 0.005019
# 6 -0.000169 0.002478 0.000197 0.000395 0.005019 0.018038
#
#
# Mechanical properties :
#
#
# Convention : Reuss Voigt Hill
#
# Bulk Modulus (GPa) = 46.42069 56.07629 51.24849
# Shear Modulus (GPa) = 40.08306 46.78710 43.43508
#
# Velocity S-wave (km/s) = 3.95331 4.27113 4.11529
# Velocity P-wave (km/s) = 6.24002 6.79617 6.52402
#
# Compressibility (1/GPa) = 0.02154212
#
# Stress axis : x y z
#
# Youngs Moduli (GPa) = 110.73870 79.48894 107.61085
#
# Poissons Ratio (x) = 0.17504 0.18273
# Poissons Ratio (y) = 0.24385 0.08400
# Poissons Ratio (z) = 0.18804 0.06204
#
# Static dielectric constant tensor:
#      x y z
#    x 2.008790 -0.072250 -0.013010 
#    y -0.072250 2.004570 0.001570 
#    z -0.013010 0.001570 2.056960 
# 
# From -- ./inp_files/183653.got.cif
#   From: 2010.05.17/outbox.cif.g08.bks.cpg/sg2_92_cif.got.tgz:183653.got - 2010.06.03 11:33:40.
