data_PCOD9070265
_publ_section_title
;
Structure prediction by ZEFSAII (Michael W. Deem and Ramdas Pophale) SiO2 
 PCOD9070265
Probable space group: P -1
;
_chemical_formula_sum "Si O2"
_cell_formula_units_Z 14
_cell_length_a 15.391619
_cell_length_b 9.258736
_cell_length_c 7.388255
_cell_angle_alpha 105.497785
_cell_angle_beta 76.886668
_cell_angle_gamma 143.983828
_cell_volume 596.488683
_symmetry_space_group_name_H-M "P -1"
_symmetry_group_IT_number 2
_symmetry_cell_setting 'triclinic'
loop_
_space_group_symop_operation_xyz
x,y,z
-x,-y,-z
loop_
_atom_site_type_symbol
_atom_site_label
_atom_site_fract_x
_atom_site_fract_y
_atom_site_fract_z
Si Si1 0.482099 0.642131 0.985254
Si Si2 0.352543 0.233461 0.380272
Si Si3 0.273701 0.549298 0.838758
Si Si4 0.143537 0.777316 0.607368
Si Si5 0.840749 0.741690 0.568925
Si Si6 0.958994 0.775240 0.884015
Si Si7 0.586112 0.036580 0.308079
O O1 0.597923 0.806883 0.820363
O O2 0.331321 0.485951 0.905836
O O3 0.500000 0.500000 0.000000
O O4 0.503725 0.779828 0.189429
O O5 0.500000 0.500000 0.500000
O O6 0.256350 0.240899 0.347641
O O7 0.246955 0.000859 0.487396
O O8 0.233743 0.443327 0.622604
O O9 0.397247 0.835902 0.832216
O O10 0.135991 0.422992 0.975838
O O11 0.251419 0.801432 0.656544
O O12 0.000000 0.500000 0.500000
O O13 0.088427 0.834729 0.787898
O O14 0.865044 0.674713 0.711580
O O15 0.000000 0.000000 0.500000
O O16 0.000000 0.000000 0.000000
O O17 0.500000 0.000000 0.500000
#
# Coordination Sequence:
#
# PCOD9070265 Si02
#       7
#     2   2   2   2   2   2   2
#     4  12  28  48  82 116 155 209 281 335 404 485
#     4  12  25  48  79 116 157 206 275 333 398 487
#     4  12  27  49  79 114 161 213 265 333 407 489
#     4  12  29  50  78 116 163 211 268 333 409 485
#     4  12  24  46  78 115 161 206 258 338 406 466
#     4  12  27  47  79 116 161 208 274 327 406 484
#     4  12  31  52  78 114 164 218 268 337 415 481
#
# _framework density 23.470690000000001
#
# number of rings (size 3 to 8) (size 9 to 14) (size 15 to 20)
#    0.000    0.000    4.286    3.857   12.000    0.571 
#    0.000    0.000    0.000    0.000    0.000    0.000 
#    0.000    0.000    0.000    0.000    0.000    0.000 
#
# Total GULP energy -78406.797950 kJ/mol
# GULP energy per Si atom -5600.485568 kJ/mol
# Density = 2.341727 g / cm^3
# Si number density = 23.470690 Si / 1000 Ang^3
#
#
#
# Elastic Constant Matrix: (Units=GPa)
#
#
# Indices 1 2 3 4 5 6 
#
# 1 140.1041 24.7959 50.0327 7.6116 -14.7144 8.9029
# 2 24.7959 116.3367 47.7231 -8.1486 -10.8064 -6.7298
# 3 50.0327 47.7231 167.1564 -4.1133 -28.5378 4.3740
# 4 7.6116 -8.1486 -4.1133 55.9556 11.6551 -0.1673
# 5 -14.7144 -10.8064 -28.5378 11.6551 52.3518 -2.7216
# 6 8.9029 -6.7298 4.3740 -0.1673 -2.7216 39.3953
#
#
#
# Elastic Compliance Matrix: (Units=1/GPa)
#
#
# Indices 1 2 3 4 5 6 
#
# 1 0.008379 -0.001078 -0.001965 -0.001728 0.001354 -0.001773
# 2 -0.001078 0.010123 -0.002559 0.001398 0.000199 0.002277
# 3 -0.001965 -0.002559 0.007862 -0.000199 0.003216 -0.000645
# 4 -0.001728 0.001398 -0.000199 0.019248 -0.004569 0.000418
# 5 0.001354 0.000199 0.003216 -0.004569 0.022340 0.000895
# 6 -0.001773 0.002277 -0.000645 0.000418 0.000895 0.026309
#
#
# Mechanical properties :
#
#
# Convention : Reuss Voigt Hill
#
# Bulk Modulus (GPa) = 65.95887 74.30007 70.12947
# Shear Modulus (GPa) = 45.24135 49.61023 47.42579
#
# Velocity S-wave (km/s) = 4.39517 4.60250 4.50003
# Velocity P-wave (km/s) = 7.34305 7.74398 7.54618
#
# Compressibility (1/GPa) = 0.01516096
#
# Stress axis : x y z
#
# Youngs Moduli (GPa) = 119.34798 98.78309 127.19020
#
# Poissons Ratio (x) = 0.10644 0.24996
# Poissons Ratio (y) = 0.12860 0.32546
# Poissons Ratio (z) = 0.23455 0.25277
#
# Static dielectric constant tensor:
#      x y z
#    x 1.904540 0.030350 0.018580 
#    y 0.030350 1.905490 -0.018130 
#    z 0.018580 -0.018130 1.853320 
# 
# From -- ./inp_files/296061.got.cif
#   From: 2010.05.17/outbox.cif.g08.bks.cpg/sg2_149_cif.got.tgz:296061.got - 2010.06.03 11:33:40.
