data_PCOD9070855
_publ_section_title
;
Structure prediction by ZEFSAII (Michael W. Deem and Ramdas Pophale) SiO2 
 PCOD9070855
Probable space group: P -1
;
_chemical_formula_sum "Si O2"
_cell_formula_units_Z 16
_cell_length_a 6.681464
_cell_length_b 19.859945
_cell_length_c 8.711237
_cell_angle_alpha 130.402969
_cell_angle_beta 125.268523
_cell_angle_gamma 49.828962
_cell_volume 646.916102
_symmetry_space_group_name_H-M "P -1"
_symmetry_group_IT_number 2
_symmetry_cell_setting 'triclinic'
loop_
_space_group_symop_operation_xyz
x,y,z
-x,-y,-z
loop_
_atom_site_type_symbol
_atom_site_label
_atom_site_fract_x
_atom_site_fract_y
_atom_site_fract_z
Si Si1 0.254842 0.133148 0.716251
Si Si2 0.259955 0.397208 0.424244
Si Si3 0.720547 0.748259 0.378751
Si Si4 0.524986 0.391251 0.836135
Si Si5 0.212828 0.917414 0.587653
Si Si6 0.715849 0.268726 0.251343
Si Si7 0.306544 0.933994 0.991221
Si Si8 0.992249 0.259096 0.054638
O O1 0.304450 0.209074 0.741390
O O2 0.998560 0.125430 0.517402
O O3 0.535639 0.042932 0.759207
O O4 0.178125 0.162228 0.905258
O O5 0.487891 0.378587 0.623399
O O6 0.437947 0.368868 0.305496
O O7 0.150532 0.316023 0.278703
O O8 0.000000 0.500000 0.500000
O O9 0.676262 0.648922 0.230962
O O10 0.470928 0.833753 0.490000
O O11 0.015486 0.731407 0.549809
O O12 0.500000 0.500000 0.000000
O O13 0.815594 0.324564 0.934466
O O14 0.317773 0.949890 0.835385
O O15 0.000000 0.000000 0.500000
O O16 0.657227 0.178262 0.144014
O O17 0.799635 0.250755 0.084794
O O18 0.000000 0.000000 0.000000
#
# Coordination Sequence:
#
# PCOD9070855 Si02
#       8
#     2   2   2   2   2   2   2   2
#     4  12  26  48  78 105 154 198 250 301 372 446
#     4  12  26  50  72 106 147 185 246 308 366 444
#     4  12  25  49  77 106 153 200 244 314 377 431
#     4  12  25  47  74 107 143 189 246 303 369 443
#     4  12  28  47  75 112 153 197 250 310 367 444
#     4  12  26  48  77 106 149 199 242 311 376 434
#     4  12  27  46  73 111 153 197 254 302 367 447
#     4  12  25  47  74 106 146 193 245 301 374 440
#
# _framework density 24.73273
#
# number of rings (size 3 to 8) (size 9 to 14) (size 15 to 20)
#    0.000    0.000    6.250    3.750    3.500    2.000 
#    0.000    3.125    0.000    0.000    0.000    0.000 
#    0.000    0.000    0.000    0.000    0.000    0.000 
#
# Total GULP energy -89334.921826 kJ/mol
# GULP energy per Si atom -5583.432614 kJ/mol
# Density = 2.467644 g / cm^3
# Si number density = 24.732730 Si / 1000 Ang^3
#
#
#
# Elastic Constant Matrix: (Units=GPa)
#
#
# Indices 1 2 3 4 5 6 
#
# 1 136.6792 38.7409 38.4111 9.9829 -7.4997 -9.6395
# 2 38.7409 79.9091 7.9447 -0.2086 -0.7839 -7.4297
# 3 38.4111 7.9447 111.8927 -13.1449 11.0905 5.4902
# 4 9.9829 -0.2086 -13.1449 36.3919 5.5228 3.3515
# 5 -7.4997 -0.7839 11.0905 5.5228 55.2594 -4.7195
# 6 -9.6395 -7.4297 5.4902 3.3515 -4.7195 43.6309
#
#
#
# Elastic Compliance Matrix: (Units=1/GPa)
#
#
# Indices 1 2 3 4 5 6 
#
# 1 0.010530 -0.004392 -0.004352 -0.005204 0.003004 0.002851
# 2 -0.004392 0.014698 0.000630 0.001483 -0.000553 0.001280
# 3 -0.004352 0.000630 0.011662 0.006287 -0.003825 -0.003218
# 4 -0.005204 0.001483 0.006287 0.032477 -0.005602 -0.004789
# 5 0.003004 -0.000553 -0.003825 -0.005602 0.020136 0.003659
# 6 0.002851 0.001280 -0.003218 -0.004789 0.003659 0.024936
#
#
# Mechanical properties :
#
#
# Convention : Reuss Voigt Hill
#
# Bulk Modulus (GPa) = 48.39482 55.40828 51.90155
# Shear Modulus (GPa) = 36.34928 43.28206 39.81567
#
# Velocity S-wave (km/s) = 3.83780 4.18783 4.01663
# Velocity P-wave (km/s) = 6.26482 6.77018 6.52239
#
# Compressibility (1/GPa) = 0.02066337
#
# Stress axis : x y z
#
# Youngs Moduli (GPa) = 94.96471 68.03613 85.74825
#
# Poissons Ratio (x) = 0.29878 0.37318
# Poissons Ratio (y) = 0.41704 -0.05403
# Poissons Ratio (z) = 0.41329 -0.04287
#
# Static dielectric constant tensor:
#      x y z
#    x 2.024940 -0.049830 0.020660 
#    y -0.049830 2.207640 -0.093850 
#    z 0.020660 -0.093850 2.130070 
# 
# From -- ./inp_files/141539.got.cif
#   From: 2010.05.17/outbox.cif.g08.bks.cpg/sg2_71_cif.got.tgz:141539.got - 2010.06.03 11:33:40.
