data_PCOD9070801
_publ_section_title
;
Structure prediction by ZEFSAII (Michael W. Deem and Ramdas Pophale) SiO2 
 PCOD9070801
Probable space group: P -1
;
_chemical_formula_sum "Si O2"
_cell_formula_units_Z 16
_cell_length_a 12.739966
_cell_length_b 11.358528
_cell_length_c 19.131836
_cell_angle_alpha 126.148383
_cell_angle_beta 161.702730
_cell_angle_gamma 53.715676
_cell_volume 696.324033
_symmetry_space_group_name_H-M "P -1"
_symmetry_group_IT_number 2
_symmetry_cell_setting 'triclinic'
loop_
_space_group_symop_operation_xyz
x,y,z
-x,-y,-z
loop_
_atom_site_type_symbol
_atom_site_label
_atom_site_fract_x
_atom_site_fract_y
_atom_site_fract_z
Si Si1 0.206390 0.430180 0.364492
Si Si2 0.274451 0.818337 0.431426
Si Si3 0.507725 0.129572 0.707276
Si Si4 0.952209 0.134402 0.856122
Si Si5 0.349258 0.393415 0.193711
Si Si6 0.775491 0.191573 0.045355
Si Si7 0.703975 0.699853 0.110300
Si Si8 0.843808 0.349733 0.360407
O O1 0.465894 0.328423 0.444623
O O2 0.419396 0.531162 0.580212
O O3 0.907351 0.537462 0.177955
O O4 0.027231 0.313351 0.255440
O O5 0.180126 0.826750 0.292166
O O6 0.941101 0.805806 0.261034
O O7 0.446608 0.960393 0.608672
O O8 0.668489 0.165007 0.747060
O O9 0.741485 0.161780 0.931019
O O10 0.151220 0.226250 0.526828
O O11 0.242085 0.236094 0.091672
O O12 0.088244 0.962283 0.886501
O O13 0.563817 0.372542 0.251466
O O14 0.000000 0.500000 0.000000
O O15 0.411519 0.252975 0.868407
O O16 0.356192 0.699225 0.849726
O O17 0.000000 0.500000 0.500000
#
# Coordination Sequence:
#
# PCOD9070801 Si02
#       8
#     2   2   2   2   2   2   2   2
#     4  12  26  49  74 109 152 198 243 305 369 442
#     4  12  27  47  76 111 146 198 243 311 373 435
#     4  12  28  48  76 108 150 197 252 300 375 440
#     4  12  26  49  76 110 148 192 253 305 366 449
#     4  12  25  46  76 114 147 192 250 301 371 438
#     4  12  28  49  76 110 150 197 247 305 374 442
#     4  12  27  47  76 110 152 188 251 311 368 441
#     4  12  25  46  77 108 147 199 245 307 368 440
#
# _framework density 22.977808
#
# number of rings (size 3 to 8) (size 9 to 14) (size 15 to 20)
#    0.000    0.000    3.750    5.250    5.250    2.500 
#    0.000    0.000    0.000    0.000    0.000    0.000 
#    0.000    0.000    0.000    0.000    0.000    0.000 
#
# Total GULP energy -89717.857841 kJ/mol
# GULP energy per Si atom -5607.366115 kJ/mol
# Density = 2.292551 g / cm^3
# Si number density = 22.977808 Si / 1000 Ang^3
#
#
#
# Elastic Constant Matrix: (Units=GPa)
#
#
# Indices 1 2 3 4 5 6 
#
# 1 116.6116 32.7398 41.1435 21.1610 29.2538 -5.8618
# 2 32.7398 104.3191 39.4362 4.7870 4.4111 5.4598
# 3 41.1435 39.4362 102.5816 11.1406 13.9710 6.8937
# 4 21.1610 4.7870 11.1406 47.2363 4.9444 11.1640
# 5 29.2538 4.4111 13.9710 4.9444 42.0465 1.4853
# 6 -5.8618 5.4598 6.8937 11.1640 1.4853 31.5478
#
#
#
# Elastic Compliance Matrix: (Units=1/GPa)
#
#
# Indices 1 2 3 4 5 6 
#
# 1 0.013814 -0.002868 -0.003162 -0.005794 -0.007796 0.006171
# 2 -0.002868 0.011847 -0.003646 0.001298 0.001894 -0.002335
# 3 -0.003162 -0.003646 0.012850 -0.000488 -0.001541 -0.002519
# 4 -0.005794 0.001298 -0.000488 0.026086 0.001361 -0.010490
# 5 -0.007796 0.001894 -0.001541 0.001361 0.029478 -0.003309
# 6 0.006171 -0.002335 -0.002519 -0.010490 -0.003309 0.037667
#
#
# Mechanical properties :
#
#
# Convention : Reuss Voigt Hill
#
# Bulk Modulus (GPa) = 52.19187 61.12792 56.65989
# Shear Modulus (GPa) = 31.75023 38.17898 34.96460
#
# Velocity S-wave (km/s) = 3.72126 4.08064 3.90509
# Velocity P-wave (km/s) = 6.42083 6.99021 6.71156
#
# Compressibility (1/GPa) = 0.01916007
#
# Stress axis : x y z
#
# Youngs Moduli (GPa) = 72.39281 84.41037 77.81893
#
# Poissons Ratio (x) = 0.24205 0.24603
# Poissons Ratio (y) = 0.20759 0.28374
# Poissons Ratio (z) = 0.22888 0.30778
#
# Static dielectric constant tensor:
#      x y z
#    x 1.882240 -0.006360 -0.013940 
#    y -0.006360 1.840400 -0.005930 
#    z -0.013940 -0.005930 1.825870 
# 
# From -- ./inp_files/569202.got.cif
#   From: 2010.05.17/outbox.cif.g08.bks.cpg/sg2_285_cif.got.tgz:569202.got - 2010.06.03 11:33:40.
