data_PCOD9070479
_publ_section_title
;
Structure prediction by ZEFSAII (Michael W. Deem and Ramdas Pophale) SiO2 
 PCOD9070479
Probable space group: P -1
;
_chemical_formula_sum "Si O2"
_cell_formula_units_Z 14
_cell_length_a 7.158954
_cell_length_b 13.877752
_cell_length_c 9.226894
_cell_angle_alpha 126.926507
_cell_angle_beta 66.496144
_cell_angle_gamma 131.196913
_cell_volume 551.396705
_symmetry_space_group_name_H-M "P -1"
_symmetry_group_IT_number 2
_symmetry_cell_setting 'triclinic'
loop_
_space_group_symop_operation_xyz
x,y,z
-x,-y,-z
loop_
_atom_site_type_symbol
_atom_site_label
_atom_site_fract_x
_atom_site_fract_y
_atom_site_fract_z
Si Si1 0.324291 0.206106 0.943588
Si Si2 0.911197 0.366473 0.294503
Si Si3 0.842383 0.439676 0.848477
Si Si4 0.964956 0.225412 0.554429
Si Si5 0.081755 0.923613 0.292106
Si Si6 0.424467 0.340034 0.333943
Si Si7 0.648618 0.060590 0.251032
O O1 0.561120 0.312190 0.862193
O O2 0.082273 0.127863 0.846838
O O3 0.336186 0.077651 0.899759
O O4 0.107629 0.433405 0.161560
O O5 0.650162 0.326412 0.276895
O O6 0.841450 0.214751 0.250384
O O7 0.000000 0.500000 0.500000
O O8 0.349113 0.305802 0.159367
O O9 0.959762 0.365787 0.661046
O O10 0.000000 0.500000 0.000000
O O11 0.969102 0.208783 0.709466
O O12 0.721401 0.097843 0.431653
O O13 0.192190 0.235522 0.415935
O O14 0.375303 0.016421 0.259535
O O15 0.000000 0.000000 0.500000
O O16 0.500000 0.500000 0.500000
#
# Coordination Sequence:
#
# PCOD9070479 Si02
#       7
#     2   2   2   2   2   2   2
#     4  12  28  52  85 118 164 212 275 339 404 482
#     4  12  26  47  82 114 160 218 264 325 413 478
#     4  12  24  52  77 114 157 211 269 334 401 476
#     4  12  24  48  78 111 162 205 263 335 395 477
#     4  12  25  48  83 120 160 215 270 331 409 479
#     4  12  26  53  76 118 164 210 269 339 404 488
#     4  12  26  51  80 120 163 209 273 331 405 483
#
# _framework density 25.390065
#
# number of rings (size 3 to 8) (size 9 to 14) (size 15 to 20)
#    0.000    0.000    7.143    2.143    2.000    1.143 
#   10.286    1.429    0.000    0.000    0.000    0.000 
#    0.000    0.000    0.000    0.000    0.000    0.000 
#
# Total GULP energy -78452.735943 kJ/mol
# GULP energy per Si atom -5603.766853 kJ/mol
# Density = 2.533228 g / cm^3
# Si number density = 25.390065 Si / 1000 Ang^3
#
#
#
# Elastic Constant Matrix: (Units=GPa)
#
#
# Indices 1 2 3 4 5 6 
#
# 1 162.0593 51.1494 51.1366 9.2040 23.5464 11.0576
# 2 51.1494 198.9259 41.7418 12.8666 -1.9702 -7.1605
# 3 51.1366 41.7418 141.3594 1.3780 25.4589 -9.0903
# 4 9.2040 12.8666 1.3780 30.2669 -6.5873 -2.1399
# 5 23.5464 -1.9702 25.4589 -6.5873 42.2430 3.2052
# 6 11.0576 -7.1605 -9.0903 -2.1399 3.2052 45.7785
#
#
#
# Elastic Compliance Matrix: (Units=1/GPa)
#
#
# Indices 1 2 3 4 5 6 
#
# 1 0.008156 -0.001644 -0.001935 -0.002671 -0.003685 -0.002478
# 2 -0.001644 0.005885 -0.001385 -0.001503 0.001726 0.000852
# 3 -0.001935 -0.001385 0.009189 -0.000099 -0.004722 0.002401
# 4 -0.002671 -0.001503 -0.000099 0.036129 0.006992 0.001590
# 5 -0.003685 0.001726 -0.004722 0.006992 0.029860 -0.001541
# 6 -0.002478 0.000852 0.002401 0.001590 -0.001541 0.023235
#
#
# Mechanical properties :
#
#
# Convention : Reuss Voigt Hill
#
# Bulk Modulus (GPa) = 75.16892 87.82224 81.49558
# Shear Modulus (GPa) = 39.42730 47.54544 43.48637
#
# Velocity S-wave (km/s) = 3.94491 4.33205 4.14301
# Velocity P-wave (km/s) = 7.10068 7.72570 7.41978
#
# Compressibility (1/GPa) = 0.01330337
#
# Stress axis : x y z
#
# Youngs Moduli (GPa) = 122.60591 169.91570 108.83043
#
# Poissons Ratio (x) = 0.27938 0.21054
# Poissons Ratio (y) = 0.20159 0.15068
# Poissons Ratio (z) = 0.23719 0.23526
#
# Static dielectric constant tensor:
#      x y z
#    x 1.981310 -0.041900 -0.028300 
#    y -0.041900 2.129600 0.076640 
#    z -0.028300 0.076640 2.043450 
# 
# From -- ./inp_files/79018.got.cif
#   From: 2010.05.17/outbox.cif.g08.bks.cpg/sg2_40_cif.got.tgz:79018.got - 2010.06.03 11:33:40.
