data_PCOD9070554
_publ_section_title
;
Structure prediction by ZEFSAII (Michael W. Deem and Ramdas Pophale) SiO2 
 PCOD9070554
Probable space group: P -1
;
_chemical_formula_sum "Si O2"
_cell_formula_units_Z 16
_cell_length_a 8.967918
_cell_length_b 9.033853
_cell_length_c 11.127667
_cell_angle_alpha 96.127200
_cell_angle_beta 118.794152
_cell_angle_gamma 65.414686
_cell_volume 713.438496
_symmetry_space_group_name_H-M "P -1"
_symmetry_group_IT_number 2
_symmetry_cell_setting 'triclinic'
loop_
_space_group_symop_operation_xyz
x,y,z
-x,-y,-z
loop_
_atom_site_type_symbol
_atom_site_label
_atom_site_fract_x
_atom_site_fract_y
_atom_site_fract_z
Si Si1 0.671536 0.824925 0.035484
Si Si2 0.114327 0.102349 0.518949
Si Si3 0.620876 0.534429 0.655315
Si Si4 0.464067 0.077872 0.359500
Si Si5 0.515044 0.411570 0.129053
Si Si6 0.939870 0.292241 0.256742
Si Si7 0.980399 0.622269 0.314402
Si Si8 0.108925 0.111614 0.081244
O O1 0.590005 0.705260 0.937059
O O2 0.829995 0.836311 0.013667
O O3 0.783480 0.738796 0.189269
O O4 0.500000 0.000000 0.000000
O O5 0.012181 0.278235 0.557578
O O6 0.090450 0.138035 0.371276
O O7 0.330916 0.007610 0.628333
O O8 0.000000 0.000000 0.500000
O O9 0.500000 0.500000 0.500000
O O10 0.594127 0.725092 0.649138
O O11 0.560565 0.502271 0.763298
O O12 0.837740 0.419281 0.701421
O O13 0.308203 0.039509 0.223984
O O14 0.500000 0.000000 0.500000
O O15 0.737158 0.311394 0.218826
O O16 0.500000 0.500000 0.000000
O O17 0.969970 0.451119 0.316935
O O18 0.972885 0.259732 0.125084
O O19 0.000000 0.000000 0.000000
#
# Coordination Sequence:
#
# PCOD9070554 Si02
#       8
#     2   2   2   2   2   2   2   2
#     4  12  27  50  74 108 153 201 258 319 392 467
#     4  12  27  45  77 111 154 202 259 317 390 464
#     4  12  27  51  76 113 156 201 259 324 394 471
#     4  12  24  50  76 112 157 204 260 328 386 467
#     4  12  26  48  77 110 155 199 255 323 395 468
#     4  12  25  48  72 112 149 201 258 315 387 469
#     4  12  26  47  77 107 150 203 250 320 388 464
#     4  12  27  47  79 109 156 202 260 320 391 465
#
# _framework density 22.426600000000001
#
# number of rings (size 3 to 8) (size 9 to 14) (size 15 to 20)
#    0.000    0.000    5.000    4.125    5.250    3.000 
#    2.250    0.000    0.000    0.000    0.000    0.000 
#    0.000    0.000    0.000    0.000    0.000    0.000 
#
# Total GULP energy -89461.536354 kJ/mol
# GULP energy per Si atom -5591.346022 kJ/mol
# Density = 2.237556 g / cm^3
# Si number density = 22.426600 Si / 1000 Ang^3
#
#
#
# Elastic Constant Matrix: (Units=GPa)
#
#
# Indices 1 2 3 4 5 6 
#
# 1 145.1351 51.3481 36.6048 15.6213 18.8195 -1.9054
# 2 51.3481 98.0420 35.2178 15.2998 2.0318 2.3071
# 3 36.6048 35.2178 110.2052 4.2343 15.2760 10.7330
# 4 15.6213 15.2998 4.2343 42.0422 -2.2559 8.5804
# 5 18.8195 2.0318 15.2760 -2.2559 51.4233 -0.0825
# 6 -1.9054 2.3071 10.7330 8.5804 -0.0825 52.1327
#
#
#
# Elastic Compliance Matrix: (Units=1/GPa)
#
#
# Indices 1 2 3 4 5 6 
#
# 1 0.009293 -0.003963 -0.001445 -0.002263 -0.002913 0.001180
# 2 -0.003963 0.013920 -0.003292 -0.003262 0.001736 0.000456
# 3 -0.001445 -0.003292 0.011163 0.000953 -0.002619 -0.002366
# 4 -0.002263 -0.003262 0.000953 0.026741 0.001840 -0.004533
# 5 -0.002913 0.001736 -0.002619 0.001840 0.021303 0.000087
# 6 0.001180 0.000456 -0.002366 -0.004533 0.000087 0.020438
#
#
# Mechanical properties :
#
#
# Convention : Reuss Voigt Hill
#
# Bulk Modulus (GPa) = 58.90160 66.63597 62.76878
# Shear Modulus (GPa) = 39.70933 44.46708 42.08821
#
# Velocity S-wave (km/s) = 4.21246 4.45768 4.33680
# Velocity P-wave (km/s) = 7.06972 7.50146 7.28879
#
# Compressibility (1/GPa) = 0.01697747
#
# Stress axis : x y z
#
# Youngs Moduli (GPa) = 107.60640 71.84018 89.58390
#
# Poissons Ratio (x) = 0.28467 0.12942
# Poissons Ratio (y) = 0.42639 0.29490
# Poissons Ratio (z) = 0.15546 0.23649
#
# Static dielectric constant tensor:
#      x y z
#    x 1.822770 -0.029690 -0.061200 
#    y -0.029690 1.811460 -0.002220 
#    z -0.061200 -0.002220 1.797760 
# 
# From -- ./inp_files/382743.got.cif
#   From: 2010.05.17/outbox.cif.g08.bks.cpg/sg2_192_cif.got.tgz:382743.got - 2010.06.03 11:33:40.
