data_PCOD9070276
_publ_section_title
;
Structure prediction by ZEFSAII (Michael W. Deem and Ramdas Pophale) SiO2 
 PCOD9070276
Probable space group: P -1
;
_chemical_formula_sum "Si O2"
_cell_formula_units_Z 13
_cell_length_a 11.307064
_cell_length_b 10.843356
_cell_length_c 11.141719
_cell_angle_alpha 25.518090
_cell_angle_beta 108.327041
_cell_angle_gamma 110.476393
_cell_volume 551.302375
_symmetry_space_group_name_H-M "P -1"
_symmetry_group_IT_number 2
_symmetry_cell_setting 'triclinic'
loop_
_space_group_symop_operation_xyz
x,y,z
-x,-y,-z
loop_
_atom_site_type_symbol
_atom_site_label
_atom_site_fract_x
_atom_site_fract_y
_atom_site_fract_z
Si Si1 0.137137 0.938543 0.639565
Si Si2 0.500000 0.500000 0.500000
Si Si3 0.141055 0.603779 0.408589
Si Si4 0.676101 0.044489 0.666707
Si Si5 0.734015 0.582014 0.900084
Si Si6 0.758788 0.953493 0.161816
Si Si7 0.477115 0.466096 0.807995
O O1 0.225078 0.229997 0.369543
O O2 0.172297 0.909466 0.815638
O O3 0.174045 0.650199 0.842321
O O4 0.000000 0.000000 0.500000
O O5 0.610025 0.819649 0.248456
O O6 0.503846 0.509744 0.637873
O O7 0.185936 0.329117 0.607153
O O8 0.000000 0.500000 0.500000
O O9 0.214535 0.724880 0.444637
O O10 0.190208 0.834115 0.117660
O O11 0.725409 0.827511 0.780166
O O12 0.576437 0.247868 0.413464
O O13 0.619248 0.827255 0.944455
O O14 0.595496 0.420578 0.966736
#
# Coordination Sequence:
#
# PCOD9070276 Si02
#       7
#     2   1   2   2   2   2   2
#     4  12  28  50  73 109 146 200 257 310 378 452
#     4  12  24  46  80 112 158 188 252 326 390 456
#     4  12  27  49  75 110 151 207 257 311 378 458
#     4  12  25  47  72 111 152 198 247 310 380 459
#     4  12  26  47  76 105 152 200 245 315 380 456
#     4  12  27  49  79 110 153 198 257 322 385 452
#     4  12  25  44  75 114 149 193 250 310 388 461
#
# _framework density 23.580525999999999
#
# number of rings (size 3 to 8) (size 9 to 14) (size 15 to 20)
#    0.000    0.000    4.615    4.615    2.154    1.231 
#    0.000    0.000    0.000    0.000    0.000    0.000 
#    0.000    0.000    0.000    0.000    0.000    0.000 
#
# Total GULP energy -72400.597260 kJ/mol
# GULP energy per Si atom -5569.276712 kJ/mol
# Density = 2.352686 g / cm^3
# Si number density = 23.580526 Si / 1000 Ang^3
#
#
#
# Elastic Constant Matrix: (Units=GPa)
#
#
# Indices 1 2 3 4 5 6 
#
# 1 123.4806 127.0083 111.2013 -18.2210 22.4158 31.1278
# 2 127.0083 357.0732 177.9542 -63.4677 58.8294 77.8327
# 3 111.2013 177.9542 271.3669 -54.3293 39.4986 56.2349
# 4 -18.2210 -63.4677 -54.3293 49.0622 -14.5782 -22.1369
# 5 22.4158 58.8294 39.4986 -14.5782 58.8150 5.9957
# 6 31.1278 77.8327 56.2349 -22.1369 5.9957 43.7587
#
#
#
# Elastic Compliance Matrix: (Units=1/GPa)
#
#
# Indices 1 2 3 4 5 6 
#
# 1 0.015953 -0.004073 -0.004737 -0.004776 0.000036 -0.000437
# 2 -0.004073 0.007227 -0.000367 0.002876 -0.003954 -0.007489
# 3 -0.004737 -0.000367 0.007659 0.004213 -0.001573 -0.003474
# 4 -0.004776 0.002876 0.004213 0.031759 0.003119 0.008507
# 5 0.000036 -0.003954 -0.001573 0.003119 0.021999 0.007592
# 6 -0.000437 -0.007489 -0.003474 0.008507 0.007592 0.044212
#
#
# Mechanical properties :
#
#
# Convention : Reuss Voigt Hill
#
# Bulk Modulus (GPa) = 80.09962 176.02760 128.06361
# Shear Modulus (GPa) = 33.04139 52.71098 42.87618
#
# Velocity S-wave (km/s) = 3.74734 4.73309 4.26876
# Velocity P-wave (km/s) = 7.26400 10.23138 8.87262
#
# Compressibility (1/GPa) = 0.01248445
#
# Stress axis : x y z
#
# Youngs Moduli (GPa) = 62.68515 138.36235 130.56432
#
# Poissons Ratio (x) = 0.56358 0.61850
# Poissons Ratio (y) = 0.25533 0.04792
# Poissons Ratio (z) = 0.29695 0.05079
#
# Static dielectric constant tensor:
#      x y z
#    x 1.961610 0.024580 0.052350 
#    y 0.024580 1.882130 0.021820 
#    z 0.052350 0.021820 1.794820 
# 
# From -- ./inp_files/427193.got.cif
#   From: 2010.05.17/outbox.cif.g08.bks.cpg/sg2_214_cif.got.tgz:427193.got - 2010.06.03 11:33:40.
