data_PCOD9070570
_publ_section_title
;
Structure prediction by ZEFSAII (Michael W. Deem and Ramdas Pophale) SiO2 
 PCOD9070570
Probable space group: P -1
;
_chemical_formula_sum "Si O2"
_cell_formula_units_Z 12
_cell_length_a 7.986472
_cell_length_b 7.493630
_cell_length_c 8.887138
_cell_angle_alpha 75.700298
_cell_angle_beta 84.999837
_cell_angle_gamma 68.346702
_cell_volume 479.021158
_symmetry_space_group_name_H-M "P -1"
_symmetry_group_IT_number 2
_symmetry_cell_setting 'triclinic'
loop_
_space_group_symop_operation_xyz
x,y,z
-x,-y,-z
loop_
_atom_site_type_symbol
_atom_site_label
_atom_site_fract_x
_atom_site_fract_y
_atom_site_fract_z
Si Si1 0.941389 0.239208 0.367329
Si Si2 0.525961 0.299078 0.949548
Si Si3 0.327654 0.587987 0.387273
Si Si4 0.305883 0.170931 0.481287
Si Si5 0.878388 0.628087 0.114017
Si Si6 0.814959 0.982901 0.194243
O O1 0.834228 0.270737 0.527499
O O2 0.898480 0.462448 0.271788
O O3 0.153024 0.136183 0.400483
O O4 0.751759 0.844771 0.339913
O O5 0.619028 0.311512 0.780651
O O6 0.329771 0.289145 0.938916
O O7 0.500000 0.500000 0.000000
O O8 0.653153 0.123696 0.078049
O O9 0.500000 0.500000 0.500000
O O10 0.297751 0.386312 0.388431
O O11 0.500000 0.000000 0.500000
O O12 0.120995 0.878404 0.731221
O O13 0.943172 0.809127 0.114095
O O14 0.000000 0.500000 0.000000
#
# Coordination Sequence:
#
# PCOD9070570 Si02
#       6
#     2   2   2   2   2   2
#     4  12  27  53  80 118 162 207 274 332 398 472
#     4  12  25  51  83 121 166 210 262 329 403 474
#     4  12  24  50  83 117 165 208 261 336 395 474
#     4  12  27  48  81 117 157 210 271 329 397 474
#     4  12  29  51  81 119 163 210 266 329 401 479
#     4  12  27  53  79 118 157 213 268 323 405 477
#
# _framework density 25.051088
#
# number of rings (size 3 to 8) (size 9 to 14) (size 15 to 20)
#    0.000    0.000    5.000    3.500    4.667    0.667 
#    6.000    0.000    0.000    0.000    0.000    0.000 
#    0.000    0.000    0.000    0.000    0.000    0.000 
#
# Total GULP energy -67279.831548 kJ/mol
# GULP energy per Si atom -5606.652629 kJ/mol
# Density = 2.499407 g / cm^3
# Si number density = 25.051088 Si / 1000 Ang^3
#
#
#
# Elastic Constant Matrix: (Units=GPa)
#
#
# Indices 1 2 3 4 5 6 
#
# 1 169.6587 80.6195 51.0665 3.3640 19.9116 -11.8822
# 2 80.6195 204.6806 38.3948 -9.4235 3.2678 16.9222
# 3 51.0665 38.3948 121.0864 -5.3534 11.4914 0.2260
# 4 3.3640 -9.4235 -5.3534 47.0697 -4.2718 -1.8026
# 5 19.9116 3.2678 11.4914 -4.2718 34.4175 -5.9165
# 6 -11.8822 16.9222 0.2260 -1.8026 -5.9165 30.7118
#
#
#
# Elastic Compliance Matrix: (Units=1/GPa)
#
#
# Indices 1 2 3 4 5 6 
#
# 1 0.009093 -0.003533 -0.002468 -0.001777 -0.003513 0.004702
# 2 -0.003533 0.006863 -0.000705 0.001448 0.000970 -0.004872
# 3 -0.002468 -0.000705 0.009737 0.000944 -0.001799 -0.000929
# 4 -0.001777 0.001448 0.000944 0.022095 0.003397 0.000459
# 5 -0.003513 0.000970 -0.001799 0.003397 0.032815 0.004641
# 6 0.004702 -0.004872 -0.000929 0.000459 0.004641 0.037992
#
#
# Mechanical properties :
#
#
# Convention : Reuss Voigt Hill
#
# Bulk Modulus (GPa) = 81.43072 92.84305 87.13689
# Shear Modulus (GPa) = 36.73710 44.12947 40.43329
#
# Velocity S-wave (km/s) = 3.83363 4.20167 4.02186
# Velocity P-wave (km/s) = 7.22302 7.78978 7.51175
#
# Compressibility (1/GPa) = 0.01228038
#
# Stress axis : x y z
#
# Youngs Moduli (GPa) = 109.97776 145.70035 102.69665
#
# Poissons Ratio (x) = 0.51473 0.25350
# Poissons Ratio (y) = 0.38853 0.07243
# Poissons Ratio (z) = 0.27147 0.10277
#
# Static dielectric constant tensor:
#      x y z
#    x 2.033900 0.087530 -0.060670 
#    y 0.087530 2.124850 0.051310 
#    z -0.060670 0.051310 2.074260 
# 
# From -- ./inp_files/166433.got.cif
#   From: 2010.05.17/outbox.cif.g08.bks.cpg/sg2_84_cif.got.tgz:166433.got - 2010.06.03 11:33:40.
