data_PCOD9070464
_publ_section_title
;
Structure prediction by ZEFSAII (Michael W. Deem and Ramdas Pophale) SiO2 
 PCOD9070464
Probable space group: P -1
;
_chemical_formula_sum "Si O2"
_cell_formula_units_Z 13
_cell_length_a 6.876266
_cell_length_b 9.996299
_cell_length_c 13.021189
_cell_angle_alpha 128.497872
_cell_angle_beta 55.263713
_cell_angle_gamma 121.947971
_cell_volume 554.066120
_symmetry_space_group_name_H-M "P -1"
_symmetry_group_IT_number 2
_symmetry_cell_setting 'triclinic'
loop_
_space_group_symop_operation_xyz
x,y,z
-x,-y,-z
loop_
_atom_site_type_symbol
_atom_site_label
_atom_site_fract_x
_atom_site_fract_y
_atom_site_fract_z
Si Si1 0.561458 0.518032 0.611523
Si Si2 0.453030 0.880894 0.557419
Si Si3 0.163001 0.417360 0.833328
Si Si4 0.000000 0.000000 0.000000
Si Si5 0.351554 0.299253 0.919160
Si Si6 0.765315 0.101637 0.731215
Si Si7 0.096358 0.130287 0.245071
O O1 0.500000 0.500000 0.500000
O O2 0.586226 0.326550 0.545515
O O3 0.347688 0.551062 0.765927
O O4 0.795300 0.676519 0.645744
O O5 0.197973 0.900684 0.691066
O O6 0.500000 0.000000 0.500000
O O7 0.689751 0.958264 0.595139
O O8 0.303690 0.318137 0.821613
O O9 0.994464 0.273455 0.738838
O O10 0.000000 0.500000 0.000000
O O11 0.905226 0.808054 0.003577
O O12 0.831866 0.901993 0.906927
O O13 0.532325 0.181143 0.839280
O O14 0.500000 0.500000 0.000000
O O15 0.816415 0.000613 0.767734
#
# Coordination Sequence:
#
# PCOD9070464 Si02
#       7
#     2   2   2   1   2   2   2
#     4  12  28  51  79 117 157 212 267 331 410 482
#     4  12  27  50  79 109 154 209 265 323 404 493
#     4  12  27  49  77 113 156 207 268 331 406 484
#     4  12  26  46  78 112 158 202 272 330 404 486
#     4  12  25  47  72 116 156 211 263 336 405 484
#     4  12  24  48  77 105 158 202 261 327 406 479
#     4  12  27  49  76 114 158 203 266 330 402 483
#
# _framework density 23.462903000000001
#
# number of rings (size 3 to 8) (size 9 to 14) (size 15 to 20)
#    0.000    0.000    6.154    3.231    2.154    4.308 
#    2.769    0.000    0.000    0.000    0.000    0.000 
#    0.000    0.000    0.000    0.000    0.000    0.000 
#
# Total GULP energy -72407.168954 kJ/mol
# GULP energy per Si atom -5569.782227 kJ/mol
# Density = 2.340950 g / cm^3
# Si number density = 23.462903 Si / 1000 Ang^3
#
#
#
# Elastic Constant Matrix: (Units=GPa)
#
#
# Indices 1 2 3 4 5 6 
#
# 1 119.9127 24.8514 35.7020 3.2133 31.8017 7.2964
# 2 24.8514 114.6447 28.1578 11.9539 13.7205 7.2563
# 3 35.7020 28.1578 58.3822 8.8203 10.9766 -1.3444
# 4 3.2133 11.9539 8.8203 53.1096 -2.1007 11.5602
# 5 31.8017 13.7205 10.9766 -2.1007 54.4511 9.8549
# 6 7.2964 7.2563 -1.3444 11.5602 9.8549 49.9257
#
#
#
# Elastic Compliance Matrix: (Units=1/GPa)
#
#
# Indices 1 2 3 4 5 6 
#
# 1 0.011669 -0.000398 -0.006013 0.000353 -0.005338 -0.000838
# 2 -0.000398 0.010221 -0.004235 -0.001423 -0.001374 -0.000941
# 3 -0.006013 -0.004235 0.023578 -0.003299 -0.000855 0.003062
# 4 0.000353 -0.001423 -0.003299 0.020929 0.002582 -0.005289
# 5 -0.005338 -0.001374 -0.000855 0.002582 0.022852 -0.004152
# 6 -0.000838 -0.000941 0.003062 -0.005289 -0.004152 0.022416
#
#
# Mechanical properties :
#
#
# Convention : Reuss Voigt Hill
#
# Bulk Modulus (GPa) = 41.36198 52.26245 46.81221
# Shear Modulus (GPa) = 35.45683 45.11250 40.28466
#
# Velocity S-wave (km/s) = 3.89162 4.38964 4.14811
# Velocity P-wave (km/s) = 6.15303 6.92927 6.55265
#
# Compressibility (1/GPa) = 0.02417679
#
# Stress axis : x y z
#
# Youngs Moduli (GPa) = 85.69506 97.83499 42.41233
#
# Poissons Ratio (x) = 0.03890 0.25504
# Poissons Ratio (y) = 0.03407 0.17961
# Poissons Ratio (z) = 0.51532 0.41432
#
# Static dielectric constant tensor:
#      x y z
#    x 1.869960 0.038360 -0.051780 
#    y 0.038360 1.888490 -0.019040 
#    z -0.051780 -0.019040 1.983350 
# 
# From -- ./inp_files/118431.got.cif
#   From: 2010.05.17/outbox.cif.g08.bks.cpg/sg2_60_cif.got.tgz:118431.got - 2010.06.03 11:33:40.
