data_PCOD9070812
_publ_section_title
;
Structure prediction by ZEFSAII (Michael W. Deem and Ramdas Pophale) SiO2 
 PCOD9070812
Probable space group: P -1
;
_chemical_formula_sum "Si O2"
_cell_formula_units_Z 10
_cell_length_a 17.603156
_cell_length_b 8.322403
_cell_length_c 5.386572
_cell_angle_alpha 111.701092
_cell_angle_beta 71.325077
_cell_angle_gamma 149.183131
_cell_volume 375.612637
_symmetry_space_group_name_H-M "P -1"
_symmetry_group_IT_number 2
_symmetry_cell_setting 'triclinic'
loop_
_space_group_symop_operation_xyz
x,y,z
-x,-y,-z
loop_
_atom_site_type_symbol
_atom_site_label
_atom_site_fract_x
_atom_site_fract_y
_atom_site_fract_z
Si Si1 0.051554 0.684220 0.299267
Si Si2 0.802121 0.476272 0.403558
Si Si3 0.699935 0.479574 0.010547
Si Si4 0.350120 0.331222 0.514556
Si Si5 0.467940 0.236764 0.831472
O O1 0.000000 0.500000 0.500000
O O2 0.972482 0.726931 0.389993
O O3 0.228410 0.006275 0.307860
O O4 0.000000 0.500000 0.000000
O O5 0.763701 0.493996 0.189971
O O6 0.693061 0.109052 0.294766
O O7 0.765165 0.510432 0.715524
O O8 0.736664 0.744922 0.205270
O O9 0.525659 0.213897 0.977570
O O10 0.500000 0.500000 0.500000
O O11 0.417700 0.600001 0.417928
O O12 0.500000 0.500000 0.000000
#
# Coordination Sequence:
#
# PCOD9070812 Si02
#       5
#     2   2   2   2   2
#     4  12  29  52  78 111 157 201 256 316 382 457
#     4  12  28  49  76 113 155 199 250 318 386 441
#     4  12  27  47  77 114 157 195 253 316 383 445
#     4  12  27  47  81 114 152 206 261 311 375 460
#     4  12  25  46  78 112 154 203 259 307 370 462
#
# _framework density 26.623175
#
# number of rings (size 3 to 8) (size 9 to 14) (size 15 to 20)
#    0.000    0.000    4.000    4.800    5.600    1.600 
#    0.000    0.000    0.000    0.000    0.000    0.000 
#    0.000    0.000    0.000    0.000    0.000    0.000 
#
# Total GULP energy -55838.116355 kJ/mol
# GULP energy per Si atom -5583.811635 kJ/mol
# Density = 2.656258 g / cm^3
# Si number density = 26.623175 Si / 1000 Ang^3
#
#
#
# Elastic Constant Matrix: (Units=GPa)
#
#
# Indices 1 2 3 4 5 6 
#
# 1 196.9486 42.1868 87.4497 -10.9920 22.4372 17.4697
# 2 42.1868 106.2414 40.0726 13.4482 19.7961 23.6066
# 3 87.4497 40.0726 232.8425 -12.7718 4.9407 12.0963
# 4 -10.9920 13.4482 -12.7718 38.7253 7.3487 10.3178
# 5 22.4372 19.7961 4.9407 7.3487 57.6003 -3.1518
# 6 17.4697 23.6066 12.0963 10.3178 -3.1518 40.5061
#
#
#
# Elastic Compliance Matrix: (Units=1/GPa)
#
#
# Indices 1 2 3 4 5 6 
#
# 1 0.006950 -0.001306 -0.002035 0.002935 -0.002599 -0.002578
# 2 -0.001306 0.012923 -0.001507 -0.003037 -0.003746 -0.006036
# 3 -0.002035 -0.001507 0.005410 0.001676 0.000620 -0.000238
# 4 0.002935 -0.003037 0.001676 0.031382 -0.004704 -0.008356
# 5 -0.002599 -0.003746 0.000620 -0.004704 0.020532 0.005915
# 6 -0.002578 -0.006036 -0.000238 -0.008356 0.005915 0.031977
#
#
# Mechanical properties :
#
#
# Convention : Reuss Voigt Hill
#
# Bulk Modulus (GPa) = 64.16237 97.27231 80.71734
# Shear Modulus (GPa) = 40.30121 51.78789 46.04455
#
# Velocity S-wave (km/s) = 3.89493 4.41525 4.16323
# Velocity P-wave (km/s) = 6.66182 7.91256 7.31397
#
# Compressibility (1/GPa) = 0.01558546
#
# Stress axis : x y z
#
# Youngs Moduli (GPa) = 143.89455 77.37959 184.85724
#
# Poissons Ratio (x) = 0.10108 0.37622
# Poissons Ratio (y) = 0.18797 0.27858
# Poissons Ratio (z) = 0.29285 0.11661
#
# Static dielectric constant tensor:
#      x y z
#    x 2.025940 -0.299300 -0.465720 
#    y -0.299300 1.929110 -0.477430 
#    z -0.465720 -0.477430 1.085090 
# 
# From -- ./inp_files/83440.got.cif
#   From: 2010.05.17/outbox.cif.g08.bks.cpg/sg2_42_cif.got.tgz:83440.got - 2010.06.03 11:33:40.
