data_PCOD9070857
_publ_section_title
;
Structure prediction by ZEFSAII (Michael W. Deem and Ramdas Pophale) SiO2 
 PCOD9070857
Probable space group: P -1
;
_chemical_formula_sum "Si O2"
_cell_formula_units_Z 15
_cell_length_a 20.083659
_cell_length_b 8.481110
_cell_length_c 14.458653
_cell_angle_alpha 36.438272
_cell_angle_beta 149.033869
_cell_angle_gamma 146.264078
_cell_volume 666.757540
_symmetry_space_group_name_H-M "P -1"
_symmetry_group_IT_number 2
_symmetry_cell_setting 'triclinic'
loop_
_space_group_symop_operation_xyz
x,y,z
-x,-y,-z
loop_
_atom_site_type_symbol
_atom_site_label
_atom_site_fract_x
_atom_site_fract_y
_atom_site_fract_z
Si Si1 0.284108 0.477950 0.447503
Si Si2 0.140937 0.454559 0.668907
Si Si3 0.220294 0.718763 0.447863
Si Si4 0.965453 0.189736 0.156715
Si Si5 0.467467 0.775899 0.353162
Si Si6 0.651734 0.031517 0.198449
Si Si7 0.214383 0.697919 0.956581
Si Si8 0.000000 0.000000 0.000000
O O1 0.254557 0.615586 0.439238
O O2 0.362128 0.707251 0.349653
O O3 0.125459 0.225240 0.346492
O O4 0.374769 0.300038 0.655357
O O5 0.157216 0.465923 0.571888
O O6 0.277445 0.733543 0.745513
O O7 0.000000 0.500000 0.500000
O O8 0.121711 0.138993 0.837098
O O9 0.107583 0.851592 0.232981
O O10 0.376436 0.956675 0.561887
O O11 0.880897 0.197245 0.143517
O O12 0.000000 0.500000 0.000000
O O13 0.500000 0.500000 0.500000
O O14 0.371998 0.807588 0.141505
O O15 0.763132 0.165660 0.182526
O O16 0.500000 0.000000 0.000000
O O17 0.129608 0.338484 0.020391
#
# Coordination Sequence:
#
# PCOD9070857 Si02
#       8
#     2   2   2   2   2   2   2   1
#     4  12  26  47  75 109 149 199 249 312 377 445
#     4  12  27  47  77 107 149 197 250 305 378 441
#     4  12  27  47  74 109 155 197 254 307 380 448
#     4  12  27  47  77 109 149 191 254 316 374 446
#     4  12  25  47  74 106 150 197 248 308 375 448
#     4  12  28  48  75 108 150 197 255 306 377 452
#     4  12  26  46  74 105 148 193 251 306 374 439
#     4  12  26  40  76 110 142 196 254 300 374 440
#
# _framework density 22.496935000000001
#
# number of rings (size 3 to 8) (size 9 to 14) (size 15 to 20)
#    0.000    0.000    5.333    4.400    3.733    2.133 
#    0.000    2.667    0.000    0.000    0.000    0.000 
#    0.000    0.000    0.000    0.000    0.000    0.000 
#
# Total GULP energy -83692.307269 kJ/mol
# GULP energy per Si atom -5579.487151 kJ/mol
# Density = 2.244573 g / cm^3
# Si number density = 22.496935 Si / 1000 Ang^3
#
#
#
# Elastic Constant Matrix: (Units=GPa)
#
#
# Indices 1 2 3 4 5 6 
#
# 1 113.6372 12.5859 8.9905 -7.9872 -19.2531 6.3556
# 2 12.5859 101.8954 22.4511 5.6077 -1.0921 -6.8245
# 3 8.9905 22.4511 89.1098 6.1210 -3.3376 3.0983
# 4 -7.9872 5.6077 6.1210 50.4168 2.6855 8.6645
# 5 -19.2531 -1.0921 -3.3376 2.6855 26.3965 8.4420
# 6 6.3556 -6.8245 3.0983 8.6645 8.4420 20.4456
#
#
#
# Elastic Compliance Matrix: (Units=1/GPa)
#
#
# Indices 1 2 3 4 5 6 
#
# 1 0.011843 -0.002220 -0.000062 0.003337 0.011594 -0.010614
# 2 -0.002220 0.011302 -0.002856 -0.002338 -0.003637 0.007388
# 3 -0.000062 -0.002856 0.012217 -0.000702 0.002591 -0.003558
# 4 0.003337 -0.002338 -0.000702 0.022731 0.004106 -0.013040
# 5 0.011594 -0.003637 0.002591 0.004106 0.055674 -0.029939
# 6 -0.010614 0.007388 -0.003558 -0.013040 -0.029939 0.073103
#
#
# Mechanical properties :
#
#
# Convention : Reuss Voigt Hill
#
# Bulk Modulus (GPa) = 39.86064 43.63303 41.74683
# Shear Modulus (GPa) = 24.33011 36.82608 30.57809
#
# Velocity S-wave (km/s) = 3.29216 4.05030 3.69075
# Velocity P-wave (km/s) = 5.67519 6.42732 6.06293
#
# Compressibility (1/GPa) = 0.02508741
#
# Stress axis : x y z
#
# Youngs Moduli (GPa) = 84.43735 88.48066 81.85400
#
# Poissons Ratio (x) = 0.19639 0.00504
# Poissons Ratio (y) = 0.18741 0.23378
# Poissons Ratio (z) = 0.00520 0.25271
#
# Static dielectric constant tensor:
#      x y z
#    x 1.844130 0.021660 -0.076170 
#    y 0.021660 1.801410 0.047990 
#    z -0.076170 0.047990 1.649370 
# 
# From -- ./inp_files/381511.got.cif
#   From: 2010.05.17/outbox.cif.g08.bks.cpg/sg2_191_cif.got.tgz:381511.got - 2010.06.03 11:33:40.
