data_PCOD9070285
_publ_section_title
;
Structure prediction by ZEFSAII (Michael W. Deem and Ramdas Pophale) SiO2 
 PCOD9070285
Probable space group: P -1
;
_chemical_formula_sum "Si O2"
_cell_formula_units_Z 15
_cell_length_a 11.757719
_cell_length_b 5.026355
_cell_length_c 11.316360
_cell_angle_alpha 113.407586
_cell_angle_beta 65.557805
_cell_angle_gamma 93.883542
_cell_volume 554.984942
_symmetry_space_group_name_H-M "P -1"
_symmetry_group_IT_number 2
_symmetry_cell_setting 'triclinic'
loop_
_space_group_symop_operation_xyz
x,y,z
-x,-y,-z
loop_
_atom_site_type_symbol
_atom_site_label
_atom_site_fract_x
_atom_site_fract_y
_atom_site_fract_z
Si Si1 0.281719 0.380614 0.379979
Si Si2 0.508283 0.583176 0.875307
Si Si3 0.502682 0.012837 0.359382
Si Si4 0.882249 0.443756 0.803955
Si Si5 0.137235 0.541470 0.809048
Si Si6 0.000000 0.500000 0.500000
Si Si7 0.745133 0.099742 0.351643
Si Si8 0.247578 0.909604 0.031535
O O1 0.355152 0.356374 0.219831
O O2 0.382010 0.195775 0.388215
O O3 0.276020 0.714325 0.487945
O O4 0.138274 0.321817 0.442601
O O5 0.478858 0.302171 0.763356
O O6 0.500000 0.500000 0.000000
O O7 0.397759 0.841888 0.944015
O O8 0.630353 0.165269 0.320340
O O9 0.500000 0.000000 0.500000
O O10 0.936280 0.414900 0.642244
O O11 0.796496 0.200171 0.840839
O O12 0.000934 0.436429 0.839856
O O13 0.807583 0.762123 0.912155
O O14 0.140996 0.767992 0.738790
O O15 0.228140 0.242080 0.700366
O O16 0.182151 0.705404 0.931804
#
# Coordination Sequence:
#
# PCOD9070285 Si02
#       8
#     2   2   2   2   2   1   2   2
#     4  12  28  51  82 117 161 215 275 342 407 491
#     4  12  29  49  80 118 164 215 268 338 418 492
#     4  12  26  48  81 121 155 214 278 343 409 475
#     4  12  28  50  77 114 159 216 266 323 402 488
#     4  12  24  48  79 119 157 208 265 339 404 477
#     4  12  30  54  80 114 164 220 268 336 402 504
#     4  12  24  46  82 122 156 202 276 343 400 469
#     4  12  27  50  78 115 159 207 266 331 405 482
#
# _framework density 27.027761000000002
#
# number of rings (size 3 to 8) (size 9 to 14) (size 15 to 20)
#    0.000    0.000    4.000    5.200    3.733    1.067 
#    0.000    0.000    0.000    0.000    0.000    0.000 
#    0.000    0.000    0.000    0.000    0.000    0.000 
#
# Total GULP energy -83935.271602 kJ/mol
# GULP energy per Si atom -5595.684773 kJ/mol
# Density = 2.696624 g / cm^3
# Si number density = 27.027761 Si / 1000 Ang^3
#
#
#
# Elastic Constant Matrix: (Units=GPa)
#
#
# Indices 1 2 3 4 5 6 
#
# 1 112.2555 3.2601 45.2198 15.2626 -38.5241 -21.1679
# 2 3.2601 98.5094 41.9411 16.7155 -4.8727 -8.1206
# 3 45.2198 41.9411 166.8252 6.3029 -2.9173 -5.8508
# 4 15.2626 16.7155 6.3029 60.3947 -0.0137 -8.5588
# 5 -38.5241 -4.8727 -2.9173 -0.0137 52.6234 -7.7866
# 6 -21.1679 -8.1206 -5.8508 -8.5588 -7.7866 47.5028
#
#
#
# Elastic Compliance Matrix: (Units=1/GPa)
#
#
# Indices 1 2 3 4 5 6 
#
# 1 0.018470 0.003816 -0.005209 -0.003755 0.015070 0.010035
# 2 0.003816 0.012803 -0.003921 -0.003608 0.004272 0.003457
# 3 -0.005209 -0.003921 0.008190 0.001201 -0.004082 -0.002435
# 4 -0.003755 -0.003608 0.001201 0.018480 -0.002906 0.000711
# 5 0.015070 0.004272 -0.004082 -0.002906 0.031928 0.011653
# 6 0.010035 0.003457 -0.002435 0.000711 0.011653 0.027852
#
#
# Mechanical properties :
#
#
# Convention : Reuss Voigt Hill
#
# Bulk Modulus (GPa) = 34.67887 62.04804 48.36345
# Shear Modulus (GPa) = 36.24186 51.24878 43.74532
#
# Velocity S-wave (km/s) = 3.66582 4.35921 4.02746
# Velocity P-wave (km/s) = 5.54764 6.95298 6.28968
#
# Compressibility (1/GPa) = 0.02883601
#
# Stress axis : x y z
#
# Youngs Moduli (GPa) = 54.14130 78.10774 122.10418
#
# Poissons Ratio (x) = -0.29807 0.63599
# Poissons Ratio (y) = -0.20661 0.47876
# Poissons Ratio (z) = 0.28200 0.30625
#
# Static dielectric constant tensor:
#      x y z
#    x 2.214670 0.118820 -0.047390 
#    y 0.118820 2.205970 -0.147070 
#    z -0.047390 -0.147070 2.165460 
# 
# From -- ./inp_files/411216.got.cif
#   From: 2010.05.17/outbox.cif.g08.bks.cpg/sg2_206_cif.got.tgz:411216.got - 2010.06.03 11:33:40.
