data_PCOD9070067
_publ_section_title
;
Structure prediction by ZEFSAII (Michael W. Deem and Ramdas Pophale) SiO2 
 PCOD9070067
Probable space group: P -1
;
_chemical_formula_sum "Si O2"
_cell_formula_units_Z 14
_cell_length_a 16.519915
_cell_length_b 12.454618
_cell_length_c 23.126511
_cell_angle_alpha 153.153049
_cell_angle_beta 18.389716
_cell_angle_gamma 152.615770
_cell_volume 648.831528
_symmetry_space_group_name_H-M "P -1"
_symmetry_group_IT_number 2
_symmetry_cell_setting 'triclinic'
loop_
_space_group_symop_operation_xyz
x,y,z
-x,-y,-z
loop_
_atom_site_type_symbol
_atom_site_label
_atom_site_fract_x
_atom_site_fract_y
_atom_site_fract_z
Si Si1 0.929588 0.627819 0.552964
Si Si2 0.609048 0.243497 0.004720
Si Si3 0.884951 0.467450 0.126951
Si Si4 0.330584 0.012097 0.885058
Si Si5 0.424196 0.130359 0.462978
Si Si6 0.896241 0.310986 0.306008
Si Si7 0.156934 0.790973 0.294977
O O1 0.000000 0.500000 0.500000
O O2 0.635028 0.643366 0.773313
O O3 0.910553 0.463822 0.429241
O O4 0.155244 0.896745 0.526364
O O5 0.692394 0.192951 0.859974
O O6 0.871008 0.414890 0.939464
O O7 0.500000 0.000000 0.000000
O O8 0.768867 0.186740 0.091865
O O9 0.671930 0.622744 0.352315
O O10 0.000000 0.500000 0.000000
O O11 0.391855 0.884083 0.723629
O O12 0.619172 0.173445 0.789864
O O13 0.117746 0.162597 0.088899
O O14 0.603641 0.133426 0.400313
O O15 0.963539 0.519090 0.309703
O O16 0.000000 0.000000 0.500000
#
# Coordination Sequence:
#
# PCOD9070067 Si02
#       7
#     2   2   2   2   2   2   2
#     4  12  28  46  73 105 148 188 233 298 359 427
#     4  12  24  45  70 103 142 185 237 290 357 420
#     4  12  26  46  72 105 142 186 243 295 358 430
#     4  12  26  46  75 104 145 187 238 303 354 423
#     4  12  26  49  73 104 144 188 243 290 359 427
#     4  12  27  48  74 108 143 186 244 295 358 426
#     4  12  24  45  76 104 141 187 238 295 354 426
#
# _framework density 21.577251
#
# number of rings (size 3 to 8) (size 9 to 14) (size 15 to 20)
#    0.000    0.000    2.857    7.286    6.000    0.571 
#    0.000    0.000    0.000    0.000    0.000    0.000 
#    0.000    0.000    0.000    0.000    0.000    0.000 
#
# Total GULP energy -78356.105012 kJ/mol
# GULP energy per Si atom -5596.864644 kJ/mol
# Density = 2.152814 g / cm^3
# Si number density = 21.577251 Si / 1000 Ang^3
#
#
#
# Elastic Constant Matrix: (Units=GPa)
#
#
# Indices 1 2 3 4 5 6 
#
# 1 133.6788 21.4551 83.1026 6.0350 5.9590 15.8651
# 2 21.4551 54.3106 33.6199 -1.1130 7.1953 7.9130
# 3 83.1026 33.6199 222.7289 21.1948 -10.9945 -2.8639
# 4 6.0350 -1.1130 21.1948 29.9028 0.6035 -10.3093
# 5 5.9590 7.1953 -10.9945 0.6035 58.0256 -11.4257
# 6 15.8651 7.9130 -2.8639 -10.3093 -11.4257 53.9541
#
#
#
# Elastic Compliance Matrix: (Units=1/GPa)
#
#
# Indices 1 2 3 4 5 6 
#
# 1 0.010689 -0.000887 -0.003964 -0.000668 -0.002496 -0.003880
# 2 -0.000887 0.021998 -0.003452 0.002298 -0.004016 -0.003560
# 3 -0.003964 -0.003452 0.006992 -0.003687 0.002569 0.001883
# 4 -0.000668 0.002298 -0.003687 0.038714 0.000076 0.007077
# 5 -0.002496 -0.004016 0.002569 0.000076 0.019581 0.005620
# 6 -0.003880 -0.003560 0.001883 0.007077 0.005620 0.022839
#
#
# Mechanical properties :
#
#
# Convention : Reuss Voigt Hill
#
# Bulk Modulus (GPa) = 43.34128 76.34152 59.84140
# Shear Modulus (GPa) = 34.45691 46.54587 40.50139
#
# Velocity S-wave (km/s) = 4.00047 4.64958 4.33718
# Velocity P-wave (km/s) = 6.43960 8.01761 7.27154
#
# Compressibility (1/GPa) = 0.02307269
#
# Stress axis : x y z
#
# Youngs Moduli (GPa) = 93.55476 45.45908 143.02656
#
# Poissons Ratio (x) = 0.04031 0.56694
# Poissons Ratio (y) = 0.08295 0.49378
# Poissons Ratio (z) = 0.37084 0.15694
#
# Static dielectric constant tensor:
#      x y z
#    x 1.817900 0.047270 0.029670 
#    y 0.047270 1.761440 0.035920 
#    z 0.029670 0.035920 1.693690 
# 
# From -- ./inp_files/181762.got.cif
#   From: 2010.05.17/outbox.cif.g08.bks.cpg/sg2_91_cif.got.tgz:181762.got - 2010.06.03 11:33:40.
