data_PCOD9070282
_publ_section_title
;
Structure prediction by ZEFSAII (Michael W. Deem and Ramdas Pophale) SiO2 
 PCOD9070282
Probable space group: P -1
;
_chemical_formula_sum "Si O2"
_cell_formula_units_Z 9
_cell_length_a 4.886487
_cell_length_b 10.504614
_cell_length_c 10.350955
_cell_angle_alpha 139.663424
_cell_angle_beta 92.594158
_cell_angle_gamma 99.500413
_cell_volume 326.789110
_symmetry_space_group_name_H-M "P -1"
_symmetry_group_IT_number 2
_symmetry_cell_setting 'triclinic'
loop_
_space_group_symop_operation_xyz
x,y,z
-x,-y,-z
loop_
_atom_site_type_symbol
_atom_site_label
_atom_site_fract_x
_atom_site_fract_y
_atom_site_fract_z
Si Si1 0.312055 0.153703 0.469105
Si Si2 0.500000 0.000000 0.000000
Si Si3 0.819007 0.476317 0.349846
Si Si4 0.785031 0.475307 0.856829
Si Si5 0.290294 0.084418 0.811278
O O1 0.341269 0.349697 0.527612
O O2 0.514342 0.265329 0.678359
O O3 0.975302 0.482702 0.739213
O O4 0.436473 0.987724 0.275955
O O5 0.381485 0.756196 0.838330
O O6 0.229055 0.988861 0.880035
O O7 0.000000 0.500000 0.500000
O O8 0.025931 0.962835 0.618605
O O9 0.674832 0.674739 0.008551
O O10 0.000000 0.500000 0.000000
#
# Coordination Sequence:
#
# PCOD9070282 Si02
#       5
#     2   1   2   2   2
#     4  12  26  52  74 121 158 211 265 337 399 474
#     4  12  24  46  80 118 156 204 270 322 408 466
#     4  12  26  51  82 118 164 207 269 338 404 473
#     4  12  30  54  80 117 164 218 269 327 403 491
#     4  12  28  47  81 118 160 212 268 333 406 480
#
# _framework density 27.540696000000001
#
# number of rings (size 3 to 8) (size 9 to 14) (size 15 to 20)
#    0.000    0.000    6.667    1.333    3.111    6.222 
#    0.000    0.000    0.000    0.000    0.000    0.000 
#    0.000    0.000    0.000    0.000    0.000    0.000 
#
# Total GULP energy -50313.525030 kJ/mol
# GULP energy per Si atom -5590.391670 kJ/mol
# Density = 2.747801 g / cm^3
# Si number density = 27.540696 Si / 1000 Ang^3
#
#
#
# Elastic Constant Matrix: (Units=GPa)
#
#
# Indices 1 2 3 4 5 6 
#
# 1 89.4732 52.0538 46.5609 3.2824 -8.9646 -21.9638
# 2 52.0538 149.1778 51.0971 -21.5421 -25.9983 -24.8479
# 3 46.5609 51.0971 172.2090 16.3441 10.8914 -11.2326
# 4 3.2824 -21.5421 16.3441 80.6466 -18.4419 -1.5031
# 5 -8.9646 -25.9983 10.8914 -18.4419 68.3162 8.1508
# 6 -21.9638 -24.8479 -11.2326 -1.5031 8.1508 43.7807
#
#
#
# Elastic Compliance Matrix: (Units=1/GPa)
#
#
# Indices 1 2 3 4 5 6 
#
# 1 0.016257 -0.003980 -0.002795 -0.001022 0.000178 0.005111
# 2 -0.003980 0.011154 -0.002848 0.004955 0.005179 0.002809
# 3 -0.002795 -0.002848 0.007887 -0.003049 -0.003477 -0.000452
# 4 -0.001022 0.004955 -0.003049 0.015867 0.006417 0.000867
# 5 0.000178 0.005179 -0.003477 0.006417 0.019061 -0.001192
# 6 0.005111 0.002809 -0.000452 0.000867 -0.001192 0.027135
#
#
# Mechanical properties :
#
#
# Convention : Reuss Voigt Hill
#
# Bulk Modulus (GPa) = 62.30150 78.92041 70.61095
# Shear Modulus (GPa) = 40.99762 55.95860 48.47811
#
# Velocity S-wave (km/s) = 3.86245 4.51250 4.20007
# Velocity P-wave (km/s) = 6.52396 7.47451 7.01535
#
# Compressibility (1/GPa) = 0.01605098
#
# Stress axis : x y z
#
# Youngs Moduli (GPa) = 61.51211 89.65578 126.78329
#
# Poissons Ratio (x) = 0.35687 0.35439
# Poissons Ratio (y) = 0.24484 0.36107
# Poissons Ratio (z) = 0.17194 0.25533
#
# Static dielectric constant tensor:
#      x y z
#    x 2.191000 0.063430 -0.004240 
#    y 0.063430 2.227880 -0.162870 
#    z -0.004240 -0.162870 2.172180 
# 
# From -- ./inp_files/91387.got.cif
#   From: 2010.05.17/outbox.cif.g08.bks.cpg/sg2_46_cif.got.tgz:91387.got - 2010.06.03 11:33:40.
