data_PCOD9070815
_publ_section_title
;
Structure prediction by ZEFSAII (Michael W. Deem and Ramdas Pophale) SiO2 
 PCOD9070815
Probable space group: P -1
;
_chemical_formula_sum "Si O2"
_cell_formula_units_Z 14
_cell_length_a 5.752969
_cell_length_b 12.590929
_cell_length_c 12.865891
_cell_angle_alpha 130.609369
_cell_angle_beta 73.195912
_cell_angle_gamma 123.692461
_cell_volume 584.824070
_symmetry_space_group_name_H-M "P -1"
_symmetry_group_IT_number 2
_symmetry_cell_setting 'triclinic'
loop_
_space_group_symop_operation_xyz
x,y,z
-x,-y,-z
loop_
_atom_site_type_symbol
_atom_site_label
_atom_site_fract_x
_atom_site_fract_y
_atom_site_fract_z
Si Si1 0.552875 0.307564 0.681543
Si Si2 0.475024 0.589668 0.767181
Si Si3 0.299717 0.576899 0.568960
Si Si4 0.972506 0.424427 0.066039
Si Si5 0.033539 0.141827 0.797671
Si Si6 0.479045 0.890452 0.633526
Si Si7 0.002996 0.912655 0.836892
O O1 0.472909 0.427711 0.702656
O O2 0.818346 0.430493 0.793816
O O3 0.606171 0.192390 0.522725
O O4 0.304483 0.198731 0.726029
O O5 0.259676 0.578691 0.697662
O O6 0.776175 0.725945 0.773238
O O7 0.356632 0.652248 0.913624
O O8 0.500000 0.500000 0.500000
O O9 0.495390 0.748571 0.601357
O O10 0.000000 0.500000 0.500000
O O11 0.000000 0.500000 0.000000
O O12 0.063223 0.292077 0.954842
O O13 0.766712 0.060053 0.702419
O O14 0.952613 0.006417 0.809882
O O15 0.270324 0.912421 0.751635
O O16 0.000000 0.000000 0.000000
#
# Coordination Sequence:
#
# PCOD9070815 Si02
#       7
#     2   2   2   2   2   2   2
#     4  12  28  50  81 113 159 212 273 332 405 491
#     4  12  26  47  78 114 154 208 276 330 403 490
#     4  12  25  46  78 118 164 212 269 337 415 489
#     4  12  28  49  81 113 154 216 273 328 407 499
#     4  12  28  50  76 114 159 207 271 329 415 491
#     4  12  28  49  78 118 160 208 270 342 414 480
#     4  12  29  48  79 114 164 212 266 341 419 492
#
# _framework density 23.938822999999999
#
# number of rings (size 3 to 8) (size 9 to 14) (size 15 to 20)
#    0.000    0.000    4.286    4.286    8.000    2.857 
#    0.000    0.000    0.000    0.000    0.000    0.000 
#    0.000    0.000    0.000    0.000    0.000    0.000 
#
# Total GULP energy -78122.719993 kJ/mol
# GULP energy per Si atom -5580.194285 kJ/mol
# Density = 2.388434 g / cm^3
# Si number density = 23.938823 Si / 1000 Ang^3
#
#
#
# Elastic Constant Matrix: (Units=GPa)
#
#
# Indices 1 2 3 4 5 6 
#
# 1 69.5319 20.4443 36.7396 3.3034 -4.9420 21.6611
# 2 20.4443 92.6005 36.9295 -20.2149 7.6214 32.7043
# 3 36.7396 36.9295 141.9207 11.0824 -13.6678 23.1407
# 4 3.3034 -20.2149 11.0824 31.2492 9.4312 1.6649
# 5 -4.9420 7.6214 -13.6678 9.4312 44.3683 -9.1534
# 6 21.6611 32.7043 23.1407 1.6649 -9.1534 50.7725
#
#
#
# Elastic Compliance Matrix: (Units=1/GPa)
#
#
# Indices 1 2 3 4 5 6 
#
# 1 0.018290 -0.000955 -0.003479 -0.001090 0.000221 -0.005527
# 2 -0.000955 0.027388 -0.007659 0.026424 -0.016412 -0.017569
# 3 -0.003479 -0.007659 0.010982 -0.010833 0.007248 0.003074
# 4 -0.001090 0.026424 -0.010833 0.061502 -0.024806 -0.018107
# 5 0.000221 -0.016412 0.007248 -0.024806 0.035870 0.014454
# 6 -0.005527 -0.017569 0.003074 -0.018107 0.014454 0.035169
#
#
# Mechanical properties :
#
#
# Convention : Reuss Voigt Hill
#
# Bulk Modulus (GPa) = 30.79206 54.69778 42.74492
# Shear Modulus (GPa) = 22.30030 39.27400 30.78715
#
# Velocity S-wave (km/s) = 3.05545 4.05482 3.59008
# Velocity P-wave (km/s) = 5.03373 6.69483 5.92280
#
# Compressibility (1/GPa) = 0.03247591
#
# Stress axis : x y z
#
# Youngs Moduli (GPa) = 54.67459 36.51199 91.05452
#
# Poissons Ratio (x) = 0.03486 0.31676
# Poissons Ratio (y) = 0.05220 0.69737
# Poissons Ratio (z) = 0.19020 0.27964
#
# Static dielectric constant tensor:
#      x y z
#    x 1.935360 0.023010 0.066010 
#    y 0.023010 1.828320 0.012660 
#    z 0.066010 0.012660 2.035130 
# 
# From -- ./inp_files/365224.got.cif
#   From: 2010.05.17/outbox.cif.g08.bks.cpg/sg2_183_cif.got.tgz:365224.got - 2010.06.03 11:33:40.
