data_PCOD9070797
_publ_section_title
;
Structure prediction by ZEFSAII (Michael W. Deem and Ramdas Pophale) SiO2 
 PCOD9070797
Probable space group: P -1
;
_chemical_formula_sum "Si O2"
_cell_formula_units_Z 14
_cell_length_a 9.259417
_cell_length_b 12.295888
_cell_length_c 14.545408
_cell_angle_alpha 30.284332
_cell_angle_beta 129.104190
_cell_angle_gamma 137.548135
_cell_volume 563.583995
_symmetry_space_group_name_H-M "P -1"
_symmetry_group_IT_number 2
_symmetry_cell_setting 'triclinic'
loop_
_space_group_symop_operation_xyz
x,y,z
-x,-y,-z
loop_
_atom_site_type_symbol
_atom_site_label
_atom_site_fract_x
_atom_site_fract_y
_atom_site_fract_z
Si Si1 0.394825 0.615256 0.693638
Si Si2 0.384735 0.820175 0.169530
Si Si3 0.539699 0.920933 0.364436
Si Si4 0.167703 0.274453 0.436340
Si Si5 0.122419 0.075888 0.262293
Si Si6 0.177651 0.562677 0.838600
Si Si7 0.133727 0.087269 0.898659
O O1 0.367018 0.751830 0.494008
O O2 0.632191 0.815746 0.682252
O O3 0.233921 0.556513 0.757739
O O4 0.340421 0.350415 0.818557
O O5 0.484773 0.891296 0.257745
O O6 0.350601 0.548354 0.338485
O O7 0.500000 0.000000 0.000000
O O8 0.183831 0.865080 0.061384
O O9 0.725275 0.841100 0.501834
O O10 0.608491 0.199516 0.213275
O O11 0.999181 0.355337 0.273651
O O12 0.045930 0.084881 0.608840
O O13 0.135720 0.333433 0.051521
O O14 0.010659 0.911348 0.245437
O O15 0.000000 0.000000 0.000000
#
# Coordination Sequence:
#
# PCOD9070797 Si02
#       7
#     2   2   2   2   2   2   2
#     4  12  26  49  75 115 154 198 256 315 375 452
#     4  12  26  50  76 109 154 199 252 315 384 452
#     4  12  27  46  77 109 150 199 257 309 383 454
#     4  12  26  49  73 113 148 193 256 312 376 451
#     4  12  26  47  80 109 159 192 257 317 371 458
#     4  12  26  48  74 109 155 197 252 309 377 450
#     4  12  25  46  76 110 148 201 251 307 379 444
#
# _framework density 24.841016
#
# number of rings (size 3 to 8) (size 9 to 14) (size 15 to 20)
#    0.000    0.000    4.286    5.143    2.000    0.571 
#    0.000    2.857    0.000    0.000    0.000    0.000 
#    0.000    0.000    0.000    0.000    0.000    0.000 
#
# Total GULP energy -78167.595670 kJ/mol
# GULP energy per Si atom -5583.399691 kJ/mol
# Density = 2.478448 g / cm^3
# Si number density = 24.841016 Si / 1000 Ang^3
#
#
#
# Elastic Constant Matrix: (Units=GPa)
#
#
# Indices 1 2 3 4 5 6 
#
# 1 98.1665 24.4268 42.6372 8.8068 -11.3171 2.0125
# 2 24.4268 125.0526 36.6744 -5.5954 -13.8637 -26.6596
# 3 42.6372 36.6744 158.4356 -12.9119 -29.8079 -9.3943
# 4 8.8068 -5.5954 -12.9119 52.5003 -2.3162 5.0409
# 5 -11.3171 -13.8637 -29.8079 -2.3162 44.1368 -1.6919
# 6 2.0125 -26.6596 -9.3943 5.0409 -1.6919 30.2673
#
#
#
# Elastic Compliance Matrix: (Units=1/GPa)
#
#
# Indices 1 2 3 4 5 6 
#
# 1 0.012509 -0.002349 -0.003259 -0.002820 -0.000011 -0.003443
# 2 -0.002349 0.011096 -0.000795 0.000567 0.002749 0.009742
# 3 -0.003259 -0.000795 0.008641 0.002610 0.004965 0.002041
# 4 -0.002820 0.000567 0.002610 0.020493 0.002224 -0.001792
# 5 -0.000011 0.002749 0.004965 0.002224 0.027184 0.005112
# 6 -0.003443 0.009742 0.002041 -0.001792 0.005112 0.043066
#
#
# Mechanical properties :
#
#
# Convention : Reuss Voigt Hill
#
# Bulk Modulus (GPa) = 51.44240 65.45905 58.45072
# Shear Modulus (GPa) = 35.14351 43.90864 39.52608
#
# Velocity S-wave (km/s) = 3.76538 4.20883 3.99326
# Velocity P-wave (km/s) = 6.29744 7.07300 6.69646
#
# Compressibility (1/GPa) = 0.01943922
#
# Stress axis : x y z
#
# Youngs Moduli (GPa) = 79.94260 90.12525 115.73236
#
# Poissons Ratio (x) = 0.21173 0.37713
# Poissons Ratio (y) = 0.18780 0.09203
# Poissons Ratio (z) = 0.26050 0.07166
#
# Static dielectric constant tensor:
#      x y z
#    x 1.979550 0.183650 0.043730 
#    y 0.183650 2.168440 -0.024080 
#    z 0.043730 -0.024080 1.941430 
# 
# From -- ./inp_files/499796.got.cif
#   From: 2010.05.17/outbox.cif.g08.bks.cpg/sg2_250_cif.got.tgz:499796.got - 2010.06.03 11:33:40.
