data_PCOD9070165
_publ_section_title
;
Structure prediction by ZEFSAII (Michael W. Deem and Ramdas Pophale) SiO2 
 PCOD9070165
Probable space group: P -1
;
_chemical_formula_sum "Si O2"
_cell_formula_units_Z 12
_cell_length_a 12.010797
_cell_length_b 6.972756
_cell_length_c 15.547333
_cell_angle_alpha 109.618040
_cell_angle_beta 150.386153
_cell_angle_gamma 61.778967
_cell_volume 558.378856
_symmetry_space_group_name_H-M "P -1"
_symmetry_group_IT_number 2
_symmetry_cell_setting 'triclinic'
loop_
_space_group_symop_operation_xyz
x,y,z
-x,-y,-z
loop_
_atom_site_type_symbol
_atom_site_label
_atom_site_fract_x
_atom_site_fract_y
_atom_site_fract_z
Si Si1 0.025751 0.029514 0.920951
Si Si2 0.515230 0.091729 0.259000
Si Si3 0.567781 0.197624 0.116802
Si Si4 0.287312 0.505718 0.295136
Si Si5 0.035551 0.314543 0.423878
Si Si6 0.048877 0.578898 0.802489
O O1 0.828854 0.265501 0.798144
O O2 0.990737 0.834233 0.817847
O O3 0.296273 0.013574 0.080015
O O4 0.000000 0.000000 0.000000
O O5 0.392362 0.305256 0.268905
O O6 0.601310 0.151354 0.234710
O O7 0.729203 0.900747 0.424476
O O8 0.054462 0.426027 0.362554
O O9 0.807460 0.236089 0.252324
O O10 0.333473 0.421903 0.974675
O O11 0.500000 0.000000 0.000000
O O12 0.500000 0.500000 0.500000
O O13 0.078307 0.491778 0.214943
O O14 0.000000 0.500000 0.500000
#
# Coordination Sequence:
#
# PCOD9070165 Si02
#       6
#     2   2   2   2   2   2
#     4  12  24  46  72 107 144 183 232 290 367 427
#     4  12  25  46  74 105 144 180 241 300 354 428
#     4  12  26  48  75 102 144 194 243 291 355 426
#     4  12  28  44  73 110 142 186 233 300 366 417
#     4  12  28  46  72 107 144 192 243 295 352 425
#     4  12  26  48  74 103 146 184 239 297 357 429
#
# _framework density 21.490787000000001
#
# number of rings (size 3 to 8) (size 9 to 14) (size 15 to 20)
#    0.000    0.000    3.333    6.500    7.000    1.333 
#    0.000    0.000    0.000    0.000    0.000    0.000 
#    0.000    0.000    0.000    0.000    0.000    0.000 
#
# Total GULP energy -67215.256783 kJ/mol
# GULP energy per Si atom -5601.271399 kJ/mol
# Density = 2.144187 g / cm^3
# Si number density = 21.490787 Si / 1000 Ang^3
#
#
#
# Elastic Constant Matrix: (Units=GPa)
#
#
# Indices 1 2 3 4 5 6 
#
# 1 99.7196 26.6466 1.3210 -16.2339 -31.4465 0.3126
# 2 26.6466 115.3130 34.0120 -26.0080 -15.1187 -5.8999
# 3 1.3210 34.0120 98.3823 -36.1850 -9.4345 2.3126
# 4 -16.2339 -26.0080 -36.1850 59.2986 4.3564 -8.8970
# 5 -31.4465 -15.1187 -9.4345 4.3564 38.4420 1.1670
# 6 0.3126 -5.8999 2.3126 -8.8970 1.1670 36.0418
#
#
#
# Elastic Compliance Matrix: (Units=1/GPa)
#
#
# Indices 1 2 3 4 5 6 
#
# 1 0.014887 -0.001853 0.003160 0.004337 0.011731 0.000056
# 2 -0.001853 0.010883 -0.002535 0.002989 0.001724 0.002642
# 3 0.003160 -0.002535 0.014457 0.008352 0.004172 0.000557
# 4 0.004337 0.002989 0.008352 0.025082 0.003749 0.005986
# 5 0.011731 0.001724 0.004172 0.003749 0.036897 -0.000356
# 6 0.000056 0.002642 0.000557 0.005986 -0.000356 0.029631
#
#
# Mechanical properties :
#
#
# Convention : Reuss Voigt Hill
#
# Bulk Modulus (GPa) = 26.47539 48.59710 37.53625
# Shear Modulus (GPa) = 34.04045 43.51884 38.77964
#
# Velocity S-wave (km/s) = 3.98421 4.50488 4.25252
# Velocity P-wave (km/s) = 5.78890 7.05129 6.45105
#
# Compressibility (1/GPa) = 0.03777093
#
# Stress axis : x y z
#
# Youngs Moduli (GPa) = 67.17390 91.88456 69.16867
#
# Poissons Ratio (x) = 0.17024 -0.21855
# Poissons Ratio (y) = 0.12446 0.17535
# Poissons Ratio (z) = -0.21224 0.23293
#
# Static dielectric constant tensor:
#      x y z
#    x 1.873900 -0.024420 -0.015900 
#    y -0.024420 1.795430 0.054750 
#    z -0.015900 0.054750 1.760440 
# 
# From -- ./inp_files/563671.got.cif
#   From: 2010.05.17/outbox.cif.g08.bks.cpg/sg2_282_cif.got.tgz:563671.got - 2010.06.03 11:33:40.
