data_PCOD9070988
_publ_section_title
;
Structure prediction by ZEFSAII (Michael W. Deem and Ramdas Pophale) SiO2 
 PCOD9070988
Probable space group: P -1
;
_chemical_formula_sum "Si O2"
_cell_formula_units_Z 13
_cell_length_a 8.757620
_cell_length_b 11.767631
_cell_length_c 9.510199
_cell_angle_alpha 123.920143
_cell_angle_beta 55.615151
_cell_angle_gamma 137.625547
_cell_volume 527.367233
_symmetry_space_group_name_H-M "P -1"
_symmetry_group_IT_number 2
_symmetry_cell_setting 'triclinic'
loop_
_space_group_symop_operation_xyz
x,y,z
-x,-y,-z
loop_
_atom_site_type_symbol
_atom_site_label
_atom_site_fract_x
_atom_site_fract_y
_atom_site_fract_z
Si Si1 0.494601 0.133689 0.006068
Si Si2 0.987226 0.970406 0.821211
Si Si3 0.511916 0.971563 0.638176
Si Si4 0.232852 0.566788 0.511021
Si Si5 0.000000 0.500000 0.000000
Si Si6 0.718307 0.674670 0.262098
Si Si7 0.961159 0.756811 0.463791
O O1 0.426039 0.061012 0.832629
O O2 0.747855 0.314859 0.006169
O O3 0.500000 0.000000 0.000000
O O4 0.275256 0.119411 0.160753
O O5 0.168850 0.155728 0.777322
O O6 0.003306 0.825187 0.649270
O O7 0.000000 0.000000 0.000000
O O8 0.371008 0.770531 0.608518
O O9 0.500000 0.000000 0.500000
O O10 0.784217 0.092805 0.626640
O O11 0.431716 0.559864 0.329091
O O12 0.122237 0.439427 0.616548
O O13 0.000000 0.500000 0.500000
O O14 0.854232 0.592982 0.107440
O O15 0.778078 0.736622 0.437100
#
# Coordination Sequence:
#
# PCOD9070988 Si02
#       7
#     2   2   2   2   1   2   2
#     4  12  27  47  78 113 157 208 257 331 394 472
#     4  12  27  50  78 117 164 207 262 332 410 467
#     4  12  25  48  77 112 160 208 265 327 400 475
#     4  12  28  46  83 119 157 206 271 334 399 470
#     4  12  26  52  78 118 156 202 270 322 390 466
#     4  12  27  51  82 116 159 213 270 329 393 488
#     4  12  25  51  80 113 154 215 271 328 391 488
#
# _framework density 24.650755
#
# number of rings (size 3 to 8) (size 9 to 14) (size 15 to 20)
#    0.000    0.000    6.154    2.769    4.308    0.000 
#    2.769    1.538    0.000    0.000    0.000    0.000 
#    0.000    0.000    0.000    0.000    0.000    0.000 
#
# Total GULP energy -72376.652610 kJ/mol
# GULP energy per Si atom -5567.434816 kJ/mol
# Density = 2.459465 g / cm^3
# Si number density = 24.650755 Si / 1000 Ang^3
#
#
#
# Elastic Constant Matrix: (Units=GPa)
#
#
# Indices 1 2 3 4 5 6 
#
# 1 134.7272 64.9375 23.4111 -13.8687 -12.6424 22.6487
# 2 64.9375 247.0515 21.0998 1.0619 0.4762 8.1609
# 3 23.4111 21.0998 57.8248 8.6414 16.4859 0.9225
# 4 -13.8687 1.0619 8.6414 29.0926 -4.0603 -9.8083
# 5 -12.6424 0.4762 16.4859 -4.0603 52.9653 -20.5146
# 6 22.6487 8.1609 0.9225 -9.8083 -20.5146 51.0121
#
#
#
# Elastic Compliance Matrix: (Units=1/GPa)
#
#
# Indices 1 2 3 4 5 6 
#
# 1 0.010994 -0.002382 -0.005994 0.007386 0.004651 -0.001101
# 2 -0.002382 0.004719 -0.000347 -0.001383 -0.000702 -0.000239
# 3 -0.005994 -0.000347 0.025643 -0.014092 -0.012634 -0.005537
# 4 0.007386 -0.001383 -0.014092 0.048356 0.014669 0.012393
# 5 0.004651 -0.000702 -0.012634 0.014669 0.030179 0.013233
# 6 -0.001101 -0.000239 -0.005537 0.012393 0.013233 0.027935
#
#
# Mechanical properties :
#
#
# Convention : Reuss Voigt Hill
#
# Bulk Modulus (GPa) = 41.82359 73.16672 57.49516
# Shear Modulus (GPa) = 28.86139 48.62436 38.74288
#
# Velocity S-wave (km/s) = 3.42542 4.44614 3.96873
# Velocity P-wave (km/s) = 5.71384 7.49021 6.66150
#
# Compressibility (1/GPa) = 0.02390995
#
# Stress axis : x y z
#
# Youngs Moduli (GPa) = 90.95817 211.92235 38.99669
#
# Poissons Ratio (x) = 0.50484 0.23375
# Poissons Ratio (y) = 0.21668 0.01352
# Poissons Ratio (z) = 0.54521 0.07347
#
# Static dielectric constant tensor:
#      x y z
#    x 2.040990 0.019230 -0.041440 
#    y 0.019230 1.899830 -0.019440 
#    z -0.041440 -0.019440 1.980750 
# 
# From -- ./inp_files/189846.got.cif
#   From: 2010.05.17/outbox.cif.g08.bks.cpg/sg2_95_cif.got.tgz:189846.got - 2010.06.03 11:33:40.
