data_PCOD9070023
_publ_section_title
;
Structure prediction by ZEFSAII (Michael W. Deem and Ramdas Pophale) SiO2 
 PCOD9070023
Probable space group: P -1
;
_chemical_formula_sum "Si O2"
_cell_formula_units_Z 12
_cell_length_a 12.482001
_cell_length_b 9.271781
_cell_length_c 9.675018
_cell_angle_alpha 59.606495
_cell_angle_beta 143.717321
_cell_angle_gamma 101.689067
_cell_volume 523.304995
_symmetry_space_group_name_H-M "P -1"
_symmetry_group_IT_number 2
_symmetry_cell_setting 'triclinic'
loop_
_space_group_symop_operation_xyz
x,y,z
-x,-y,-z
loop_
_atom_site_type_symbol
_atom_site_label
_atom_site_fract_x
_atom_site_fract_y
_atom_site_fract_z
Si Si1 0.448066 0.944360 0.277050
Si Si2 0.007872 0.481526 0.183013
Si Si3 0.623478 0.218159 0.289836
Si Si4 0.022953 0.160197 0.856301
Si Si5 0.420717 0.431038 0.235636
Si Si6 0.555897 0.733826 0.222715
O O1 0.513982 0.756774 0.520814
O O2 0.449979 0.893430 0.143235
O O3 0.606123 0.033922 0.417379
O O4 0.234291 0.082633 0.038909
O O5 0.001840 0.665918 0.160099
O O6 0.211411 0.316712 0.516069
O O7 0.000000 0.500000 0.000000
O O8 0.811776 0.459925 0.038986
O O9 0.840015 0.214320 0.533683
O O10 0.480068 0.374529 0.166375
O O11 0.544951 0.235683 0.045204
O O12 0.000000 0.000000 0.000000
O O13 0.536502 0.551182 0.347596
#
# Coordination Sequence:
#
# PCOD9070023 Si02
#       6
#     2   2   2   2   2   2
#     4  12  25  46  72 104 138 186 231 280 341 418
#     4  12  26  43  72 104 135 182 236 282 339 412
#     4  12  26  46  71 104 144 180 225 292 349 400
#     4  12  25  43  73 102 136 184 234 279 343 414
#     4  12  24  44  75 100 137 185 236 279 340 414
#     4  12  28  45  70 107 144 175 231 293 343 400
#
# _framework density 22.931177999999999
#
# number of rings (size 3 to 8) (size 9 to 14) (size 15 to 20)
#    0.000    0.000    6.667    3.000    2.333    2.667 
#    0.000    0.000    0.000    0.000    0.000    0.000 
#    0.000    0.000    0.000    0.000    0.000    0.000 
#
# Total GULP energy -67266.939860 kJ/mol
# GULP energy per Si atom -5605.578322 kJ/mol
# Density = 2.287899 g / cm^3
# Si number density = 22.931178 Si / 1000 Ang^3
#
#
#
# Elastic Constant Matrix: (Units=GPa)
#
#
# Indices 1 2 3 4 5 6 
#
# 1 83.9902 37.4348 49.1459 5.3896 19.8859 -29.0008
# 2 37.4348 110.4773 17.8263 6.4688 12.0010 -28.8859
# 3 49.1459 17.8263 134.4604 22.8140 18.0848 -25.4350
# 4 5.3896 6.4688 22.8140 34.8397 2.0396 -7.9661
# 5 19.8859 12.0010 18.0848 2.0396 40.3591 6.4315
# 6 -29.0008 -28.8859 -25.4350 -7.9661 6.4315 55.1305
#
#
#
# Elastic Compliance Matrix: (Units=1/GPa)
#
#
# Indices 1 2 3 4 5 6 
#
# 1 0.021139 -0.003371 -0.005034 0.003101 -0.008667 0.008491
# 2 -0.003371 0.011753 0.001271 -0.001123 -0.003172 0.005179
# 3 -0.005034 0.001271 0.010991 -0.005893 -0.002936 0.002580
# 4 0.003101 -0.001123 -0.005893 0.033062 -0.000732 0.003187
# 5 -0.008667 -0.003172 -0.002936 -0.000732 0.033185 -0.011553
# 6 0.008491 0.005179 0.002580 0.003187 -0.011553 0.028317
#
#
# Mechanical properties :
#
#
# Convention : Reuss Voigt Hill
#
# Bulk Modulus (GPa) = 33.76560 59.74910 46.75735
# Shear Modulus (GPa) = 30.75283 41.03392 35.89337
#
# Velocity S-wave (km/s) = 3.66607 4.23476 3.96064
# Velocity P-wave (km/s) = 5.71636 7.07272 6.43040
#
# Compressibility (1/GPa) = 0.02961594
#
# Stress axis : x y z
#
# Youngs Moduli (GPa) = 47.30669 85.08330 90.98140
#
# Poissons Ratio (x) = 0.28678 0.45797
# Poissons Ratio (y) = 0.15945 -0.11560
# Poissons Ratio (z) = 0.23813 -0.10811
#
# Static dielectric constant tensor:
#      x y z
#    x 1.867760 0.033210 -0.051980 
#    y 0.033210 1.853030 -0.031230 
#    z -0.051980 -0.031230 1.857160 
# 
# From -- ./inp_files/148535.got.cif
#   From: 2010.05.17/outbox.cif.g08.bks.cpg/sg2_75_cif.got.tgz:148535.got - 2010.06.03 11:33:40.
