data_PCOD9070640
_publ_section_title
;
Structure prediction by ZEFSAII (Michael W. Deem and Ramdas Pophale) SiO2 
 PCOD9070640
Probable space group: P -1
;
_chemical_formula_sum "Si O2"
_cell_formula_units_Z 12
_cell_length_a 14.412862
_cell_length_b 4.908467
_cell_length_c 6.984700
_cell_angle_alpha 96.499048
_cell_angle_beta 88.104714
_cell_angle_gamma 110.701393
_cell_volume 459.246316
_symmetry_space_group_name_H-M "P -1"
_symmetry_group_IT_number 2
_symmetry_cell_setting 'triclinic'
loop_
_space_group_symop_operation_xyz
x,y,z
-x,-y,-z
loop_
_atom_site_type_symbol
_atom_site_label
_atom_site_fract_x
_atom_site_fract_y
_atom_site_fract_z
Si Si1 0.315985 0.951173 0.879636
Si Si2 0.228949 0.320854 0.685198
Si Si3 0.287066 0.305696 0.237107
Si Si4 0.074175 0.237043 0.155242
Si Si5 0.008480 0.312882 0.668078
Si Si6 0.493636 0.722749 0.352725
O O1 0.232727 0.039480 0.776092
O O2 0.417958 0.170036 0.798124
O O3 0.302935 0.622092 0.796566
O O4 0.305364 0.036272 0.106457
O O5 0.261014 0.282396 0.462839
O O6 0.121861 0.353959 0.705315
O O7 0.191956 0.335246 0.139461
O O8 0.389823 0.575035 0.240508
O O9 0.046019 0.524400 0.177292
O O10 0.051623 0.032892 0.332685
O O11 0.000000 0.000000 0.000000
O O12 0.000000 0.500000 0.500000
O O13 0.500000 0.500000 0.500000
O O14 0.500000 0.000000 0.500000
#
# Coordination Sequence:
#
# PCOD9070640 Si02
#       6
#     2   2   2   2   2   2
#     4  12  27  49  73 112 147 189 249 303 365 452
#     4  12  26  47  75 107 151 194 249 296 370 440
#     4  12  27  47  81 105 151 200 238 309 377 425
#     4  12  27  47  71 109 147 192 255 300 362 446
#     4  12  25  44  70 102 145 194 243 301 363 429
#     4  12  25  49  75 109 145 190 244 304 369 444
#
# _framework density 26.129769
#
# number of rings (size 3 to 8) (size 9 to 14) (size 15 to 20)
#    0.000    0.000    5.000    4.500    2.333    5.333 
#    0.000    3.333    0.000    0.000    0.000    0.000 
#    0.000    0.000    0.000    0.000    0.000    0.000 
#
# Total GULP energy -67206.922321 kJ/mol
# GULP energy per Si atom -5600.576860 kJ/mol
# Density = 2.607030 g / cm^3
# Si number density = 26.129769 Si / 1000 Ang^3
#
#
#
# Elastic Constant Matrix: (Units=GPa)
#
#
# Indices 1 2 3 4 5 6 
#
# 1 148.4954 42.3892 30.5089 4.1345 2.5446 19.8673
# 2 42.3892 146.9116 32.9558 15.2024 -6.6881 -11.4233
# 3 30.5089 32.9558 155.5052 18.2845 -14.1891 3.6085
# 4 4.1345 15.2024 18.2845 43.6740 3.1941 -4.5160
# 5 2.5446 -6.6881 -14.1891 3.1941 48.4276 6.3952
# 6 19.8673 -11.4233 3.6085 -4.5160 6.3952 55.4958
#
#
#
# Elastic Compliance Matrix: (Units=1/GPa)
#
#
# Indices 1 2 3 4 5 6 
#
# 1 0.008076 -0.002390 -0.001092 0.000241 -0.000666 -0.003216
# 2 -0.002390 0.008147 -0.001005 -0.002003 0.000779 0.002345
# 3 -0.001092 -0.001005 0.007439 -0.002921 0.002398 -0.000814
# 4 0.000241 -0.002003 -0.002921 0.025237 -0.003087 0.002101
# 5 -0.000666 0.000779 0.002398 -0.003087 0.022035 -0.002548
# 6 -0.003216 0.002345 -0.000814 0.002101 -0.002548 0.020171
#
#
# Mechanical properties :
#
#
# Convention : Reuss Voigt Hill
#
# Bulk Modulus (GPa) = 68.09287 73.62444 70.85866
# Shear Modulus (GPa) = 47.62965 52.52340 50.07652
#
# Velocity S-wave (km/s) = 4.27407 4.48828 4.38248
# Velocity P-wave (km/s) = 7.10443 7.42274 7.26533
#
# Compressibility (1/GPa) = 0.01468582
#
# Stress axis : x y z
#
# Youngs Moduli (GPa) = 123.82430 122.74156 134.42384
#
# Poissons Ratio (x) = 0.29341 0.14683
# Poissons Ratio (y) = 0.29600 0.13516
# Poissons Ratio (z) = 0.13525 0.12341
#
# Static dielectric constant tensor:
#      x y z
#    x 2.047230 0.014320 -0.037220 
#    y 0.014320 1.985450 -0.127550 
#    z -0.037220 -0.127550 2.363300 
# 
# From -- ./inp_files/286591.got.cif
#   From: 2010.05.17/outbox.cif.g08.bks.cpg/sg2_144_cif.got.tgz:286591.got - 2010.06.03 11:33:40.
