data_PCOD9070827
_publ_section_title
;
Structure prediction by ZEFSAII (Michael W. Deem and Ramdas Pophale) SiO2 
 PCOD9070827
Probable space group: P -1
;
_chemical_formula_sum "Si O2"
_cell_formula_units_Z 12
_cell_length_a 14.842849
_cell_length_b 4.681979
_cell_length_c 9.956943
_cell_angle_alpha 107.676710
_cell_angle_beta 139.576321
_cell_angle_gamma 68.991427
_cell_volume 418.317041
_symmetry_space_group_name_H-M "P -1"
_symmetry_group_IT_number 2
_symmetry_cell_setting 'triclinic'
loop_
_space_group_symop_operation_xyz
x,y,z
-x,-y,-z
loop_
_atom_site_type_symbol
_atom_site_label
_atom_site_fract_x
_atom_site_fract_y
_atom_site_fract_z
Si Si1 0.068410 0.556243 0.443101
Si Si2 0.633699 0.664281 0.163425
Si Si3 0.335241 0.442866 0.112516
Si Si4 0.771728 0.740291 0.750177
Si Si5 0.647496 0.216150 0.458677
Si Si6 0.056262 0.966914 0.847116
O O1 0.228238 0.572002 0.659747
O O2 0.000000 0.500000 0.500000
O O3 0.978716 0.836420 0.299467
O O4 0.058521 0.247177 0.305608
O O5 0.631777 0.966277 0.292904
O O6 0.500000 0.500000 0.000000
O O7 0.659855 0.737557 0.048388
O O8 0.498958 0.463867 0.321132
O O9 0.295519 0.299275 0.185120
O O10 0.208737 0.731931 0.983534
O O11 0.766289 0.424041 0.622012
O O12 0.678484 0.018640 0.601327
O O13 0.921155 0.819273 0.973314
#
# Coordination Sequence:
#
# PCOD9070827 Si02
#       6
#     2   2   2   2   2   2
#     4  12  26  50  81 115 156 211 269 321 389 485
#     4  12  30  53  80 120 164 204 261 340 409 457
#     4  12  26  47  83 115 159 210 274 318 390 477
#     4  12  25  50  77 119 157 216 266 322 383 489
#     4  12  28  46  76 119 166 207 256 334 407 460
#     4  12  25  46  82 115 147 205 280 320 374 463
#
# _framework density 28.686374000000001
#
# number of rings (size 3 to 8) (size 9 to 14) (size 15 to 20)
#    0.000    0.000    5.000    3.000    4.667    4.000 
#    0.000    5.000    0.000    0.000    0.000    0.000 
#    0.000    0.000    0.000    0.000    0.000    0.000 
#
# Total GULP energy -67382.050682 kJ/mol
# GULP energy per Si atom -5615.170890 kJ/mol
# Density = 2.862108 g / cm^3
# Si number density = 28.686374 Si / 1000 Ang^3
#
#
#
# Elastic Constant Matrix: (Units=GPa)
#
#
# Indices 1 2 3 4 5 6 
#
# 1 127.6366 56.1694 93.7060 -0.7977 -13.4404 12.8276
# 2 56.1694 173.8129 106.3403 -12.0957 8.9088 24.6467
# 3 93.7060 106.3403 262.4061 -6.4033 4.4995 5.3763
# 4 -0.7977 -12.0957 -6.4033 88.6150 10.1085 0.4022
# 5 -13.4404 8.9088 4.4995 10.1085 79.9261 -3.7275
# 6 12.8276 24.6467 5.3763 0.4022 -3.7275 48.1442
#
#
#
# Elastic Compliance Matrix: (Units=1/GPa)
#
#
# Indices 1 2 3 4 5 6 
#
# 1 0.011478 -0.001468 -0.003522 -0.000605 0.002288 -0.001731
# 2 -0.001468 0.008673 -0.002860 0.001138 -0.001376 -0.003845
# 3 -0.003522 -0.002860 0.006205 0.000082 -0.000556 0.001666
# 4 -0.000605 0.001138 0.000082 0.011642 -0.001736 -0.000662
# 5 0.002288 -0.001376 -0.000556 -0.001736 0.013357 0.001205
# 6 -0.001731 -0.003845 0.001666 -0.000662 0.001205 0.023114
#
#
# Mechanical properties :
#
#
# Convention : Reuss Voigt Hill
#
# Bulk Modulus (GPa) = 93.85696 119.58744 106.72220
# Shear Modulus (GPa) = 53.35013 63.84638 58.59826
#
# Velocity S-wave (km/s) = 4.31719 4.72282 4.52455
# Velocity P-wave (km/s) = 7.59211 8.45686 8.03612
#
# Compressibility (1/GPa) = 0.01065451
#
# Stress axis : x y z
#
# Youngs Moduli (GPa) = 87.12392 115.30550 161.15442
#
# Poissons Ratio (x) = 0.16927 0.56765
# Poissons Ratio (y) = 0.12790 0.46093
# Poissons Ratio (z) = 0.30688 0.32980
#
# Static dielectric constant tensor:
#      x y z
#    x 2.263520 -0.067520 -0.000520 
#    y -0.067520 2.256760 0.066830 
#    z -0.000520 0.066830 2.197610 
# 
# From -- ./inp_files/467979.got.cif
#   From: 2010.05.17/outbox.cif.g08.bks.cpg/sg2_234_cif.got.tgz:467979.got - 2010.06.03 11:33:40.
