data_PCOD9070379
_publ_section_title
;
Structure prediction by ZEFSAII (Michael W. Deem and Ramdas Pophale) SiO2 
 PCOD9070379
Probable space group: P -1
;
_chemical_formula_sum "Si O2"
_cell_formula_units_Z 14
_cell_length_a 16.529773
_cell_length_b 9.168003
_cell_length_c 15.380808
_cell_angle_alpha 143.233827
_cell_angle_beta 152.134146
_cell_angle_gamma 35.984743
_cell_volume 608.139382
_symmetry_space_group_name_H-M "P -1"
_symmetry_group_IT_number 2
_symmetry_cell_setting 'triclinic'
loop_
_space_group_symop_operation_xyz
x,y,z
-x,-y,-z
loop_
_atom_site_type_symbol
_atom_site_label
_atom_site_fract_x
_atom_site_fract_y
_atom_site_fract_z
Si Si1 0.756745 0.430562 0.421393
Si Si2 0.192197 0.112708 0.424809
Si Si3 0.115804 0.956450 0.795932
Si Si4 0.431020 0.298621 0.108444
Si Si5 0.451517 0.133095 0.243731
Si Si6 0.165704 0.497933 0.271448
Si Si7 0.095376 0.762715 0.041921
O O1 0.784105 0.668806 0.510797
O O2 0.859076 0.180209 0.339653
O O3 0.546156 0.444131 0.236366
O O4 0.813536 0.426459 0.573595
O O5 0.986515 0.182547 0.303606
O O6 0.347819 0.043070 0.613867
O O7 0.221023 0.860125 0.271493
O O8 0.968883 0.248204 0.783651
O O9 0.312473 0.973274 0.019163
O O10 0.465982 0.263393 0.228063
O O11 0.217598 0.485412 0.983653
O O12 0.500000 0.000000 0.000000
O O13 0.350515 0.354707 0.324438
O O14 0.064304 0.289763 0.081975
O O15 0.000000 0.000000 0.000000
#
# Coordination Sequence:
#
# PCOD9070379 Si02
#       7
#     2   2   2   2   2   2   2
#     4  12  27  47  74 110 152 198 250 312 387 451
#     4  12  28  46  76 113 152 201 253 312 382 457
#     4  12  25  50  73 109 151 196 255 317 378 448
#     4  12  26  50  77 111 151 200 260 312 380 457
#     4  12  26  48  76 110 146 199 256 312 374 452
#     4  12  24  47  79 105 146 201 258 311 374 456
#     4  12  25  46  77 113 153 199 256 316 377 450
#
# _framework density 23.021037
#
# number of rings (size 3 to 8) (size 9 to 14) (size 15 to 20)
#    0.000    0.000    5.714    3.857    2.000    4.571 
#    2.571    0.000    0.000    0.000    0.000    0.000 
#    0.000    0.000    0.000    0.000    0.000    0.000 
#
# Total GULP energy -78371.804933 kJ/mol
# GULP energy per Si atom -5597.986067 kJ/mol
# Density = 2.296864 g / cm^3
# Si number density = 23.021037 Si / 1000 Ang^3
#
#
#
# Elastic Constant Matrix: (Units=GPa)
#
#
# Indices 1 2 3 4 5 6 
#
# 1 152.3475 33.7402 44.5483 9.7339 11.2522 -2.9283
# 2 33.7402 60.0567 24.8067 1.5885 -11.5032 -2.1632
# 3 44.5483 24.8067 109.5418 7.7892 -2.4386 0.5053
# 4 9.7339 1.5885 7.7892 31.1086 2.2401 -3.6268
# 5 11.2522 -11.5032 -2.4386 2.2401 50.2698 11.4328
# 6 -2.9283 -2.1632 0.5053 -3.6268 11.4328 34.4372
#
#
#
# Elastic Compliance Matrix: (Units=1/GPa)
#
#
# Indices 1 2 3 4 5 6 
#
# 1 0.008624 -0.004358 -0.002498 -0.001444 -0.003313 0.001444
# 2 -0.004358 0.021416 -0.002976 0.000485 0.005913 -0.000894
# 3 -0.002498 -0.002976 0.010981 -0.001986 0.000729 -0.001012
# 4 -0.001444 0.000485 -0.001986 0.033711 -0.002117 0.004190
# 5 -0.003313 0.005913 0.000729 -0.002117 0.023959 -0.008098
# 6 0.001444 -0.000894 -0.001012 0.004190 -0.008098 0.032250
#
#
# Mechanical properties :
#
#
# Convention : Reuss Voigt Hill
#
# Bulk Modulus (GPa) = 46.82341 58.68185 52.75263
# Shear Modulus (GPa) = 31.70098 37.75318 34.72708
#
# Velocity S-wave (km/s) = 3.71488 4.05401 3.88815
# Velocity P-wave (km/s) = 6.22768 6.88907 6.56671
#
# Compressibility (1/GPa) = 0.02135684
#
# Stress axis : x y z
#
# Youngs Moduli (GPa) = 115.95303 46.69393 91.06542
#
# Poissons Ratio (x) = 0.20347 0.22750
# Poissons Ratio (y) = 0.50527 0.27105
# Poissons Ratio (z) = 0.28968 0.13898
#
# Static dielectric constant tensor:
#      x y z
#    x 1.856550 -0.023480 -0.009690 
#    y -0.023480 1.818610 0.025870 
#    z -0.009690 0.025870 1.910010 
# 
# From -- ./inp_files/243156.got.cif
#   From: 2010.05.17/outbox.cif.g08.bks.cpg/sg2_122_cif.got.tgz:243156.got - 2010.06.03 11:33:40.
