data_PCOD9070981
_publ_section_title
;
Structure prediction by ZEFSAII (Michael W. Deem and Ramdas Pophale) SiO2 
 PCOD9070981
Probable space group: P -1
;
_chemical_formula_sum "Si O2"
_cell_formula_units_Z 10
_cell_length_a 14.249707
_cell_length_b 13.831080
_cell_length_c 8.219968
_cell_angle_alpha 48.078011
_cell_angle_beta 130.296298
_cell_angle_gamma 158.845624
_cell_volume 433.323362
_symmetry_space_group_name_H-M "P -1"
_symmetry_group_IT_number 2
_symmetry_cell_setting 'triclinic'
loop_
_space_group_symop_operation_xyz
x,y,z
-x,-y,-z
loop_
_atom_site_type_symbol
_atom_site_label
_atom_site_fract_x
_atom_site_fract_y
_atom_site_fract_z
Si Si1 0.292348 0.913825 0.922766
Si Si2 0.565058 0.497141 0.243379
Si Si3 0.725497 0.804723 0.351864
Si Si4 0.227014 0.806116 0.353580
Si Si5 0.107132 0.867586 0.448497
O O1 0.124819 0.781208 0.717031
O O2 0.360414 0.128411 0.789638
O O3 0.205275 0.797686 0.141490
O O4 0.500000 0.000000 0.000000
O O5 0.697115 0.745127 0.199526
O O6 0.803825 0.619663 0.376150
O O7 0.302593 0.171682 0.365920
O O8 0.500000 0.500000 0.000000
O O9 0.500000 0.500000 0.500000
O O10 0.000000 0.000000 0.500000
O O11 0.192963 0.897137 0.333989
O O12 0.000000 0.500000 0.500000
O O13 0.500000 0.000000 0.500000
#
# Coordination Sequence:
#
# PCOD9070981 Si02
#       5
#     2   2   2   2   2
#     4  12  27  51  83 112 160 211 261 325 398 463
#     4  12  25  48  79 110 156 204 257 328 393 463
#     4  12  25  48  76 114 153 200 264 320 386 474
#     4  12  28  48  75 115 160 206 263 322 397 474
#     4  12  26  49  78 115 155 202 268 321 390 472
#
# _framework density 23.077452999999998
#
# number of rings (size 3 to 8) (size 9 to 14) (size 15 to 20)
#    0.000    0.000    6.000    3.000    0.000    5.600 
#    0.000    0.000    0.000    0.000    0.000    0.000 
#    0.000    0.000    0.000    0.000    0.000    0.000 
#
# Total GULP energy -55674.170034 kJ/mol
# GULP energy per Si atom -5567.417003 kJ/mol
# Density = 2.302493 g / cm^3
# Si number density = 23.077453 Si / 1000 Ang^3
#
#
#
# Elastic Constant Matrix: (Units=GPa)
#
#
# Indices 1 2 3 4 5 6 
#
# 1 166.5458 33.1945 56.1213 6.7418 1.2645 -13.0708
# 2 33.1945 154.8123 61.5857 7.8585 6.5227 6.8182
# 3 56.1213 61.5857 200.7797 13.5122 -30.6921 8.6118
# 4 6.7418 7.8585 13.5122 48.3911 -3.3575 -1.6805
# 5 1.2645 6.5227 -30.6921 -3.3575 57.1587 3.1063
# 6 -13.0708 6.8182 8.6118 -1.6805 3.1063 44.1515
#
#
#
# Elastic Compliance Matrix: (Units=1/GPa)
#
#
# Indices 1 2 3 4 5 6 
#
# 1 0.007077 -0.000750 -0.002048 -0.000291 -0.001334 0.002693
# 2 -0.000750 0.007742 -0.002415 -0.000656 -0.002158 -0.000820
# 3 -0.002048 -0.002415 0.007087 -0.001080 0.004169 -0.001950
# 4 -0.000291 -0.000656 -0.001080 0.021196 0.000693 0.000984
# 5 -0.001334 -0.002158 0.004169 0.000693 0.020174 -0.002268
# 6 0.002693 -0.000820 -0.001950 0.000984 -0.002268 0.024151
#
#
# Mechanical properties :
#
#
# Convention : Reuss Voigt Hill
#
# Bulk Modulus (GPa) = 87.11553 91.54896 89.33225
# Shear Modulus (GPa) = 49.17385 54.68934 51.93160
#
# Velocity S-wave (km/s) = 4.62109 4.87336 4.74890
# Velocity P-wave (km/s) = 8.14271 8.45119 8.29838
#
# Compressibility (1/GPa) = 0.01147901
#
# Stress axis : x y z
#
# Youngs Moduli (GPa) = 141.29678 129.17366 141.09348
#
# Poissons Ratio (x) = 0.09694 0.28894
# Poissons Ratio (y) = 0.10604 0.34079
# Poissons Ratio (z) = 0.28936 0.31200
#
# Static dielectric constant tensor:
#      x y z
#    x 1.940830 -0.009020 0.012630 
#    y -0.009020 1.823500 -0.054520 
#    z 0.012630 -0.054520 1.811000 
# 
# From -- ./inp_files/236384.got.cif
#   From: 2010.05.17/outbox.cif.g08.bks.cpg/sg2_119_cif.got.tgz:236384.got - 2010.06.03 11:33:40.
