data_PCOD9070766
_publ_section_title
;
Structure prediction by ZEFSAII (Michael W. Deem and Ramdas Pophale) SiO2 
 PCOD9070766
Probable space group: P -1
;
_chemical_formula_sum "Si O2"
_cell_formula_units_Z 14
_cell_length_a 15.545647
_cell_length_b 4.810619
_cell_length_c 20.017789
_cell_angle_alpha 70.157320
_cell_angle_beta 154.122954
_cell_angle_gamma 95.763724
_cell_volume 532.478948
_symmetry_space_group_name_H-M "P -1"
_symmetry_group_IT_number 2
_symmetry_cell_setting 'triclinic'
loop_
_space_group_symop_operation_xyz
x,y,z
-x,-y,-z
loop_
_atom_site_type_symbol
_atom_site_label
_atom_site_fract_x
_atom_site_fract_y
_atom_site_fract_z
Si Si1 0.283197 0.772863 0.285245
Si Si2 0.896433 0.902548 0.635913
Si Si3 0.465823 0.032343 0.810659
Si Si4 0.218862 0.630875 0.674222
Si Si5 0.984837 0.595998 0.870634
Si Si6 0.840969 0.725809 0.212947
Si Si7 0.409552 0.576419 0.237465
O O1 0.500000 0.500000 0.500000
O O2 0.074499 0.701858 0.156384
O O3 0.344665 0.715323 0.255735
O O4 0.206348 0.138767 0.233180
O O5 0.954904 0.773925 0.763420
O O6 0.943384 0.588356 0.647247
O O7 0.644120 0.217123 0.430950
O O8 0.073274 0.019453 0.724884
O O9 0.241699 0.377386 0.651424
O O10 0.558331 0.149260 0.804745
O O11 0.411919 0.731011 0.785904
O O12 0.647805 0.906743 0.007675
O O13 0.246740 0.418587 0.777904
O O14 0.000000 0.000000 0.500000
O O15 0.218516 0.519692 0.073291
#
# Coordination Sequence:
#
# PCOD9070766 Si02
#       7
#     2   2   2   2   2   2   2
#     4  12  27  50  77 109 149 199 246 311 377 446
#     4  12  26  46  76 108 149 196 248 310 369 439
#     4  12  26  45  73 109 144 201 244 307 371 437
#     4  12  25  46  72 107 151 192 252 300 369 443
#     4  12  27  50  74 109 151 194 251 309 375 447
#     4  12  25  48  72 108 151 196 248 306 369 443
#     4  12  28  48  79 109 153 194 257 307 377 447
#
# _framework density 26.292117999999999
#
# number of rings (size 3 to 8) (size 9 to 14) (size 15 to 20)
#    0.000    0.000    2.857    6.857    0.000    2.286 
#    0.000    0.000    0.000    0.000    0.000    0.000 
#    0.000    0.000    0.000    0.000    0.000    0.000 
#
# Total GULP energy -78747.374081 kJ/mol
# GULP energy per Si atom -5624.812434 kJ/mol
# Density = 2.623228 g / cm^3
# Si number density = 26.292118 Si / 1000 Ang^3
#
#
#
# Elastic Constant Matrix: (Units=GPa)
#
#
# Indices 1 2 3 4 5 6 
#
# 1 183.7282 38.7463 44.6979 -6.5077 -30.2650 20.6952
# 2 38.7463 123.0904 19.6109 -2.1980 -6.0463 1.5254
# 3 44.6979 19.6109 102.1081 4.8475 -16.0525 15.2368
# 4 -6.5077 -2.1980 4.8475 38.4941 -3.5001 2.1369
# 5 -30.2650 -6.0463 -16.0525 -3.5001 46.8976 -11.0809
# 6 20.6952 1.5254 15.2368 2.1369 -11.0809 46.6587
#
#
#
# Elastic Compliance Matrix: (Units=1/GPa)
#
#
# Indices 1 2 3 4 5 6 
#
# 1 0.007120 -0.001689 -0.002090 0.001773 0.003394 -0.001696
# 2 -0.001689 0.008821 -0.001105 0.000303 -0.000124 0.000778
# 3 -0.002090 -0.001105 0.011630 -0.001586 0.001821 -0.002330
# 4 0.001773 0.000303 -0.001586 0.026766 0.002418 -0.000930
# 5 0.003394 -0.000124 0.001821 0.002418 0.025193 0.003777
# 6 -0.001696 0.000778 -0.002330 -0.000930 0.003777 0.023859
#
#
# Mechanical properties :
#
#
# Convention : Reuss Voigt Hill
#
# Bulk Modulus (GPa) = 56.16881 68.33743 62.25312
# Shear Modulus (GPa) = 41.98403 46.80150 44.39276
#
# Velocity S-wave (km/s) = 4.00037 4.22365 4.11353
# Velocity P-wave (km/s) = 6.53812 7.05930 6.80370
#
# Compressibility (1/GPa) = 0.01780347
#
# Stress axis : x y z
#
# Youngs Moduli (GPa) = 140.44296 113.36000 85.98523
#
# Poissons Ratio (x) = 0.19146 0.17973
# Poissons Ratio (y) = 0.23720 0.09501
# Poissons Ratio (z) = 0.29355 0.12526
#
# Static dielectric constant tensor:
#      x y z
#    x 2.006880 0.011010 0.048350 
#    y 0.011010 1.956830 -0.015700 
#    z 0.048350 -0.015700 2.072010 
# 
# From -- ./inp_files/596552.got.cif
#   From: 2010.05.17/outbox.cif.g08.bks.cpg/sg2_299_cif.got.tgz:596552.got - 2010.06.03 11:33:40.
