data_PCOD9070279
_publ_section_title
;
Structure prediction by ZEFSAII (Michael W. Deem and Ramdas Pophale) SiO2 
 PCOD9070279
Probable space group: P -1
;
_chemical_formula_sum "Si O2"
_cell_formula_units_Z 11
_cell_length_a 9.177618
_cell_length_b 8.711646
_cell_length_c 9.678111
_cell_angle_alpha 130.774909
_cell_angle_beta 72.919579
_cell_angle_gamma 74.460022
_cell_volume 432.662524
_symmetry_space_group_name_H-M "P -1"
_symmetry_group_IT_number 2
_symmetry_cell_setting 'triclinic'
loop_
_space_group_symop_operation_xyz
x,y,z
-x,-y,-z
loop_
_atom_site_type_symbol
_atom_site_label
_atom_site_fract_x
_atom_site_fract_y
_atom_site_fract_z
Si Si1 0.436058 0.026824 0.376771
Si Si2 0.128068 0.544708 0.396976
Si Si3 0.540130 0.257153 0.266035
Si Si4 0.142811 0.864402 0.102453
Si Si5 0.986433 0.448290 0.132143
Si Si6 0.500000 0.500000 0.000000
O O1 0.553689 0.072877 0.268300
O O2 0.216319 0.301332 0.597238
O O3 0.500000 0.000000 0.500000
O O4 0.441100 0.788590 0.197505
O O5 0.347989 0.380420 0.297446
O O6 0.000000 0.500000 0.500000
O O7 0.135966 0.446300 0.184447
O O8 0.016982 0.854916 0.615794
O O9 0.500000 0.500000 0.500000
O O10 0.728447 0.118044 0.033602
O O11 0.028541 0.781689 0.004886
O O12 0.306077 0.632049 0.023568
O O13 0.000000 0.500000 0.000000
#
# Coordination Sequence:
#
# PCOD9070279 Si02
#       6
#     2   2   2   2   2   1
#     4  12  25  51  77 118 161 206 274 332 411 486
#     4  12  27  52  79 120 164 211 276 332 409 488
#     4  12  26  52  85 119 162 216 273 345 408 488
#     4  12  28  50  82 118 161 217 274 336 414 482
#     4  12  28  51  75 117 163 211 268 340 401 487
#     4  12  24  46  80 114 160 210 266 330 398 486
#
# _framework density 25.423971000000002
#
# number of rings (size 3 to 8) (size 9 to 14) (size 15 to 20)
#    0.000    0.000    7.273    0.000    2.545   10.909 
#    0.000    0.000    0.000    0.000    0.000    0.000 
#    0.000    0.000    0.000    0.000    0.000    0.000 
#
# Total GULP energy -61515.404516 kJ/mol
# GULP energy per Si atom -5592.309501 kJ/mol
# Density = 2.536610 g / cm^3
# Si number density = 25.423971 Si / 1000 Ang^3
#
#
#
# Elastic Constant Matrix: (Units=GPa)
#
#
# Indices 1 2 3 4 5 6 
#
# 1 158.3902 53.8642 74.0748 -18.2503 43.1657 -11.5037
# 2 53.8642 122.0907 71.5595 -10.3061 19.2179 -9.7804
# 3 74.0748 71.5595 157.6599 14.4363 33.1509 19.0486
# 4 -18.2503 -10.3061 14.4363 55.1506 9.2828 11.9761
# 5 43.1657 19.2179 33.1509 9.2828 61.6753 -2.3042
# 6 -11.5037 -9.7804 19.0486 11.9761 -2.3042 53.1801
#
#
#
# Elastic Compliance Matrix: (Units=1/GPa)
#
#
# Indices 1 2 3 4 5 6 
#
# 1 0.010918 -0.000757 -0.004328 0.005054 -0.005751 0.002385
# 2 -0.000757 0.012659 -0.005994 0.002984 -0.000507 0.003617
# 3 -0.004328 -0.005994 0.012454 -0.004375 -0.001347 -0.005572
# 4 0.005054 0.002984 -0.004375 0.022936 -0.005650 -0.002201
# 5 -0.005751 -0.000507 -0.001347 -0.005650 0.022022 0.001372
# 6 0.002385 0.003617 -0.005572 -0.002201 0.001372 0.022536
#
#
# Mechanical properties :
#
#
# Convention : Reuss Voigt Hill
#
# Bulk Modulus (GPa) = 72.08083 93.01530 82.54807
# Shear Modulus (GPa) = 38.37079 49.91068 44.14074
#
# Velocity S-wave (km/s) = 3.88910 4.43553 4.17128
# Velocity P-wave (km/s) = 6.96993 7.93077 7.46582
#
# Compressibility (1/GPa) = 0.01387331
#
# Stress axis : x y z
#
# Youngs Moduli (GPa) = 91.59333 78.99414 80.29780
#
# Poissons Ratio (x) = 0.05982 0.34750
# Poissons Ratio (y) = 0.06936 0.48128
# Poissons Ratio (z) = 0.39639 0.47347
#
# Static dielectric constant tensor:
#      x y z
#    x 2.761890 -1.265820 -0.927140 
#    y -1.265820 3.912180 1.369790 
#    z -0.927140 1.369790 2.978410 
# 
# From -- ./inp_files/156321.got.cif
#   From: 2010.05.17/outbox.cif.g08.bks.cpg/sg2_79_cif.got.tgz:156321.got - 2010.06.03 11:33:40.
