data_PCOD9070625
_publ_section_title
;
Structure prediction by ZEFSAII (Michael W. Deem and Ramdas Pophale) SiO2 
 PCOD9070625
Probable space group: P -1
;
_chemical_formula_sum "Si O2"
_cell_formula_units_Z 16
_cell_length_a 21.508878
_cell_length_b 8.563790
_cell_length_c 12.320745
_cell_angle_alpha 104.241325
_cell_angle_beta 19.307048
_cell_angle_gamma 103.534088
_cell_volume 727.277791
_symmetry_space_group_name_H-M "P -1"
_symmetry_group_IT_number 2
_symmetry_cell_setting 'triclinic'
loop_
_space_group_symop_operation_xyz
x,y,z
-x,-y,-z
loop_
_atom_site_type_symbol
_atom_site_label
_atom_site_fract_x
_atom_site_fract_y
_atom_site_fract_z
Si Si1 0.018411 0.703793 0.654604
Si Si2 0.673154 0.295830 0.401503
Si Si3 0.533087 0.013310 0.277115
Si Si4 0.380205 0.435591 0.288361
Si Si5 0.397756 0.877330 0.064181
Si Si6 0.894012 0.835481 0.666315
Si Si7 0.420519 0.328330 0.637226
Si Si8 0.944554 0.630522 0.340554
O O1 0.176773 0.837937 0.446152
O O2 0.073774 0.542091 0.598822
O O3 0.003582 0.720101 0.550110
O O4 0.794817 0.707044 0.046735
O O5 0.647088 0.106770 0.440360
O O6 0.678841 0.413767 0.514707
O O7 0.481223 0.343750 0.664949
O O8 0.846906 0.330474 0.040471
O O9 0.523880 0.178815 0.385755
O O10 0.699363 0.910909 0.039861
O O11 0.579711 0.052517 0.082062
O O12 0.191765 0.360569 0.535749
O O13 0.500000 0.500000 0.000000
O O14 0.497063 0.295752 0.131636
O O15 0.500000 0.000000 0.000000
O O16 0.876190 0.750819 0.566176
O O17 0.000000 0.000000 0.500000
O O18 0.500000 0.500000 0.500000
#
# Coordination Sequence:
#
# PCOD9070625 Si02
#       8
#     2   2   2   2   2   2   2   2
#     4  12  27  44  78 106 150 189 253 299 382 429
#     4  12  26  46  73 108 150 193 243 308 376 444
#     4  12  27  45  74 107 153 194 245 307 377 439
#     4  12  26  48  75 102 146 201 255 300 366 443
#     4  12  27  49  72 108 147 197 255 304 365 448
#     4  12  25  43  72 111 148 191 246 303 370 443
#     4  12  26  47  73 112 154 192 243 311 378 444
#     4  12  27  47  74 108 152 195 251 306 372 442
#
# _framework density 21.999846999999999
#
# number of rings (size 3 to 8) (size 9 to 14) (size 15 to 20)
#    0.000    0.000    5.000    4.875    1.750    2.000 
#    0.000    1.250    0.000    0.000    0.000    0.000 
#    0.000    0.000    0.000    0.000    0.000    0.000 
#
# Total GULP energy -89294.295852 kJ/mol
# GULP energy per Si atom -5580.893491 kJ/mol
# Density = 2.194977 g / cm^3
# Si number density = 21.999847 Si / 1000 Ang^3
#
#
#
# Elastic Constant Matrix: (Units=GPa)
#
#
# Indices 1 2 3 4 5 6 
#
# 1 68.0130 22.5301 13.0900 -5.9362 -12.4869 6.4196
# 2 22.5301 110.1465 48.2817 -28.6557 9.8438 10.0374
# 3 13.0900 48.2817 78.4831 -20.7068 -17.6849 11.7721
# 4 -5.9362 -28.6557 -20.7068 42.0872 3.3539 7.3088
# 5 -12.4869 9.8438 -17.6849 3.3539 38.0370 -2.9932
# 6 6.4196 10.0374 11.7721 7.3088 -2.9932 54.3880
#
#
#
# Elastic Compliance Matrix: (Units=1/GPa)
#
#
# Indices 1 2 3 4 5 6 
#
# 1 0.017594 -0.005334 0.002197 -0.000536 0.008143 -0.001048
# 2 -0.005334 0.018143 -0.010690 0.007685 -0.012260 -0.002113
# 3 0.002197 -0.010690 0.023639 0.004111 0.013865 -0.003193
# 4 -0.000536 0.007685 0.004111 0.032412 -0.003646 -0.006801
# 5 0.008143 -0.012260 0.013865 -0.003646 0.038978 0.000936
# 6 -0.001048 -0.002113 -0.003193 -0.006801 0.000936 0.020556
#
#
# Mechanical properties :
#
#
# Convention : Reuss Voigt Hill
#
# Bulk Modulus (GPa) = 31.52188 47.16068 39.34128
# Shear Modulus (GPa) = 26.37826 38.41849 32.39838
#
# Velocity S-wave (km/s) = 3.46644 4.18342 3.84169
# Velocity P-wave (km/s) = 5.51189 6.69463 6.13184
#
# Compressibility (1/GPa) = 0.03172400
#
# Stress axis : x y z
#
# Youngs Moduli (GPa) = 56.83734 55.11677 42.30234
#
# Poissons Ratio (x) = 0.29397 -0.09295
# Poissons Ratio (y) = 0.30314 0.45222
# Poissons Ratio (z) = -0.12489 0.58920
#
# Static dielectric constant tensor:
#      x y z
#    x 1.808690 -0.036840 -0.009540 
#    y -0.036840 1.839460 -0.090930 
#    z -0.009540 -0.090930 1.884700 
# 
# From -- ./inp_files/470046.got.cif
#   From: 2010.05.17/outbox.cif.g08.bks.cpg/sg2_236_cif.got.tgz:470046.got - 2010.06.03 11:33:40.
