data_PCOD9070624
_publ_section_title
;
Structure prediction by ZEFSAII (Michael W. Deem and Ramdas Pophale) SiO2 
 PCOD9070624
Probable space group: P -1
;
_chemical_formula_sum "Si O2"
_cell_formula_units_Z 14
_cell_length_a 5.356662
_cell_length_b 19.196279
_cell_length_c 14.301249
_cell_angle_alpha 28.034398
_cell_angle_beta 125.610740
_cell_angle_gamma 127.390101
_cell_volume 544.912780
_symmetry_space_group_name_H-M "P -1"
_symmetry_group_IT_number 2
_symmetry_cell_setting 'triclinic'
loop_
_space_group_symop_operation_xyz
x,y,z
-x,-y,-z
loop_
_atom_site_type_symbol
_atom_site_label
_atom_site_fract_x
_atom_site_fract_y
_atom_site_fract_z
Si Si1 0.765132 0.674948 0.595006
Si Si2 0.717522 0.444557 0.700917
Si Si3 0.129024 0.941214 0.005318
Si Si4 0.892360 0.159858 0.171984
Si Si5 0.214758 0.398683 0.115685
Si Si6 0.742855 0.027435 0.651769
Si Si7 0.135595 0.640351 0.429626
O O1 0.685547 0.508308 0.723410
O O2 0.665904 0.672587 0.683171
O O3 0.501309 0.729910 0.411534
O O4 0.114829 0.788958 0.541801
O O5 0.500000 0.500000 0.500000
O O6 0.035926 0.567195 0.594399
O O7 0.771159 0.272672 0.933596
O O8 0.986811 0.762299 0.202660
O O9 0.964785 0.990462 0.823795
O O10 0.500000 0.000000 0.000000
O O11 0.000000 0.000000 0.000000
O O12 0.604177 0.036715 0.304319
O O13 0.034558 0.273410 0.152373
O O14 0.152593 0.071958 0.292763
O O15 0.500000 0.500000 0.000000
O O16 0.000000 0.500000 0.000000
O O17 0.000000 0.500000 0.500000
#
# Coordination Sequence:
#
# PCOD9070624 Si02
#       7
#     2   2   2   2   2   2   2
#     4  12  28  47  75 109 146 202 248 308 381 446
#     4  12  25  45  74 110 148 194 253 308 370 450
#     4  12  25  46  70 105 155 201 243 295 375 453
#     4  12  28  50  76 110 152 198 251 310 371 440
#     4  12  27  52  82 111 146 193 258 317 372 443
#     4  12  28  47  74 111 153 197 247 304 382 447
#     4  12  25  43  71 108 150 196 252 308 366 447
#
# _framework density 25.692184000000001
#
# number of rings (size 3 to 8) (size 9 to 14) (size 15 to 20)
#    0.000    0.000    4.286    5.143    4.000    1.143 
#    0.000    0.000    0.000    0.000    0.000    0.000 
#    0.000    0.000    0.000    0.000    0.000    0.000 
#
# Total GULP energy -77955.760457 kJ/mol
# GULP energy per Si atom -5568.268604 kJ/mol
# Density = 2.563371 g / cm^3
# Si number density = 25.692184 Si / 1000 Ang^3
#
#
#
# Elastic Constant Matrix: (Units=GPa)
#
#
# Indices 1 2 3 4 5 6 
#
# 1 116.9880 6.7132 7.9918 -24.0722 -18.2361 -10.1700
# 2 6.7132 126.9253 10.5746 -14.6535 -5.6401 -11.7419
# 3 7.9918 10.5746 98.2514 -24.6773 -13.3366 -5.4828
# 4 -24.0722 -14.6535 -24.6773 33.0558 2.2704 -4.0350
# 5 -18.2361 -5.6401 -13.3366 2.2704 35.7280 -9.7773
# 6 -10.1700 -11.7419 -5.4828 -4.0350 -9.7773 45.1944
#
#
#
# Elastic Compliance Matrix: (Units=1/GPa)
#
#
# Indices 1 2 3 4 5 6 
#
# 1 0.012967 0.001580 0.003732 0.013140 0.009335 0.006974
# 2 0.001580 0.008952 0.001170 0.006262 0.003384 0.004114
# 3 0.003732 0.001170 0.014864 0.014496 0.008373 0.006052
# 4 0.013140 0.006262 0.014496 0.054212 0.013522 0.014108
# 5 0.009335 0.003384 0.008373 0.013522 0.039305 0.013706
# 6 0.006974 0.004114 0.006052 0.014108 0.013706 0.029724
#
#
# Mechanical properties :
#
#
# Convention : Reuss Voigt Hill
#
# Bulk Modulus (GPa) = 20.10221 43.63600 31.86910
# Shear Modulus (GPa) = 30.55453 43.92130 37.23792
#
# Velocity S-wave (km/s) = 3.45230 4.13912 3.81121
# Velocity P-wave (km/s) = 4.87159 6.31380 5.63899
#
# Compressibility (1/GPa) = 0.04974578
#
# Stress axis : x y z
#
# Youngs Moduli (GPa) = 77.11709 111.71209 67.27791
#
# Poissons Ratio (x) = -0.17652 -0.25105
# Poissons Ratio (y) = -0.12186 -0.07870
# Poissons Ratio (z) = -0.28777 -0.13068
#
# Static dielectric constant tensor:
#      x y z
#    x 2.444870 0.023920 0.063360 
#    y 0.023920 2.007380 0.089510 
#    z 0.063360 0.089510 2.356080 
# 
# From -- ./inp_files/188091.got.cif
#   From: 2010.05.17/outbox.cif.g08.bks.cpg/sg2_95_cif.got.tgz:188091.got - 2010.06.03 11:33:40.
