data_PCOD9070560
_publ_section_title
;
Structure prediction by ZEFSAII (Michael W. Deem and Ramdas Pophale) SiO2 
 PCOD9070560
Probable space group: P -1
;
_chemical_formula_sum "Si O2"
_cell_formula_units_Z 14
_cell_length_a 11.032547
_cell_length_b 10.279688
_cell_length_c 8.545782
_cell_angle_alpha 46.036229
_cell_angle_beta 107.663238
_cell_angle_gamma 120.716675
_cell_volume 597.675272
_symmetry_space_group_name_H-M "P -1"
_symmetry_group_IT_number 2
_symmetry_cell_setting 'triclinic'
loop_
_space_group_symop_operation_xyz
x,y,z
-x,-y,-z
loop_
_atom_site_type_symbol
_atom_site_label
_atom_site_fract_x
_atom_site_fract_y
_atom_site_fract_z
Si Si1 0.959827 0.006033 0.797360
Si Si2 0.711482 0.743321 0.721997
Si Si3 0.189841 0.585667 0.885852
Si Si4 0.810280 0.049906 0.223010
Si Si5 0.060480 0.467862 0.382164
Si Si6 0.564408 0.217883 0.419388
Si Si7 0.351530 0.857554 0.145574
O O1 0.028546 0.235972 0.576256
O O2 0.031280 0.901203 0.801169
O O3 0.796080 0.891039 0.777073
O O4 0.000000 0.000000 0.000000
O O5 0.545689 0.685855 0.720016
O O6 0.755309 0.867142 0.474490
O O7 0.759108 0.565284 0.884995
O O8 0.216599 0.778946 0.840347
O O9 0.290146 0.650284 0.719248
O O10 0.034411 0.513005 0.812551
O O11 0.735341 0.020253 0.049209
O O12 0.221061 0.628294 0.276669
O O13 0.000000 0.500000 0.500000
O O14 0.592678 0.168989 0.644254
O O15 0.500000 0.000000 0.500000
O O16 0.500000 0.000000 0.000000
#
# Coordination Sequence:
#
# PCOD9070560 Si02
#       7
#     2   2   2   2   2   2   2
#     4  12  28  49  77 117 155 207 267 328 394 472
#     4  12  26  48  77 113 157 210 256 320 403 463
#     4  12  26  49  81 117 152 210 264 326 391 468
#     4  12  27  49  77 112 163 200 259 330 388 471
#     4  12  25  48  81 114 154 205 267 325 387 470
#     4  12  24  50  79 108 160 205 263 322 394 469
#     4  12  26  48  75 113 159 205 256 324 397 459
#
# _framework density 23.424091000000001
#
# number of rings (size 3 to 8) (size 9 to 14) (size 15 to 20)
#    0.000    0.000    5.714    3.429    4.000    1.143 
#    0.000    1.429    0.000    0.000    0.000    0.000 
#    0.000    0.000    0.000    0.000    0.000    0.000 
#
# Total GULP energy -78162.160426 kJ/mol
# GULP energy per Si atom -5583.011459 kJ/mol
# Density = 2.337078 g / cm^3
# Si number density = 23.424091 Si / 1000 Ang^3
#
#
#
# Elastic Constant Matrix: (Units=GPa)
#
#
# Indices 1 2 3 4 5 6 
#
# 1 121.0782 56.2799 57.3637 1.1254 5.0887 7.6097
# 2 56.2799 82.2441 59.3626 1.8631 11.2988 21.7446
# 3 57.3637 59.3626 209.4453 -7.4736 18.3612 -6.5672
# 4 1.1254 1.8631 -7.4736 45.6797 2.7073 9.4484
# 5 5.0887 11.2988 18.3612 2.7073 45.9042 -4.2965
# 6 7.6097 21.7446 -6.5672 9.4484 -4.2965 38.9349
#
#
#
# Elastic Compliance Matrix: (Units=1/GPa)
#
#
# Indices 1 2 3 4 5 6 
#
# 1 0.012597 -0.008726 -0.001050 -0.000745 0.001457 0.002576
# 2 -0.008726 0.026329 -0.005040 0.001674 -0.004982 -0.014805
# 3 -0.001050 -0.005040 0.006722 0.000583 -0.001001 0.003902
# 4 -0.000745 0.001674 0.000583 0.023469 -0.002571 -0.006670
# 5 0.001457 -0.004982 -0.001001 -0.002571 0.023925 0.005593
# 6 0.002576 -0.014805 0.003902 -0.006670 0.005593 0.036343
#
#
# Mechanical properties :
#
#
# Convention : Reuss Voigt Hill
#
# Bulk Modulus (GPa) = 62.44544 84.30888 73.37716
# Shear Modulus (GPa) = 30.42201 42.08785 36.25493
#
# Velocity S-wave (km/s) = 3.60773 4.24344 3.93843
# Velocity P-wave (km/s) = 6.63858 7.75110 7.21631
#
# Compressibility (1/GPa) = 0.01601398
#
# Stress axis : x y z
#
# Youngs Moduli (GPa) = 79.38618 37.98108 148.77417
#
# Poissons Ratio (x) = 0.33143 0.15626
# Poissons Ratio (y) = 0.69273 0.74985
# Poissons Ratio (z) = 0.08338 0.19143
#
# Static dielectric constant tensor:
#      x y z
#    x 1.932590 0.036630 0.026790 
#    y 0.036630 1.938390 -0.036690 
#    z 0.026790 -0.036690 1.835530 
# 
# From -- ./inp_files/260879.got.cif
#   From: 2010.05.17/outbox.cif.g08.bks.cpg/sg2_131_cif.got.tgz:260879.got - 2010.06.03 11:33:40.
