data_PCOD9070063
_publ_section_title
;
Structure prediction by ZEFSAII (Michael W. Deem and Ramdas Pophale) SiO2 
 PCOD9070063
Probable space group: P -1
;
_chemical_formula_sum "Si O2"
_cell_formula_units_Z 16
_cell_length_a 13.821790
_cell_length_b 14.195042
_cell_length_c 14.150430
_cell_angle_alpha 49.921062
_cell_angle_beta 47.482030
_cell_angle_gamma 20.386282
_cell_volume 712.256308
_symmetry_space_group_name_H-M "P -1"
_symmetry_group_IT_number 2
_symmetry_cell_setting 'triclinic'
loop_
_space_group_symop_operation_xyz
x,y,z
-x,-y,-z
loop_
_atom_site_type_symbol
_atom_site_label
_atom_site_fract_x
_atom_site_fract_y
_atom_site_fract_z
Si Si1 0.790564 0.007970 0.484396
Si Si2 0.490924 0.993042 0.285856
Si Si3 0.989312 0.829107 0.262633
Si Si4 0.433240 0.949756 0.001464
Si Si5 0.970356 0.471663 0.643490
Si Si6 0.576586 0.452596 0.589229
Si Si7 0.610615 0.377269 0.110470
Si Si8 0.801693 0.402424 0.119580
O O1 0.717584 0.949238 0.631609
O O2 0.835531 0.925700 0.400207
O O3 0.080947 0.835279 0.434959
O O4 0.535241 0.319060 0.455177
O O5 0.592368 0.968555 0.137824
O O6 0.316095 0.237774 0.305989
O O7 0.758411 0.720181 0.346745
O O8 0.021121 0.682860 0.271864
O O9 0.313076 0.602410 0.217575
O O10 0.809883 0.090073 0.166617
O O11 0.682241 0.639692 0.034737
O O12 0.500000 0.000000 0.000000
O O13 0.133418 0.132508 0.104758
O O14 0.000000 0.500000 0.500000
O O15 0.500000 0.500000 0.500000
O O16 0.396962 0.503885 0.735132
O O17 0.773606 0.350908 0.073157
O O18 0.500000 0.500000 0.000000
#
# Coordination Sequence:
#
# PCOD9070063 Si02
#       8
#     2   2   2   2   2   2   2   2
#     4  12  24  47  72 106 143 181 240 299 361 424
#     4  12  28  46  73 105 149 196 247 290 362 435
#     4  12  24  45  69 102 149 183 235 293 365 422
#     4  12  30  51  75 103 147 200 246 303 353 432
#     4  12  26  44  70 108 147 192 232 296 360 441
#     4  12  27  45  78 106 137 183 234 309 369 420
#     4  12  27  45  72 104 143 193 234 295 362 431
#     4  12  26  50  75 106 147 184 247 298 363 432
#
# _framework density 22.463823000000001
#
# number of rings (size 3 to 8) (size 9 to 14) (size 15 to 20)
#    0.000    0.000    3.750    5.250   10.500    0.000 
#    0.000    0.000    0.000    0.000    0.000    0.000 
#    0.000    0.000    0.000    0.000    0.000    0.000 
#
# Total GULP energy -89686.411262 kJ/mol
# GULP energy per Si atom -5605.400704 kJ/mol
# Density = 2.241269 g / cm^3
# Si number density = 22.463823 Si / 1000 Ang^3
#
#
#
# Elastic Constant Matrix: (Units=GPa)
#
#
# Indices 1 2 3 4 5 6 
#
# 1 86.1581 3.4050 29.1051 -3.5622 3.4411 -2.6321
# 2 3.4050 94.9604 7.1816 -19.9687 -2.8533 -1.3281
# 3 29.1051 7.1816 84.1630 -4.8048 8.9253 17.2755
# 4 -3.5622 -19.9687 -4.8048 34.2568 -1.0835 -10.7276
# 5 3.4411 -2.8533 8.9253 -1.0835 37.1776 -6.4063
# 6 -2.6321 -1.3281 17.2755 -10.7276 -6.4063 25.2361
#
#
#
# Elastic Compliance Matrix: (Units=1/GPa)
#
#
# Indices 1 2 3 4 5 6 
#
# 1 0.014128 0.000935 -0.006610 0.003676 0.001850 0.008080
# 2 0.000935 0.012960 -0.002775 0.009752 0.003173 0.007631
# 3 -0.006610 -0.002775 0.018483 -0.005469 -0.007239 -0.017651
# 4 0.003676 0.009752 -0.005469 0.042384 0.007175 0.024479
# 5 0.001850 0.003173 -0.007239 0.007175 0.031747 0.016425
# 6 0.008080 0.007631 -0.017651 0.024479 0.016425 0.067528
#
#
# Mechanical properties :
#
#
# Convention : Reuss Voigt Hill
#
# Bulk Modulus (GPa) = 34.88060 38.29610 36.58835
# Shear Modulus (GPa) = 23.39872 34.37344 28.88608
#
# Velocity S-wave (km/s) = 3.23091 3.91598 3.58983
# Velocity P-wave (km/s) = 5.42951 6.12629 5.78839
#
# Compressibility (1/GPa) = 0.02866923
#
# Stress axis : x y z
#
# Youngs Moduli (GPa) = 70.78381 77.16113 54.10398
#
# Poissons Ratio (x) = -0.07214 0.35764
# Poissons Ratio (y) = -0.06617 0.15015
# Poissons Ratio (z) = 0.46790 0.21414
#
# Static dielectric constant tensor:
#      x y z
#    x 1.839970 -0.009930 0.000990 
#    y -0.009930 1.787250 0.025150 
#    z 0.000990 0.025150 1.853370 
# 
# From -- ./inp_files/534258.got.cif
#   From: 2010.05.17/outbox.cif.g08.bks.cpg/sg2_268_cif.got.tgz:534258.got - 2010.06.03 11:33:40.
