data_PCOD9070243
_publ_section_title
;
Structure prediction by ZEFSAII (Michael W. Deem and Ramdas Pophale) SiO2 
 PCOD9070243
Probable space group: P -1
;
_chemical_formula_sum "Si O2"
_cell_formula_units_Z 14
_cell_length_a 8.035841
_cell_length_b 8.215811
_cell_length_c 18.630996
_cell_angle_alpha 46.279803
_cell_angle_beta 112.465547
_cell_angle_gamma 78.819375
_cell_volume 597.915229
_symmetry_space_group_name_H-M "P -1"
_symmetry_group_IT_number 2
_symmetry_cell_setting 'triclinic'
loop_
_space_group_symop_operation_xyz
x,y,z
-x,-y,-z
loop_
_atom_site_type_symbol
_atom_site_label
_atom_site_fract_x
_atom_site_fract_y
_atom_site_fract_z
Si Si1 0.059126 0.424304 0.877972
Si Si2 0.937876 0.846363 0.183072
Si Si3 0.410420 0.501027 0.884926
Si Si4 0.315131 0.876346 0.189014
Si Si5 0.075947 0.445919 0.446221
Si Si6 0.243349 0.639323 0.652080
Si Si7 0.435338 0.153648 0.238572
O O1 0.811888 0.603184 0.829562
O O2 0.259763 0.080959 0.049119
O O3 0.022756 0.378087 0.803638
O O4 0.172412 0.579623 0.855678
O O5 0.065892 0.958932 0.138991
O O6 0.075283 0.678236 0.332296
O O7 0.650083 0.150571 0.051456
O O8 0.352795 0.536442 0.780157
O O9 0.482392 0.703492 0.840724
O O10 0.528541 0.511970 0.317452
O O11 0.391824 0.975777 0.235190
O O12 0.000000 0.500000 0.500000
O O13 0.860120 0.507512 0.348516
O O14 0.337833 0.096138 0.594530
O O15 0.000000 0.000000 0.500000
#
# Coordination Sequence:
#
# PCOD9070243 Si02
#       7
#     2   2   2   2   2   2   2
#     4  12  25  46  78 113 148 192 255 308 367 444
#     4  12  26  47  78 106 149 203 250 306 373 439
#     4  12  25  47  79 109 144 200 255 302 373 440
#     4  12  26  48  73 111 158 190 243 317 370 438
#     4  12  27  49  71 106 154 194 245 313 377 436
#     4  12  24  46  77 108 145 195 252 307 372 443
#     4  12  28  47  71 113 158 192 248 305 370 447
#
# _framework density 23.414691999999999
#
# number of rings (size 3 to 8) (size 9 to 14) (size 15 to 20)
#    0.000    0.000    7.143    3.000    0.000    4.000 
#    0.000    0.000    0.000    0.000    0.000    0.000 
#    0.000    0.000    0.000    0.000    0.000    0.000 
#
# Total GULP energy -78286.513301 kJ/mol
# GULP energy per Si atom -5591.893807 kJ/mol
# Density = 2.336140 g / cm^3
# Si number density = 23.414692 Si / 1000 Ang^3
#
#
#
# Elastic Constant Matrix: (Units=GPa)
#
#
# Indices 1 2 3 4 5 6 
#
# 1 135.6570 26.8665 25.6603 -6.9070 5.8745 4.7611
# 2 26.8665 74.2929 40.3784 6.3413 2.1975 -8.5298
# 3 25.6603 40.3784 123.0880 -15.3196 -1.2232 -23.4898
# 4 -6.9070 6.3413 -15.3196 41.6256 -3.5495 4.5129
# 5 5.8745 2.1975 -1.2232 -3.5495 41.8213 2.6081
# 6 4.7611 -8.5298 -23.4898 4.5129 2.6081 28.5612
#
#
#
# Elastic Compliance Matrix: (Units=1/GPa)
#
#
# Indices 1 2 3 4 5 6 
#
# 1 0.008424 -0.002877 -0.001281 0.001686 -0.000707 -0.003519
# 2 -0.002877 0.018411 -0.005731 -0.005757 -0.001363 0.002299
# 3 -0.001281 -0.005731 0.012331 0.004406 0.000724 0.007881
# 4 0.001686 -0.005757 0.004406 0.027351 0.002700 -0.002945
# 5 -0.000707 -0.001363 0.000724 0.002700 0.024479 -0.002355
# 6 -0.003519 0.002299 0.007881 -0.002945 -0.002355 0.043448
#
#
# Mechanical properties :
#
#
# Convention : Reuss Voigt Hill
#
# Bulk Modulus (GPa) = 51.58049 57.64981 54.61515
# Shear Modulus (GPa) = 31.11669 38.41047 34.76358
#
# Velocity S-wave (km/s) = 3.64942 4.05463 3.85735
# Velocity P-wave (km/s) = 6.31146 6.82603 6.57379
#
# Compressibility (1/GPa) = 0.01938717
#
# Stress axis : x y z
#
# Youngs Moduli (GPa) = 118.71460 54.31467 81.09606
#
# Poissons Ratio (x) = 0.15626 0.10389
# Poissons Ratio (y) = 0.34154 0.46479
# Poissons Ratio (z) = 0.15208 0.31130
#
# Static dielectric constant tensor:
#      x y z
#    x 1.949850 0.030260 -0.035120 
#    y 0.030260 1.937430 -0.006710 
#    z -0.035120 -0.006710 1.835370 
# 
# From -- ./inp_files/556906.got.cif
#   From: 2010.05.17/outbox.cif.g08.bks.cpg/sg2_279_cif.got.tgz:556906.got - 2010.06.03 11:33:40.
