data_PCOD9070814
_publ_section_title
;
Structure prediction by ZEFSAII (Michael W. Deem and Ramdas Pophale) SiO2 
 PCOD9070814
Probable space group: P -1
;
_chemical_formula_sum "Si O2"
_cell_formula_units_Z 11
_cell_length_a 10.144226
_cell_length_b 8.864962
_cell_length_c 8.092990
_cell_angle_alpha 128.954225
_cell_angle_beta 123.719173
_cell_angle_gamma 54.002706
_cell_volume 437.510655
_symmetry_space_group_name_H-M "P -1"
_symmetry_group_IT_number 2
_symmetry_cell_setting 'triclinic'
loop_
_space_group_symop_operation_xyz
x,y,z
-x,-y,-z
loop_
_atom_site_type_symbol
_atom_site_label
_atom_site_fract_x
_atom_site_fract_y
_atom_site_fract_z
Si Si1 0.658974 0.564202 0.126364
Si Si2 0.303940 0.093917 0.981576
Si Si3 0.677951 0.496810 0.702035
Si Si4 0.200039 0.970145 0.487593
Si Si5 0.890943 0.157392 0.168669
Si Si6 0.500000 0.000000 0.500000
O O1 0.816717 0.388550 0.204891
O O2 0.608486 0.782843 0.332782
O O3 0.500000 0.500000 0.000000
O O4 0.675410 0.558315 0.935728
O O5 0.212247 0.092821 0.745027
O O6 0.257938 0.928852 0.947274
O O7 0.273336 0.311890 0.205079
O O8 0.500000 0.000000 0.000000
O O9 0.500000 0.500000 0.500000
O O10 0.800451 0.256310 0.613465
O O11 0.365918 0.904192 0.436132
O O12 0.029509 0.112887 0.377045
O O13 0.000000 0.000000 0.000000
#
# Coordination Sequence:
#
# PCOD9070814 Si02
#       6
#     2   2   2   2   2   1
#     4  12  25  50  78 119 161 212 275 329 408 493
#     4  12  27  49  80 118 160 219 271 328 411 492
#     4  12  25  46  78 115 158 211 273 333 396 489
#     4  12  27  48  79 123 164 210 270 339 413 486
#     4  12  28  52  81 120 172 208 269 350 408 486
#     4  12  26  46  88 116 162 216 272 330 410 486
#
# _framework density 25.142246
#
# number of rings (size 3 to 8) (size 9 to 14) (size 15 to 20)
#    0.000    0.000    7.273    1.636    2.545    1.455 
#    0.000    0.000    0.000    0.000    0.000    0.000 
#    0.000    0.000    0.000    0.000    0.000    0.000 
#
# Total GULP energy -61339.508990 kJ/mol
# GULP energy per Si atom -5576.318999 kJ/mol
# Density = 2.508502 g / cm^3
# Si number density = 25.142246 Si / 1000 Ang^3
#
#
#
# Elastic Constant Matrix: (Units=GPa)
#
#
# Indices 1 2 3 4 5 6 
#
# 1 115.8617 9.2425 15.1863 -3.6951 -12.3352 -0.9975
# 2 9.2425 161.7387 119.9146 -3.5404 -3.5915 -23.6532
# 3 15.1863 119.9146 166.9607 20.2921 -11.0917 -8.7548
# 4 -3.6951 -3.5404 20.2921 55.6859 -2.0989 4.7935
# 5 -12.3352 -3.5915 -11.0917 -2.0989 25.0243 5.6842
# 6 -0.9975 -23.6532 -8.7548 4.7935 5.6842 31.7377
#
#
#
# Elastic Compliance Matrix: (Units=1/GPa)
#
#
# Indices 1 2 3 4 5 6 
#
# 1 0.009236 0.000008 -0.000728 0.001126 0.004527 -0.000886
# 2 0.000008 0.016721 -0.012407 0.004612 -0.004799 0.009203
# 3 -0.000728 -0.012407 0.015793 -0.005955 0.005496 -0.004998
# 4 0.001126 0.004612 -0.005955 0.020640 0.000626 -0.001400
# 5 0.004527 -0.004799 0.005496 0.000626 0.046335 -0.010311
# 6 -0.000886 0.009203 -0.004998 -0.001400 -0.010311 0.039018
#
#
# Mechanical properties :
#
#
# Convention : Reuss Voigt Hill
#
# Bulk Modulus (GPa) = 64.53344 81.47198 73.00271
# Shear Modulus (GPa) = 27.90743 42.50407 35.20575
#
# Velocity S-wave (km/s) = 3.33525 4.11608 3.74607
# Velocity P-wave (km/s) = 6.36828 7.42053 6.91445
#
# Compressibility (1/GPa) = 0.01549584
#
# Stress axis : x y z
#
# Youngs Moduli (GPa) = 108.27189 59.80420 63.31739
#
# Poissons Ratio (x) = -0.00046 0.04610
# Poissons Ratio (y) = -0.00083 0.78558
# Poissons Ratio (z) = 0.07884 0.74199
#
# Static dielectric constant tensor:
#      x y z
#    x 1.767890 -0.191990 0.307610 
#    y -0.191990 1.767780 0.200200 
#    z 0.307610 0.200200 1.834890 
# 
# From -- ./inp_files/236335.got.cif
#   From: 2010.05.17/outbox.cif.g08.bks.cpg/sg2_119_cif.got.tgz:236335.got - 2010.06.03 11:33:40.
