data_PCOD9070041
_publ_section_title
;
Structure prediction by ZEFSAII (Michael W. Deem and Ramdas Pophale) SiO2 
 PCOD9070041
Probable space group: P -1
;
_chemical_formula_sum "Si O2"
_cell_formula_units_Z 15
_cell_length_a 13.992999
_cell_length_b 17.413528
_cell_length_c 8.534672
_cell_angle_alpha 125.339598
_cell_angle_beta 124.142253
_cell_angle_gamma 21.694679
_cell_volume 625.145732
_symmetry_space_group_name_H-M "P -1"
_symmetry_group_IT_number 2
_symmetry_cell_setting 'triclinic'
loop_
_space_group_symop_operation_xyz
x,y,z
-x,-y,-z
loop_
_atom_site_type_symbol
_atom_site_label
_atom_site_fract_x
_atom_site_fract_y
_atom_site_fract_z
Si Si1 0.244853 0.566764 0.081373
Si Si2 0.402864 0.055200 0.797290
Si Si3 0.037516 0.878249 0.488107
Si Si4 0.546324 0.749885 0.543179
Si Si5 0.500000 0.000000 0.500000
Si Si6 0.959239 0.311029 0.273566
Si Si7 0.205323 0.774092 0.859603
Si Si8 0.149424 0.490293 0.139123
O O1 0.164161 0.707835 0.292448
O O2 0.502490 0.412290 0.045252
O O3 0.291344 0.434602 0.058010
O O4 0.015668 0.718428 0.924714
O O5 0.555673 0.853214 0.627422
O O6 0.439732 0.097374 0.734831
O O7 0.097135 0.260623 0.772132
O O8 0.500000 0.000000 0.000000
O O9 0.209520 0.771908 0.672613
O O10 0.000000 0.000000 0.500000
O O11 0.753039 0.058465 0.502300
O O12 0.723363 0.556320 0.370840
O O13 0.661346 0.654707 0.711143
O O14 0.796160 0.823223 0.573385
O O15 0.882992 0.265097 0.216685
O O16 0.000000 0.000000 0.000000
O O17 0.000000 0.500000 0.000000
#
# Coordination Sequence:
#
# PCOD9070041 Si02
#       8
#     2   2   2   2   1   2   2   2
#     4  12  26  48  76 112 154 206 266 325 400 480
#     4  12  25  48  71 109 153 204 265 328 386 476
#     4  12  24  44  76 112 146 200 260 317 397 478
#     4  12  25  46  73 104 158 194 253 326 395 457
#     4  12  28  46  78 110 164 210 268 320 408 474
#     4  12  27  48  74 113 157 206 262 327 404 475
#     4  12  26  50  77 112 160 200 260 333 397 475
#     4  12  25  45  72 108 151 202 262 319 387 470
#
# _framework density 23.994406000000001
#
# number of rings (size 3 to 8) (size 9 to 14) (size 15 to 20)
#    0.000    0.000    4.000    6.400    0.000    2.667 
#    0.000    0.000    0.000    0.000    0.000    0.000 
#    0.000    0.000    0.000    0.000    0.000    0.000 
#
# Total GULP energy -83709.439990 kJ/mol
# GULP energy per Si atom -5580.629333 kJ/mol
# Density = 2.393979 g / cm^3
# Si number density = 23.994406 Si / 1000 Ang^3
#
#
#
# Elastic Constant Matrix: (Units=GPa)
#
#
# Indices 1 2 3 4 5 6 
#
# 1 53.2941 6.9931 16.2942 17.5804 22.7136 -5.0043
# 2 6.9931 104.2182 36.5010 4.3452 21.8127 -14.5068
# 3 16.2942 36.5010 133.0818 -2.3747 4.1020 4.8781
# 4 17.5804 4.3452 -2.3747 64.3829 7.7899 3.8066
# 5 22.7136 21.8127 4.1020 7.7899 40.2282 0.6004
# 6 -5.0043 -14.5068 4.8781 3.8066 0.6004 47.6712
#
#
#
# Elastic Compliance Matrix: (Units=1/GPa)
#
#
# Indices 1 2 3 4 5 6 
#
# 1 0.029872 0.004370 -0.004647 -0.006841 -0.017523 0.005708
# 2 0.004370 0.013458 -0.004162 -0.001458 -0.009136 0.005212
# 3 -0.004647 -0.004162 0.009246 0.001617 0.003668 -0.002876
# 4 -0.006841 -0.001458 0.001617 0.017584 0.001124 -0.002746
# 5 -0.017523 -0.009136 0.003668 0.001124 0.039197 -0.005578
# 6 0.005708 0.005212 -0.002876 -0.002746 -0.005578 0.023746
#
#
# Mechanical properties :
#
#
# Convention : Reuss Voigt Hill
#
# Bulk Modulus (GPa) = 22.88410 45.57452 34.22931
# Shear Modulus (GPa) = 31.93942 45.84354 38.89148
#
# Velocity S-wave (km/s) = 3.65241 4.37577 4.03035
# Velocity P-wave (km/s) = 5.22922 6.67570 5.99624
#
# Compressibility (1/GPa) = 0.04369846
#
# Stress axis : x y z
#
# Youngs Moduli (GPa) = 33.47640 74.30557 108.15653
#
# Poissons Ratio (x) = -0.32475 0.50264
# Poissons Ratio (y) = -0.14631 0.45012
# Poissons Ratio (z) = 0.15558 0.30924
#
# Static dielectric constant tensor:
#      x y z
#    x 1.719890 0.351310 -0.205400 
#    y 0.351310 2.111280 -0.000530 
#    z -0.205400 -0.000530 1.952710 
# 
# From -- ./inp_files/296864.got.cif
#   From: 2010.05.17/outbox.cif.g08.bks.cpg/sg2_149_cif.got.tgz:296864.got - 2010.06.03 11:33:40.
