data_PCOD9070780
_publ_section_title
;
Structure prediction by ZEFSAII (Michael W. Deem and Ramdas Pophale) SiO2 
 PCOD9070780
Probable space group: P -1
;
_chemical_formula_sum "Si O2"
_cell_formula_units_Z 12
_cell_length_a 4.774616
_cell_length_b 22.137287
_cell_length_c 4.990415
_cell_angle_alpha 84.649822
_cell_angle_beta 61.259444
_cell_angle_gamma 77.992108
_cell_volume 452.356749
_symmetry_space_group_name_H-M "P -1"
_symmetry_group_IT_number 2
_symmetry_cell_setting 'triclinic'
loop_
_space_group_symop_operation_xyz
x,y,z
-x,-y,-z
loop_
_atom_site_type_symbol
_atom_site_label
_atom_site_fract_x
_atom_site_fract_y
_atom_site_fract_z
Si Si1 0.489278 0.123578 0.771576
Si Si2 0.954664 0.628547 0.219732
Si Si3 0.239381 0.291213 0.240698
Si Si4 0.101885 0.791681 0.209759
Si Si5 0.548210 0.542193 0.209517
Si Si6 0.013860 0.954777 0.763576
O O1 0.785957 0.145330 0.776931
O O2 0.652818 0.093398 0.434844
O O3 0.225491 0.185266 0.813795
O O4 0.290342 0.079565 0.040722
O O5 0.906467 0.677271 0.980587
O O6 0.290800 0.604715 0.231146
O O7 0.734601 0.658436 0.558179
O O8 0.862405 0.569009 0.139877
O O9 0.000191 0.248502 0.485493
O O10 0.591461 0.249468 0.054826
O O11 0.500000 0.500000 0.500000
O O12 0.500000 0.500000 0.000000
O O13 0.000000 0.000000 0.500000
O O14 0.000000 0.000000 0.000000
#
# Coordination Sequence:
#
# PCOD9070780 Si02
#       6
#     2   2   2   2   2   2
#     4  12  27  50  77 112 153 202 255 316 382 456
#     4  12  27  47  76 110 152 199 253 314 380 454
#     4  12  28  51  77 114 153 203 256 318 384 458
#     4  12  28  50  78 112 154 202 256 316 382 456
#     4  12  25  46  74 110 150 198 251 312 378 452
#     4  12  27  50  78 114 154 202 255 316 382 456
#
# _framework density 26.527740000000001
#
# number of rings (size 3 to 8) (size 9 to 14) (size 15 to 20)
#    0.000    0.000    0.000    9.000    0.000   12.000 
#    0.000    0.000    0.000    0.000    0.000    0.000 
#    0.000    0.000    0.000    0.000    0.000    0.000 
#
# Total GULP energy -67317.942471 kJ/mol
# GULP energy per Si atom -5609.828539 kJ/mol
# Density = 2.646736 g / cm^3
# Si number density = 26.527740 Si / 1000 Ang^3
#
#
#
# Elastic Constant Matrix: (Units=GPa)
#
#
# Indices 1 2 3 4 5 6 
#
# 1 117.7794 23.9745 43.3602 10.5219 3.2776 6.0036
# 2 23.9745 115.9391 53.2776 -4.1173 -0.2850 7.7900
# 3 43.3602 53.2776 189.6792 14.9580 5.0769 0.8376
# 4 10.5219 -4.1173 14.9580 59.4545 -1.9367 -7.8937
# 5 3.2776 -0.2850 5.0769 -1.9367 61.4086 -1.1492
# 6 6.0036 7.7900 0.8376 -7.8937 -1.1492 42.2624
#
#
#
# Elastic Compliance Matrix: (Units=1/GPa)
#
#
# Indices 1 2 3 4 5 6 
#
# 1 0.009583 -0.001148 -0.001728 -0.001543 -0.000449 -0.001416
# 2 -0.001148 0.010266 -0.002737 0.001429 0.000354 -0.001398
# 3 -0.001728 -0.002737 0.006567 -0.001509 -0.000505 0.000324
# 4 -0.001543 0.001429 -0.001509 0.018048 0.000846 0.003380
# 5 -0.000449 0.000354 -0.000505 0.000846 0.016390 0.000612
# 6 -0.001416 -0.001398 0.000324 0.003380 0.000612 0.024762
#
#
# Mechanical properties :
#
#
# Convention : Reuss Voigt Hill
#
# Bulk Modulus (GPa) = 65.83672 73.84694 69.84183
# Shear Modulus (GPa) = 49.06515 52.81078 50.93797
#
# Velocity S-wave (km/s) = 4.30534 4.46665 4.38674
# Velocity P-wave (km/s) = 7.04177 7.38237 7.21408
#
# Compressibility (1/GPa) = 0.01518909
#
# Stress axis : x y z
#
# Youngs Moduli (GPa) = 104.35222 97.40923 152.27675
#
# Poissons Ratio (x) = 0.11185 0.26315
# Poissons Ratio (y) = 0.11982 0.41678
# Poissons Ratio (z) = 0.18033 0.26661
#
# Static dielectric constant tensor:
#      x y z
#    x 1.999800 -0.015880 -0.003970 
#    y -0.015880 2.130530 0.038320 
#    z -0.003970 0.038320 2.017060 
# 
# From -- ./inp_files/9821.got.cif
#   From: 2010.05.17/outbox.cif.g08.bks.cpg/sg2_5_cif.got.tgz:9821.got - 2010.06.03 11:33:40.
