data_PCOD9070843
_publ_section_title
;
Structure prediction by ZEFSAII (Michael W. Deem and Ramdas Pophale) SiO2 
 PCOD9070843
Probable space group: P -1
;
_chemical_formula_sum "Si O2"
_cell_formula_units_Z 16
_cell_length_a 11.680475
_cell_length_b 12.126335
_cell_length_c 26.207935
_cell_angle_alpha 32.960554
_cell_angle_beta 22.922121
_cell_angle_gamma 37.035624
_cell_volume 780.899606
_symmetry_space_group_name_H-M "P -1"
_symmetry_group_IT_number 2
_symmetry_cell_setting 'triclinic'
loop_
_space_group_symop_operation_xyz
x,y,z
-x,-y,-z
loop_
_atom_site_type_symbol
_atom_site_label
_atom_site_fract_x
_atom_site_fract_y
_atom_site_fract_z
Si Si1 0.476571 0.278434 0.617179
Si Si2 0.341513 0.163855 0.297485
Si Si3 0.636901 0.211272 0.049871
Si Si4 0.249186 0.850192 0.165279
Si Si5 0.190663 0.788231 0.823181
Si Si6 0.637783 0.577054 0.177193
Si Si7 0.273864 0.249051 0.821376
Si Si8 0.829463 0.392736 0.807160
O O1 0.500000 0.500000 0.500000
O O2 0.474942 0.285949 0.676049
O O3 0.134270 0.255279 0.750976
O O4 0.685661 0.077260 0.590985
O O5 0.428708 0.183394 0.194351
O O6 0.595893 0.196068 0.222193
O O7 0.121219 0.372264 0.313821
O O8 0.662000 0.990263 0.097312
O O9 0.599930 0.371948 0.956179
O O10 0.938874 0.260181 0.934120
O O11 0.332444 0.712397 0.233932
O O12 0.286133 0.698518 0.161059
O O13 0.939436 0.992587 0.231675
O O14 0.500000 0.000000 0.000000
O O15 0.338961 0.641872 0.774559
O O16 0.909528 0.684965 0.999868
O O17 0.683217 0.596692 0.211019
#
# Coordination Sequence:
#
# PCOD9070843 Si02
#       8
#     2   2   2   2   2   2   2   2
#     4  10  23  40  57  74 101 140 187 233 260 295
#     4  11  19  33  54  80 109 138 171 215 271 320
#     4   9  17  29  50  79 114 136 166 208 269 328
#     4  10  19  28  47  77 111 142 167 198 252 323
#     4  10  18  29  46  78 111 144 161 201 254 323
#     4  10  18  30  47  75 114 136 170 197 254 326
#     4   9  17  32  54  75 106 145 170 214 266 313
#     4  11  20  33  53  83 108 141 174 212 265 321
#
# _framework density 20.489190000000001
#
# number of rings (size 3 to 8) (size 9 to 14) (size 15 to 20)
#    0.000    2.000    3.750    2.625    0.000    0.500 
#    0.000    2.500    0.000    1.500    0.000    0.000 
#    0.000    0.000    0.000    0.000    0.000    0.000 
#
# Total GULP energy -89105.835777 kJ/mol
# GULP energy per Si atom -5569.114736 kJ/mol
# Density = 2.044256 g / cm^3
# Si number density = 20.489190 Si / 1000 Ang^3
#
#
#
# Elastic Constant Matrix: (Units=GPa)
#
#
# Indices 1 2 3 4 5 6 
#
# 1 68.2451 35.2224 11.5977 -6.9859 3.1928 19.9983
# 2 35.2224 127.4503 20.8822 -30.0804 3.3293 4.5312
# 3 11.5977 20.8822 47.1171 -28.9576 8.4329 9.7179
# 4 -6.9859 -30.0804 -28.9576 28.1307 -3.1698 -3.4073
# 5 3.1928 3.3293 8.4329 -3.1698 11.4192 -4.1501
# 6 19.9983 4.5312 9.7179 -3.4073 -4.1501 41.1699
#
#
#
# Elastic Compliance Matrix: (Units=1/GPa)
#
#
# Indices 1 2 3 4 5 6 
#
# 1 0.021086 -0.006406 -0.003347 -0.007087 -0.007178 -0.010057
# 2 -0.006406 0.013405 0.009968 0.022793 -0.002830 0.000885
# 3 -0.003347 0.009968 0.083809 0.089025 -0.045123 -0.016434
# 4 -0.007087 0.022793 0.089025 0.144510 -0.034509 -0.011599
# 5 -0.007178 -0.002830 -0.045123 -0.034509 0.122862 0.023978
# 6 -0.010057 0.000885 -0.016434 -0.011599 0.023978 0.034414
#
#
# Mechanical properties :
#
#
# Convention : Reuss Voigt Hill
#
# Bulk Modulus (GPa) = 8.42257 42.02413 25.22335
# Shear Modulus (GPa) = 10.88769 27.81795 19.35282
#
# Velocity S-wave (km/s) = 2.30768 3.68868 3.07667
# Velocity P-wave (km/s) = 3.34966 6.22067 4.99585
#
# Compressibility (1/GPa) = 0.11872857
#
# Stress axis : x y z
#
# Youngs Moduli (GPa) = 47.42486 74.59662 11.93185
#
# Poissons Ratio (x) = 0.47790 0.03994
# Poissons Ratio (y) = 0.30382 -0.11893
# Poissons Ratio (z) = 0.15875 -0.74356
#
# Static dielectric constant tensor:
#      x y z
#    x 1.717200 -0.030610 -0.006770 
#    y -0.030610 1.820730 0.001100 
#    z -0.006770 0.001100 1.759230 
# 
# From -- ./inp_files/281407.got.cif
#   From: 2010.05.17/outbox.cif.g08.bks.cpg/sg2_141_cif.got.tgz:281407.got - 2010.06.03 11:33:40.
