data_PCOD9070406
_publ_section_title
;
Structure prediction by ZEFSAII (Michael W. Deem and Ramdas Pophale) SiO2 
 PCOD9070406
Probable space group: P -1
;
_chemical_formula_sum "Si O2"
_cell_formula_units_Z 16
_cell_length_a 13.479440
_cell_length_b 13.474677
_cell_length_c 9.523097
_cell_angle_alpha 96.686420
_cell_angle_beta 105.727497
_cell_angle_gamma 147.193389
_cell_volume 677.602027
_symmetry_space_group_name_H-M "P -1"
_symmetry_group_IT_number 2
_symmetry_cell_setting 'triclinic'
loop_
_space_group_symop_operation_xyz
x,y,z
-x,-y,-z
loop_
_atom_site_type_symbol
_atom_site_label
_atom_site_fract_x
_atom_site_fract_y
_atom_site_fract_z
Si Si1 0.704237 0.544632 0.935474
Si Si2 0.996726 0.217684 0.450098
Si Si3 0.262721 0.071112 0.212780
Si Si4 0.442694 0.474661 0.639258
Si Si5 0.913778 0.425293 0.794583
Si Si6 0.237197 0.898169 0.924277
Si Si7 0.492645 0.198992 0.608050
Si Si8 0.753734 0.437545 0.177946
O O1 0.510921 0.449432 0.772931
O O2 0.702345 0.451352 0.808635
O O3 0.667786 0.457168 0.055874
O O4 0.972563 0.834565 0.098133
O O5 0.912757 0.165817 0.252717
O O6 0.157558 0.258971 0.516750
O O7 0.178142 0.463899 0.625008
O O8 0.749922 0.005629 0.418095
O O9 0.381533 0.273929 0.223102
O O10 0.415981 0.178758 0.428233
O O11 0.255611 0.969562 0.091824
O O12 0.500000 0.500000 0.500000
O O13 0.628516 0.212737 0.643300
O O14 0.090490 0.664877 0.829142
O O15 0.992406 0.388033 0.756054
O O16 0.000000 0.500000 0.000000
O O17 0.528944 0.159343 0.032438
#
# Coordination Sequence:
#
# PCOD9070406 Si02
#       8
#     2   2   2   2   2   2   2   2
#     4  12  24  48  71 106 151 192 244 304 365 437
#     4  12  27  49  73 111 152 190 250 308 361 443
#     4  12  24  48  76 106 148 195 243 307 372 431
#     4  12  26  46  78 110 147 199 246 301 379 438
#     4  12  25  48  78 108 150 199 241 300 378 436
#     4  12  25  48  77 104 152 191 245 312 361 437
#     4  12  25  47  74 107 149 193 245 304 364 443
#     4  12  26  48  72 110 151 195 248 306 368 434
#
# _framework density 23.612680000000001
#
# number of rings (size 3 to 8) (size 9 to 14) (size 15 to 20)
#    0.000    0.000    7.500    2.250    0.000    2.000 
#    2.250    0.000    0.000    0.000    0.000    0.000 
#    0.000    0.000    0.000    0.000    0.000    0.000 
#
# Total GULP energy -89506.689004 kJ/mol
# GULP energy per Si atom -5594.168063 kJ/mol
# Density = 2.355894 g / cm^3
# Si number density = 23.612680 Si / 1000 Ang^3
#
#
#
# Elastic Constant Matrix: (Units=GPa)
#
#
# Indices 1 2 3 4 5 6 
#
# 1 82.8379 21.0481 10.9386 11.7506 31.6798 15.0058
# 2 21.0481 95.3351 13.6703 10.8432 22.5242 5.0305
# 3 10.9386 13.6703 99.0716 8.6621 12.6935 5.2473
# 4 11.7506 10.8432 8.6621 28.4387 2.6988 3.8189
# 5 31.6798 22.5242 12.6935 2.6988 49.3212 3.4238
# 6 15.0058 5.0305 5.2473 3.8189 3.4238 32.6404
#
#
#
# Elastic Compliance Matrix: (Units=1/GPa)
#
#
# Indices 1 2 3 4 5 6 
#
# 1 0.018283 -0.000548 0.000273 -0.005519 -0.010804 -0.006585
# 2 -0.000548 0.012306 -0.000659 -0.003725 -0.004854 -0.000594
# 3 0.000273 -0.000659 0.010767 -0.002754 -0.002413 -0.001179
# 4 -0.005519 -0.003725 -0.002754 0.039532 0.003894 -0.001480
# 5 -0.010804 -0.004854 -0.002413 0.003894 0.029663 0.002536
# 6 -0.006585 -0.000594 -0.001179 -0.001480 0.002536 0.033853
#
#
# Mechanical properties :
#
#
# Convention : Reuss Voigt Hill
#
# Bulk Modulus (GPa) = 25.32393 40.95095 33.13744
# Shear Modulus (GPa) = 31.36094 37.51923 34.44008
#
# Velocity S-wave (km/s) = 3.64832 3.99048 3.82323
# Velocity P-wave (km/s) = 5.33807 6.21388 5.79255
#
# Compressibility (1/GPa) = 0.03948834
#
# Stress axis : x y z
#
# Youngs Moduli (GPa) = 54.69703 81.25816 92.87770
#
# Poissons Ratio (x) = 0.04451 -0.02531
# Poissons Ratio (y) = 0.02996 0.06117
# Poissons Ratio (z) = -0.01491 0.05352
#
# Static dielectric constant tensor:
#      x y z
#    x 1.937380 0.024610 0.003800 
#    y 0.024610 1.977200 0.048640 
#    z 0.003800 0.048640 1.833640 
# 
# From -- ./inp_files/315343.got.cif
#   From: 2010.05.17/outbox.cif.g08.bks.cpg/sg2_158_cif.got.tgz:315343.got - 2010.06.03 11:33:40.
