data_PCOD9070894
_publ_section_title
;
Structure prediction by ZEFSAII (Michael W. Deem and Ramdas Pophale) SiO2 
 PCOD9070894
Probable space group: P -1
;
_chemical_formula_sum "Si O2"
_cell_formula_units_Z 14
_cell_length_a 10.151713
_cell_length_b 12.084159
_cell_length_c 5.258244
_cell_angle_alpha 90.901902
_cell_angle_beta 64.990915
_cell_angle_gamma 89.807756
_cell_volume 584.466714
_symmetry_space_group_name_H-M "P -1"
_symmetry_group_IT_number 2
_symmetry_cell_setting 'triclinic'
loop_
_space_group_symop_operation_xyz
x,y,z
-x,-y,-z
loop_
_atom_site_type_symbol
_atom_site_label
_atom_site_fract_x
_atom_site_fract_y
_atom_site_fract_z
Si Si1 0.243814 0.764004 0.045277
Si Si2 0.732557 0.663274 0.257737
Si Si3 0.461871 0.372700 0.085147
Si Si4 0.333676 0.997648 0.220992
Si Si5 0.974194 0.608566 0.364006
Si Si6 0.861430 0.807691 0.796959
Si Si7 0.878887 0.076803 0.246795
O O1 0.122382 0.672904 0.197927
O O2 0.267830 0.883817 0.162526
O O3 0.393927 0.700256 0.983441
O O4 0.189001 0.812556 0.821324
O O5 0.627741 0.646255 0.582283
O O6 0.869204 0.582362 0.208457
O O7 0.630087 0.657318 0.093263
O O8 0.826201 0.772706 0.114998
O O9 0.500000 0.500000 0.000000
O O10 0.265373 0.110650 0.179085
O O11 0.264582 0.990401 0.559973
O O12 0.500000 0.000000 0.000000
O O13 0.884113 0.697065 0.612718
O O14 0.000000 0.500000 0.500000
O O15 0.009407 0.874317 0.636707
O O16 0.000000 0.000000 0.000000
#
# Coordination Sequence:
#
# PCOD9070894 Si02
#       7
#     2   2   2   2   2   2   2
#     4  12  27  47  78 114 154 213 268 334 405 490
#     4  12  27  51  79 115 158 209 270 331 407 484
#     4  12  29  52  78 113 164 214 266 337 409 484
#     4  12  28  46  75 113 160 210 270 332 412 493
#     4  12  27  50  81 118 157 212 273 335 403 488
#     4  12  25  47  79 113 160 209 266 338 408 480
#     4  12  25  47  77 116 158 207 270 340 410 484
#
# _framework density 23.95346
#
# number of rings (size 3 to 8) (size 9 to 14) (size 15 to 20)
#    0.000    0.000    5.714    3.429    4.000    2.286 
#    0.000    0.000    0.000    0.000    0.000    0.000 
#    0.000    0.000    0.000    0.000    0.000    0.000 
#
# Total GULP energy -78030.166119 kJ/mol
# GULP energy per Si atom -5573.583294 kJ/mol
# Density = 2.389894 g / cm^3
# Si number density = 23.953460 Si / 1000 Ang^3
#
#
#
# Elastic Constant Matrix: (Units=GPa)
#
#
# Indices 1 2 3 4 5 6 
#
# 1 181.4940 50.7997 72.9744 -9.5358 -30.2416 -31.8599
# 2 50.7997 142.7792 47.3132 -32.1668 -15.4580 -33.3908
# 3 72.9744 47.3132 152.3276 -47.2525 -36.7231 -6.0880
# 4 -9.5358 -32.1668 -47.2525 44.6935 1.2486 10.5374
# 5 -30.2416 -15.4580 -36.7231 1.2486 35.2251 1.5389
# 6 -31.8599 -33.3908 -6.0880 10.5374 1.5389 43.2948
#
#
#
# Elastic Compliance Matrix: (Units=1/GPa)
#
#
# Indices 1 2 3 4 5 6 
#
# 1 0.008978 -0.001135 -0.005027 -0.005769 0.001896 0.006361
# 2 -0.001135 0.010367 0.000236 0.006055 0.003362 0.005600
# 3 -0.005027 0.000236 0.018033 0.019220 0.014176 -0.006163
# 4 -0.005769 0.006055 0.019220 0.047488 0.016452 -0.009015
# 5 0.001896 0.003362 0.014176 0.016452 0.045672 0.000354
# 6 0.006361 0.005600 -0.006163 -0.009015 0.000354 0.033413
#
#
# Mechanical properties :
#
#
# Convention : Reuss Voigt Hill
#
# Bulk Modulus (GPa) = 39.17460 90.97502 65.07481
# Shear Modulus (GPa) = 27.12814 45.01025 36.06919
#
# Velocity S-wave (km/s) = 3.36897 4.33953 3.88468
# Velocity P-wave (km/s) = 5.61455 7.94802 6.88092
#
# Compressibility (1/GPa) = 0.02552674
#
# Stress axis : x y z
#
# Youngs Moduli (GPa) = 111.38144 96.45797 55.45492
#
# Poissons Ratio (x) = 0.10952 0.27875
# Poissons Ratio (y) = 0.12647 -0.01311
# Poissons Ratio (z) = 0.55987 -0.02281
#
# Static dielectric constant tensor:
#      x y z
#    x 2.009460 0.076070 0.107280 
#    y 0.076070 1.926010 0.044590 
#    z 0.107280 0.044590 2.197120 
# 
# From -- ./inp_files/69567.got.cif
#   From: 2010.05.17/outbox.cif.g08.bks.cpg/sg2_35_cif.got.tgz:69567.got - 2010.06.03 11:33:40.
