data_PCOD9070928
_publ_section_title
;
Structure prediction by ZEFSAII (Michael W. Deem and Ramdas Pophale) SiO2 
 PCOD9070928
Probable space group: P -1
;
_chemical_formula_sum "Si O2"
_cell_formula_units_Z 14
_cell_length_a 9.507088
_cell_length_b 22.481826
_cell_length_c 5.258099
_cell_angle_alpha 90.473079
_cell_angle_beta 110.127191
_cell_angle_gamma 38.403266
_cell_volume 585.973072
_symmetry_space_group_name_H-M "P -1"
_symmetry_group_IT_number 2
_symmetry_cell_setting 'triclinic'
loop_
_space_group_symop_operation_xyz
x,y,z
-x,-y,-z
loop_
_atom_site_type_symbol
_atom_site_label
_atom_site_fract_x
_atom_site_fract_y
_atom_site_fract_z
Si Si1 0.234537 0.893492 0.974929
Si Si2 0.379262 0.170468 0.148558
Si Si3 0.337176 0.494296 0.818227
Si Si4 0.081794 0.156542 0.800737
Si Si5 0.546208 0.619598 0.611824
Si Si6 0.204274 0.046792 0.391432
Si Si7 0.255779 0.319741 0.406131
O O1 0.470340 0.783717 0.273308
O O2 0.381809 0.893407 0.898078
O O3 0.066338 0.901026 0.712009
O O4 0.000000 0.000000 0.000000
O O5 0.263329 0.270718 0.176978
O O6 0.536921 0.081759 0.462683
O O7 0.161703 0.198493 0.897551
O O8 0.431304 0.434397 0.609629
O O9 0.013443 0.608080 0.605752
O O10 0.500000 0.500000 0.000000
O O11 0.381239 0.434323 0.077711
O O12 0.236349 0.080330 0.649335
O O13 0.763555 0.257850 0.562923
O O14 0.153218 0.096604 0.097395
O O15 0.728877 0.616938 0.666184
#
# Coordination Sequence:
#
# PCOD9070928 Si02
#       7
#     2   2   2   2   2   2   2
#     4  12  26  47  73 110 153 202 250 301 367 454
#     4  12  28  43  76 109 154 197 255 304 374 440
#     4  12  29  52  80 110 149 189 252 315 374 441
#     4  12  27  47  76 108 154 201 250 310 372 434
#     4  12  27  51  76 111 149 193 250 307 374 447
#     4  12  25  48  70 108 153 203 250 303 365 444
#     4  12  28  47  79 109 152 199 247 307 378 443
#
# _framework density 23.891883
#
# number of rings (size 3 to 8) (size 9 to 14) (size 15 to 20)
#    0.000    0.000    2.857    6.000    8.000    0.000 
#    0.000    0.000    0.000    0.000    0.000    0.000 
#    0.000    0.000    0.000    0.000    0.000    0.000 
#
# Total GULP energy -78515.293114 kJ/mol
# GULP energy per Si atom -5608.235222 kJ/mol
# Density = 2.383750 g / cm^3
# Si number density = 23.891883 Si / 1000 Ang^3
#
#
#
# Elastic Constant Matrix: (Units=GPa)
#
#
# Indices 1 2 3 4 5 6 
#
# 1 98.2870 1.2365 2.3581 -12.3406 22.9194 3.3318
# 2 1.2365 93.4182 10.6316 6.9910 2.7739 -7.8244
# 3 2.3581 10.6316 83.8905 -2.3372 -7.7691 1.7086
# 4 -12.3406 6.9910 -2.3372 37.8669 1.0810 11.1073
# 5 22.9194 2.7739 -7.7691 1.0810 52.7141 5.7746
# 6 3.3318 -7.8244 1.7086 11.1073 5.7746 38.5794
#
#
#
# Elastic Compliance Matrix: (Units=1/GPa)
#
#
# Indices 1 2 3 4 5 6 
#
# 1 0.012043 -0.000416 -0.000608 0.004594 -0.005219 -0.001639
# 2 -0.000416 0.011484 -0.001703 -0.003377 -0.000995 0.003562
# 3 -0.000608 -0.001703 0.012436 0.001275 0.002331 -0.001560
# 4 0.004594 -0.003377 0.001275 0.031591 -0.001178 -0.010057
# 5 -0.005219 -0.000995 0.002331 -0.001178 0.021966 -0.002803
# 6 -0.001639 0.003562 -0.001560 -0.010057 -0.002803 0.030169
#
#
# Mechanical properties :
#
#
# Convention : Reuss Voigt Hill
#
# Bulk Modulus (GPa) = 32.77509 33.78312 33.27910
# Shear Modulus (GPa) = 36.95100 43.25671 40.10386
#
# Velocity S-wave (km/s) = 3.93694 4.25964 4.10146
# Velocity P-wave (km/s) = 5.86633 6.19382 6.03230
#
# Compressibility (1/GPa) = 0.03051098
#
# Stress axis : x y z
#
# Youngs Moduli (GPa) = 83.03301 87.07422 80.40954
#
# Poissons Ratio (x) = 0.03626 0.04886
# Poissons Ratio (y) = 0.03457 0.13690
# Poissons Ratio (z) = 0.05046 0.14825
#
# Static dielectric constant tensor:
#      x y z
#    x 1.912170 0.034420 0.013430 
#    y 0.034420 1.924750 0.007550 
#    z 0.013430 0.007550 1.938810 
# 
# From -- ./inp_files/53143.got.cif
#   From: 2010.05.17/outbox.cif.g08.bks.cpg/sg2_27_cif.got.tgz:53143.got - 2010.06.03 11:33:40.
