data_PCOD9070979
_publ_section_title
;
Structure prediction by ZEFSAII (Michael W. Deem and Ramdas Pophale) SiO2 
 PCOD9070979
Probable space group: P -1
;
_chemical_formula_sum "Si O2"
_cell_formula_units_Z 14
_cell_length_a 5.620869
_cell_length_b 21.529887
_cell_length_c 10.977922
_cell_angle_alpha 32.283647
_cell_angle_beta 92.669523
_cell_angle_gamma 72.159119
_cell_volume 539.828495
_symmetry_space_group_name_H-M "P -1"
_symmetry_group_IT_number 2
_symmetry_cell_setting 'triclinic'
loop_
_space_group_symop_operation_xyz
x,y,z
-x,-y,-z
loop_
_atom_site_type_symbol
_atom_site_label
_atom_site_fract_x
_atom_site_fract_y
_atom_site_fract_z
Si Si1 0.864387 0.270044 0.753116
Si Si2 0.111141 0.306624 0.458374
Si Si3 0.751688 0.057864 0.789640
Si Si4 0.722290 0.016047 0.397906
Si Si5 0.128487 0.342194 0.823383
Si Si6 0.760598 0.494360 0.782473
Si Si7 0.821459 0.259301 0.313612
O O1 0.511113 0.368140 0.537750
O O2 0.006772 0.311131 0.585389
O O3 0.901261 0.314100 0.812313
O O4 0.083608 0.089263 0.045964
O O5 0.431517 0.137483 0.719006
O O6 0.165185 0.427036 0.252304
O O7 0.891691 0.318704 0.332741
O O8 0.673166 0.192008 0.479157
O O9 0.000000 0.000000 0.000000
O O10 0.500000 0.000000 0.500000
O O11 0.881019 0.887797 0.508784
O O12 0.477673 0.190334 0.054416
O O13 0.000000 0.000000 0.500000
O O14 0.000000 0.500000 0.500000
O O15 0.072225 0.371997 0.915692
O O16 0.655313 0.402289 0.982683
#
# Coordination Sequence:
#
# PCOD9070979 Si02
#       7
#     2   2   2   2   2   2   2
#     4  12  27  48  79 112 158 205 272 331 409 481
#     4  12  25  48  76 110 154 201 275 323 412 472
#     4  12  26  46  73 108 149 205 258 326 399 486
#     4  12  31  56  83 121 165 216 274 337 416 495
#     4  12  28  50  82 115 155 214 269 341 403 491
#     4  12  27  49  76 115 157 207 267 333 415 480
#     4  12  29  47  79 110 161 204 266 331 410 483
#
# _framework density 25.934159999999999
#
# number of rings (size 3 to 8) (size 9 to 14) (size 15 to 20)
#    0.000    0.000    5.714    2.143   10.000    3.429 
#    0.000    0.000    0.000    0.000    0.000    0.000 
#    0.000    0.000    0.000    0.000    0.000    0.000 
#
# Total GULP energy -78431.312362 kJ/mol
# GULP energy per Si atom -5602.236597 kJ/mol
# Density = 2.587513 g / cm^3
# Si number density = 25.934160 Si / 1000 Ang^3
#
#
#
# Elastic Constant Matrix: (Units=GPa)
#
#
# Indices 1 2 3 4 5 6 
#
# 1 68.1893 16.0988 32.9047 -4.9106 -8.9535 5.2439
# 2 16.0988 123.1825 32.9845 -34.4177 -9.0664 5.8534
# 3 32.9047 32.9845 156.6825 -21.0138 -21.9191 8.8427
# 4 -4.9106 -34.4177 -21.0138 44.0752 2.0846 -4.9160
# 5 -8.9535 -9.0664 -21.9191 2.0846 45.7247 -2.1824
# 6 5.2439 5.8534 8.8427 -4.9160 -2.1824 52.5554
#
#
#
# Elastic Compliance Matrix: (Units=1/GPa)
#
#
# Indices 1 2 3 4 5 6 
#
# 1 0.016693 -0.001463 -0.003053 -0.000922 0.001509 -0.001013
# 2 -0.001463 0.010789 -0.000747 0.007836 0.001131 -0.000150
# 3 -0.003053 -0.000747 0.007983 0.002679 0.002931 -0.000583
# 4 -0.000922 0.007836 0.002679 0.030100 0.001363 0.001641
# 5 0.001509 0.001131 0.002931 0.001363 0.023749 0.000344
# 6 -0.001013 -0.000150 -0.000583 0.001641 0.000344 0.019411
#
#
# Mechanical properties :
#
#
# Convention : Reuss Voigt Hill
#
# Bulk Modulus (GPa) = 40.09601 56.89228 48.49414
# Shear Modulus (GPa) = 39.19607 46.20880 42.70244
#
# Velocity S-wave (km/s) = 3.89185 4.22569 4.06220
# Velocity P-wave (km/s) = 5.97408 6.76708 6.38291
#
# Compressibility (1/GPa) = 0.02494014
#
# Stress axis : x y z
#
# Youngs Moduli (GPa) = 59.90426 92.68918 125.26648
#
# Poissons Ratio (x) = 0.13557 0.38248
# Poissons Ratio (y) = 0.08762 0.09351
# Poissons Ratio (z) = 0.18291 0.06920
#
# Static dielectric constant tensor:
#      x y z
#    x 2.056710 -0.023320 -0.046690 
#    y -0.023320 1.993290 0.042590 
#    z -0.046690 0.042590 2.076100 
# 
# From -- ./inp_files/70622.got.cif
#   From: 2010.05.17/outbox.cif.g08.bks.cpg/sg2_36_cif.got.tgz:70622.got - 2010.06.03 11:33:40.
