data_PCOD9070859
_publ_section_title
;
Structure prediction by ZEFSAII (Michael W. Deem and Ramdas Pophale) SiO2 
 PCOD9070859
Probable space group: P -1
;
_chemical_formula_sum "Si O2"
_cell_formula_units_Z 12
_cell_length_a 12.445600
_cell_length_b 12.476599
_cell_length_c 8.358031
_cell_angle_alpha 99.047404
_cell_angle_beta 99.049636
_cell_angle_gamma 22.221606
_cell_volume 484.479016
_symmetry_space_group_name_H-M "P -1"
_symmetry_group_IT_number 2
_symmetry_cell_setting 'triclinic'
loop_
_space_group_symop_operation_xyz
x,y,z
-x,-y,-z
loop_
_atom_site_type_symbol
_atom_site_label
_atom_site_fract_x
_atom_site_fract_y
_atom_site_fract_z
Si Si1 0.484192 0.733389 0.061359
Si Si2 0.618482 0.829920 0.642158
Si Si3 0.918597 0.202111 0.210883
Si Si4 0.168472 0.366277 0.845745
Si Si5 0.151691 0.973574 0.734609
Si Si6 0.333685 0.471279 0.445973
O O1 0.697978 0.436546 0.073779
O O2 0.664749 0.675007 0.114698
O O3 0.339619 0.861385 0.884608
O O4 0.225104 0.965349 0.180106
O O5 0.635285 0.686530 0.585643
O O6 0.927218 0.589536 0.705779
O O7 0.500000 0.000000 0.500000
O O8 0.396573 0.063752 0.785639
O O9 0.937723 0.057145 0.214849
O O10 0.788451 0.377202 0.378808
O O11 0.000000 0.500000 0.000000
O O12 0.361245 0.759599 0.582964
O O13 0.889509 0.284246 0.682948
#
# Coordination Sequence:
#
# PCOD9070859 Si02
#       6
#     2   2   2   2   2   2
#     4  12  26  46  73 107 145 190 241 300 362 429
#     4  12  27  49  75 108 146 189 241 300 361 432
#     4  12  25  47  74 107 145 191 243 300 360 429
#     4  12  27  49  75 108 146 189 241 300 361 432
#     4  12  25  47  74 107 145 191 243 300 360 429
#     4  12  26  46  73 107 145 190 241 300 362 429
#
# _framework density 24.768875000000001
#
# number of rings (size 3 to 8) (size 9 to 14) (size 15 to 20)
#    0.000    0.000    0.000   10.000    0.000    5.333 
#    0.000    3.333    0.000    0.000    0.000    0.000 
#    0.000    0.000    0.000    0.000    0.000    0.000 
#
# Total GULP energy -67462.683954 kJ/mol
# GULP energy per Si atom -5621.890329 kJ/mol
# Density = 2.471250 g / cm^3
# Si number density = 24.768875 Si / 1000 Ang^3
#
#
#
# Elastic Constant Matrix: (Units=GPa)
#
#
# Indices 1 2 3 4 5 6 
#
# 1 107.4085 42.6744 13.8795 3.5013 -14.3153 5.8795
# 2 42.6744 154.0887 20.4756 -3.8798 -12.2784 10.6808
# 3 13.8795 20.4756 63.9217 4.1413 -6.6127 8.3619
# 4 3.5013 -3.8798 4.1413 60.3264 -3.3534 -13.5364
# 5 -14.3153 -12.2784 -6.6127 -3.3534 37.9223 3.5729
# 6 5.8795 10.6808 8.3619 -13.5364 3.5729 58.8396
#
#
#
# Elastic Compliance Matrix: (Units=1/GPa)
#
#
# Indices 1 2 3 4 5 6 
#
# 1 0.010971 -0.002609 -0.001066 -0.000744 0.003123 -0.000832
# 2 -0.002609 0.007612 -0.001670 0.000646 0.001323 -0.000815
# 3 -0.001066 -0.001670 0.017069 -0.001667 0.002124 -0.002528
# 4 -0.000744 0.000646 -0.001667 0.017771 0.000810 0.004233
# 5 0.003123 0.001323 0.002124 0.000810 0.028646 -0.002407
# 6 -0.000832 -0.000815 -0.002528 0.004233 -0.002407 0.018706
#
#
# Mechanical properties :
#
#
# Convention : Reuss Voigt Hill
#
# Bulk Modulus (GPa) = 40.06182 53.27531 46.66857
# Shear Modulus (GPa) = 41.74128 47.97695 44.85912
#
# Velocity S-wave (km/s) = 4.10961 4.40589 4.26033
# Velocity P-wave (km/s) = 6.22317 6.88754 6.56377
#
# Compressibility (1/GPa) = 0.02496142
#
# Stress axis : x y z
#
# Youngs Moduli (GPa) = 91.15272 131.36447 58.58518
#
# Poissons Ratio (x) = 0.34270 0.06247
# Poissons Ratio (y) = 0.23780 0.09786
# Poissons Ratio (z) = 0.09719 0.21942
#
# Static dielectric constant tensor:
#      x y z
#    x 1.902650 0.006790 -0.015270 
#    y 0.006790 1.933270 0.006050 
#    z -0.015270 0.006050 2.021510 
# 
# From -- ./inp_files/258526.got.cif
#   From: 2010.05.17/outbox.cif.g08.bks.cpg/sg2_130_cif.got.tgz:258526.got - 2010.06.03 11:33:40.
