data_PCOD9070622
_publ_section_title
;
Structure prediction by ZEFSAII (Michael W. Deem and Ramdas Pophale) SiO2 
 PCOD9070622
Probable space group: P -1
;
_chemical_formula_sum "Si O2"
_cell_formula_units_Z 16
_cell_length_a 26.122662
_cell_length_b 9.202006
_cell_length_c 26.232503
_cell_angle_alpha 35.969564
_cell_angle_beta 169.118808
_cell_angle_gamma 142.465260
_cell_volume 699.075198
_symmetry_space_group_name_H-M "P -1"
_symmetry_group_IT_number 2
_symmetry_cell_setting 'triclinic'
loop_
_space_group_symop_operation_xyz
x,y,z
-x,-y,-z
loop_
_atom_site_type_symbol
_atom_site_label
_atom_site_fract_x
_atom_site_fract_y
_atom_site_fract_z
Si Si1 0.712466 0.426826 0.038947
Si Si2 0.829694 0.751049 0.396511
Si Si3 0.729468 0.476678 0.273884
Si Si4 0.503224 0.015015 0.337035
Si Si5 0.981118 0.766264 0.930226
Si Si6 0.756271 0.820743 0.802297
Si Si7 0.402762 0.068113 0.664538
Si Si8 0.137609 0.680096 0.896469
O O1 0.455170 0.258448 0.849445
O O2 0.581094 0.698284 0.826510
O O3 0.852593 0.323029 0.154163
O O4 0.946143 0.441219 0.306396
O O5 0.747615 0.677246 0.279957
O O6 0.000000 0.000000 0.500000
O O7 0.000000 0.500000 0.500000
O O8 0.696236 0.209873 0.343568
O O9 0.500000 0.500000 0.000000
O O10 0.798070 0.958725 0.664326
O O11 0.508474 0.914824 0.312483
O O12 0.281450 0.875042 0.194042
O O13 0.824561 0.719761 0.842316
O O14 0.000000 0.500000 0.000000
O O15 0.500000 0.000000 0.500000
O O16 0.757720 0.591682 0.906865
O O17 0.000000 0.000000 0.000000
O O18 0.157481 0.254747 0.387536
O O19 0.654199 0.128071 0.929950
#
# Coordination Sequence:
#
# PCOD9070622 Si02
#       8
#     2   2   2   2   2   2   2   2
#     4  12  26  48  73 106 145 193 246 290 365 427
#     4  12  28  49  77 109 147 190 244 299 357 440
#     4  12  28  48  78 107 148 191 237 297 370 431
#     4  12  25  46  72 100 143 191 237 299 357 431
#     4  12  25  43  71 105 139 186 241 298 360 422
#     4  12  25  46  70 103 144 187 241 296 360 425
#     4  12  26  47  71 104 147 186 244 293 363 434
#     4  12  27  45  72 107 144 193 239 302 357 427
#
# _framework density 22.887377999999998
#
# number of rings (size 3 to 8) (size 9 to 14) (size 15 to 20)
#    0.000    0.000    1.250    9.000    7.000    0.000 
#    0.000    0.000    0.000    0.000    0.000    0.000 
#    0.000    0.000    0.000    0.000    0.000    0.000 
#
# Total GULP energy -89634.706166 kJ/mol
# GULP energy per Si atom -5602.169135 kJ/mol
# Density = 2.283529 g / cm^3
# Si number density = 22.887378 Si / 1000 Ang^3
#
#
#
# Elastic Constant Matrix: (Units=GPa)
#
#
# Indices 1 2 3 4 5 6 
#
# 1 113.6960 2.1062 22.0288 5.2084 6.8916 -16.0095
# 2 2.1062 73.8610 1.6020 9.3687 -0.6816 3.8480
# 3 22.0288 1.6020 129.7331 9.1226 3.3593 -6.3618
# 4 5.2084 9.3687 9.1226 40.7591 -0.9968 0.7373
# 5 6.8916 -0.6816 3.3593 -0.9968 43.5902 4.1030
# 6 -16.0095 3.8480 -6.3618 0.7373 4.1030 40.3317
#
#
#
# Elastic Compliance Matrix: (Units=1/GPa)
#
#
# Indices 1 2 3 4 5 6 
#
# 1 0.009769 -0.000345 -0.001346 -0.000983 -0.001836 0.003903
# 2 -0.000345 0.014026 0.000027 -0.003152 0.000336 -0.001447
# 3 -0.001346 0.000027 0.008109 -0.001677 -0.000528 0.000826
# 4 -0.000983 -0.003152 -0.001677 0.025799 0.000912 -0.000918
# 5 -0.001836 0.000336 -0.000528 0.000912 0.023605 -0.003262
# 6 0.003903 -0.001447 0.000826 -0.000918 -0.003262 0.026961
#
#
# Mechanical properties :
#
#
# Convention : Reuss Voigt Hill
#
# Bulk Modulus (GPa) = 34.99502 40.97378 37.98440
# Shear Modulus (GPa) = 41.28104 44.37309 42.82706
#
# Velocity S-wave (km/s) = 4.25156 4.40791 4.33044
# Velocity P-wave (km/s) = 6.27888 6.62174 6.45259
#
# Compressibility (1/GPa) = 0.02857550
#
# Stress axis : x y z
#
# Youngs Moduli (GPa) = 102.36978 71.29377 123.32710
#
# Poissons Ratio (x) = 0.02459 0.16605
# Poissons Ratio (y) = 0.03531 -0.00337
# Poissons Ratio (z) = 0.13783 -0.00195
#
# Static dielectric constant tensor:
#      x y z
#    x 1.868750 0.062870 -0.022850 
#    y 0.062870 1.831850 -0.002200 
#    z -0.022850 -0.002200 1.784950 
# 
# From -- ./inp_files/621151.got.cif
#   From: 2010.05.17/outbox.cif.g08.bks.cpg/sg2_311_cif.got.tgz:621151.got - 2010.06.03 11:33:40.
