data_PCOD9070701
_publ_section_title
;
Structure prediction by ZEFSAII (Michael W. Deem and Ramdas Pophale) SiO2 
 PCOD9070701
Probable space group: P -1
;
_chemical_formula_sum "Si O2"
_cell_formula_units_Z 12
_cell_length_a 5.339691
_cell_length_b 12.046559
_cell_length_c 14.704016
_cell_angle_alpha 149.621868
_cell_angle_beta 100.447596
_cell_angle_gamma 76.881223
_cell_volume 465.628388
_symmetry_space_group_name_H-M "P -1"
_symmetry_group_IT_number 2
_symmetry_cell_setting 'triclinic'
loop_
_space_group_symop_operation_xyz
x,y,z
-x,-y,-z
loop_
_atom_site_type_symbol
_atom_site_label
_atom_site_fract_x
_atom_site_fract_y
_atom_site_fract_z
Si Si1 0.060074 0.451041 0.863631
Si Si2 0.620994 0.195192 0.693058
Si Si3 0.910822 0.149274 0.185418
Si Si4 0.346063 0.998405 0.249032
Si Si5 0.682312 0.765432 0.958655
Si Si6 0.459688 0.466798 0.582276
O O1 0.851925 0.279653 0.711915
O O2 0.958846 0.656275 0.936919
O O3 0.360522 0.368525 0.813259
O O4 0.000000 0.500000 0.000000
O O5 0.500000 0.000000 0.500000
O O6 0.725665 0.101984 0.731619
O O7 0.829269 0.401959 0.331274
O O8 0.113534 0.115240 0.255019
O O9 0.677277 0.021510 0.111094
O O10 0.000000 0.000000 0.000000
O O11 0.499658 0.207991 0.426098
O O12 0.501756 0.802659 0.061279
O O13 0.608389 0.610043 0.762985
O O14 0.500000 0.500000 0.500000
#
# Coordination Sequence:
#
# PCOD9070701 Si02
#       6
#     2   2   2   2   2   2
#     4  12  26  48  78 108 150 193 248 305 374 443
#     4  12  28  49  76 113 149 192 250 311 368 443
#     4  12  25  45  74 103 144 189 243 302 363 437
#     4  12  26  46  74 104 145 194 241 301 370 439
#     4  12  26  46  74 105 146 192 241 301 372 438
#     4  12  25  46  70 104 143 187 242 300 361 436
#
# _framework density 25.771623999999999
#
# number of rings (size 3 to 8) (size 9 to 14) (size 15 to 20)
#    0.000    0.000    5.000    5.000    2.333    2.667 
#    0.000    0.000    0.000    0.000    0.000    0.000 
#    0.000    0.000    0.000    0.000    0.000    0.000 
#
# Total GULP energy -67171.358529 kJ/mol
# GULP energy per Si atom -5597.613211 kJ/mol
# Density = 2.571297 g / cm^3
# Si number density = 25.771624 Si / 1000 Ang^3
#
#
#
# Elastic Constant Matrix: (Units=GPa)
#
#
# Indices 1 2 3 4 5 6 
#
# 1 59.0648 12.5622 19.0584 13.8006 5.0484 -8.3221
# 2 12.5622 113.3318 28.2337 -0.3369 -4.5992 -20.6384
# 3 19.0584 28.2337 154.7506 -4.7232 6.6318 2.1707
# 4 13.8006 -0.3369 -4.7232 45.3278 -3.2669 11.8041
# 5 5.0484 -4.5992 6.6318 -3.2669 45.2638 3.5098
# 6 -8.3221 -20.6384 2.1707 11.8041 3.5098 56.7211
#
#
#
# Elastic Compliance Matrix: (Units=1/GPa)
#
#
# Indices 1 2 3 4 5 6 
#
# 1 0.020742 -0.000960 -0.002562 -0.008013 -0.002974 0.004644
# 2 -0.000960 0.010102 -0.001844 -0.000708 0.001067 0.003687
# 3 -0.002562 -0.001844 0.007225 0.001906 -0.000693 -0.001677
# 4 -0.008013 -0.000708 0.001906 0.026808 0.003041 -0.007273
# 5 -0.002974 0.001067 -0.000693 0.003041 0.023015 -0.002079
# 6 0.004644 0.003687 -0.001677 -0.007273 -0.002079 0.021359
#
#
# Mechanical properties :
#
#
# Convention : Reuss Voigt Hill
#
# Bulk Modulus (GPa) = 36.57851 49.65065 43.11458
# Shear Modulus (GPa) = 38.73124 47.28207 43.00665
#
# Velocity S-wave (km/s) = 3.88088 4.28794 4.08948
# Velocity P-wave (km/s) = 5.85712 6.61987 6.25014
#
# Compressibility (1/GPa) = 0.02733845
#
# Stress axis : x y z
#
# Youngs Moduli (GPa) = 48.21149 98.99068 138.40296
#
# Poissons Ratio (x) = 0.09502 0.35454
# Poissons Ratio (y) = 0.04628 0.25520
# Poissons Ratio (z) = 0.12350 0.18253
#
# Static dielectric constant tensor:
#      x y z
#    x 2.174230 0.079080 0.062440 
#    y 0.079080 1.885890 0.030270 
#    z 0.062440 0.030270 2.089690 
# 
# From -- ./inp_files/23804.got.cif
#   From: 2010.05.17/outbox.cif.g08.bks.cpg/sg2_12_cif.got.tgz:23804.got - 2010.06.03 11:33:40.
