data_PCOD9070600
_publ_section_title
;
Structure prediction by ZEFSAII (Michael W. Deem and Ramdas Pophale) SiO2 
 PCOD9070600
Probable space group: P -1
;
_chemical_formula_sum "Si O2"
_cell_formula_units_Z 16
_cell_length_a 11.175745
_cell_length_b 15.988586
_cell_length_c 5.499854
_cell_angle_alpha 55.690117
_cell_angle_beta 104.885622
_cell_angle_gamma 129.578334
_cell_volume 617.533342
_symmetry_space_group_name_H-M "P -1"
_symmetry_group_IT_number 2
_symmetry_cell_setting 'triclinic'
loop_
_space_group_symop_operation_xyz
x,y,z
-x,-y,-z
loop_
_atom_site_type_symbol
_atom_site_label
_atom_site_fract_x
_atom_site_fract_y
_atom_site_fract_z
Si Si1 0.506017 0.067918 0.646853
Si Si2 0.309415 0.222477 0.800083
Si Si3 0.651833 0.559676 0.810199
Si Si4 0.213748 0.077882 0.488915
Si Si5 0.001571 0.786143 0.813072
Si Si6 0.347255 0.632370 0.192253
Si Si7 0.944914 0.577064 0.453532
Si Si8 0.823845 0.276513 0.286715
O O1 0.368220 0.081823 0.552784
O O2 0.681304 0.203416 0.520432
O O3 0.500000 0.000000 0.500000
O O4 0.500000 0.000000 0.000000
O O5 0.350243 0.361301 0.547436
O O6 0.220505 0.137849 0.653791
O O7 0.478646 0.253658 0.830764
O O8 0.231761 0.156105 0.126666
O O9 0.822987 0.675149 0.819315
O O10 0.645484 0.440602 0.912443
O O11 0.500000 0.500000 0.000000
O O12 0.061716 0.928580 0.656160
O O13 0.130268 0.809008 0.651985
O O14 0.017299 0.716089 0.159048
O O15 0.242479 0.515997 0.515968
O O16 0.246824 0.681624 0.011720
O O17 0.000000 0.500000 0.500000
O O18 0.009529 0.605619 0.713207
#
# Coordination Sequence:
#
# PCOD9070600 Si02
#       8
#     2   2   2   2   2   2   2   2
#     4  12  25  43  74 111 160 204 248 310 394 486
#     4  12  29  51  78 112 157 216 273 322 391 466
#     4  12  28  54  81 112 155 212 278 340 394 467
#     4  12  28  49  78 115 158 211 265 326 395 481
#     4  12  27  49  78 118 156 206 261 329 408 479
#     4  12  25  49  79 114 158 201 266 334 407 481
#     4  12  25  41  75 115 160 198 251 323 408 484
#     4  12  25  45  72 119 156 197 251 324 414 482
#
# _framework density 25.909534000000001
#
# number of rings (size 3 to 8) (size 9 to 14) (size 15 to 20)
#    0.000    0.000    5.000    4.500    3.500    2.000 
#    0.000    0.000    0.000    0.000    0.000    0.000 
#    0.000    0.000    0.000    0.000    0.000    0.000 
#
# Total GULP energy -89567.244828 kJ/mol
# GULP energy per Si atom -5597.952802 kJ/mol
# Density = 2.585056 g / cm^3
# Si number density = 25.909534 Si / 1000 Ang^3
#
#
#
# Elastic Constant Matrix: (Units=GPa)
#
#
# Indices 1 2 3 4 5 6 
#
# 1 118.7875 38.4275 26.4454 -2.4717 -8.6932 13.4734
# 2 38.4275 148.5141 38.2000 -1.0372 -0.3645 5.3072
# 3 26.4454 38.2000 171.4247 -11.4347 -8.5995 9.9833
# 4 -2.4717 -1.0372 -11.4347 42.2743 7.3808 -4.0126
# 5 -8.6932 -0.3645 -8.5995 7.3808 44.5601 -10.1989
# 6 13.4734 5.3072 9.9833 -4.0126 -10.1989 59.2039
#
#
#
# Elastic Compliance Matrix: (Units=1/GPa)
#
#
# Indices 1 2 3 4 5 6 
#
# 1 0.009598 -0.002209 -0.000834 -0.000106 0.001340 -0.001622
# 2 -0.002209 0.007667 -0.001410 -0.000221 -0.000619 -0.000069
# 3 -0.000834 -0.001410 0.006442 0.001485 0.000697 -0.000549
# 4 -0.000106 -0.000221 0.001485 0.024761 -0.003644 0.000844
# 5 0.001340 -0.000619 0.000697 -0.003644 0.024252 0.003564
# 6 -0.001622 -0.000069 -0.000549 0.000844 0.003564 0.018030
#
#
# Mechanical properties :
#
#
# Convention : Reuss Voigt Hill
#
# Bulk Modulus (GPa) = 67.55255 71.65245 69.60250
# Shear Modulus (GPa) = 47.80614 51.58455 49.69535
#
# Velocity S-wave (km/s) = 4.30014 4.46685 4.38429
# Velocity P-wave (km/s) = 7.12629 7.37011 7.24923
#
# Compressibility (1/GPa) = 0.01480329
#
# Stress axis : x y z
#
# Youngs Moduli (GPa) = 104.18460 130.43328 155.22464
#
# Poissons Ratio (x) = 0.28806 0.12946
# Poissons Ratio (y) = 0.23009 0.21879
# Poissons Ratio (z) = 0.08689 0.18385
#
# Static dielectric constant tensor:
#      x y z
#    x 2.061740 -0.029260 -0.013110 
#    y -0.029260 2.124220 0.034980 
#    z -0.013110 0.034980 2.129380 
# 
# From -- ./inp_files/81139.got.cif
#   From: 2010.05.17/outbox.cif.g08.bks.cpg/sg2_41_cif.got.tgz:81139.got - 2010.06.03 11:33:40.
