data_PCOD9070584
_publ_section_title
;
Structure prediction by ZEFSAII (Michael W. Deem and Ramdas Pophale) SiO2 
 PCOD9070584
Probable space group: P -1
;
_chemical_formula_sum "Si O2"
_cell_formula_units_Z 16
_cell_length_a 19.856419
_cell_length_b 8.555622
_cell_length_c 11.626560
_cell_angle_alpha 52.031393
_cell_angle_beta 32.914981
_cell_angle_gamma 39.561526
_cell_volume 680.667001
_symmetry_space_group_name_H-M "P -1"
_symmetry_group_IT_number 2
_symmetry_cell_setting 'triclinic'
loop_
_space_group_symop_operation_xyz
x,y,z
-x,-y,-z
loop_
_atom_site_type_symbol
_atom_site_label
_atom_site_fract_x
_atom_site_fract_y
_atom_site_fract_z
Si Si1 0.595479 0.439403 0.051676
Si Si2 0.404922 0.228815 0.440124
Si Si3 0.961882 0.240968 0.891421
Si Si4 0.147475 0.998675 0.276824
Si Si5 0.050365 0.510579 0.798508
Si Si6 0.573925 0.907037 0.788908
Si Si7 0.127449 0.208413 0.457981
Si Si8 0.386734 0.475113 0.760955
O O1 0.545062 0.709559 0.964397
O O2 0.715878 0.249433 0.868754
O O3 0.467141 0.392735 0.267033
O O4 0.657372 0.374008 0.124253
O O5 0.425110 0.109974 0.341626
O O6 0.220967 0.427441 0.617177
O O7 0.500000 0.000000 0.500000
O O8 0.053278 0.328279 0.785691
O O9 0.032199 0.153900 0.702022
O O10 0.779024 0.437822 0.087020
O O11 0.000000 0.000000 0.000000
O O12 0.082823 0.224985 0.181245
O O13 0.174935 0.071812 0.329246
O O14 0.000000 0.000000 0.500000
O O15 0.000000 0.500000 0.000000
O O16 0.727842 0.833880 0.665347
O O17 0.463715 0.201535 0.823165
O O18 0.000000 0.500000 0.500000
O O19 0.500000 0.500000 0.500000
#
# Coordination Sequence:
#
# PCOD9070584 Si02
#       8
#     2   2   2   2   2   2   2   2
#     4  12  29  49  79 118 162 209 264 332 407 476
#     4  12  27  51  78 113 166 208 266 330 401 481
#     4  12  28  51  82 114 156 205 276 327 395 477
#     4  12  27  50  81 118 160 208 267 325 405 475
#     4  12  29  49  80 116 157 211 264 329 400 476
#     4  12  27  51  77 117 158 210 268 330 405 473
#     4  12  24  51  84 114 161 209 267 331 392 481
#     4  12  29  51  81 117 158 213 266 334 404 479
#
# _framework density 23.506353000000001
#
# number of rings (size 3 to 8) (size 9 to 14) (size 15 to 20)
#    0.000    0.000    2.500    6.000   10.500    3.000 
#    0.000    0.000    0.000    0.000    0.000    0.000 
#    0.000    0.000    0.000    0.000    0.000    0.000 
#
# Total GULP energy -89364.421581 kJ/mol
# GULP energy per Si atom -5585.276349 kJ/mol
# Density = 2.345285 g / cm^3
# Si number density = 23.506353 Si / 1000 Ang^3
#
#
#
# Elastic Constant Matrix: (Units=GPa)
#
#
# Indices 1 2 3 4 5 6 
#
# 1 157.2657 46.6514 73.8394 -2.0244 6.4629 -8.1928
# 2 46.6514 153.0015 66.9894 -14.1672 -2.8822 -20.0268
# 3 73.8394 66.9894 167.5257 -6.3881 -1.8049 -5.2707
# 4 -2.0244 -14.1672 -6.3881 26.3559 -4.5455 5.4041
# 5 6.4629 -2.8822 -1.8049 -4.5455 69.5446 5.0835
# 6 -8.1928 -20.0268 -5.2707 5.4041 5.0835 40.0808
#
#
#
# Elastic Compliance Matrix: (Units=1/GPa)
#
#
# Indices 1 2 3 4 5 6 
#
# 1 0.008285 -0.001103 -0.003233 -0.001126 -0.001046 0.001002
# 2 -0.001103 0.008863 -0.002820 0.003378 0.000374 0.003329
# 3 -0.003233 -0.002820 0.008516 0.000616 0.000525 -0.001100
# 4 -0.001126 0.003378 0.000616 0.041299 0.003285 -0.004447
# 5 -0.001046 0.000374 0.000525 0.003285 0.014888 -0.002289
# 6 0.001002 0.003329 -0.001100 -0.004447 -0.002289 0.027563
#
#
# Mechanical properties :
#
#
# Convention : Reuss Voigt Hill
#
# Bulk Modulus (GPa) = 88.10030 94.75037 91.42534
# Shear Modulus (GPa) = 39.21271 46.55043 42.88157
#
# Velocity S-wave (km/s) = 4.08876 4.45492 4.27576
# Velocity P-wave (km/s) = 7.73636 8.17666 7.95956
#
# Compressibility (1/GPa) = 0.01135070
#
# Stress axis : x y z
#
# Youngs Moduli (GPa) = 120.70525 112.83415 117.41967
#
# Poissons Ratio (x) = 0.12450 0.37962
# Poissons Ratio (y) = 0.13319 0.33113
# Poissons Ratio (z) = 0.39025 0.31819
#
# Static dielectric constant tensor:
#      x y z
#    x 1.977450 -0.047000 -0.005040 
#    y -0.047000 2.078680 -0.001450 
#    z -0.005040 -0.001450 1.934040 
# 
# From -- ./inp_files/469811.got.cif
#   From: 2010.05.17/outbox.cif.g08.bks.cpg/sg2_235_cif.got.tgz:469811.got - 2010.06.03 11:33:40.
