data_PCOD9070540
_publ_section_title
;
Structure prediction by ZEFSAII (Michael W. Deem and Ramdas Pophale) SiO2 
 PCOD9070540
Probable space group: P -1
;
_chemical_formula_sum "Si O2"
_cell_formula_units_Z 16
_cell_length_a 20.978694
_cell_length_b 11.080883
_cell_length_c 8.219976
_cell_angle_alpha 50.304258
_cell_angle_beta 147.510201
_cell_angle_gamma 140.638259
_cell_volume 650.453814
_symmetry_space_group_name_H-M "P -1"
_symmetry_group_IT_number 2
_symmetry_cell_setting 'triclinic'
loop_
_space_group_symop_operation_xyz
x,y,z
-x,-y,-z
loop_
_atom_site_type_symbol
_atom_site_label
_atom_site_fract_x
_atom_site_fract_y
_atom_site_fract_z
Si Si1 0.006511 0.342778 0.829090
Si Si2 0.373094 0.054745 0.483485
Si Si3 0.096001 0.994310 0.854713
Si Si4 0.656778 0.406878 0.671315
Si Si5 0.927060 0.105800 0.543352
Si Si6 0.057164 0.429685 0.323727
Si Si7 0.636697 0.319174 0.323984
Si Si8 0.648631 0.770313 0.380374
O O1 0.945835 0.217146 0.649256
O O2 0.921113 0.437741 0.592895
O O3 0.979894 0.209991 0.042841
O O4 0.174516 0.504221 0.031306
O O5 0.541212 0.218595 0.682855
O O6 0.334505 0.100617 0.538181
O O7 0.350963 0.855480 0.555843
O O8 0.261256 0.072309 0.116735
O O9 0.000000 0.000000 0.500000
O O10 0.071526 0.109672 0.839169
O O11 0.619079 0.337688 0.461902
O O12 0.641219 0.576218 0.550460
O O13 0.934180 0.221530 0.300766
O O14 0.782358 0.900163 0.433519
O O15 0.213048 0.482993 0.569545
O O16 0.000000 0.500000 0.000000
O O17 0.500765 0.289708 0.968522
#
# Coordination Sequence:
#
# PCOD9070540 Si02
#       8
#     2   2   2   2   2   2   2   2
#     4  12  24  50  72 111 149 193 258 311 370 451
#     4  12  28  50  74 109 156 200 250 309 378 449
#     4  12  26  45  77 105 147 199 250 311 374 439
#     4  12  28  45  77 109 156 192 249 314 373 447
#     4  12  27  45  80 106 150 199 249 315 377 440
#     4  12  26  47  73 109 149 195 253 307 374 446
#     4  12  28  48  75 109 156 195 250 311 379 449
#     4  12  27  50  75 112 153 197 253 307 379 452
#
# _framework density 24.598209000000001
#
# number of rings (size 3 to 8) (size 9 to 14) (size 15 to 20)
#    0.000    0.000    5.000    3.750    7.000    0.000 
#    0.000    0.000    0.000    0.000    0.000    0.000 
#    0.000    0.000    0.000    0.000    0.000    0.000 
#
# Total GULP energy -89453.516401 kJ/mol
# GULP energy per Si atom -5590.844775 kJ/mol
# Density = 2.454222 g / cm^3
# Si number density = 24.598209 Si / 1000 Ang^3
#
#
#
# Elastic Constant Matrix: (Units=GPa)
#
#
# Indices 1 2 3 4 5 6 
#
# 1 81.4948 17.1869 -8.3908 -4.7971 2.3951 -8.1214
# 2 17.1869 90.5234 -14.5643 8.6654 -10.9756 13.8124
# 3 -8.3908 -14.5643 65.0009 16.0267 -7.1489 14.7281
# 4 -4.7971 8.6654 16.0267 36.5871 -0.7944 10.0331
# 5 2.3951 -10.9756 -7.1489 -0.7944 37.2980 1.8433
# 6 -8.1214 13.8124 14.7281 10.0331 1.8433 60.7033
#
#
#
# Elastic Compliance Matrix: (Units=1/GPa)
#
#
# Indices 1 2 3 4 5 6 
#
# 1 0.013362 -0.003368 -0.000268 0.001979 -0.001974 0.002352
# 2 -0.003368 0.014444 0.005668 -0.005000 0.005667 -0.004458
# 3 -0.000268 0.005668 0.020575 -0.008890 0.005687 -0.005021
# 4 0.001979 -0.005000 -0.008890 0.033120 -0.002506 -0.001839
# 5 -0.001974 0.005667 0.005687 -0.002506 0.029811 -0.003425
# 6 0.002352 -0.004458 -0.005021 -0.001839 -0.003425 0.019429
#
#
# Mechanical properties :
#
#
# Convention : Reuss Voigt Hill
#
# Bulk Modulus (GPa) = 19.06734 25.05364 22.06049
# Shear Modulus (GPa) = 34.68416 43.10350 38.89383
#
# Velocity S-wave (km/s) = 3.75911 4.19059 3.98070
# Velocity P-wave (km/s) = 5.15844 5.79845 5.48778
#
# Compressibility (1/GPa) = 0.05244570
#
# Stress axis : x y z
#
# Youngs Moduli (GPa) = 74.83738 69.23271 48.60322
#
# Poissons Ratio (x) = 0.23316 0.01301
# Poissons Ratio (y) = 0.25203 -0.27547
# Poissons Ratio (z) = 0.02003 -0.39239
#
# Static dielectric constant tensor:
#      x y z
#    x 2.085780 -0.082580 -0.047900 
#    y -0.082580 2.023530 -0.039380 
#    z -0.047900 -0.039380 1.889940 
# 
# From -- ./inp_files/346008.got.cif
#   From: 2010.05.17/outbox.cif.g08.bks.cpg/sg2_174_cif.got.tgz:346008.got - 2010.06.03 11:33:40.
