data_PCOD9070848
_publ_section_title
;
Structure prediction by ZEFSAII (Michael W. Deem and Ramdas Pophale) SiO2 
 PCOD9070848
Probable space group: P -1
;
_chemical_formula_sum "Si O2"
_cell_formula_units_Z 14
_cell_length_a 16.646685
_cell_length_b 16.607948
_cell_length_c 8.352172
_cell_angle_alpha 74.630067
_cell_angle_beta 113.500076
_cell_angle_gamma 162.696032
_cell_volume 570.439452
_symmetry_space_group_name_H-M "P -1"
_symmetry_group_IT_number 2
_symmetry_cell_setting 'triclinic'
loop_
_space_group_symop_operation_xyz
x,y,z
-x,-y,-z
loop_
_atom_site_type_symbol
_atom_site_label
_atom_site_fract_x
_atom_site_fract_y
_atom_site_fract_z
Si Si1 0.354774 0.292606 0.597481
Si Si2 0.288762 0.795634 0.680212
Si Si3 0.974842 0.725496 0.256008
Si Si4 0.221574 0.280556 0.997118
Si Si5 0.160767 0.585691 0.208447
Si Si6 0.341158 0.083807 0.676244
Si Si7 0.631966 0.938140 0.928926
O O1 0.500000 0.500000 0.500000
O O2 0.600092 0.516034 0.819905
O O3 0.350454 0.191955 0.595898
O O4 0.000000 0.000000 0.500000
O O5 0.463501 0.873622 0.844865
O O6 0.000000 0.500000 0.500000
O O7 0.112133 0.682180 0.742216
O O8 0.553930 0.098009 0.657156
O O9 0.634072 0.372083 0.168839
O O10 0.130614 0.854400 0.484867
O O11 0.146542 0.852287 0.162411
O O12 0.958579 0.809960 0.181668
O O13 0.500000 0.500000 0.000000
O O14 0.000000 0.000000 0.000000
O O15 0.323625 0.655160 0.221019
O O16 0.000000 0.500000 0.000000
O O17 0.247884 0.982269 0.842236
#
# Coordination Sequence:
#
# PCOD9070848 Si02
#       7
#     2   2   2   2   2   2   2
#     4  12  28  49  76 113 148 199 250 312 389 453
#     4  12  25  47  73 108 153 196 257 312 376 451
#     4  12  27  48  73 115 147 203 257 314 384 455
#     4  12  25  48  74 107 149 187 249 322 374 452
#     4  12  26  46  73 110 148 199 250 310 379 448
#     4  12  28  50  81 109 160 200 258 316 388 457
#     4  12  27  47  77 110 156 201 256 316 378 453
#
# _framework density 24.542483000000001
#
# number of rings (size 3 to 8) (size 9 to 14) (size 15 to 20)
#    0.000    0.000    2.857    6.857    2.000    3.429 
#    0.000    0.000    0.000    0.000    0.000    0.000 
#    0.000    0.000    0.000    0.000    0.000    0.000 
#
# Total GULP energy -78396.141162 kJ/mol
# GULP energy per Si atom -5599.724369 kJ/mol
# Density = 2.448662 g / cm^3
# Si number density = 24.542483 Si / 1000 Ang^3
#
#
#
# Elastic Constant Matrix: (Units=GPa)
#
#
# Indices 1 2 3 4 5 6 
#
# 1 128.1052 18.8583 37.9929 -4.7929 23.5956 -11.2989
# 2 18.8583 116.3141 14.7459 6.4281 2.6779 -6.2021
# 3 37.9929 14.7459 171.1281 -2.6932 -9.2504 -6.1869
# 4 -4.7929 6.4281 -2.6932 37.8312 -10.6007 -3.2439
# 5 23.5956 2.6779 -9.2504 -10.6007 56.0358 -3.0015
# 6 -11.2989 -6.2021 -6.1869 -3.2439 -3.0015 47.2889
#
#
#
# Elastic Compliance Matrix: (Units=1/GPa)
#
#
# Indices 1 2 3 4 5 6 
#
# 1 0.009539 -0.001098 -0.002190 0.000198 -0.004203 0.001596
# 2 -0.001098 0.008987 -0.000552 -0.001743 -0.000350 0.000702
# 3 -0.002190 -0.000552 0.006529 0.000946 0.002230 0.000465
# 4 0.000198 -0.001743 0.000946 0.028611 0.005690 0.002266
# 5 -0.004203 -0.000350 0.002230 0.005690 0.021129 0.000973
# 6 0.001596 0.000702 0.000465 0.002266 0.000973 0.021898
#
#
# Mechanical properties :
#
#
# Convention : Reuss Voigt Hill
#
# Bulk Modulus (GPa) = 57.54618 62.08240 59.81429
# Shear Modulus (GPa) = 45.38651 51.16121 48.27386
#
# Velocity S-wave (km/s) = 4.30502 4.57069 4.43984
# Velocity P-wave (km/s) = 6.94330 7.29423 7.12093
#
# Compressibility (1/GPa) = 0.01737735
#
# Stress axis : x y z
#
# Youngs Moduli (GPa) = 104.82826 111.26872 153.15130
#
# Poissons Ratio (x) = 0.12219 0.33534
# Poissons Ratio (y) = 0.11512 0.08448
# Poissons Ratio (z) = 0.22954 0.06137
#
# Static dielectric constant tensor:
#      x y z
#    x 1.785590 0.210400 -0.284850 
#    y 0.210400 1.642390 0.335800 
#    z -0.284850 0.335800 1.540550 
# 
# From -- ./inp_files/313189.got.cif
#   From: 2010.05.17/outbox.cif.g08.bks.cpg/sg2_157_cif.got.tgz:313189.got - 2010.06.03 11:33:40.
