data_PCOD9070353
_publ_section_title
;
Structure prediction by ZEFSAII (Michael W. Deem and Ramdas Pophale) SiO2 
 PCOD9070353
Probable space group: P -1
;
_chemical_formula_sum "Si O2"
_cell_formula_units_Z 14
_cell_length_a 11.229629
_cell_length_b 9.425570
_cell_length_c 8.442053
_cell_angle_alpha 98.470427
_cell_angle_beta 123.092756
_cell_angle_gamma 56.385463
_cell_volume 607.854828
_symmetry_space_group_name_H-M "P -1"
_symmetry_group_IT_number 2
_symmetry_cell_setting 'triclinic'
loop_
_space_group_symop_operation_xyz
x,y,z
-x,-y,-z
loop_
_atom_site_type_symbol
_atom_site_label
_atom_site_fract_x
_atom_site_fract_y
_atom_site_fract_z
Si Si1 0.058106 0.607208 0.161621
Si Si2 0.467964 0.862796 0.871651
Si Si3 0.818436 0.600023 0.477860
Si Si4 0.911197 0.970806 0.273396
Si Si5 0.028927 0.820207 0.883399
Si Si6 0.342589 0.027101 0.487114
Si Si7 0.337261 0.490045 0.891653
O O1 0.172814 0.454900 0.344743
O O2 0.958276 0.775882 0.240499
O O3 0.101313 0.700084 0.073405
O O4 0.000000 0.500000 0.000000
O O5 0.623904 0.664686 0.988439
O O6 0.293113 0.904409 0.829562
O O7 0.425852 0.879002 0.656505
O O8 0.500000 0.000000 0.000000
O O9 0.742385 0.800918 0.439895
O O10 0.000000 0.500000 0.500000
O O11 0.682807 0.570650 0.300848
O O12 0.948694 0.032790 0.145399
O O13 0.000000 0.000000 0.500000
O O14 0.821077 0.920221 0.732287
O O15 0.152154 0.667045 0.821516
O O16 0.500000 0.000000 0.500000
O O17 0.500000 0.500000 0.000000
#
# Coordination Sequence:
#
# PCOD9070353 Si02
#       7
#     2   2   2   2   2   2   2
#     4  12  27  44  80 114 152 205 257 322 394 459
#     4  12  27  44  77 111 148 203 266 320 374 471
#     4  12  24  47  76 106 149 209 262 316 379 470
#     4  12  26  51  79 111 154 212 257 319 394 466
#     4  12  26  50  75 112 160 201 253 327 395 463
#     4  12  27  44  74 112 154 194 259 322 389 455
#     4  12  26  47  75 113 152 200 265 316 390 463
#
# _framework density 23.031815999999999
#
# number of rings (size 3 to 8) (size 9 to 14) (size 15 to 20)
#    0.000    0.000    7.143    2.143    6.000    0.000 
#    2.571    0.714    0.000    0.000    0.000    0.000 
#    0.000    0.000    0.000    0.000    0.000    0.000 
#
# Total GULP energy -77948.607239 kJ/mol
# GULP energy per Si atom -5567.757660 kJ/mol
# Density = 2.297939 g / cm^3
# Si number density = 23.031816 Si / 1000 Ang^3
#
#
#
# Elastic Constant Matrix: (Units=GPa)
#
#
# Indices 1 2 3 4 5 6 
#
# 1 111.8625 -13.0465 18.6461 -9.3363 7.3625 10.2694
# 2 -13.0465 110.8496 7.8262 2.2898 9.3378 8.3430
# 3 18.6461 7.8262 128.8094 -10.9358 -4.8582 19.7458
# 4 -9.3363 2.2898 -10.9358 36.5878 8.2439 -2.6756
# 5 7.3625 9.3378 -4.8582 8.2439 46.4896 -11.4542
# 6 10.2694 8.3430 19.7458 -2.6756 -11.4542 31.8870
#
#
#
# Elastic Compliance Matrix: (Units=1/GPa)
#
#
# Indices 1 2 3 4 5 6 
#
# 1 0.010149 0.001824 -0.000825 0.002726 -0.003603 -0.004300
# 2 0.001824 0.009851 -0.000336 0.000202 -0.003360 -0.004146
# 3 -0.000825 -0.000336 0.008858 0.002202 -0.000532 -0.005138
# 4 0.002726 0.000202 0.002202 0.029887 -0.006023 -0.001950
# 5 -0.003603 -0.003360 -0.000532 -0.006023 0.026580 0.011411
# 6 -0.004300 -0.004146 -0.005138 -0.001950 0.011411 0.040948
#
#
# Mechanical properties :
#
#
# Convention : Reuss Voigt Hill
#
# Bulk Modulus (GPa) = 33.13286 42.04145 37.58716
# Shear Modulus (GPa) = 37.03473 45.53259 41.28366
#
# Velocity S-wave (km/s) = 4.01431 4.45111 4.23834
# Velocity P-wave (km/s) = 5.99193 6.68653 6.34874
#
# Compressibility (1/GPa) = 0.03018151
#
# Stress axis : x y z
#
# Youngs Moduli (GPa) = 98.52956 101.51725 112.89491
#
# Poissons Ratio (x) = -0.18513 0.09316
# Poissons Ratio (y) = -0.17968 0.03798
# Poissons Ratio (z) = 0.08131 0.03415
#
# Static dielectric constant tensor:
#      x y z
#    x 2.179630 -0.176290 -0.113870 
#    y -0.176290 2.073940 0.148130 
#    z -0.113870 0.148130 2.009050 
# 
# From -- ./inp_files/244753.got.cif
#   From: 2010.05.17/outbox.cif.g08.bks.cpg/sg2_123_cif.got.tgz:244753.got - 2010.06.03 11:33:40.
