data_PCOD9070874
_publ_section_title
;
Structure prediction by ZEFSAII (Michael W. Deem and Ramdas Pophale) SiO2 
 PCOD9070874
Probable space group: P -1
;
_chemical_formula_sum "Si O2"
_cell_formula_units_Z 12
_cell_length_a 9.304709
_cell_length_b 12.824827
_cell_length_c 5.078900
_cell_angle_alpha 55.722839
_cell_angle_beta 87.672986
_cell_angle_gamma 93.808119
_cell_volume 497.463522
_symmetry_space_group_name_H-M "P -1"
_symmetry_group_IT_number 2
_symmetry_cell_setting 'triclinic'
loop_
_space_group_symop_operation_xyz
x,y,z
-x,-y,-z
loop_
_atom_site_type_symbol
_atom_site_label
_atom_site_fract_x
_atom_site_fract_y
_atom_site_fract_z
Si Si1 0.029048 0.416729 0.365110
Si Si2 0.400388 0.963367 0.305853
Si Si3 0.837565 0.976433 0.442710
Si Si4 0.240878 0.778858 0.230392
Si Si5 0.694789 0.718882 0.572057
Si Si6 0.496173 0.352682 0.793273
O O1 0.189066 0.376781 0.376995
O O2 0.000000 0.500000 0.500000
O O3 0.910096 0.295933 0.569433
O O4 0.000000 0.500000 0.000000
O O5 0.261205 0.033455 0.275934
O O6 0.500000 0.000000 0.500000
O O7 0.328121 0.824384 0.424611
O O8 0.500000 0.000000 0.000000
O O9 0.788687 0.848846 0.467651
O O10 0.205943 0.902268 0.891078
O O11 0.000000 0.000000 0.500000
O O12 0.344939 0.695337 0.175099
O O13 0.597536 0.725987 0.312035
O O14 0.587876 0.672184 0.888650
O O15 0.500000 0.500000 0.500000
#
# Coordination Sequence:
#
# PCOD9070874 Si02
#       6
#     2   2   2   2   2   2
#     4  12  29  52  81 113 157 210 267 323 392 468
#     4  12  25  47  75 113 156 203 255 313 392 468
#     4  12  30  50  79 121 161 209 264 324 401 474
#     4  12  29  50  82 115 164 208 260 331 399 465
#     4  12  28  50  79 115 158 201 265 326 388 471
#     4  12  28  51  80 115 155 207 267 323 387 466
#
# _framework density 24.122371999999999
#
# number of rings (size 3 to 8) (size 9 to 14) (size 15 to 20)
#    0.000    0.000    1.667    6.500   11.667    1.333 
#    0.000    0.000    0.000    0.000    0.000    0.000 
#    0.000    0.000    0.000    0.000    0.000    0.000 
#
# Total GULP energy -67244.303569 kJ/mol
# GULP energy per Si atom -5603.691964 kJ/mol
# Density = 2.406747 g / cm^3
# Si number density = 24.122372 Si / 1000 Ang^3
#
#
#
# Elastic Constant Matrix: (Units=GPa)
#
#
# Indices 1 2 3 4 5 6 
#
# 1 145.6927 22.0565 44.6003 13.8849 -16.5085 -21.4362
# 2 22.0565 120.1064 44.8468 11.7480 -1.8036 -7.5108
# 3 44.6003 44.8468 164.2802 19.4128 -6.1378 -0.5879
# 4 13.8849 11.7480 19.4128 59.8968 -7.0481 -5.3306
# 5 -16.5085 -1.8036 -6.1378 -7.0481 34.3860 -5.8343
# 6 -21.4362 -7.5108 -0.5879 -5.3306 -5.8343 57.5923
#
#
#
# Elastic Compliance Matrix: (Units=1/GPa)
#
#
# Indices 1 2 3 4 5 6 
#
# 1 0.008581 -0.000517 -0.001965 -0.000440 0.004245 0.003496
# 2 -0.000517 0.009435 -0.002331 -0.000918 -0.000203 0.000909
# 3 -0.001965 -0.002331 0.007436 -0.001630 -0.000266 -0.001137
# 4 -0.000440 -0.000918 -0.001630 0.018064 0.003444 0.001721
# 5 0.004245 -0.000203 -0.000266 0.003444 0.032646 0.005177
# 6 0.003496 0.000909 -0.001137 0.001721 0.005177 0.019455
#
#
# Mechanical properties :
#
#
# Convention : Reuss Voigt Hill
#
# Bulk Modulus (GPa) = 63.19099 72.56517 67.87808
# Shear Modulus (GPa) = 45.24160 51.61340 48.42750
#
# Velocity S-wave (km/s) = 4.33541 4.63065 4.48546
# Velocity P-wave (km/s) = 7.16337 7.66407 7.41795
#
# Compressibility (1/GPa) = 0.01582504
#
# Stress axis : x y z
#
# Youngs Moduli (GPa) = 116.53805 105.98990 134.48557
#
# Poissons Ratio (x) = 0.05474 0.26433
# Poissons Ratio (y) = 0.06019 0.31352
# Poissons Ratio (z) = 0.22906 0.24709
#
# Static dielectric constant tensor:
#      x y z
#    x 1.959850 -0.000190 0.064530 
#    y -0.000190 1.818110 0.161160 
#    z 0.064530 0.161160 1.811060 
# 
# From -- ./inp_files/23021.got.cif
#   From: 2010.05.17/outbox.cif.g08.bks.cpg/sg2_12_cif.got.tgz:23021.got - 2010.06.03 11:33:40.
