data_PCOD9070672
_publ_section_title
;
Structure prediction by ZEFSAII (Michael W. Deem and Ramdas Pophale) SiO2 
 PCOD9070672
Probable space group: P -1
;
_chemical_formula_sum "Si O2"
_cell_formula_units_Z 14
_cell_length_a 8.652322
_cell_length_b 12.921856
_cell_length_c 8.773781
_cell_angle_alpha 71.454970
_cell_angle_beta 50.182276
_cell_angle_gamma 54.506799
_cell_volume 611.177278
_symmetry_space_group_name_H-M "P -1"
_symmetry_group_IT_number 2
_symmetry_cell_setting 'triclinic'
loop_
_space_group_symop_operation_xyz
x,y,z
-x,-y,-z
loop_
_atom_site_type_symbol
_atom_site_label
_atom_site_fract_x
_atom_site_fract_y
_atom_site_fract_z
Si Si1 0.862556 0.181458 0.671664
Si Si2 0.356094 0.943619 0.540983
Si Si3 0.745424 0.443311 0.785417
Si Si4 0.039788 0.718455 0.736508
Si Si5 0.463481 0.125889 0.884040
Si Si6 0.505260 0.664367 0.598914
Si Si7 0.922409 0.528144 0.210985
O O1 0.817995 0.308476 0.725945
O O2 0.935022 0.191750 0.445644
O O3 0.628626 0.173530 0.828694
O O4 0.081579 0.052367 0.662139
O O5 0.449793 0.909989 0.325638
O O6 0.417539 0.808295 0.636265
O O7 0.500000 0.000000 0.500000
O O8 0.684495 0.556694 0.651175
O O9 0.935483 0.428453 0.795313
O O10 0.500000 0.500000 0.000000
O O11 0.275889 0.656503 0.716389
O O12 0.030575 0.608817 0.700758
O O13 0.813228 0.780142 0.957973
O O14 0.500000 0.000000 0.000000
O O15 0.648407 0.629321 0.365397
O O16 0.000000 0.500000 0.000000
#
# Coordination Sequence:
#
# PCOD9070672 Si02
#       7
#     2   2   2   2   2   2   2
#     4  12  26  51  76 110 151 202 251 312 378 449
#     4  12  27  46  76 110 153 197 253 312 375 444
#     4  12  28  48  76 113 153 195 252 314 382 451
#     4  12  25  44  79 107 148 199 255 308 376 447
#     4  12  25  48  78 107 148 204 257 305 376 457
#     4  12  26  47  74 111 151 196 252 314 376 447
#     4  12  26  46  77 110 152 200 251 307 384 456
#
# _framework density 22.906611999999999
#
# number of rings (size 3 to 8) (size 9 to 14) (size 15 to 20)
#    0.000    0.000    4.286    5.571    4.000    2.286 
#    0.000    2.143    0.000    0.000    0.000    0.000 
#    0.000    0.000    0.000    0.000    0.000    0.000 
#
# Total GULP energy -78392.762126 kJ/mol
# GULP energy per Si atom -5599.483009 kJ/mol
# Density = 2.285448 g / cm^3
# Si number density = 22.906612 Si / 1000 Ang^3
#
#
#
# Elastic Constant Matrix: (Units=GPa)
#
#
# Indices 1 2 3 4 5 6 
#
# 1 157.1272 55.3504 61.0422 15.4656 -20.9126 19.8629
# 2 55.3504 150.7699 48.6018 11.8035 5.4564 6.1830
# 3 61.0422 48.6018 115.9381 15.4284 -28.2036 -0.8816
# 4 15.4656 11.8035 15.4284 43.3428 -5.2292 -7.5707
# 5 -20.9126 5.4564 -28.2036 -5.2292 41.0961 3.3693
# 6 19.8629 6.1830 -0.8816 -7.5707 3.3693 44.3289
#
#
#
# Elastic Compliance Matrix: (Units=1/GPa)
#
#
# Indices 1 2 3 4 5 6 
#
# 1 0.009580 -0.002289 -0.003061 -0.002132 0.003188 -0.004641
# 2 -0.002289 0.008885 -0.003594 -0.000930 -0.004924 -0.000070
# 3 -0.003061 -0.003594 0.013971 -0.001698 0.008190 0.001238
# 4 -0.002132 -0.000930 -0.001698 0.025716 0.000704 0.005390
# 5 0.003188 -0.004924 0.008190 0.000704 0.032560 -0.002933
# 6 -0.004641 -0.000070 0.001238 0.005390 -0.002933 0.025816
#
#
# Mechanical properties :
#
#
# Convention : Reuss Voigt Hill
#
# Bulk Modulus (GPa) = 68.73136 83.75823 76.24479
# Shear Modulus (GPa) = 35.90230 43.00959 39.45594
#
# Velocity S-wave (km/s) = 3.96325 4.33784 4.15477
# Velocity P-wave (km/s) = 7.14236 7.85707 7.50822
#
# Compressibility (1/GPa) = 0.01454940
#
# Stress axis : x y z
#
# Youngs Moduli (GPa) = 104.38102 112.54517 71.57448
#
# Poissons Ratio (x) = 0.25756 0.21908
# Poissons Ratio (y) = 0.23888 0.25726
# Poissons Ratio (z) = 0.31950 0.40453
#
# Static dielectric constant tensor:
#      x y z
#    x 1.850400 -0.042080 -0.015880 
#    y -0.042080 1.935960 -0.047810 
#    z -0.015880 -0.047810 1.937590 
# 
# From -- ./inp_files/186309.got.cif
#   From: 2010.05.17/outbox.cif.g08.bks.cpg/sg2_94_cif.got.tgz:186309.got - 2010.06.03 11:33:40.
