data_PCOD9070723
_publ_section_title
;
Structure prediction by ZEFSAII (Michael W. Deem and Ramdas Pophale) SiO2 
 PCOD9070723
Probable space group: P -1
;
_chemical_formula_sum "Si O2"
_cell_formula_units_Z 13
_cell_length_a 9.415386
_cell_length_b 9.120707
_cell_length_c 12.185967
_cell_angle_alpha 74.094837
_cell_angle_beta 35.397464
_cell_angle_gamma 92.931051
_cell_volume 507.255424
_symmetry_space_group_name_H-M "P -1"
_symmetry_group_IT_number 2
_symmetry_cell_setting 'triclinic'
loop_
_space_group_symop_operation_xyz
x,y,z
-x,-y,-z
loop_
_atom_site_type_symbol
_atom_site_label
_atom_site_fract_x
_atom_site_fract_y
_atom_site_fract_z
Si Si1 0.820391 0.604296 0.315984
Si Si2 0.500000 0.000000 0.500000
Si Si3 0.841085 0.344605 0.219454
Si Si4 0.299742 0.936825 0.883894
Si Si5 0.718914 0.822491 0.741067
Si Si6 0.218604 0.435108 0.408834
Si Si7 0.757098 0.791508 0.981720
O O1 0.500000 0.500000 0.500000
O O2 0.905657 0.454323 0.267413
O O3 0.879630 0.659868 0.393047
O O4 0.987274 0.772924 0.099664
O O5 0.528101 0.201336 0.412231
O O6 0.555394 0.975548 0.338399
O O7 0.935079 0.193465 0.202647
O O8 0.000000 0.500000 0.000000
O O9 0.464320 0.847493 0.854101
O O10 0.279618 0.070152 0.952697
O O11 0.742569 0.672812 0.690563
O O12 0.702518 0.798334 0.886599
O O13 0.000000 0.000000 0.500000
O O14 0.000000 0.500000 0.500000
O O15 0.525535 0.599730 0.205577
#
# Coordination Sequence:
#
# PCOD9070723 Si02
#       7
#     2   1   2   2   2   2   2
#     4  12  27  47  77 111 161 208 263 324 400 473
#     4  12  28  46  78 106 162 200 268 312 400 470
#     4  12  26  49  73 111 156 206 263 318 393 471
#     4  12  27  49  77 117 157 209 266 330 401 477
#     4  12  25  48  79 112 155 202 264 331 402 471
#     4  12  25  45  75 113 150 206 263 323 397 474
#     4  12  26  48  77 112 154 204 264 327 398 477
#
# _framework density 25.628115999999999
#
# number of rings (size 3 to 8) (size 9 to 14) (size 15 to 20)
#    0.000    0.000    1.538    8.308    4.308    0.615 
#    0.000    0.000    0.000    0.000    0.000    0.000 
#    0.000    0.000    0.000    0.000    0.000    0.000 
#
# Total GULP energy -72722.596127 kJ/mol
# GULP energy per Si atom -5594.045856 kJ/mol
# Density = 2.556979 g / cm^3
# Si number density = 25.628116 Si / 1000 Ang^3
#
#
#
# Elastic Constant Matrix: (Units=GPa)
#
#
# Indices 1 2 3 4 5 6 
#
# 1 126.8936 57.1176 30.8710 41.4834 25.9626 -2.4408
# 2 57.1176 241.3608 49.7206 28.4217 15.6868 32.0954
# 3 30.8710 49.7206 131.4868 -3.7224 28.7411 7.7845
# 4 41.4834 28.4217 -3.7224 61.4334 6.0349 -3.7190
# 5 25.9626 15.6868 28.7411 6.0349 54.3284 9.0295
# 6 -2.4408 32.0954 7.7845 -3.7190 9.0295 49.6378
#
#
#
# Elastic Compliance Matrix: (Units=1/GPa)
#
#
# Indices 1 2 3 4 5 6 
#
# 1 0.012242 -0.001761 -0.001652 -0.007020 -0.004056 0.002211
# 2 -0.001761 0.005562 -0.001733 -0.001810 0.000972 -0.003724
# 3 -0.001652 -0.001733 0.009622 0.002945 -0.004214 0.000518
# 4 -0.007020 -0.001810 0.002945 0.022211 -0.000500 0.002119
# 5 -0.004056 0.000972 -0.004214 -0.000500 0.023081 -0.004403
# 6 0.002211 -0.003724 0.000518 0.002119 -0.004403 0.023541
#
#
# Mechanical properties :
#
#
# Convention : Reuss Voigt Hill
#
# Bulk Modulus (GPa) = 58.35761 86.12887 72.24324
# Shear Modulus (GPa) = 44.53853 57.21539 50.87696
#
# Velocity S-wave (km/s) = 4.17331 4.73009 4.46039
# Velocity P-wave (km/s) = 6.78545 7.96943 7.40115
#
# Compressibility (1/GPa) = 0.01713573
#
# Stress axis : x y z
#
# Youngs Moduli (GPa) = 81.68446 179.79139 103.92506
#
# Poissons Ratio (x) = 0.31656 0.17164
# Poissons Ratio (y) = 0.14382 0.18012
# Poissons Ratio (z) = 0.13491 0.31161
#
# Static dielectric constant tensor:
#      x y z
#    x 2.073300 -0.019820 0.165630 
#    y -0.019820 2.128110 0.218200 
#    z 0.165630 0.218200 1.742420 
# 
# From -- ./inp_files/381564.got.cif
#   From: 2010.05.17/outbox.cif.g08.bks.cpg/sg2_191_cif.got.tgz:381564.got - 2010.06.03 11:33:40.
