data_PCOD9070506
_publ_section_title
;
Structure prediction by ZEFSAII (Michael W. Deem and Ramdas Pophale) SiO2 
 PCOD9070506
Probable space group: P -1
;
_chemical_formula_sum "Si O2"
_cell_formula_units_Z 16
_cell_length_a 6.730988
_cell_length_b 23.048651
_cell_length_c 9.288127
_cell_angle_alpha 133.023097
_cell_angle_beta 130.246427
_cell_angle_gamma 76.556017
_cell_volume 745.941212
_symmetry_space_group_name_H-M "P -1"
_symmetry_group_IT_number 2
_symmetry_cell_setting 'triclinic'
loop_
_space_group_symop_operation_xyz
x,y,z
-x,-y,-z
loop_
_atom_site_type_symbol
_atom_site_label
_atom_site_fract_x
_atom_site_fract_y
_atom_site_fract_z
Si Si1 0.623349 0.565520 0.038531
Si Si2 0.107541 0.649735 0.581094
Si Si3 0.278170 0.163706 0.379466
Si Si4 0.660795 0.172972 0.070590
Si Si5 0.686328 0.947752 0.053775
Si Si6 0.321061 0.059063 0.490047
Si Si7 0.764966 0.339063 0.014210
Si Si8 0.197107 0.476773 0.250383
O O1 0.831914 0.645029 0.359221
O O2 0.500000 0.500000 0.000000
O O3 0.392483 0.596122 0.914365
O O4 0.767477 0.535171 0.923733
O O5 0.338105 0.731659 0.752652
O O6 0.097461 0.665466 0.773791
O O7 0.122085 0.558666 0.395384
O O8 0.266897 0.087321 0.353982
O O9 0.970727 0.170586 0.236232
O O10 0.534482 0.249946 0.697265
O O11 0.333865 0.128632 0.193957
O O12 0.450120 0.100089 0.946715
O O13 0.526368 0.145960 0.805694
O O14 0.009806 0.010739 0.325503
O O15 0.500000 0.000000 0.000000
O O16 0.500000 0.000000 0.500000
O O17 0.985651 0.390105 0.080217
O O18 0.500000 0.500000 0.500000
#
# Coordination Sequence:
#
# PCOD9070506 Si02
#       8
#     2   2   2   2   2   2   2   2
#     4  12  25  44  75 100 139 193 243 291 358 426
#     4  12  25  47  70 104 146 189 241 298 360 429
#     4  12  26  47  73 108 146 184 241 312 363 434
#     4  12  26  46  73 109 144 187 246 304 366 440
#     4  12  26  47  78 104 146 193 244 302 372 447
#     4  12  24  49  75 102 145 193 238 296 377 440
#     4  12  26  47  72 103 146 193 239 300 362 426
#     4  12  26  47  73 105 147 195 245 297 357 433
#
# _framework density 21.449411999999999
#
# number of rings (size 3 to 8) (size 9 to 14) (size 15 to 20)
#    0.000    0.000    7.500    3.000    1.750    0.000 
#    6.750    0.000    0.000    0.000    0.000    0.000 
#    0.000    0.000    0.000    0.000    0.000    0.000 
#
# Total GULP energy -89260.787254 kJ/mol
# GULP energy per Si atom -5578.799203 kJ/mol
# Density = 2.140059 g / cm^3
# Si number density = 21.449412 Si / 1000 Ang^3
#
#
#
# Elastic Constant Matrix: (Units=GPa)
#
#
# Indices 1 2 3 4 5 6 
#
# 1 93.1449 33.1401 42.3245 -0.9576 11.2077 3.1521
# 2 33.1401 75.6804 34.0835 2.8064 2.9440 3.5834
# 3 42.3245 34.0835 132.2733 -3.9898 9.5922 3.8648
# 4 -0.9576 2.8064 -3.9898 46.3268 6.2853 2.4589
# 5 11.2077 2.9440 9.5922 6.2853 34.8544 -6.6979
# 6 3.1521 3.5834 3.8648 2.4589 -6.6979 27.0398
#
#
#
# Elastic Compliance Matrix: (Units=1/GPa)
#
#
# Indices 1 2 3 4 5 6 
#
# 1 0.014312 -0.004719 -0.003007 0.000935 -0.003862 -0.001655
# 2 -0.004719 0.016626 -0.002864 -0.001440 0.000995 -0.000866
# 3 -0.003007 -0.002864 0.009467 0.001241 -0.001850 -0.001194
# 4 0.000935 -0.001440 0.001241 0.022700 -0.005280 -0.003468
# 5 -0.003862 0.000995 -0.001850 -0.005280 0.033089 0.009259
# 6 -0.001655 -0.000866 -0.001194 -0.003468 0.009259 0.040070
#
#
# Mechanical properties :
#
#
# Convention : Reuss Voigt Hill
#
# Bulk Modulus (GPa) = 52.01861 57.79940 54.90900
# Shear Modulus (GPa) = 30.51561 34.41423 32.46492
#
# Velocity S-wave (km/s) = 3.77593 4.00989 3.89467
# Velocity P-wave (km/s) = 6.58139 6.96019 6.77344
#
# Compressibility (1/GPa) = 0.01922389
#
# Stress axis : x y z
#
# Youngs Moduli (GPa) = 69.87381 60.14843 105.63303
#
# Poissons Ratio (x) = 0.28383 0.31762
# Poissons Ratio (y) = 0.32972 0.30257
# Poissons Ratio (z) = 0.21010 0.17228
#
# Static dielectric constant tensor:
#      x y z
#    x 1.801440 -0.015010 0.042150 
#    y -0.015010 1.807510 0.062760 
#    z 0.042150 0.062760 2.104350 
# 
# From -- ./inp_files/142706.got.cif
#   From: 2010.05.17/outbox.cif.g08.bks.cpg/sg2_72_cif.got.tgz:142706.got - 2010.06.03 11:33:40.
