data_PCOD9070245
_publ_section_title
;
Structure prediction by ZEFSAII (Michael W. Deem and Ramdas Pophale) SiO2 
 PCOD9070245
Probable space group: P -1
;
_chemical_formula_sum "Si O2"
_cell_formula_units_Z 16
_cell_length_a 8.014738
_cell_length_b 18.347391
_cell_length_c 11.406844
_cell_angle_alpha 134.838156
_cell_angle_beta 134.941151
_cell_angle_gamma 78.397086
_cell_volume 678.770014
_symmetry_space_group_name_H-M "P -1"
_symmetry_group_IT_number 2
_symmetry_cell_setting 'triclinic'
loop_
_space_group_symop_operation_xyz
x,y,z
-x,-y,-z
loop_
_atom_site_type_symbol
_atom_site_label
_atom_site_fract_x
_atom_site_fract_y
_atom_site_fract_z
Si Si1 0.455432 0.258564 0.716113
Si Si2 0.228795 0.975875 0.641323
Si Si3 0.053205 0.281670 0.657127
Si Si4 0.760674 0.999045 0.799574
Si Si5 0.196237 0.271715 0.219282
Si Si6 0.300898 0.551673 0.146277
Si Si7 0.821899 0.351573 0.220178
Si Si8 0.443388 0.767537 0.796293
O O1 0.154779 0.244845 0.550669
O O2 0.407753 0.132492 0.504781
O O3 0.678373 0.380110 0.886454
O O4 0.538087 0.287208 0.925376
O O5 0.509558 0.005073 0.741574
O O6 0.060612 0.830320 0.433400
O O7 0.000000 0.000000 0.500000
O O8 0.365567 0.079200 0.931187
O O9 0.781875 0.278545 0.473388
O O10 0.293901 0.427592 0.980364
O O11 0.000000 0.000000 0.000000
O O12 0.959288 0.122863 0.958724
O O13 0.431552 0.341583 0.520206
O O14 0.359139 0.280600 0.191452
O O15 0.022420 0.331963 0.214711
O O16 0.000000 0.500000 0.000000
O O17 0.719909 0.283906 0.218987
O O18 0.000000 0.500000 0.500000
#
# Coordination Sequence:
#
# PCOD9070245 Si02
#       8
#     2   2   2   2   2   2   2   2
#     4  12  26  46  79 110 151 204 254 327 389 456
#     4  12  27  47  78 116 160 197 257 333 392 465
#     4  12  24  46  77 109 150 200 260 318 390 468
#     4  12  24  49  80 114 154 201 265 322 395 467
#     4  12  26  47  79 107 156 202 255 322 388 467
#     4  12  24  48  74 113 146 196 265 316 384 468
#     4  12  28  50  72 111 163 204 254 317 391 464
#     4  12  25  49  74 110 154 203 262 314 388 470
#
# _framework density 23.572047999999999
#
# number of rings (size 3 to 8) (size 9 to 14) (size 15 to 20)
#    0.000    0.000    3.750    6.750    1.750    1.000 
#    2.250    0.000    0.000    0.000    0.000    0.000 
#    0.000    0.000    0.000    0.000    0.000    0.000 
#
# Total GULP energy -89504.034753 kJ/mol
# GULP energy per Si atom -5594.002172 kJ/mol
# Density = 2.351840 g / cm^3
# Si number density = 23.572048 Si / 1000 Ang^3
#
#
#
# Elastic Constant Matrix: (Units=GPa)
#
#
# Indices 1 2 3 4 5 6 
#
# 1 132.1101 25.3042 42.6329 12.6065 0.6270 -35.9798
# 2 25.3042 95.7071 52.5404 20.7589 -6.9829 -4.6487
# 3 42.6329 52.5404 88.4330 19.4652 -9.7522 0.5329
# 4 12.6065 20.7589 19.4652 40.9152 -10.3885 -4.5631
# 5 0.6270 -6.9829 -9.7522 -10.3885 45.9784 8.4659
# 6 -35.9798 -4.6487 0.5329 -4.5631 8.4659 41.2225
#
#
#
# Elastic Compliance Matrix: (Units=1/GPa)
#
#
# Indices 1 2 3 4 5 6 
#
# 1 0.013246 0.000998 -0.007342 -0.000729 -0.004056 0.012522
# 2 0.000998 0.016264 -0.009370 -0.004049 -0.000918 0.002567
# 3 -0.007342 -0.009370 0.021638 -0.003213 0.004190 -0.008960
# 4 -0.000729 -0.004049 -0.003213 0.029701 0.005209 0.001167
# 5 -0.004056 -0.000918 0.004190 0.005209 0.025261 -0.008309
# 6 0.012522 0.002567 -0.008960 0.001167 -0.008309 0.037429
#
#
# Mechanical properties :
#
#
# Convention : Reuss Voigt Hill
#
# Bulk Modulus (GPa) = 50.70461 61.91167 56.30814
# Shear Modulus (GPa) = 27.54229 38.67475 33.10852
#
# Velocity S-wave (km/s) = 3.42194 4.05495 3.75182
# Velocity P-wave (km/s) = 6.09673 6.94589 6.53512
#
# Compressibility (1/GPa) = 0.01972207
#
# Stress axis : x y z
#
# Youngs Moduli (GPa) = 75.49234 61.48460 46.21585
#
# Poissons Ratio (x) = -0.06138 0.33929
# Poissons Ratio (y) = -0.07537 0.43304
# Poissons Ratio (z) = 0.55423 0.57610
#
# Static dielectric constant tensor:
#      x y z
#    x 1.985520 -0.198350 0.152840 
#    y -0.198350 2.269480 -0.306300 
#    z 0.152840 -0.306300 2.097450 
# 
# From -- ./inp_files/403290.got.cif
#   From: 2010.05.17/outbox.cif.g08.bks.cpg/sg2_202_cif.got.tgz:403290.got - 2010.06.03 11:33:40.
