data_PCOD9070040
_publ_section_title
;
Structure prediction by ZEFSAII (Michael W. Deem and Ramdas Pophale) SiO2 
 PCOD9070040
Probable space group: P -1
;
_chemical_formula_sum "Si O2"
_cell_formula_units_Z 13
_cell_length_a 11.727830
_cell_length_b 13.226140
_cell_length_c 9.242630
_cell_angle_alpha 95.569309
_cell_angle_beta 118.487034
_cell_angle_gamma 137.444616
_cell_volume 559.459900
_symmetry_space_group_name_H-M "P -1"
_symmetry_group_IT_number 2
_symmetry_cell_setting 'triclinic'
loop_
_space_group_symop_operation_xyz
x,y,z
-x,-y,-z
loop_
_atom_site_type_symbol
_atom_site_label
_atom_site_fract_x
_atom_site_fract_y
_atom_site_fract_z
Si Si1 0.540359 0.148614 0.028469
Si Si2 0.600520 0.875989 0.743600
Si Si3 0.820094 0.924500 0.249788
Si Si4 0.368496 0.299836 0.436110
Si Si5 0.931820 0.413004 0.786089
Si Si6 0.500000 0.500000 0.000000
Si Si7 0.142479 0.352841 0.000286
O O1 0.523323 0.187303 0.182121
O O2 0.837248 0.377017 0.155829
O O3 0.288161 0.036871 0.778619
O O4 0.500000 0.000000 0.000000
O O5 0.616917 0.769881 0.694135
O O6 0.383920 0.777154 0.485099
O O7 0.914471 0.145769 0.946252
O O8 0.548471 0.658702 0.034226
O O9 0.000000 0.000000 0.500000
O O10 0.047512 0.086628 0.278137
O O11 0.500000 0.500000 0.500000
O O12 0.581812 0.411925 0.710119
O O13 0.980807 0.327468 0.812103
O O14 0.000000 0.500000 0.000000
O O15 0.262280 0.352567 0.964095
#
# Coordination Sequence:
#
# PCOD9070040 Si02
#       7
#     2   2   2   2   2   1   2
#     4  12  29  50  76 116 157 199 256 316 394 462
#     4  12  28  48  77 109 157 203 242 327 388 451
#     4  12  26  49  79 110 153 200 257 319 377 457
#     4  12  27  44  76 110 154 194 252 317 388 455
#     4  12  25  49  77 105 147 206 258 307 379 467
#     4  12  24  44  76 112 142 196 260 318 372 436
#     4  12  25  48  73 112 147 198 263 312 375 463
#
# _framework density 23.236698000000001
#
# number of rings (size 3 to 8) (size 9 to 14) (size 15 to 20)
#    0.000    0.000    6.154    2.769    4.308    2.462 
#    0.000    0.000    0.000    0.000    0.000    0.000 
#    0.000    0.000    0.000    0.000    0.000    0.000 
#
# Total GULP energy -72560.651038 kJ/mol
# GULP energy per Si atom -5581.588541 kJ/mol
# Density = 2.318381 g / cm^3
# Si number density = 23.236698 Si / 1000 Ang^3
#
#
#
# Elastic Constant Matrix: (Units=GPa)
#
#
# Indices 1 2 3 4 5 6 
#
# 1 135.6931 44.9241 21.1510 6.3617 -2.6113 -3.2156
# 2 44.9241 154.3878 15.9476 21.0266 -0.1890 -1.7257
# 3 21.1510 15.9476 67.8397 -2.9164 19.7384 4.0290
# 4 6.3617 21.0266 -2.9164 39.2707 -0.4624 6.8977
# 5 -2.6113 -0.1890 19.7384 -0.4624 28.5588 -4.2449
# 6 -3.2156 -1.7257 4.0290 6.8977 -4.2449 62.8364
#
#
#
# Elastic Compliance Matrix: (Units=1/GPa)
#
#
# Indices 1 2 3 4 5 6 
#
# 1 0.008671 -0.002093 -0.003194 -0.000638 0.003106 0.000871
# 2 -0.002093 0.007833 -0.001729 -0.004101 0.001100 0.000743
# 3 -0.003194 -0.001729 0.020853 0.003330 -0.015099 -0.002934
# 4 -0.000638 -0.004101 0.003330 0.028626 -0.002468 -0.003668
# 5 0.003106 0.001100 -0.015099 -0.002468 0.046380 0.004561
# 6 0.000871 0.000743 -0.002934 -0.003668 0.004561 0.016878
#
#
# Mechanical properties :
#
#
# Convention : Reuss Voigt Hill
#
# Bulk Modulus (GPa) = 42.87315 57.99624 50.43470
# Shear Modulus (GPa) = 33.10201 44.52638 38.81419
#
# Velocity S-wave (km/s) = 3.77843 4.38220 4.09147
# Velocity P-wave (km/s) = 6.12585 7.11463 6.63867
#
# Compressibility (1/GPa) = 0.02332462
#
# Stress axis : x y z
#
# Youngs Moduli (GPa) = 115.33265 127.66590 47.95379
#
# Poissons Ratio (x) = 0.26716 0.15317
# Poissons Ratio (y) = 0.24135 0.08293
# Poissons Ratio (z) = 0.36839 0.22078
#
# Static dielectric constant tensor:
#      x y z
#    x 1.855020 -0.020940 -0.002090 
#    y -0.020940 1.871490 -0.046000 
#    z -0.002090 -0.046000 1.956760 
# 
# From -- ./inp_files/188121.got.cif
#   From: 2010.05.17/outbox.cif.g08.bks.cpg/sg2_95_cif.got.tgz:188121.got - 2010.06.03 11:33:40.
