data_PCOD9070403
_publ_section_title
;
Structure prediction by ZEFSAII (Michael W. Deem and Ramdas Pophale) SiO2 
 PCOD9070403
Probable space group: P -1
;
_chemical_formula_sum "Si O2"
_cell_formula_units_Z 12
_cell_length_a 12.777329
_cell_length_b 8.896218
_cell_length_c 9.244204
_cell_angle_alpha 109.243177
_cell_angle_beta 142.052071
_cell_angle_gamma 92.665800
_cell_volume 518.195923
_symmetry_space_group_name_H-M "P -1"
_symmetry_group_IT_number 2
_symmetry_cell_setting 'triclinic'
loop_
_space_group_symop_operation_xyz
x,y,z
-x,-y,-z
loop_
_atom_site_type_symbol
_atom_site_label
_atom_site_fract_x
_atom_site_fract_y
_atom_site_fract_z
Si Si1 0.557424 0.688869 0.038283
Si Si2 0.514040 0.460961 0.668983
Si Si3 0.307922 0.804682 0.179585
Si Si4 0.071361 0.917587 0.425711
Si Si5 0.944245 0.798147 0.930902
Si Si6 0.174578 0.697365 0.689010
O O1 0.614845 0.649954 0.931712
O O2 0.355269 0.687337 0.817384
O O3 0.500000 0.500000 0.000000
O O4 0.727856 0.889607 0.348509
O O5 0.500000 0.500000 0.500000
O O6 0.625689 0.348166 0.783604
O O7 0.278254 0.341456 0.416135
O O8 0.112069 0.756668 0.044028
O O9 0.500000 0.000000 0.500000
O O10 0.257235 0.823145 0.963851
O O11 0.950550 0.813686 0.116943
O O12 0.107691 0.777277 0.513102
O O13 0.000000 0.000000 0.500000
O O14 0.000000 0.000000 0.000000
O O15 0.000000 0.500000 0.500000
#
# Coordination Sequence:
#
# PCOD9070403 Si02
#       6
#     2   2   2   2   2   2
#     4  12  24  48  71 104 145 186 239 294 359 426
#     4  12  28  45  73 107 145 187 238 301 359 426
#     4  12  26  48  76 103 146 190 241 298 362 425
#     4  12  27  46  76 105 144 191 239 296 362 426
#     4  12  25  48  75 105 143 189 243 297 358 430
#     4  12  27  48  74 106 144 190 242 298 356 431
#
# _framework density 23.157266
#
# number of rings (size 3 to 8) (size 9 to 14) (size 15 to 20)
#    0.000    0.000    3.333    6.500    7.000    0.667 
#    0.000    0.000    0.000    0.000    0.000    0.000 
#    0.000    0.000    0.000    0.000    0.000    0.000 
#
# Total GULP energy -67165.948026 kJ/mol
# GULP energy per Si atom -5597.162335 kJ/mol
# Density = 2.310456 g / cm^3
# Si number density = 23.157266 Si / 1000 Ang^3
#
#
#
# Elastic Constant Matrix: (Units=GPa)
#
#
# Indices 1 2 3 4 5 6 
#
# 1 129.6383 23.3154 29.1135 -21.2391 -2.7795 -20.5970
# 2 23.3154 73.3278 33.7483 -15.3962 2.6838 8.7011
# 3 29.1135 33.7483 128.0579 4.4743 -7.9915 -2.4389
# 4 -21.2391 -15.3962 4.4743 48.3038 7.2242 -1.6748
# 5 -2.7795 2.6838 -7.9915 7.2242 63.1066 -15.2686
# 6 -20.5970 8.7011 -2.4389 -1.6748 -15.2686 47.7681
#
#
#
# Elastic Compliance Matrix: (Units=1/GPa)
#
#
# Indices 1 2 3 4 5 6 
#
# 1 0.009948 -0.002259 -0.001632 0.003814 0.001128 0.005112
# 2 -0.002259 0.018604 -0.004914 0.005724 -0.003507 -0.005534
# 3 -0.001632 -0.004914 0.009748 -0.003453 0.002064 0.001228
# 4 0.003814 0.005724 -0.003453 0.025028 -0.003319 0.000242
# 5 0.001128 -0.003507 0.002064 -0.003319 0.018377 0.006988
# 6 0.005112 -0.005534 0.001228 0.000242 0.006988 0.026451
#
#
# Mechanical properties :
#
#
# Convention : Reuss Voigt Hill
#
# Bulk Modulus (GPa) = 48.33114 55.93092 52.13103
# Shear Modulus (GPa) = 37.68981 48.15883 42.92432
#
# Velocity S-wave (km/s) = 4.03868 4.56526 4.31002
# Velocity P-wave (km/s) = 6.53177 7.21068 6.87960
#
# Compressibility (1/GPa) = 0.02069059
#
# Stress axis : x y z
#
# Youngs Moduli (GPa) = 100.52653 53.75168 102.58871
#
# Poissons Ratio (x) = 0.12143 0.16739
# Poissons Ratio (y) = 0.22710 0.50408
# Poissons Ratio (z) = 0.16403 0.26411
#
# Static dielectric constant tensor:
#      x y z
#    x 1.922150 -0.012240 0.003780 
#    y -0.012240 1.833080 0.049310 
#    z 0.003780 0.049310 1.886190 
# 
# From -- ./inp_files/148543.got.cif
#   From: 2010.05.17/outbox.cif.g08.bks.cpg/sg2_75_cif.got.tgz:148543.got - 2010.06.03 11:33:40.
