data_PCOD9070650
_publ_section_title
;
Structure prediction by ZEFSAII (Michael W. Deem and Ramdas Pophale) SiO2 
 PCOD9070650
Probable space group: P -1
;
_chemical_formula_sum "Si O2"
_cell_formula_units_Z 15
_cell_length_a 6.719371
_cell_length_b 19.542649
_cell_length_c 25.984785
_cell_angle_alpha 18.222235
_cell_angle_beta 133.338798
_cell_angle_gamma 143.360294
_cell_volume 581.789894
_symmetry_space_group_name_H-M "P -1"
_symmetry_group_IT_number 2
_symmetry_cell_setting 'triclinic'
loop_
_space_group_symop_operation_xyz
x,y,z
-x,-y,-z
loop_
_atom_site_type_symbol
_atom_site_label
_atom_site_fract_x
_atom_site_fract_y
_atom_site_fract_z
Si Si1 0.530550 0.786611 0.130069
Si Si2 0.289349 0.719089 0.626299
Si Si3 0.684400 0.479185 0.434742
Si Si4 0.500000 0.500000 0.500000
Si Si5 0.549210 0.037880 0.111003
Si Si6 0.334248 0.295420 0.067386
Si Si7 0.300073 0.509892 0.111109
Si Si8 0.475929 0.929413 0.391875
O O1 0.798824 0.762937 0.223324
O O2 0.126270 0.477798 0.288399
O O3 0.613459 0.888361 0.013495
O O4 0.500000 0.000000 0.000000
O O5 0.450374 0.559729 0.775805
O O6 0.500000 0.000000 0.500000
O O7 0.350206 0.802108 0.517469
O O8 0.463630 0.433355 0.478621
O O9 0.000000 0.500000 0.500000
O O10 0.510284 0.247352 0.523081
O O11 0.397275 0.713403 0.319824
O O12 0.971365 0.221246 0.037249
O O13 0.590982 0.197268 0.056549
O O14 0.217857 0.985863 0.282595
O O15 0.500000 0.500000 0.000000
O O16 0.636782 0.451954 0.965710
O O17 0.884829 0.241555 0.244966
#
# Coordination Sequence:
#
# PCOD9070650 Si02
#       8
#     2   2   2   1   2   2   2   2
#     4  12  27  51  78 113 158 216 262 320 406 474
#     4  12  26  50  82 117 161 206 262 334 409 479
#     4  12  29  51  76 115 160 205 271 326 389 478
#     4  12  28  48  78 106 154 210 260 330 392 456
#     4  12  26  50  75 112 156 208 268 325 397 480
#     4  12  25  44  72 111 157 198 254 321 393 459
#     4  12  25  49  78 117 153 206 262 329 399 484
#     4  12  26  45  80 117 157 205 266 326 402 475
#
# _framework density 25.782502999999998
#
# number of rings (size 3 to 8) (size 9 to 14) (size 15 to 20)
#    0.000    0.000    4.000    5.600    5.600    1.067 
#    0.000    2.000    0.000    0.000    0.000    0.000 
#    0.000    0.000    0.000    0.000    0.000    0.000 
#
# Total GULP energy -83923.266370 kJ/mol
# GULP energy per Si atom -5594.884425 kJ/mol
# Density = 2.572382 g / cm^3
# Si number density = 25.782503 Si / 1000 Ang^3
#
#
#
# Elastic Constant Matrix: (Units=GPa)
#
#
# Indices 1 2 3 4 5 6 
#
# 1 146.1895 63.3511 69.6910 2.8465 12.3171 -30.1082
# 2 63.3511 109.6231 61.1154 16.7158 2.4348 -20.4541
# 3 69.6910 61.1154 150.1058 25.5639 12.2510 -17.5655
# 4 2.8465 16.7158 25.5639 67.6203 -8.1445 5.0446
# 5 12.3171 2.4348 12.2510 -8.1445 67.2054 4.7782
# 6 -30.1082 -20.4541 -17.5655 5.0446 4.7782 75.0457
#
#
#
# Elastic Compliance Matrix: (Units=1/GPa)
#
#
# Indices 1 2 3 4 5 6 
#
# 1 0.010724 -0.004193 -0.003134 0.001441 -0.001239 0.002408
# 2 -0.004193 0.013932 -0.003238 -0.002093 0.000496 0.001466
# 3 -0.003134 -0.003238 0.010164 -0.003142 -0.001581 0.000551
# 4 0.001441 -0.002093 -0.003142 0.016894 0.002576 -0.002027
# 5 -0.001239 0.000496 -0.001581 0.002576 0.015825 -0.001913
# 6 0.002408 0.001466 0.000551 -0.002027 -0.001913 0.015078
#
#
# Mechanical properties :
#
#
# Convention : Reuss Voigt Hill
#
# Bulk Modulus (GPa) = 73.04953 88.24816 80.64884
# Shear Modulus (GPa) = 46.16306 56.09166 51.12736
#
# Velocity S-wave (km/s) = 4.23600 4.66936 4.45795
# Velocity P-wave (km/s) = 7.23321 7.96070 7.60566
#
# Compressibility (1/GPa) = 0.01368934
#
# Stress axis : x y z
#
# Youngs Moduli (GPa) = 93.25058 71.77568 98.38489
#
# Poissons Ratio (x) = 0.30094 0.30837
# Poissons Ratio (y) = 0.39098 0.31860
# Poissons Ratio (z) = 0.29227 0.23243
#
# Static dielectric constant tensor:
#      x y z
#    x 1.006490 0.284190 0.945180 
#    y 0.284190 1.750590 -0.214980 
#    z 0.945180 -0.214980 1.127490 
# 
# From -- ./inp_files/604986.got.cif
#   From: 2010.05.17/outbox.cif.g08.bks.cpg/sg2_303_cif.got.tgz:604986.got - 2010.06.03 11:33:40.
