data_PCOD9070261
_publ_section_title
;
Structure prediction by ZEFSAII (Michael W. Deem and Ramdas Pophale) SiO2 
 PCOD9070261
Probable space group: P -1
;
_chemical_formula_sum "Si O2"
_cell_formula_units_Z 15
_cell_length_a 10.154899
_cell_length_b 9.532833
_cell_length_c 8.528673
_cell_angle_alpha 83.262201
_cell_angle_beta 97.272341
_cell_angle_gamma 121.491227
_cell_volume 697.076971
_symmetry_space_group_name_H-M "P -1"
_symmetry_group_IT_number 2
_symmetry_cell_setting 'triclinic'
loop_
_space_group_symop_operation_xyz
x,y,z
-x,-y,-z
loop_
_atom_site_type_symbol
_atom_site_label
_atom_site_fract_x
_atom_site_fract_y
_atom_site_fract_z
Si Si1 0.647536 0.769673 0.411998
Si Si2 0.260372 0.222753 0.218278
Si Si3 0.674268 0.421607 0.769698
Si Si4 0.827791 0.682157 0.215406
Si Si5 0.103424 0.655510 0.387000
Si Si6 0.000000 0.000000 0.000000
Si Si7 0.641963 0.082015 0.386586
Si Si8 0.417409 0.687973 0.882721
O O1 0.680785 0.789928 0.598001
O O2 0.473689 0.629757 0.356659
O O3 0.765895 0.729513 0.351916
O O4 0.660764 0.938397 0.332564
O O5 0.246761 0.385559 0.204244
O O6 0.100710 0.057732 0.173127
O O7 0.405645 0.259020 0.126366
O O8 0.787995 0.379212 0.702525
O O9 0.617061 0.320388 0.936643
O O10 0.693832 0.498591 0.170945
O O11 0.984022 0.681429 0.266976
O O12 0.869545 0.820702 0.074250
O O13 0.210027 0.802790 0.500422
O O14 0.000000 0.500000 0.500000
O O15 0.617051 0.190125 0.239255
O O16 0.500000 0.000000 0.500000
#
# Coordination Sequence:
#
# PCOD9070261 Si02
#       8
#     2   2   2   2   2   1   2   2
#     4  12  26  46  82 107 144 199 259 296 370 448
#     4  12  24  46  78 111 148 195 252 311 367 451
#     4  12  25  45  78 112 143 203 250 304 375 446
#     4  12  27  49  73 110 149 197 244 312 370 443
#     4  12  26  47  73 108 153 194 249 309 373 439
#     4  12  28  46  70 108 160 182 244 320 370 424
#     4  12  25  48  72 112 148 194 247 310 366 448
#     4  12  25  48  78 105 153 197 248 306 375 448
#
# _framework density 21.518426000000002
#
# number of rings (size 3 to 8) (size 9 to 14) (size 15 to 20)
#    0.000    0.000    6.667    3.200    0.000    5.333 
#    0.000    0.000    0.000    0.000    0.000    0.000 
#    0.000    0.000    0.000    0.000    0.000    0.000 
#
# Total GULP energy -83743.250983 kJ/mol
# GULP energy per Si atom -5582.883399 kJ/mol
# Density = 2.146945 g / cm^3
# Si number density = 21.518426 Si / 1000 Ang^3
#
#
#
# Elastic Constant Matrix: (Units=GPa)
#
#
# Indices 1 2 3 4 5 6 
#
# 1 95.0370 14.9187 25.7012 12.5515 -0.5952 -3.0367
# 2 14.9187 121.1734 23.5531 13.2011 7.9214 15.9415
# 3 25.7012 23.5531 107.4243 -6.9952 0.8088 4.5698
# 4 12.5515 13.2011 -6.9952 48.3030 6.5908 8.9366
# 5 -0.5952 7.9214 0.8088 6.5908 30.3241 10.0297
# 6 -3.0367 15.9415 4.5698 8.9366 10.0297 33.7389
#
#
#
# Elastic Compliance Matrix: (Units=1/GPa)
#
#
# Indices 1 2 3 4 5 6 
#
# 1 0.012106 -0.000863 -0.003088 -0.003943 0.000469 0.002820
# 2 -0.000863 0.009437 -0.001826 -0.001846 -0.000860 -0.003545
# 3 -0.003088 -0.001826 0.010727 0.003170 0.000007 -0.001710
# 4 -0.003943 -0.001846 0.003170 0.024113 -0.003146 -0.005363
# 5 0.000469 -0.000860 0.000007 -0.003146 0.037121 -0.009754
# 6 0.002820 -0.003545 -0.001710 -0.005363 -0.009754 0.036120
#
#
# Mechanical properties :
#
#
# Convention : Reuss Voigt Hill
#
# Bulk Modulus (GPa) = 48.26479 50.22007 49.24243
# Shear Modulus (GPa) = 33.76499 39.77065 36.76782
#
# Velocity S-wave (km/s) = 3.96551 4.30375 4.13809
# Velocity P-wave (km/s) = 6.59130 6.93435 6.76500
#
# Compressibility (1/GPa) = 0.02071904
#
# Stress axis : x y z
#
# Youngs Moduli (GPa) = 82.60074 105.96111 93.22243
#
# Poissons Ratio (x) = 0.09139 0.28784
# Poissons Ratio (y) = 0.07124 0.17020
# Poissons Ratio (z) = 0.25504 0.19346
#
# Static dielectric constant tensor:
#      x y z
#    x 1.700670 -0.058210 -0.014470 
#    y -0.058210 1.755640 -0.068080 
#    z -0.014470 -0.068080 1.792460 
# 
# From -- ./inp_files/158089.got.cif
#   From: 2010.05.17/outbox.cif.g08.bks.cpg/sg2_80_cif.got.tgz:158089.got - 2010.06.03 11:33:40.
