data_PCOD9070208
_publ_section_title
;
Structure prediction by ZEFSAII (Michael W. Deem and Ramdas Pophale) SiO2 
 PCOD9070208
Probable space group: P -1
;
_chemical_formula_sum "Si O2"
_cell_formula_units_Z 12
_cell_length_a 8.868732
_cell_length_b 9.728332
_cell_length_c 9.996139
_cell_angle_alpha 73.063599
_cell_angle_beta 66.947413
_cell_angle_gamma 44.124760
_cell_volume 552.435949
_symmetry_space_group_name_H-M "P -1"
_symmetry_group_IT_number 2
_symmetry_cell_setting 'triclinic'
loop_
_space_group_symop_operation_xyz
x,y,z
-x,-y,-z
loop_
_atom_site_type_symbol
_atom_site_label
_atom_site_fract_x
_atom_site_fract_y
_atom_site_fract_z
Si Si1 0.609550 0.304740 0.359989
Si Si2 0.446466 0.894017 0.135989
Si Si3 0.261567 0.347500 0.656468
Si Si4 0.128848 0.116221 0.681402
Si Si5 0.642206 0.358637 0.866504
Si Si6 0.974122 0.782950 0.620368
O O1 0.448500 0.326122 0.517737
O O2 0.466019 0.501653 0.266596
O O3 0.815596 0.261481 0.372706
O O4 0.709768 0.116637 0.286896
O O5 0.660288 0.719271 0.199955
O O6 0.375206 0.801480 0.098579
O O7 0.246746 0.049507 0.265372
O O8 0.500000 0.000000 0.000000
O O9 0.241706 0.201850 0.641922
O O10 0.035290 0.577170 0.658918
O O11 0.904124 0.242764 0.811587
O O12 0.058562 0.149523 0.540151
O O13 0.500000 0.500000 0.000000
#
# Coordination Sequence:
#
# PCOD9070208 Si02
#       6
#     2   2   2   2   2   2
#     4  12  24  46  75 103 140 183 238 286 348 413
#     4  12  29  48  71 103 144 187 232 290 351 416
#     4  12  26  43  75 110 139 182 235 291 346 413
#     4  12  26  43  75 110 139 182 235 291 346 413
#     4  12  29  48  71 103 144 187 232 290 351 416
#     4  12  24  46  75 103 140 183 238 286 348 413
#
# _framework density 21.721972999999998
#
# number of rings (size 3 to 8) (size 9 to 14) (size 15 to 20)
#    0.000    0.000    6.667    3.000    4.667    2.667 
#    0.000    0.000    0.000    0.000    0.000    0.000 
#    0.000    0.000    0.000    0.000    0.000    0.000 
#
# Total GULP energy -67257.447671 kJ/mol
# GULP energy per Si atom -5604.787306 kJ/mol
# Density = 2.167253 g / cm^3
# Si number density = 21.721973 Si / 1000 Ang^3
#
#
#
# Elastic Constant Matrix: (Units=GPa)
#
#
# Indices 1 2 3 4 5 6 
#
# 1 44.3129 -0.5061 8.2465 -10.1562 -13.0926 18.9133
# 2 -0.5061 104.0037 4.9441 10.3818 -21.1277 11.4355
# 3 8.2465 4.9441 88.5829 7.3549 -25.8203 1.9034
# 4 -10.1562 10.3818 7.3549 45.8717 3.9621 -3.4092
# 5 -13.0926 -21.1277 -25.8203 3.9621 23.1857 -4.2465
# 6 18.9133 11.4355 1.9034 -3.4092 -4.2465 36.2604
#
#
#
# Elastic Compliance Matrix: (Units=1/GPa)
#
#
# Indices 1 2 3 4 5 6 
#
# 1 0.040303 0.008663 0.005675 0.001713 0.033012 -0.020025
# 2 0.008663 0.016129 0.006692 -0.005655 0.026659 -0.007366
# 3 0.005675 0.006692 0.020554 -0.006603 0.032783 -0.002931
# 4 0.001713 -0.005655 -0.006603 0.026007 -0.015645 0.001850
# 5 0.033012 0.026659 0.032783 -0.015645 0.122598 -0.014461
# 6 -0.020025 -0.007366 -0.002931 0.001850 -0.014461 0.038980
#
#
# Mechanical properties :
#
#
# Convention : Reuss Voigt Hill
#
# Bulk Modulus (GPa) = 8.40010 29.14095 18.77052
# Shear Modulus (GPa) = 19.06995 36.01123 27.54059
#
# Velocity S-wave (km/s) = 2.96617 4.07606 3.56458
# Velocity P-wave (km/s) = 3.95049 5.96631 5.05980
#
# Compressibility (1/GPa) = 0.11904621
#
# Stress axis : x y z
#
# Youngs Moduli (GPa) = 24.81217 61.99968 48.65221
#
# Poissons Ratio (x) = -0.53713 -0.27611
# Poissons Ratio (y) = -0.21496 -0.32556
# Poissons Ratio (z) = -0.14081 -0.41488
#
# Static dielectric constant tensor:
#      x y z
#    x 1.769330 0.004880 0.009500 
#    y 0.004880 1.805650 0.001080 
#    z 0.009500 0.001080 1.748010 
# 
# From -- ./inp_files/148616.got.cif
#   From: 2010.05.17/outbox.cif.g08.bks.cpg/sg2_75_cif.got.tgz:148616.got - 2010.06.03 11:33:40.
