data_PCOD9070232
_publ_section_title
;
Structure prediction by ZEFSAII (Michael W. Deem and Ramdas Pophale) SiO2 
 PCOD9070232
Probable space group: P -1
;
_chemical_formula_sum "Si O2"
_cell_formula_units_Z 16
_cell_length_a 12.445380
_cell_length_b 9.088084
_cell_length_c 7.729815
_cell_angle_alpha 64.289245
_cell_angle_beta 111.214715
_cell_angle_gamma 122.359292
_cell_volume 655.665967
_symmetry_space_group_name_H-M "P -1"
_symmetry_group_IT_number 2
_symmetry_cell_setting 'triclinic'
loop_
_space_group_symop_operation_xyz
x,y,z
-x,-y,-z
loop_
_atom_site_type_symbol
_atom_site_label
_atom_site_fract_x
_atom_site_fract_y
_atom_site_fract_z
Si Si1 0.286793 0.116124 0.339647
Si Si2 0.086491 0.248657 0.261893
Si Si3 0.503391 0.515901 0.283971
Si Si4 0.173716 0.835644 0.716258
Si Si5 0.215813 0.411713 0.628369
Si Si6 0.255336 0.764782 0.328116
Si Si7 0.604853 0.206065 0.934926
Si Si8 0.953284 0.577079 0.182515
O O1 0.161101 0.151536 0.257399
O O2 0.410184 0.307678 0.286192
O O3 0.265294 0.002634 0.564203
O O4 0.291743 0.972425 0.282110
O O5 0.159129 0.332468 0.444041
O O6 0.935059 0.121555 0.278121
O O7 0.088676 0.397338 0.048299
O O8 0.500000 0.500000 0.500000
O O9 0.651425 0.601097 0.265619
O O10 0.441411 0.644847 0.113886
O O11 0.084074 0.634289 0.686818
O O12 0.268467 0.789453 0.909523
O O13 0.257838 0.629566 0.546173
O O14 0.111044 0.341480 0.756510
O O15 0.356590 0.754304 0.261207
O O16 0.107126 0.681138 0.226291
O O17 0.500000 0.000000 0.000000
#
# Coordination Sequence:
#
# PCOD9070232 Si02
#       8
#     2   2   2   2   2   2   2   2
#     4  12  27  45  75 113 153 197 255 314 383 450
#     4  12  25  47  76 112 152 198 256 317 382 448
#     4  12  25  50  76 106 153 209 250 309 387 454
#     4  12  24  46  76 110 149 203 253 312 380 453
#     4  12  25  47  83 106 154 209 248 313 384 450
#     4  12  24  48  75 113 154 196 254 319 376 451
#     4  12  28  50  79 108 149 204 258 305 384 464
#     4  12  25  47  78 116 150 200 258 316 379 449
#
# _framework density 24.402667999999998
#
# number of rings (size 3 to 8) (size 9 to 14) (size 15 to 20)
#    0.000    0.000    6.250    4.125    0.000    3.000 
#    0.000    1.875    2.750    0.000    0.000    0.000 
#    0.000    0.000    0.000    0.000    0.000    0.000 
#
# Total GULP energy -89506.988322 kJ/mol
# GULP energy per Si atom -5594.186770 kJ/mol
# Density = 2.434713 g / cm^3
# Si number density = 24.402668 Si / 1000 Ang^3
#
#
#
# Elastic Constant Matrix: (Units=GPa)
#
#
# Indices 1 2 3 4 5 6 
#
# 1 146.3711 18.4546 19.9543 9.9897 13.6368 0.2279
# 2 18.4546 95.8858 1.5776 -12.8108 14.0589 -2.2928
# 3 19.9543 1.5776 54.2526 -12.7937 2.0332 -2.3848
# 4 9.9897 -12.8108 -12.7937 24.3053 0.8974 0.6329
# 5 13.6368 14.0589 2.0332 0.8974 43.3446 -10.9311
# 6 0.2279 -2.2928 -2.3848 0.6329 -10.9311 33.4998
#
#
#
# Elastic Compliance Matrix: (Units=1/GPa)
#
#
# Indices 1 2 3 4 5 6 
#
# 1 0.008392 -0.002230 -0.004643 -0.006976 -0.001806 -0.000998
# 2 -0.002230 0.012580 0.002736 0.009135 -0.003781 -0.000335
# 3 -0.004643 0.002736 0.023895 0.015909 -0.000510 0.001453
# 4 -0.006976 0.009135 0.015909 0.057305 -0.002745 -0.000173
# 5 -0.001806 -0.003781 -0.000510 -0.002745 0.027120 0.008618
# 6 -0.000998 -0.000335 0.001453 -0.000173 0.008618 0.032754
#
#
# Mechanical properties :
#
#
# Convention : Reuss Voigt Hill
#
# Bulk Modulus (GPa) = 27.32777 41.83138 34.57958
# Shear Modulus (GPa) = 27.39463 37.33148 32.36306
#
# Velocity S-wave (km/s) = 3.35417 3.91552 3.64567
# Velocity P-wave (km/s) = 5.12090 6.13361 5.64999
#
# Compressibility (1/GPa) = 0.03659281
#
# Stress axis : x y z
#
# Youngs Moduli (GPa) = 119.16160 79.49068 41.84980
#
# Poissons Ratio (x) = 0.17724 0.19430
# Poissons Ratio (y) = 0.26570 -0.11448
# Poissons Ratio (z) = 0.55326 -0.21745
#
# Static dielectric constant tensor:
#      x y z
#    x 1.967990 -0.010620 0.015610 
#    y -0.010620 2.004760 0.078190 
#    z 0.015610 0.078190 2.029720 
# 
# From -- ./inp_files/242660.got.cif
#   From: 2010.05.17/outbox.cif.g08.bks.cpg/sg2_122_cif.got.tgz:242660.got - 2010.06.03 11:33:40.
