data_PCOD9070889
_publ_section_title
;
Structure prediction by ZEFSAII (Michael W. Deem and Ramdas Pophale) SiO2 
 PCOD9070889
Probable space group: P -1
;
_chemical_formula_sum "Si O2"
_cell_formula_units_Z 12
_cell_length_a 25.483851
_cell_length_b 14.069844
_cell_length_c 5.546854
_cell_angle_alpha 136.580550
_cell_angle_beta 44.385561
_cell_angle_gamma 160.667053
_cell_volume 448.796948
_symmetry_space_group_name_H-M "P -1"
_symmetry_group_IT_number 2
_symmetry_cell_setting 'triclinic'
loop_
_space_group_symop_operation_xyz
x,y,z
-x,-y,-z
loop_
_atom_site_type_symbol
_atom_site_label
_atom_site_fract_x
_atom_site_fract_y
_atom_site_fract_z
Si Si1 0.428041 0.431532 0.861963
Si Si2 0.869605 0.889488 0.119674
Si Si3 0.330463 0.790269 0.756708
Si Si4 0.275612 0.429673 0.499681
Si Si5 0.918431 0.516949 0.352818
Si Si6 0.806448 0.180939 0.507868
O O1 0.500000 0.500000 0.500000
O O2 0.255265 0.073860 0.781198
O O3 0.500000 0.500000 0.000000
O O4 0.424804 0.590362 0.194138
O O5 0.740696 0.655528 0.329971
O O6 0.840472 0.801347 0.773102
O O7 0.940986 0.159184 0.406534
O O8 0.000000 0.000000 0.000000
O O9 0.287040 0.612880 0.789567
O O10 0.176759 0.537333 0.616242
O O11 0.500000 0.000000 0.500000
O O12 0.308101 0.916834 0.120993
O O13 0.783613 0.238378 0.455679
O O14 0.000000 0.500000 0.000000
O O15 0.000000 0.500000 0.500000
#
# Coordination Sequence:
#
# PCOD9070889 Si02
#       6
#     2   2   2   2   2   2
#     4  12  29  53  80 115 164 216 265 331 412 486
#     4  12  25  47  77 110 153 196 260 333 394 461
#     4  12  29  49  75 112 161 207 259 329 406 475
#     4  12  27  48  76 111 155 204 261 324 398 475
#     4  12  26  46  79 113 151 201 265 331 394 474
#     4  12  27  50  85 115 156 212 278 332 393 485
#
# _framework density 26.738150999999998
#
# number of rings (size 3 to 8) (size 9 to 14) (size 15 to 20)
#    0.000    0.000    3.333    5.500    7.000    0.667 
#    0.000    0.000    0.000    0.000    0.000    0.000 
#    0.000    0.000    0.000    0.000    0.000    0.000 
#
# Total GULP energy -66811.601317 kJ/mol
# GULP energy per Si atom -5567.633443 kJ/mol
# Density = 2.667729 g / cm^3
# Si number density = 26.738151 Si / 1000 Ang^3
#
#
#
# Elastic Constant Matrix: (Units=GPa)
#
#
# Indices 1 2 3 4 5 6 
#
# 1 129.7753 34.8962 28.9187 3.9220 -14.5282 17.3840
# 2 34.8962 98.8126 30.3039 -5.0116 -6.6689 -3.6732
# 3 28.9187 30.3039 134.2745 -17.0510 -28.2429 11.3306
# 4 3.9220 -5.0116 -17.0510 48.0294 -7.8417 -6.9735
# 5 -14.5282 -6.6689 -28.2429 -7.8417 60.6600 -5.7354
# 6 17.3840 -3.6732 11.3306 -6.9735 -5.7354 48.7126
#
#
#
# Elastic Compliance Matrix: (Units=1/GPa)
#
#
# Indices 1 2 3 4 5 6 
#
# 1 0.009417 -0.003164 -0.001078 -0.001856 0.000833 -0.003516
# 2 -0.003164 0.012046 -0.002122 0.001150 -0.000018 0.002693
# 3 -0.001078 -0.002122 0.009661 0.003880 0.004418 -0.000947
# 4 -0.001856 0.001150 0.003880 0.023832 0.004932 0.003839
# 5 0.000833 -0.000018 0.004418 0.004932 0.019537 0.001680
# 6 -0.003516 0.002693 -0.000947 0.003839 0.001680 0.022954
#
#
# Mechanical properties :
#
#
# Convention : Reuss Voigt Hill
#
# Bulk Modulus (GPa) = 54.36149 61.23333 57.79741
# Shear Modulus (GPa) = 42.99038 49.39663 46.19351
#
# Velocity S-wave (km/s) = 4.01412 4.30283 4.16098
# Velocity P-wave (km/s) = 6.46989 6.90193 6.68940
#
# Compressibility (1/GPa) = 0.01839537
#
# Stress axis : x y z
#
# Youngs Moduli (GPa) = 106.19220 83.01852 103.51424
#
# Poissons Ratio (x) = 0.26264 0.11157
# Poissons Ratio (y) = 0.33596 0.21968
# Poissons Ratio (z) = 0.11446 0.17619
#
# Static dielectric constant tensor:
#      x y z
#    x 1.356740 1.347020 1.081380 
#    y 1.347020 0.187430 -1.337960 
#    z 1.081380 -1.337960 1.703230 
# 
# From -- ./inp_files/127279.got.cif
#   From: 2010.05.17/outbox.cif.g08.bks.cpg/sg2_64_cif.got.tgz:127279.got - 2010.06.03 11:33:40.
