data_PCOD9070951
_publ_section_title
;
Structure prediction by ZEFSAII (Michael W. Deem and Ramdas Pophale) SiO2 
 PCOD9070951
Probable space group: P -1
;
_chemical_formula_sum "Si O2"
_cell_formula_units_Z 16
_cell_length_a 8.832036
_cell_length_b 18.222037
_cell_length_c 9.795499
_cell_angle_alpha 127.910876
_cell_angle_beta 137.766870
_cell_angle_gamma 77.248180
_cell_volume 750.052730
_symmetry_space_group_name_H-M "P -1"
_symmetry_group_IT_number 2
_symmetry_cell_setting 'triclinic'
loop_
_space_group_symop_operation_xyz
x,y,z
-x,-y,-z
loop_
_atom_site_type_symbol
_atom_site_label
_atom_site_fract_x
_atom_site_fract_y
_atom_site_fract_z
Si Si1 0.117861 0.754348 0.318611
Si Si2 0.801273 0.025776 0.479091
Si Si3 0.781718 0.338976 0.242049
Si Si4 0.645244 0.575973 0.303586
Si Si5 0.561855 0.567613 0.753905
Si Si6 0.546403 0.268338 0.710235
Si Si7 0.729420 0.148482 0.175316
Si Si8 0.134563 0.063487 0.295960
O O1 0.119803 0.853870 0.356603
O O2 0.264341 0.713410 0.266556
O O3 0.256580 0.799248 0.607101
O O4 0.838766 0.663328 0.052002
O O5 0.820545 0.998094 0.618513
O O6 0.000000 0.000000 0.500000
O O7 0.527234 0.953268 0.148514
O O8 0.635904 0.386539 0.292029
O O9 0.752382 0.233194 0.173739
O O10 0.074312 0.410026 0.498426
O O11 0.668604 0.320618 0.994050
O O12 0.486885 0.518002 0.261744
O O13 0.644932 0.686202 0.409879
O O14 0.500000 0.500000 0.000000
O O15 0.500000 0.500000 0.500000
O O16 0.398099 0.148688 0.513388
O O17 0.961588 0.118202 0.294002
O O18 0.000000 0.000000 0.000000
#
# Coordination Sequence:
#
# PCOD9070951 Si02
#       8
#     2   2   2   2   2   2   2   2
#     4  12  28  47  73 110 151 192 246 301 366 437
#     4  12  26  47  76 105 151 194 237 298 367 432
#     4  12  25  49  76 103 148 188 241 306 359 432
#     4  12  26  47  77 101 140 193 243 297 362 425
#     4  12  28  48  73 110 146 192 245 303 368 430
#     4  12  27  48  72 109 144 190 244 298 362 431
#     4  12  25  48  74 108 147 194 239 303 366 431
#     4  12  27  46  74 110 147 192 245 293 360 440
#
# _framework density 21.331834000000001
#
# number of rings (size 3 to 8) (size 9 to 14) (size 15 to 20)
#    0.000    0.000    5.000    4.500    7.000    2.500 
#    0.000    0.000    0.000    0.000    0.000    0.000 
#    0.000    0.000    0.000    0.000    0.000    0.000 
#
# Total GULP energy -89538.806666 kJ/mol
# GULP energy per Si atom -5596.175417 kJ/mol
# Density = 2.128328 g / cm^3
# Si number density = 21.331834 Si / 1000 Ang^3
#
#
#
# Elastic Constant Matrix: (Units=GPa)
#
#
# Indices 1 2 3 4 5 6 
#
# 1 133.3645 15.5313 59.0453 -8.0076 -7.3142 8.5733
# 2 15.5313 54.2878 24.0978 -15.5692 0.9903 19.6996
# 3 59.0453 24.0978 137.0546 2.8778 -2.9976 20.4836
# 4 -8.0076 -15.5692 2.8778 30.8837 7.0887 1.4110
# 5 -7.3142 0.9903 -2.9976 7.0887 46.9466 0.5461
# 6 8.5733 19.6996 20.4836 1.4110 0.5461 46.2566
#
#
#
# Elastic Compliance Matrix: (Units=1/GPa)
#
#
# Indices 1 2 3 4 5 6 
#
# 1 0.009542 -0.000202 -0.004119 0.002561 0.000841 0.000053
# 2 -0.000202 0.028795 -0.003735 0.016044 -0.003172 -0.011024
# 3 -0.004119 -0.003735 0.010128 -0.003964 0.000706 -0.002018
# 4 0.002561 0.016044 -0.003964 0.043339 -0.006658 -0.006795
# 5 0.000841 -0.003172 0.000706 -0.006658 0.022539 0.000819
# 6 0.000053 -0.011024 -0.002018 -0.006795 0.000819 0.027395
#
#
# Mechanical properties :
#
#
# Convention : Reuss Voigt Hill
#
# Bulk Modulus (GPa) = 30.90784 58.00620 44.45702
# Shear Modulus (GPa) = 29.65022 39.88621 34.76821
#
# Velocity S-wave (km/s) = 3.73225 4.32881 4.04155
# Velocity P-wave (km/s) = 5.75269 7.22745 6.53183
#
# Compressibility (1/GPa) = 0.03235425
#
# Stress axis : x y z
#
# Youngs Moduli (GPa) = 104.80419 34.72814 98.73953
#
# Poissons Ratio (x) = 0.00701 0.40666
# Poissons Ratio (y) = 0.02116 0.36875
# Poissons Ratio (z) = 0.43164 0.12970
#
# Static dielectric constant tensor:
#      x y z
#    x 1.745540 -0.013900 0.016880 
#    y -0.013900 1.783860 0.000380 
#    z 0.016880 0.000380 1.725720 
# 
# From -- ./inp_files/38620.got.cif
#   From: 2010.05.17/outbox.cif.g08.bks.cpg/sg2_20_cif.got.tgz:38620.got - 2010.06.03 11:33:40.
