data_PCOD9070606
_publ_section_title
;
Structure prediction by ZEFSAII (Michael W. Deem and Ramdas Pophale) SiO2 
 PCOD9070606
Probable space group: P -1
;
_chemical_formula_sum "Si O2"
_cell_formula_units_Z 16
_cell_length_a 11.989257
_cell_length_b 11.944484
_cell_length_c 5.227523
_cell_angle_alpha 107.251311
_cell_angle_beta 102.124222
_cell_angle_gamma 75.010789
_cell_volume 683.355627
_symmetry_space_group_name_H-M "P -1"
_symmetry_group_IT_number 2
_symmetry_cell_setting 'triclinic'
loop_
_space_group_symop_operation_xyz
x,y,z
-x,-y,-z
loop_
_atom_site_type_symbol
_atom_site_label
_atom_site_fract_x
_atom_site_fract_y
_atom_site_fract_z
Si Si1 0.831152 0.385662 0.781443
Si Si2 0.569257 0.749271 0.268319
Si Si3 0.912965 0.112187 0.154355
Si Si4 0.061176 0.268706 0.554673
Si Si5 0.219807 0.454658 0.634875
Si Si6 0.697407 0.192595 0.735289
Si Si7 0.396400 0.107900 0.113991
Si Si8 0.214261 0.025511 0.677530
O O1 0.795179 0.480589 0.600294
O O2 0.749633 0.287989 0.658620
O O3 0.967461 0.325686 0.763567
O O4 0.810258 0.450457 0.086735
O O5 0.651691 0.624628 0.305140
O O6 0.432190 0.750556 0.196538
O O7 0.605869 0.790645 0.036532
O O8 0.588496 0.842094 0.564525
O O9 0.878243 0.056398 0.363101
O O10 0.979211 0.219565 0.281573
O O11 0.793469 0.156988 0.977316
O O12 0.000000 0.000000 0.000000
O O13 0.131164 0.364202 0.551370
O O14 0.151192 0.149239 0.606021
O O15 0.693166 0.067683 0.506411
O O16 0.277184 0.061402 0.984733
O O17 0.500000 0.000000 0.000000
#
# Coordination Sequence:
#
# PCOD9070606 Si02
#       8
#     2   2   2   2   2   2   2   2
#     4  12  28  51  76 108 148 203 261 314 368 439
#     4  12  28  49  76 112 152 200 253 312 371 449
#     4  12  25  42  73 114 157 197 237 301 388 464
#     4  12  25  49  77 112 152 194 251 319 381 453
#     4  12  29  52  76 109 146 207 264 310 368 431
#     4  12  27  48  75 112 155 195 249 309 387 455
#     4  12  25  44  75 113 156 194 241 301 386 456
#     4  12  25  44  73 116 152 193 239 310 392 464
#
# _framework density 23.413869999999999
#
# number of rings (size 3 to 8) (size 9 to 14) (size 15 to 20)
#    0.000    0.000    5.000    4.500    3.500    2.000 
#    0.000    0.000    0.000    0.000    0.000    0.000 
#    0.000    0.000    0.000    0.000    0.000    0.000 
#
# Total GULP energy -89659.742724 kJ/mol
# GULP energy per Si atom -5603.733920 kJ/mol
# Density = 2.336058 g / cm^3
# Si number density = 23.413870 Si / 1000 Ang^3
#
#
#
# Elastic Constant Matrix: (Units=GPa)
#
#
# Indices 1 2 3 4 5 6 
#
# 1 127.3734 52.3476 15.8653 -3.6984 21.9190 -11.2932
# 2 52.3476 129.2671 17.1741 0.0482 4.8705 7.5863
# 3 15.8653 17.1741 70.5782 1.1976 18.9171 11.4296
# 4 -3.6984 0.0482 1.1976 34.8715 -0.7981 -8.2986
# 5 21.9190 4.8705 18.9171 -0.7981 39.6567 -0.0172
# 6 -11.2932 7.5863 11.4296 -8.2986 -0.0172 26.8144
#
#
#
# Elastic Compliance Matrix: (Units=1/GPa)
#
#
# Indices 1 2 3 4 5 6 
#
# 1 0.011659 -0.004802 -0.001393 0.003029 -0.005126 0.007797
# 2 -0.004802 0.010037 -0.001045 -0.001614 0.001885 -0.004915
# 3 -0.001393 -0.001045 0.018392 -0.003126 -0.007942 -0.009103
# 4 0.003029 -0.001614 -0.003126 0.032226 0.000669 0.013039
# 5 -0.005126 0.001885 -0.007942 0.000669 0.031621 0.000921
# 6 0.007797 -0.004915 -0.009103 0.013039 0.000921 0.049884
#
#
# Mechanical properties :
#
#
# Convention : Reuss Voigt Hill
#
# Bulk Modulus (GPa) = 39.04799 55.33250 47.19025
# Shear Modulus (GPa) = 28.27512 36.39063 32.33287
#
# Velocity S-wave (km/s) = 3.47886 3.94665 3.72012
# Velocity P-wave (km/s) = 5.73150 6.66722 6.21699
#
# Compressibility (1/GPa) = 0.02560951
#
# Stress axis : x y z
#
# Youngs Moduli (GPa) = 85.76892 99.62744 54.37175
#
# Poissons Ratio (x) = 0.47842 0.07571
# Poissons Ratio (y) = 0.41187 0.05682
# Poissons Ratio (z) = 0.11943 0.10411
#
# Static dielectric constant tensor:
#      x y z
#    x 1.909770 -0.007370 -0.027880 
#    y -0.007370 1.881830 0.001480 
#    z -0.027880 0.001480 1.914770 
# 
# From -- ./inp_files/71977.got.cif
#   From: 2010.05.17/outbox.cif.g08.bks.cpg/sg2_36_cif.got.tgz:71977.got - 2010.06.03 11:33:40.
