data_PCOD9070260
_publ_section_title
;
Structure prediction by ZEFSAII (Michael W. Deem and Ramdas Pophale) SiO2 
 PCOD9070260
Probable space group: P -1
;
_chemical_formula_sum "Si O2"
_cell_formula_units_Z 13
_cell_length_a 9.686860
_cell_length_b 9.273396
_cell_length_c 13.824797
_cell_angle_alpha 45.016909
_cell_angle_beta 141.535917
_cell_angle_gamma 132.636004
_cell_volume 524.296807
_symmetry_space_group_name_H-M "P -1"
_symmetry_group_IT_number 2
_symmetry_cell_setting 'triclinic'
loop_
_space_group_symop_operation_xyz
x,y,z
-x,-y,-z
loop_
_atom_site_type_symbol
_atom_site_label
_atom_site_fract_x
_atom_site_fract_y
_atom_site_fract_z
Si Si1 0.791685 0.010523 0.949304
Si Si2 0.030276 0.813064 0.673204
Si Si3 0.654907 0.460984 0.369622
Si Si4 0.386144 0.670492 0.813377
Si Si5 0.047845 0.102487 0.710780
Si Si6 0.216435 0.551638 0.168577
Si Si7 0.500000 0.000000 0.500000
O O1 0.562110 0.900827 0.816944
O O2 0.789454 0.238197 0.878049
O O3 0.822536 0.881449 0.123676
O O4 0.000000 0.000000 0.000000
O O5 0.170295 0.680473 0.753835
O O6 0.814226 0.635274 0.680960
O O7 0.140032 0.946545 0.765541
O O8 0.000000 0.000000 0.500000
O O9 0.633217 0.370056 0.291419
O O10 0.882634 0.659489 0.408356
O O11 0.447658 0.561829 0.232161
O O12 0.611567 0.235045 0.505528
O O13 0.500000 0.500000 0.000000
O O14 0.772474 0.000869 0.622518
O O15 0.000000 0.500000 0.000000
#
# Coordination Sequence:
#
# PCOD9070260 Si02
#       7
#     2   2   2   2   2   2   1
#     4  12  25  45  75 115 145 201 263 325 387 463
#     4  12  27  49  73 114 158 207 257 326 391 470
#     4  12  26  47  76 111 149 208 250 322 390 469
#     4  12  25  45  76 110 155 195 265 316 385 472
#     4  12  26  48  79 105 156 205 260 324 400 460
#     4  12  24  46  78 109 154 203 264 323 389 466
#     4  12  24  48  68 108 146 200 256 310 388 470
#
# _framework density 24.795114999999999
#
# number of rings (size 3 to 8) (size 9 to 14) (size 15 to 20)
#    0.000    0.000    4.615    6.000    0.000    1.231 
#    2.769    1.538    0.000    0.000    0.000    0.000 
#    0.000    0.000    0.000    0.000    0.000    0.000 
#
# Total GULP energy -72536.589672 kJ/mol
# GULP energy per Si atom -5579.737667 kJ/mol
# Density = 2.473868 g / cm^3
# Si number density = 24.795115 Si / 1000 Ang^3
#
#
#
# Elastic Constant Matrix: (Units=GPa)
#
#
# Indices 1 2 3 4 5 6 
#
# 1 168.6516 42.6158 46.7557 9.9276 24.6572 -29.8697
# 2 42.6158 162.9586 11.2613 -10.0142 6.1814 -15.7195
# 3 46.7557 11.2613 68.9646 -21.7172 7.8376 -4.6423
# 4 9.9276 -10.0142 -21.7172 39.9614 -2.8639 8.0495
# 5 24.6572 6.1814 7.8376 -2.8639 36.4317 -11.7588
# 6 -29.8697 -15.7195 -4.6423 8.0495 -11.7588 56.2914
#
#
#
# Elastic Compliance Matrix: (Units=1/GPa)
#
#
# Indices 1 2 3 4 5 6 
#
# 1 0.011248 -0.002236 -0.009535 -0.009867 -0.004323 0.005066
# 2 -0.002236 0.006842 0.001295 0.002904 0.000468 0.000513
# 3 -0.009535 0.001295 0.025991 0.017860 0.000426 -0.005020
# 4 -0.009867 0.002904 0.017860 0.039733 0.002874 -0.008033
# 5 -0.004323 0.000468 0.000426 0.002874 0.031750 0.004094
# 6 0.005066 0.000513 -0.005020 -0.008033 0.004094 0.022186
#
#
# Mechanical properties :
#
#
# Convention : Reuss Voigt Hill
#
# Bulk Modulus (GPa) = 43.23900 66.87116 55.05508
# Shear Modulus (GPa) = 30.04552 46.53302 38.28927
#
# Velocity S-wave (km/s) = 3.48480 4.33679 3.93393
# Velocity P-wave (km/s) = 5.80242 7.21838 6.54879
#
# Compressibility (1/GPa) = 0.02312727
#
# Stress axis : x y z
#
# Youngs Moduli (GPa) = 88.90520 146.15427 38.47426
#
# Poissons Ratio (x) = 0.32684 0.36687
# Poissons Ratio (y) = 0.19882 -0.04981
# Poissons Ratio (z) = 0.84775 -0.18922
#
# Static dielectric constant tensor:
#      x y z
#    x 1.807390 0.247580 -0.279060 
#    y 0.247580 4.766520 -1.690650 
#    z -0.279060 -1.690650 2.895230 
# 
# From -- ./inp_files/159468.got.cif
#   From: 2010.05.17/outbox.cif.g08.bks.cpg/sg2_80_cif.got.tgz:159468.got - 2010.06.03 11:33:40.
