data_PCOD9070716
_publ_section_title
;
Structure prediction by ZEFSAII (Michael W. Deem and Ramdas Pophale) SiO2 
 PCOD9070716
Probable space group: P -1
;
_chemical_formula_sum "Si O2"
_cell_formula_units_Z 16
_cell_length_a 8.570324
_cell_length_b 11.061736
_cell_length_c 9.326776
_cell_angle_alpha 124.924407
_cell_angle_beta 93.321160
_cell_angle_gamma 98.560989
_cell_volume 705.624476
_symmetry_space_group_name_H-M "P -1"
_symmetry_group_IT_number 2
_symmetry_cell_setting 'triclinic'
loop_
_space_group_symop_operation_xyz
x,y,z
-x,-y,-z
loop_
_atom_site_type_symbol
_atom_site_label
_atom_site_fract_x
_atom_site_fract_y
_atom_site_fract_z
Si Si1 0.885518 0.022335 0.136339
Si Si2 0.624567 0.204468 0.269481
Si Si3 0.860774 0.605307 0.218956
Si Si4 0.436428 0.670931 0.947770
Si Si5 0.418461 0.968845 0.318429
Si Si6 0.217599 0.324486 0.039187
Si Si7 0.881416 0.462936 0.603829
Si Si8 0.114316 0.089576 0.445888
O O1 0.751851 0.112742 0.152015
O O2 0.806196 0.855806 0.077210
O O3 0.999505 0.111471 0.325179
O O4 0.000000 0.000000 0.000000
O O5 0.543905 0.262527 0.167817
O O6 0.508372 0.091905 0.292265
O O7 0.725248 0.343791 0.460983
O O8 0.727339 0.454570 0.138877
O O9 0.799840 0.748697 0.376505
O O10 0.022639 0.600923 0.308785
O O11 0.883519 0.633534 0.070342
O O12 0.595803 0.608967 0.940904
O O13 0.427205 0.805177 0.148093
O O14 0.238671 0.992034 0.337733
O O15 0.500000 0.000000 0.500000
O O16 0.166317 0.391378 0.228966
O O17 0.000000 0.500000 0.500000
O O18 0.000000 0.000000 0.500000
#
# Coordination Sequence:
#
# PCOD9070716 Si02
#       8
#     2   2   2   2   2   2   2   2
#     4  12  25  45  75 105 144 193 252 302 363 432
#     4  12  26  50  73 108 149 195 248 306 370 439
#     4  12  27  48  75 109 148 193 246 306 369 438
#     4  12  28  49  74 109 153 191 246 301 374 444
#     4  12  28  46  76 108 148 196 247 306 368 438
#     4  12  28  46  74 106 149 197 243 306 369 438
#     4  12  27  49  73 110 150 194 245 304 370 436
#     4  12  26  47  74 107 144 190 246 301 364 436
#
# _framework density 22.674948000000001
#
# number of rings (size 3 to 8) (size 9 to 14) (size 15 to 20)
#    0.000    0.000    5.000    4.125    7.000    0.500 
#    0.000    0.000    0.000    0.000    0.000    0.000 
#    0.000    0.000    0.000    0.000    0.000    0.000 
#
# Total GULP energy -89696.800083 kJ/mol
# GULP energy per Si atom -5606.050005 kJ/mol
# Density = 2.262334 g / cm^3
# Si number density = 22.674948 Si / 1000 Ang^3
#
#
#
# Elastic Constant Matrix: (Units=GPa)
#
#
# Indices 1 2 3 4 5 6 
#
# 1 75.8925 -6.4097 22.8897 -1.2707 -5.7771 -1.4394
# 2 -6.4097 59.8495 32.2002 0.1508 9.5499 5.1938
# 3 22.8897 32.2002 149.8421 11.0563 0.5500 6.8080
# 4 -1.2707 0.1508 11.0563 37.1041 -3.6279 4.4163
# 5 -5.7771 9.5499 0.5500 -3.6279 38.9958 -2.5186
# 6 -1.4394 5.1938 6.8080 4.4163 -2.5186 40.0351
#
#
#
# Elastic Compliance Matrix: (Units=1/GPa)
#
#
# Indices 1 2 3 4 5 6 
#
# 1 0.014469 0.002818 -0.002957 0.001457 0.001669 0.000602
# 2 0.002818 0.020515 -0.004817 0.001260 -0.004561 -0.002167
# 3 -0.002957 -0.004817 0.008369 -0.002468 0.000355 -0.000610
# 4 0.001457 0.001260 -0.002468 0.028283 0.002401 -0.002660
# 5 0.001669 -0.004561 0.000355 0.002401 0.027359 0.002048
# 6 0.000602 -0.002167 -0.000610 -0.002660 0.002048 0.025807
#
#
# Mechanical properties :
#
#
# Convention : Reuss Voigt Hill
#
# Bulk Modulus (GPa) = 29.90257 42.54940 36.22599
# Shear Modulus (GPa) = 34.27954 39.02060 36.65007
#
# Velocity S-wave (km/s) = 3.89238 4.15284 4.02472
# Velocity P-wave (km/s) = 5.78074 6.46532 6.13259
#
# Compressibility (1/GPa) = 0.03344194
#
# Stress axis : x y z
#
# Youngs Moduli (GPa) = 69.11207 48.74578 119.48839
#
# Poissons Ratio (x) = -0.13738 0.35331
# Poissons Ratio (y) = -0.19477 0.57555
# Poissons Ratio (z) = 0.20436 0.23480
#
# Static dielectric constant tensor:
#      x y z
#    x 1.809880 -0.014170 0.026900 
#    y -0.014170 1.834680 0.025160 
#    z 0.026900 0.025160 1.805610 
# 
# From -- ./inp_files/190840.got.cif
#   From: 2010.05.17/outbox.cif.g08.bks.cpg/sg2_96_cif.got.tgz:190840.got - 2010.06.03 11:33:40.
