data_PCOD9070081
_publ_section_title
;
Structure prediction by ZEFSAII (Michael W. Deem and Ramdas Pophale) SiO2 
 PCOD9070081
Probable space group: P -1
;
_chemical_formula_sum "Si O2"
_cell_formula_units_Z 16
_cell_length_a 13.485757
_cell_length_b 9.714005
_cell_length_c 28.247048
_cell_angle_alpha 36.181992
_cell_angle_beta 154.923009
_cell_angle_gamma 151.157224
_cell_volume 754.869545
_symmetry_space_group_name_H-M "P -1"
_symmetry_group_IT_number 2
_symmetry_cell_setting 'triclinic'
loop_
_space_group_symop_operation_xyz
x,y,z
-x,-y,-z
loop_
_atom_site_type_symbol
_atom_site_label
_atom_site_fract_x
_atom_site_fract_y
_atom_site_fract_z
Si Si1 0.761757 0.773753 0.143899
Si Si2 0.214182 0.796160 0.036127
Si Si3 0.221511 0.318897 0.524807
Si Si4 0.830641 0.371651 0.413547
Si Si5 0.908667 0.691380 0.030642
Si Si6 0.179593 0.478823 0.275277
Si Si7 0.267886 0.716191 0.354028
Si Si8 0.795171 0.888589 0.232693
O O1 0.823991 0.943002 0.173416
O O2 0.987329 0.695173 0.256522
O O3 0.427027 0.507966 0.073282
O O4 0.801751 0.966359 0.063126
O O5 0.524434 0.867455 0.142187
O O6 0.109486 0.748993 0.057225
O O7 0.000000 0.500000 0.000000
O O8 0.500909 0.345868 0.656684
O O9 0.318241 0.535972 0.462545
O O10 0.057189 0.383366 0.473108
O O11 0.000000 0.000000 0.500000
O O12 0.757108 0.590472 0.304380
O O13 0.000000 0.500000 0.500000
O O14 0.543419 0.047722 0.381021
O O15 0.978554 0.544952 0.142314
O O16 0.000000 0.000000 0.000000
O O17 0.207395 0.577202 0.314268
O O18 0.055843 0.149803 0.302424
#
# Coordination Sequence:
#
# PCOD9070081 Si02
#       8
#     2   2   2   2   2   2   2   2
#     4  12  26  49  72 107 152 191 247 301 362 432
#     4  12  24  45  73 100 147 196 240 296 362 428
#     4  12  28  51  79 106 149 194 244 307 367 439
#     4  12  29  50  77 111 146 193 246 305 373 436
#     4  12  29  46  73 110 149 196 250 299 364 437
#     4  12  28  47  77 111 148 193 249 302 369 437
#     4  12  28  50  77 109 149 192 245 305 366 440
#     4  12  26  47  74 109 150 193 245 304 367 437
#
# _framework density 21.195716000000001
#
# number of rings (size 3 to 8) (size 9 to 14) (size 15 to 20)
#    0.000    0.000    5.000    3.750   10.500    2.000 
#    0.000    0.000    0.000    0.000    0.000    0.000 
#    0.000    0.000    0.000    0.000    0.000    0.000 
#
# Total GULP energy -89567.581937 kJ/mol
# GULP energy per Si atom -5597.973871 kJ/mol
# Density = 2.114747 g / cm^3
# Si number density = 21.195716 Si / 1000 Ang^3
#
#
#
# Elastic Constant Matrix: (Units=GPa)
#
#
# Indices 1 2 3 4 5 6 
#
# 1 148.2381 40.8412 39.7061 8.0058 -3.0863 -17.0871
# 2 40.8412 127.6415 19.1276 16.9291 -5.0214 -18.2998
# 3 39.7061 19.1276 85.9137 20.0124 13.6341 -3.8520
# 4 8.0058 16.9291 20.0124 37.1148 1.8658 -0.1223
# 5 -3.0863 -5.0214 13.6341 1.8658 38.4127 1.5599
# 6 -17.0871 -18.2998 -3.8520 -0.1223 1.5599 34.6705
#
#
#
# Elastic Compliance Matrix: (Units=1/GPa)
#
#
# Indices 1 2 3 4 5 6 
#
# 1 0.008609 -0.001837 -0.003957 0.001038 0.001693 0.002761
# 2 -0.001837 0.009624 -0.000427 -0.003815 0.001283 0.004056
# 3 -0.003957 -0.000427 0.016193 -0.007394 -0.005756 -0.000143
# 4 0.001038 -0.003815 -0.007394 0.032402 0.000726 -0.002242
# 5 0.001693 0.001283 -0.005756 0.000726 0.028361 -0.000401
# 6 0.002761 0.004056 -0.000143 -0.002242 -0.000401 0.032339
#
#
# Mechanical properties :
#
#
# Convention : Reuss Voigt Hill
#
# Bulk Modulus (GPa) = 45.48571 62.34925 53.91748
# Shear Modulus (GPa) = 33.94497 39.51417 36.72957
#
# Velocity S-wave (km/s) = 4.00622 4.32238 4.16730
# Velocity P-wave (km/s) = 6.55028 7.37499 6.97483
#
# Compressibility (1/GPa) = 0.02198493
#
# Stress axis : x y z
#
# Youngs Moduli (GPa) = 116.15351 103.90657 61.75653
#
# Poissons Ratio (x) = 0.19087 0.24435
# Poissons Ratio (y) = 0.21337 0.02636
# Poissons Ratio (z) = 0.45958 0.04435
#
# Static dielectric constant tensor:
#      x y z
#    x 1.743660 -0.007620 0.008880 
#    y -0.007620 1.753580 -0.029410 
#    z 0.008880 -0.029410 1.783130 
# 
# From -- ./inp_files/139396.got.cif
#   From: 2010.05.17/outbox.cif.g08.bks.cpg/sg2_70_cif.got.tgz:139396.got - 2010.06.03 11:33:40.
