data_PCOD9070547
_publ_section_title
;
Structure prediction by ZEFSAII (Michael W. Deem and Ramdas Pophale) SiO2 
 PCOD9070547
Probable space group: P -1
;
_chemical_formula_sum "Si O2"
_cell_formula_units_Z 10
_cell_length_a 13.067650
_cell_length_b 7.540150
_cell_length_c 11.635651
_cell_angle_alpha 133.032464
_cell_angle_beta 32.723518
_cell_angle_gamma 142.176815
_cell_volume 379.508655
_symmetry_space_group_name_H-M "P -1"
_symmetry_group_IT_number 2
_symmetry_cell_setting 'triclinic'
loop_
_space_group_symop_operation_xyz
x,y,z
-x,-y,-z
loop_
_atom_site_type_symbol
_atom_site_label
_atom_site_fract_x
_atom_site_fract_y
_atom_site_fract_z
Si Si1 0.232389 0.678881 0.289601
Si Si2 0.539220 0.306467 0.464433
Si Si3 0.692000 0.964871 0.028060
Si Si4 0.266705 0.160041 0.326493
Si Si5 0.973849 0.128308 0.195292
O O1 0.000000 0.500000 0.500000
O O2 0.433676 0.700575 0.181091
O O3 0.307694 0.993477 0.315455
O O4 0.144745 0.472331 0.170764
O O5 0.500000 0.500000 0.500000
O O6 0.697898 0.218688 0.210712
O O7 0.631971 0.510893 0.581064
O O8 0.291687 0.019060 0.598062
O O9 0.902627 0.947836 0.857832
O O10 0.673441 0.924270 0.888959
O O11 0.000000 0.000000 0.500000
O O12 0.000000 0.000000 0.000000
#
# Coordination Sequence:
#
# PCOD9070547 Si02
#       5
#     2   2   2   2   2
#     4  12  24  50  74 112 155 194 249 315 376 446
#     4  12  26  50  76 114 151 196 258 308 373 461
#     4  12  27  51  79 106 158 203 249 312 380 452
#     4  12  28  49  81 112 151 206 253 306 382 457
#     4  12  29  48  77 112 151 198 257 315 379 445
#
# _framework density 26.34986
#
# number of rings (size 3 to 8) (size 9 to 14) (size 15 to 20)
#    0.000    0.000    4.000    4.800    5.600    4.000 
#    0.000    0.000    0.000    0.000    0.000    0.000 
#    0.000    0.000    0.000    0.000    0.000    0.000 
#
# Total GULP energy -55868.470776 kJ/mol
# GULP energy per Si atom -5586.847078 kJ/mol
# Density = 2.628989 g / cm^3
# Si number density = 26.349860 Si / 1000 Ang^3
#
#
#
# Elastic Constant Matrix: (Units=GPa)
#
#
# Indices 1 2 3 4 5 6 
#
# 1 84.2547 33.8279 35.4387 7.2821 8.5788 17.3897
# 2 33.8279 164.9157 50.2048 34.3312 -2.2054 31.8786
# 3 35.4387 50.2048 175.5005 26.8214 -0.2039 12.4807
# 4 7.2821 34.3312 26.8214 49.0134 13.1913 0.2586
# 5 8.5788 -2.2054 -0.2039 13.1913 55.6748 1.7785
# 6 17.3897 31.8786 12.4807 0.2586 1.7785 43.0797
#
#
#
# Elastic Compliance Matrix: (Units=1/GPa)
#
#
# Indices 1 2 3 4 5 6 
#
# 1 0.014494 -0.001793 -0.002309 0.001042 -0.002440 -0.003761
# 2 -0.001793 0.009168 -0.000884 -0.006262 0.002307 -0.005862
# 3 -0.002309 -0.000884 0.006927 -0.003122 0.001100 -0.000447
# 4 0.001042 -0.006262 -0.003122 0.028276 -0.007287 0.005248
# 5 -0.002440 0.002307 0.001100 -0.007287 0.020218 -0.001832
# 6 -0.003761 -0.005862 -0.000447 0.005248 -0.001832 0.029242
#
#
# Mechanical properties :
#
#
# Convention : Reuss Voigt Hill
#
# Bulk Modulus (GPa) = 48.50033 73.73487 61.11760
# Shear Modulus (GPa) = 39.94573 49.90022 44.92298
#
# Velocity S-wave (km/s) = 3.89778 4.35645 4.13348
# Velocity P-wave (km/s) = 6.22118 7.30402 6.78424
#
# Compressibility (1/GPa) = 0.02061842
#
# Stress axis : x y z
#
# Youngs Moduli (GPa) = 68.99336 109.07345 144.35531
#
# Poissons Ratio (x) = 0.19556 0.33325
# Poissons Ratio (y) = 0.12370 0.12763
# Poissons Ratio (z) = 0.15928 0.09644
#
# Static dielectric constant tensor:
#      x y z
#    x 2.372610 0.376020 0.079050 
#    y 0.376020 3.355050 0.302680 
#    z 0.079050 0.302680 2.363670 
# 
# From -- ./inp_files/144293.got.cif
#   From: 2010.05.17/outbox.cif.g08.bks.cpg/sg2_73_cif.got.tgz:144293.got - 2010.06.03 11:33:40.
