data_PCOD9070476
_publ_section_title
;
Structure prediction by ZEFSAII (Michael W. Deem and Ramdas Pophale) SiO2 
 PCOD9070476
Probable space group: P -1
;
_chemical_formula_sum "Si O2"
_cell_formula_units_Z 16
_cell_length_a 16.349129
_cell_length_b 10.532189
_cell_length_c 16.252691
_cell_angle_alpha 46.851144
_cell_angle_beta 24.319408
_cell_angle_gamma 32.866622
_cell_volume 582.377930
_symmetry_space_group_name_H-M "P -1"
_symmetry_group_IT_number 2
_symmetry_cell_setting 'triclinic'
loop_
_space_group_symop_operation_xyz
x,y,z
-x,-y,-z
loop_
_atom_site_type_symbol
_atom_site_label
_atom_site_fract_x
_atom_site_fract_y
_atom_site_fract_z
Si Si1 0.782111 0.211531 0.225417
Si Si2 0.767322 0.815291 0.399492
Si Si3 0.356438 0.523595 0.931351
Si Si4 0.261184 0.020506 0.241204
Si Si5 0.348707 0.398058 0.258371
Si Si6 0.201387 0.041049 0.482777
Si Si7 0.250003 0.120648 0.933256
Si Si8 0.157948 0.680522 0.648819
O O1 0.728542 0.285563 0.146058
O O2 0.493206 0.444377 0.435300
O O3 0.820650 0.981741 0.305951
O O4 0.041957 0.172843 0.031760
O O5 0.694517 0.713087 0.577934
O O6 0.500000 0.000000 0.500000
O O7 0.076127 0.583025 0.178514
O O8 0.612677 0.244542 0.785487
O O9 0.466705 0.560761 0.892133
O O10 0.022082 0.762590 0.646915
O O11 0.226369 0.051579 0.356526
O O12 0.500000 0.000000 0.000000
O O13 0.524257 0.181718 0.124114
O O14 0.046026 0.671143 0.389401
O O15 0.519889 0.875641 0.298343
O O16 0.111597 0.898621 0.636257
O O17 0.045948 0.307037 0.112270
#
# Coordination Sequence:
#
# PCOD9070476 Si02
#       8
#     2   2   2   2   2   2   2   2
#     4  12  26  50  71 108 153 192 243 296 364 439
#     4  12  26  42  75 110 143 192 246 296 365 425
#     4  12  24  49  78 108 147 187 245 314 356 419
#     4  12  24  48  78 110 138 183 248 311 359 413
#     4  12  26  49  74 109 147 190 249 299 360 434
#     4  12  26  48  76 107 140 192 246 302 369 424
#     4  12  29  49  69 107 155 196 236 293 366 445
#     4  12  27  49  75 105 145 193 244 301 365 430
#
# _framework density 27.473569000000001
#
# number of rings (size 3 to 8) (size 9 to 14) (size 15 to 20)
#    0.000    0.000    6.250    3.750    3.500    1.000 
#    2.250    0.000    0.000    0.000    0.000    0.000 
#    0.000    0.000    0.000    0.000    0.000    0.000 
#
# Total GULP energy -89864.187041 kJ/mol
# GULP energy per Si atom -5616.511690 kJ/mol
# Density = 2.741104 g / cm^3
# Si number density = 27.473569 Si / 1000 Ang^3
#
#
#
# Elastic Constant Matrix: (Units=GPa)
#
#
# Indices 1 2 3 4 5 6 
#
# 1 97.8657 9.4901 32.6676 4.9522 -33.2256 -8.3201
# 2 9.4901 90.1158 16.5443 8.5879 -6.2536 -4.2959
# 3 32.6676 16.5443 172.1709 8.6750 -23.3167 -17.4758
# 4 4.9522 8.5879 8.6750 58.4559 -0.4025 4.1857
# 5 -33.2256 -6.2536 -23.3167 -0.4025 55.8810 3.5764
# 6 -8.3201 -4.2959 -17.4758 4.1857 3.5764 45.5418
#
#
#
# Elastic Compliance Matrix: (Units=1/GPa)
#
#
# Indices 1 2 3 4 5 6 
#
# 1 0.013322 -0.000507 -0.001313 -0.000910 0.007220 0.001399
# 2 -0.000507 0.011523 -0.000768 -0.001589 0.000605 0.000798
# 3 -0.001313 -0.000768 0.006636 -0.000905 0.001756 0.002179
# 4 -0.000910 -0.001589 -0.000905 0.017705 -0.000826 -0.002226
# 5 0.007220 0.000605 0.001756 -0.000826 0.022962 0.000323
# 6 0.001399 0.000798 0.002179 -0.002226 0.000323 0.023304
#
#
# Mechanical properties :
#
#
# Convention : Reuss Voigt Hill
#
# Bulk Modulus (GPa) = 38.01885 53.06182 45.54034
# Shear Modulus (GPa) = 45.70528 52.07244 48.88886
#
# Velocity S-wave (km/s) = 4.08316 4.35830 4.22297
# Velocity P-wave (km/s) = 6.00816 6.68447 6.35532
#
# Compressibility (1/GPa) = 0.02630274
#
# Stress axis : x y z
#
# Youngs Moduli (GPa) = 75.06484 86.78524 150.69866
#
# Poissons Ratio (x) = 0.04404 0.19792
# Poissons Ratio (y) = 0.03809 0.11574
# Poissons Ratio (z) = 0.09859 0.06665
#
# Static dielectric constant tensor:
#      x y z
#    x 2.134560 0.022860 0.026070 
#    y 0.022860 2.134790 -0.013010 
#    z 0.026070 -0.013010 2.077210 
# 
# From -- ./inp_files/601421.got.cif
#   From: 2010.05.17/outbox.cif.g08.bks.cpg/sg2_301_cif.got.tgz:601421.got - 2010.06.03 11:33:40.
