data_PCOD9070875
_publ_section_title
;
Structure prediction by ZEFSAII (Michael W. Deem and Ramdas Pophale) SiO2 
 PCOD9070875
Probable space group: P -1
;
_chemical_formula_sum "Si O2"
_cell_formula_units_Z 14
_cell_length_a 13.119695
_cell_length_b 8.933017
_cell_length_c 5.007077
_cell_angle_alpha 100.232120
_cell_angle_beta 103.883566
_cell_angle_gamma 86.986529
_cell_volume 560.587469
_symmetry_space_group_name_H-M "P -1"
_symmetry_group_IT_number 2
_symmetry_cell_setting 'triclinic'
loop_
_space_group_symop_operation_xyz
x,y,z
-x,-y,-z
loop_
_atom_site_type_symbol
_atom_site_label
_atom_site_fract_x
_atom_site_fract_y
_atom_site_fract_z
Si Si1 0.568047 0.844936 0.457267
Si Si2 0.494082 0.656623 0.856418
Si Si3 0.868939 0.700747 0.085561
Si Si4 0.741375 0.248399 0.283307
Si Si5 0.233764 0.030196 0.153594
Si Si6 0.879957 0.525339 0.518396
Si Si7 0.933734 0.107364 0.688944
O O1 0.553097 0.711017 0.633849
O O2 0.685169 0.910285 0.561192
O O3 0.500000 0.000000 0.500000
O O4 0.534555 0.777417 0.133857
O O5 0.373086 0.685766 0.700165
O O6 0.500000 0.500000 0.000000
O O7 0.851773 0.672210 0.376180
O O8 0.989087 0.757397 0.145140
O O9 0.784208 0.827297 0.002093
O O10 0.860239 0.561036 0.827052
O O11 0.810567 0.394084 0.305720
O O12 0.823403 0.169161 0.515471
O O13 0.723702 0.121955 0.007630
O O14 0.113944 0.991802 0.139155
O O15 0.000000 0.500000 0.500000
O O16 0.000000 0.000000 0.500000
#
# Coordination Sequence:
#
# PCOD9070875 Si02
#       7
#     2   2   2   2   2   2   2
#     4  12  27  53  82 112 153 197 273 324 386 458
#     4  12  30  53  79 116 157 204 255 332 394 465
#     4  12  27  46  71 106 151 195 253 296 376 444
#     4  12  28  46  79 107 157 198 258 305 396 443
#     4  12  28  45  80 109 151 203 255 315 382 452
#     4  12  27  47  69 107 150 201 241 309 366 458
#     4  12  25  47  75 114 155 199 255 317 373 460
#
# _framework density 24.973803
#
# number of rings (size 3 to 8) (size 9 to 14) (size 15 to 20)
#    0.000    0.000    4.286    4.286    8.000    0.000 
#    0.000    0.000    0.000    0.000    0.000    0.000 
#    0.000    0.000    0.000    0.000    0.000    0.000 
#
# Total GULP energy -78200.253606 kJ/mol
# GULP energy per Si atom -5585.732400 kJ/mol
# Density = 2.491696 g / cm^3
# Si number density = 24.973803 Si / 1000 Ang^3
#
#
#
# Elastic Constant Matrix: (Units=GPa)
#
#
# Indices 1 2 3 4 5 6 
#
# 1 86.9039 24.8486 9.6551 4.3089 22.9811 0.2464
# 2 24.8486 68.4442 7.4675 6.6425 9.5273 -6.1778
# 3 9.6551 7.4675 95.7035 4.9456 13.7705 -1.3256
# 4 4.3089 6.6425 4.9456 39.5604 7.0181 2.8598
# 5 22.9811 9.5273 13.7705 7.0181 48.6276 3.5611
# 6 0.2464 -6.1778 -1.3256 2.8598 3.5611 30.5093
#
#
#
# Elastic Compliance Matrix: (Units=1/GPa)
#
#
# Indices 1 2 3 4 5 6 
#
# 1 0.014334 -0.004420 -0.000280 0.000279 -0.005842 -0.000367
# 2 -0.004420 0.016992 -0.000558 -0.002396 -0.001014 0.003795
# 3 -0.000280 -0.000558 0.010977 -0.000806 -0.002807 0.000769
# 4 0.000279 -0.002396 -0.000806 0.026485 -0.003063 -0.002648
# 5 -0.005842 -0.001014 -0.002807 -0.003063 0.024974 -0.002908
# 6 -0.000367 0.003795 0.000769 -0.002648 -0.002908 0.034169
#
#
# Mechanical properties :
#
#
# Convention : Reuss Voigt Hill
#
# Bulk Modulus (GPa) = 31.45908 37.22155 34.34032
# Shear Modulus (GPa) = 33.54712 37.67816 35.61264
#
# Velocity S-wave (km/s) = 3.66907 3.88842 3.78034
# Velocity P-wave (km/s) = 5.52934 5.92422 5.73018
#
# Compressibility (1/GPa) = 0.03178732
#
# Stress axis : x y z
#
# Youngs Moduli (GPa) = 69.76336 58.84977 91.10063
#
# Poissons Ratio (x) = 0.26014 0.02551
# Poissons Ratio (y) = 0.30838 0.05079
# Poissons Ratio (z) = 0.01954 0.03281
#
# Static dielectric constant tensor:
#      x y z
#    x 2.032050 0.069240 -0.012560 
#    y 0.069240 2.280720 -0.171570 
#    z -0.012560 -0.171570 1.998260 
# 
# From -- ./inp_files/90805.got.cif
#   From: 2010.05.17/outbox.cif.g08.bks.cpg/sg2_46_cif.got.tgz:90805.got - 2010.06.03 11:33:40.
