data_PCOD9070525
_publ_section_title
;
Structure prediction by ZEFSAII (Michael W. Deem and Ramdas Pophale) SiO2 
 PCOD9070525
Probable space group: P -1
;
_chemical_formula_sum "Si O2"
_cell_formula_units_Z 16
_cell_length_a 6.926603
_cell_length_b 9.290330
_cell_length_c 25.954302
_cell_angle_alpha 41.361988
_cell_angle_beta 106.404415
_cell_angle_gamma 131.596474
_cell_volume 742.467213
_symmetry_space_group_name_H-M "P -1"
_symmetry_group_IT_number 2
_symmetry_cell_setting 'triclinic'
loop_
_space_group_symop_operation_xyz
x,y,z
-x,-y,-z
loop_
_atom_site_type_symbol
_atom_site_label
_atom_site_fract_x
_atom_site_fract_y
_atom_site_fract_z
Si Si1 0.337435 0.307803 0.932203
Si Si2 0.345893 0.647996 0.149886
Si Si3 0.327648 0.689295 0.961253
Si Si4 0.867957 0.815709 0.660509
Si Si5 0.224707 0.509107 0.358275
Si Si6 0.373157 0.448607 0.560620
Si Si7 0.307116 0.754288 0.822869
Si Si8 0.786993 0.224837 0.493771
O O1 0.451587 0.246304 0.911232
O O2 0.371116 0.583394 0.842114
O O3 0.545391 0.410945 0.968567
O O4 0.000000 0.000000 0.000000
O O5 0.360288 0.472825 0.241932
O O6 0.017965 0.423280 0.166309
O O7 0.458054 0.952711 0.102530
O O8 0.325639 0.678065 0.902814
O O9 0.000000 0.500000 0.000000
O O10 0.929993 0.695451 0.650496
O O11 0.804222 0.006309 0.582401
O O12 0.137468 0.078205 0.646335
O O13 0.388117 0.419171 0.414832
O O14 0.034474 0.434968 0.412596
O O15 0.455580 0.875066 0.265361
O O16 0.500000 0.500000 0.500000
O O17 0.244581 0.588179 0.522151
O O18 0.500000 0.000000 0.500000
#
# Coordination Sequence:
#
# PCOD9070525 Si02
#       8
#     2   2   2   2   2   2   2   2
#     4  12  26  47  76 107 144 191 247 299 368 447
#     4  12  26  47  73 108 147 185 242 310 365 430
#     4  12  24  49  77  99 147 195 235 298 378 436
#     4  12  25  47  71 103 145 189 238 300 362 420
#     4  12  26  47  71 104 146 191 241 296 361 430
#     4  12  25  44  75 100 138 193 240 290 359 423
#     4  12  26  46  73 109 143 186 245 305 362 441
#     4  12  26  47  73 105 147 195 245 295 352 435
#
# _framework density 21.549772000000001
#
# number of rings (size 3 to 8) (size 9 to 14) (size 15 to 20)
#    0.000    0.000    7.500    3.000    1.750    0.000 
#    6.750    0.000    0.000    0.000    0.000    0.000 
#    0.000    0.000    0.000    0.000    0.000    0.000 
#
# Total GULP energy -89376.492923 kJ/mol
# GULP energy per Si atom -5586.030808 kJ/mol
# Density = 2.150072 g / cm^3
# Si number density = 21.549772 Si / 1000 Ang^3
#
#
#
# Elastic Constant Matrix: (Units=GPa)
#
#
# Indices 1 2 3 4 5 6 
#
# 1 113.0522 34.8322 41.0516 -7.5639 2.0803 0.1925
# 2 34.8322 86.6316 12.5704 -5.2544 4.4919 -5.9547
# 3 41.0516 12.5704 95.0568 -5.4081 0.7649 0.0473
# 4 -7.5639 -5.2544 -5.4081 38.6923 -3.9627 6.1818
# 5 2.0803 4.4919 0.7649 -3.9627 20.9586 -6.8571
# 6 0.1925 -5.9547 0.0473 6.1818 -6.8571 37.2420
#
#
#
# Elastic Compliance Matrix: (Units=1/GPa)
#
#
# Indices 1 2 3 4 5 6 
#
# 1 0.011824 -0.004081 -0.004493 0.001261 -0.000209 -0.000956
# 2 -0.004081 0.013426 0.000033 0.000568 -0.001796 0.001743
# 3 -0.004493 0.000033 0.012507 0.000905 0.000116 -0.000116
# 4 0.001261 0.000568 0.000905 0.027271 0.003642 -0.003773
# 5 -0.000209 -0.001796 0.000116 0.003642 0.051621 0.008614
# 6 -0.000956 0.001743 -0.000116 -0.003773 0.008614 0.029347
#
#
# Mechanical properties :
#
#
# Convention : Reuss Voigt Hill
#
# Bulk Modulus (GPa) = 48.36659 52.40544 50.38602
# Shear Modulus (GPa) = 29.41697 33.13103 31.27400
#
# Velocity S-wave (km/s) = 3.69869 3.92525 3.81365
# Velocity P-wave (km/s) = 6.38227 6.70183 6.54400
#
# Compressibility (1/GPa) = 0.02067543
#
# Stress axis : x y z
#
# Youngs Moduli (GPa) = 84.57381 74.47986 79.95774
#
# Poissons Ratio (x) = 0.30392 0.35924
# Poissons Ratio (y) = 0.34511 -0.00261
# Poissons Ratio (z) = 0.37998 -0.00243
#
# Static dielectric constant tensor:
#      x y z
#    x 1.798300 0.012020 0.005890 
#    y 0.012020 1.857790 -0.020620 
#    z 0.005890 -0.020620 1.794150 
# 
# From -- ./inp_files/124733.got.cif
#   From: 2010.05.17/outbox.cif.g08.bks.cpg/sg2_63_cif.got.tgz:124733.got - 2010.06.03 11:33:40.
