data_PCOD9070394
_publ_section_title
;
Structure prediction by ZEFSAII (Michael W. Deem and Ramdas Pophale) SiO2 
 PCOD9070394
Probable space group: P -1
;
_chemical_formula_sum "Si O2"
_cell_formula_units_Z 12
_cell_length_a 12.403232
_cell_length_b 7.773012
_cell_length_c 9.084655
_cell_angle_alpha 97.808996
_cell_angle_beta 39.602641
_cell_angle_gamma 117.128348
_cell_volume 459.671728
_symmetry_space_group_name_H-M "P -1"
_symmetry_group_IT_number 2
_symmetry_cell_setting 'triclinic'
loop_
_space_group_symop_operation_xyz
x,y,z
-x,-y,-z
loop_
_atom_site_type_symbol
_atom_site_label
_atom_site_fract_x
_atom_site_fract_y
_atom_site_fract_z
Si Si1 0.834744 0.971538 0.024515
Si Si2 0.296020 0.478364 0.265178
Si Si3 0.887179 0.569938 0.271143
Si Si4 0.480744 0.056397 0.859187
Si Si5 0.469839 0.729926 0.609515
Si Si6 0.857186 0.608852 0.900188
O O1 0.026538 0.783747 0.058829
O O2 0.718817 0.956282 0.991720
O O3 0.672038 0.843541 0.311167
O O4 0.940421 0.847875 0.871135
O O5 0.190087 0.347408 0.506760
O O6 0.348572 0.699967 0.294606
O O7 0.156539 0.413489 0.263073
O O8 0.500000 0.500000 0.000000
O O9 0.706558 0.387962 0.342520
O O10 0.028044 0.495102 0.173534
O O11 0.494208 0.912330 0.708185
O O12 0.500000 0.000000 0.000000
O O13 0.374557 0.536585 0.804191
#
# Coordination Sequence:
#
# PCOD9070394 Si02
#       6
#     2   2   2   2   2   2
#     4  12  27  51  78 117 153 205 260 313 389 463
#     4  12  25  51  77 110 155 204 263 318 380 464
#     4  12  28  50  77 113 161 201 256 327 383 455
#     4  12  24  47  83 109 148 209 255 312 389 453
#     4  12  26  50  79 110 160 203 255 319 387 459
#     4  12  26  47  79 115 156 205 260 316 386 457
#
# _framework density 26.105585000000001
#
# number of rings (size 3 to 8) (size 9 to 14) (size 15 to 20)
#    0.000    0.000    6.667    2.000    0.000    1.333 
#    3.000    0.000    0.000    0.000    0.000    0.000 
#    0.000    0.000    0.000    0.000    0.000    0.000 
#
# Total GULP energy -67144.694304 kJ/mol
# GULP energy per Si atom -5595.391192 kJ/mol
# Density = 2.604617 g / cm^3
# Si number density = 26.105585 Si / 1000 Ang^3
#
#
#
# Elastic Constant Matrix: (Units=GPa)
#
#
# Indices 1 2 3 4 5 6 
#
# 1 166.1520 22.7383 53.9579 26.8846 18.1085 18.7218
# 2 22.7383 159.0449 51.9964 33.5065 -13.1565 24.4871
# 3 53.9579 51.9964 139.2831 8.4965 22.7031 11.5092
# 4 26.8846 33.5065 8.4965 42.1646 4.2916 1.6030
# 5 18.1085 -13.1565 22.7031 4.2916 42.4568 3.7714
# 6 18.7218 24.4871 11.5092 1.6030 3.7714 34.9442
#
#
#
# Elastic Compliance Matrix: (Units=1/GPa)
#
#
# Indices 1 2 3 4 5 6 
#
# 1 0.008233 0.001644 -0.003032 -0.005740 -0.000422 -0.004255
# 2 0.001644 0.011401 -0.004832 -0.009564 0.007058 -0.007602
# 3 -0.003032 -0.004832 0.010813 0.004190 -0.006584 0.001968
# 4 -0.005740 -0.009564 0.004190 0.034549 -0.006920 0.007559
# 5 -0.000422 0.007058 -0.006584 -0.006920 0.030633 -0.005539
# 6 -0.004255 -0.007602 0.001968 0.007559 -0.005539 0.035827
#
#
# Mechanical properties :
#
#
# Convention : Reuss Voigt Hill
#
# Bulk Modulus (GPa) = 55.53681 80.20724 67.87202
# Shear Modulus (GPa) = 33.35591 46.29896 39.82743
#
# Velocity S-wave (km/s) = 3.57841 4.21589 3.91017
# Velocity P-wave (km/s) = 6.19625 7.38168 6.81479
#
# Compressibility (1/GPa) = 0.01800608
#
# Stress axis : x y z
#
# Youngs Moduli (GPa) = 121.46876 87.70960 92.47902
#
# Poissons Ratio (x) = -0.14417 0.28043
# Poissons Ratio (y) = -0.19966 0.44685
# Poissons Ratio (z) = 0.36833 0.42380
#
# Static dielectric constant tensor:
#      x y z
#    x 2.090350 -0.053680 0.064350 
#    y -0.053680 2.044080 -0.101850 
#    z 0.064350 -0.101850 2.276270 
# 
# From -- ./inp_files/191058.got.cif
#   From: 2010.05.17/outbox.cif.g08.bks.cpg/sg2_96_cif.got.tgz:191058.got - 2010.06.03 11:33:40.
