data_PCOD9070970
_publ_section_title
;
Structure prediction by ZEFSAII (Michael W. Deem and Ramdas Pophale) SiO2 
 PCOD9070970
Probable space group: P -1
;
_chemical_formula_sum "Si O2"
_cell_formula_units_Z 12
_cell_length_a 9.832881
_cell_length_b 9.384368
_cell_length_c 9.798693
_cell_angle_alpha 75.052668
_cell_angle_beta 44.926667
_cell_angle_gamma 73.063817
_cell_volume 609.048255
_symmetry_space_group_name_H-M "P -1"
_symmetry_group_IT_number 2
_symmetry_cell_setting 'triclinic'
loop_
_space_group_symop_operation_xyz
x,y,z
-x,-y,-z
loop_
_atom_site_type_symbol
_atom_site_label
_atom_site_fract_x
_atom_site_fract_y
_atom_site_fract_z
Si Si1 0.658848 0.952473 0.522792
Si Si2 0.923519 0.401580 0.964557
Si Si3 0.495432 0.443207 0.860545
Si Si4 0.996700 0.091585 0.119378
Si Si5 0.160979 0.400517 0.513534
Si Si6 0.564997 0.886726 0.101313
O O1 0.731032 0.773511 0.546603
O O2 0.500000 0.000000 0.500000
O O3 0.858150 0.016024 0.334674
O O4 0.554970 0.044067 0.700042
O O5 0.058465 0.387977 0.736535
O O6 0.712519 0.476505 0.055884
O O7 0.901835 0.251485 0.094259
O O8 0.000000 0.500000 0.000000
O O9 0.665846 0.501944 0.640590
O O10 0.489127 0.270306 0.873700
O O11 0.500000 0.500000 0.000000
O O12 0.207021 0.111635 0.025400
O O13 0.000000 0.000000 0.000000
O O14 0.000000 0.500000 0.500000
O O15 0.500000 0.000000 0.000000
#
# Coordination Sequence:
#
# PCOD9070970 Si02
#       6
#     2   2   2   2   2   2
#     4  12  26  49  78 108 147 196 244 301 369 441
#     4  12  26  47  73 108 145 189 249 298 362 437
#     4  12  27  48  74 102 151 192 239 305 363 431
#     4  12  25  48  76 105 150 193 241 300 365 439
#     4  12  27  46  76 107 145 195 244 299 376 430
#     4  12  29  46  73 114 145 192 248 298 368 436
#
# _framework density 19.702870999999998
#
# number of rings (size 3 to 8) (size 9 to 14) (size 15 to 20)
#    0.000    0.000    6.667    2.000    7.000    1.333 
#    0.000    0.000    0.000    0.000    0.000    0.000 
#    0.000    0.000    0.000    0.000    0.000    0.000 
#
# Total GULP energy -66910.285416 kJ/mol
# GULP energy per Si atom -5575.857118 kJ/mol
# Density = 1.965803 g / cm^3
# Si number density = 19.702871 Si / 1000 Ang^3
#
#
#
# Elastic Constant Matrix: (Units=GPa)
#
#
# Indices 1 2 3 4 5 6 
#
# 1 131.5843 85.1520 54.2485 3.7039 1.6199 6.1401
# 2 85.1520 202.6225 43.9785 -17.9446 -9.0116 3.1828
# 3 54.2485 43.9785 114.5593 -7.2502 -22.8902 4.3352
# 4 3.7039 -17.9446 -7.2502 38.3304 4.0328 -5.7660
# 5 1.6199 -9.0116 -22.8902 4.0328 40.0126 -6.1058
# 6 6.1401 3.1828 4.3352 -5.7660 -6.1058 32.8622
#
#
#
# Elastic Compliance Matrix: (Units=1/GPa)
#
#
# Indices 1 2 3 4 5 6 
#
# 1 0.013513 -0.005042 -0.005621 -0.004670 -0.004889 -0.003023
# 2 -0.005042 0.007448 0.000076 0.003994 0.001710 0.001229
# 3 -0.005621 0.000076 0.012991 0.002411 0.007612 0.001166
# 4 -0.004670 0.003994 0.002411 0.029650 0.000307 0.005427
# 5 -0.004889 0.001710 0.007612 0.000307 0.030739 0.005509
# 6 -0.003023 0.001229 0.001166 0.005427 0.005509 0.032698
#
#
# Mechanical properties :
#
#
# Convention : Reuss Voigt Hill
#
# Bulk Modulus (GPa) = 78.26080 90.61380 84.43730
# Shear Modulus (GPa) = 32.79285 39.93351 36.36318
#
# Velocity S-wave (km/s) = 4.08409 4.50687 4.30068
# Velocity P-wave (km/s) = 7.87696 8.55409 8.22250
#
# Compressibility (1/GPa) = 0.01277779
#
# Stress axis : x y z
#
# Youngs Moduli (GPa) = 74.00388 134.26195 76.97647
#
# Poissons Ratio (x) = 0.67698 0.43270
# Poissons Ratio (y) = 0.37314 -0.00588
# Poissons Ratio (z) = 0.41599 -0.01025
#
# Static dielectric constant tensor:
#      x y z
#    x 1.615590 -0.059890 -0.023070 
#    y -0.059890 1.626060 0.010600 
#    z -0.023070 0.010600 1.612600 
# 
# From -- ./inp_files/137049.got.cif
#   From: 2010.05.17/outbox.cif.g08.bks.cpg/sg2_69_cif.got.tgz:137049.got - 2010.06.03 11:33:40.
