data_PCOD9070822
_publ_section_title
;
Structure prediction by ZEFSAII (Michael W. Deem and Ramdas Pophale) SiO2 
 PCOD9070822
Probable space group: P -1
;
_chemical_formula_sum "Si O2"
_cell_formula_units_Z 12
_cell_length_a 12.206940
_cell_length_b 9.184895
_cell_length_c 17.464827
_cell_angle_alpha 130.399827
_cell_angle_beta 160.745730
_cell_angle_gamma 50.822637
_cell_volume 490.202295
_symmetry_space_group_name_H-M "P -1"
_symmetry_group_IT_number 2
_symmetry_cell_setting 'triclinic'
loop_
_space_group_symop_operation_xyz
x,y,z
-x,-y,-z
loop_
_atom_site_type_symbol
_atom_site_label
_atom_site_fract_x
_atom_site_fract_y
_atom_site_fract_z
Si Si1 0.399765 0.804892 0.331624
Si Si2 0.659765 0.931309 0.837430
Si Si3 0.378449 0.343274 0.420315
Si Si4 0.279328 0.277580 0.638194
Si Si5 0.306423 0.985076 0.786371
Si Si6 0.671661 0.562602 0.058042
O O1 0.416827 0.668551 0.369824
O O2 0.675636 0.751983 0.432327
O O3 0.500000 0.000000 0.500000
O O4 0.036082 0.845544 0.070066
O O5 0.567877 0.838701 0.663115
O O6 0.580204 0.152482 0.838479
O O7 0.482920 0.911245 0.797520
O O8 0.500000 0.500000 0.500000
O O9 0.007969 0.428575 0.223283
O O10 0.378423 0.498514 0.785964
O O11 0.974044 0.164150 0.431645
O O12 0.231117 0.216673 0.802081
O O13 0.500000 0.000000 0.000000
O O14 0.500000 0.500000 0.000000
#
# Coordination Sequence:
#
# PCOD9070822 Si02
#       6
#     2   2   2   2   2   2
#     4  12  25  46  81 111 150 211 260 310 396 466
#     4  12  25  50  78 113 156 207 258 321 394 459
#     4  12  29  49  79 118 161 202 262 328 386 464
#     4  12  25  50  80 113 160 205 260 327 388 463
#     4  12  30  50  81 115 156 209 262 322 396 466
#     4  12  28  50  77 114 157 205 261 320 389 463
#
# _framework density 24.479689
#
# number of rings (size 3 to 8) (size 9 to 14) (size 15 to 20)
#    0.000    0.000    5.000    4.000    7.000    2.667 
#    0.000    0.000    0.000    0.000    0.000    0.000 
#    0.000    0.000    0.000    0.000    0.000    0.000 
#
# Total GULP energy -66890.066415 kJ/mol
# GULP energy per Si atom -5574.172201 kJ/mol
# Density = 2.442397 g / cm^3
# Si number density = 24.479689 Si / 1000 Ang^3
#
#
#
# Elastic Constant Matrix: (Units=GPa)
#
#
# Indices 1 2 3 4 5 6 
#
# 1 177.7260 15.8362 17.5666 -16.5322 -3.7257 2.3088
# 2 15.8362 82.6402 13.9706 1.8290 7.3861 5.7546
# 3 17.5666 13.9706 72.8220 -3.4096 3.5746 9.1983
# 4 -16.5322 1.8290 -3.4096 21.3540 -4.3641 -6.9381
# 5 -3.7257 7.3861 3.5746 -4.3641 36.4637 -0.6190
# 6 2.3088 5.7546 9.1983 -6.9381 -0.6190 57.2142
#
#
#
# Elastic Compliance Matrix: (Units=1/GPa)
#
#
# Indices 1 2 3 4 5 6 
#
# 1 0.006402 -0.001349 -0.001208 0.005474 0.001714 0.000754
# 2 -0.001349 0.013154 -0.002038 -0.003578 -0.003055 -0.001408
# 3 -0.001208 -0.002038 0.014760 0.000705 -0.001108 -0.002046
# 4 0.005474 -0.003578 0.000705 0.055328 0.007953 0.006821
# 5 0.001714 -0.003055 -0.001108 0.007953 0.029308 0.001698
# 6 0.000754 -0.001408 -0.002046 0.006821 0.001698 0.018764
#
#
# Mechanical properties :
#
#
# Convention : Reuss Voigt Hill
#
# Bulk Modulus (GPa) = 39.80119 47.54834 43.67476
# Shear Modulus (GPa) = 32.19958 42.06070 37.13014
#
# Velocity S-wave (km/s) = 3.63072 4.14960 3.89880
# Velocity P-wave (km/s) = 5.81982 6.51342 6.17637
#
# Compressibility (1/GPa) = 0.02512488
#
# Stress axis : x y z
#
# Youngs Moduli (GPa) = 156.21005 76.02271 67.74905
#
# Poissons Ratio (x) = 0.10258 0.08187
# Poissons Ratio (y) = 0.21077 0.13806
# Poissons Ratio (z) = 0.18877 0.15492
#
# Static dielectric constant tensor:
#      x y z
#    x 1.654100 0.136050 0.203290 
#    y 0.136050 2.296000 -0.230320 
#    z 0.203290 -0.230320 1.851940 
# 
# From -- ./inp_files/565554.got.cif
#   From: 2010.05.17/outbox.cif.g08.bks.cpg/sg2_283_cif.got.tgz:565554.got - 2010.06.03 11:33:40.
