data_PCOD9070884
_publ_section_title
;
Structure prediction by ZEFSAII (Michael W. Deem and Ramdas Pophale) SiO2 
 PCOD9070884
Probable space group: P -1
;
_chemical_formula_sum "Si O2"
_cell_formula_units_Z 14
_cell_length_a 4.825728
_cell_length_b 8.717890
_cell_length_c 17.456682
_cell_angle_alpha 44.319932
_cell_angle_beta 87.836022
_cell_angle_gamma 85.437364
_cell_volume 511.283344
_symmetry_space_group_name_H-M "P -1"
_symmetry_group_IT_number 2
_symmetry_cell_setting 'triclinic'
loop_
_space_group_symop_operation_xyz
x,y,z
-x,-y,-z
loop_
_atom_site_type_symbol
_atom_site_label
_atom_site_fract_x
_atom_site_fract_y
_atom_site_fract_z
Si Si1 0.981461 0.892314 0.407185
Si Si2 0.503040 0.643446 0.554561
Si Si3 0.865956 0.933018 0.946744
Si Si4 0.693908 0.283049 0.099916
Si Si5 0.656741 0.141516 0.732080
Si Si6 0.649554 0.531859 0.154637
Si Si7 0.131433 0.360227 0.295206
O O1 0.184976 0.724513 0.515325
O O2 0.096997 0.893026 0.319625
O O3 0.676549 0.806798 0.442781
O O4 0.019649 0.124058 0.363250
O O5 0.528937 0.385496 0.628955
O O6 0.666407 0.665530 0.624529
O O7 0.073012 0.788752 0.939209
O O8 0.756474 0.134626 0.822289
O O9 0.632749 0.774452 0.032769
O O10 0.000000 0.000000 0.000000
O O11 0.803305 0.366929 0.149966
O O12 0.523778 0.069393 0.192832
O O13 0.500000 0.500000 0.000000
O O14 0.350829 0.445600 0.201817
O O15 0.849481 0.520395 0.231352
#
# Coordination Sequence:
#
# PCOD9070884 Si02
#       7
#     2   2   2   2   2   2   2
#     4  12  26  49  73 109 145 201 259 314 371 455
#     4  12  28  48  74 110 151 195 259 319 380 437
#     4  12  29  47  77 114 158 195 249 319 390 462
#     4  12  26  49  76 110 153 207 257 305 377 468
#     4  12  28  46  77 105 152 201 248 314 384 450
#     4  12  25  47  76 114 150 198 252 303 380 472
#     4  12  25  47  79 108 151 197 251 317 381 445
#
# _framework density 27.382076999999999
#
# number of rings (size 3 to 8) (size 9 to 14) (size 15 to 20)
#    0.000    0.000    2.857    6.429    6.000    0.571 
#    0.000    0.000    0.000    0.000    0.000    0.000 
#    0.000    0.000    0.000    0.000    0.000    0.000 
#
# Total GULP energy -78583.695271 kJ/mol
# GULP energy per Si atom -5613.121091 kJ/mol
# Density = 2.731975 g / cm^3
# Si number density = 27.382077 Si / 1000 Ang^3
#
#
#
# Elastic Constant Matrix: (Units=GPa)
#
#
# Indices 1 2 3 4 5 6 
#
# 1 103.1135 6.3159 12.0356 -1.5325 -11.7387 -0.3027
# 2 6.3159 93.7714 21.0276 -1.1976 -14.7790 28.3481
# 3 12.0356 21.0276 113.7782 -3.9074 -15.7904 -0.8674
# 4 -1.5325 -1.1976 -3.9074 57.7914 8.6090 8.4527
# 5 -11.7387 -14.7790 -15.7904 8.6090 59.5434 1.9154
# 6 -0.3027 28.3481 -0.8674 8.4527 1.9154 45.3275
#
#
#
# Elastic Compliance Matrix: (Units=1/GPa)
#
#
# Indices 1 2 3 4 5 6 
#
# 1 0.009998 -0.000286 -0.000770 -0.000071 0.001701 0.000172
# 2 -0.000286 0.014561 -0.002265 0.001065 0.003108 -0.009482
# 3 -0.000770 -0.002265 0.009548 0.000097 0.001756 0.001502
# 4 -0.000071 0.001065 0.000097 0.018244 -0.002234 -0.003972
# 5 0.001701 0.003108 0.001756 -0.002234 0.018763 -0.002275
# 6 0.000172 -0.009482 0.001502 -0.003972 -0.002275 0.028859
#
#
# Mechanical properties :
#
#
# Convention : Reuss Voigt Hill
#
# Bulk Modulus (GPa) = 36.40905 43.26904 39.83904
# Shear Modulus (GPa) = 43.18901 50.61806 46.90353
#
# Velocity S-wave (km/s) = 3.97580 4.30418 4.14324
# Velocity P-wave (km/s) = 5.86528 6.36691 6.12124
#
# Compressibility (1/GPa) = 0.02746570
#
# Stress axis : x y z
#
# Youngs Moduli (GPa) = 100.01502 68.67457 104.73895
#
# Poissons Ratio (x) = 0.01962 0.08064
# Poissons Ratio (y) = 0.02857 0.23726
# Poissons Ratio (z) = 0.07701 0.15557
#
# Static dielectric constant tensor:
#      x y z
#    x 2.072210 -0.001140 0.050950 
#    y -0.001140 2.168760 0.098550 
#    z 0.050950 0.098550 2.205660 
# 
# From -- ./inp_files/81358.got.cif
#   From: 2010.05.17/outbox.cif.g08.bks.cpg/sg2_41_cif.got.tgz:81358.got - 2010.06.03 11:33:40.
