data_PCOD9070181
_publ_section_title
;
Structure prediction by ZEFSAII (Michael W. Deem and Ramdas Pophale) SiO2 
 PCOD9070181
Probable space group: P -1
;
_chemical_formula_sum "Si O2"
_cell_formula_units_Z 16
_cell_length_a 8.816532
_cell_length_b 22.661798
_cell_length_c 7.997637
_cell_angle_alpha 42.125137
_cell_angle_beta 96.908022
_cell_angle_gamma 127.760916
_cell_volume 658.259508
_symmetry_space_group_name_H-M "P -1"
_symmetry_group_IT_number 2
_symmetry_cell_setting 'triclinic'
loop_
_space_group_symop_operation_xyz
x,y,z
-x,-y,-z
loop_
_atom_site_type_symbol
_atom_site_label
_atom_site_fract_x
_atom_site_fract_y
_atom_site_fract_z
Si Si1 0.305470 0.940695 0.737333
Si Si2 0.455531 0.498193 0.693943
Si Si3 0.237372 0.596058 0.451725
Si Si4 0.278406 0.700920 0.597172
Si Si5 0.089212 0.180945 0.300893
Si Si6 0.992462 0.260429 0.602181
Si Si7 0.829414 0.008017 0.938214
Si Si8 0.486744 0.214326 0.223243
O O1 0.038298 0.843895 0.830477
O O2 0.500000 0.000000 0.500000
O O3 0.422419 0.083630 0.519159
O O4 0.218601 0.828577 0.093135
O O5 0.500000 0.500000 0.500000
O O6 0.334314 0.539685 0.601022
O O7 0.721827 0.608323 0.584557
O O8 0.264388 0.336874 0.068299
O O9 0.208969 0.618715 0.589519
O O10 0.000000 0.500000 0.500000
O O11 0.432920 0.734518 0.065277
O O12 0.084525 0.691953 0.620942
O O13 0.320488 0.671928 0.842958
O O14 0.553816 0.859300 0.259568
O O15 0.251509 0.169014 0.316625
O O16 0.864599 0.055551 0.654408
O O17 0.934814 0.138078 0.781004
O O18 0.000000 0.000000 0.000000
#
# Coordination Sequence:
#
# PCOD9070181 Si02
#       8
#     2   2   2   2   2   2   2   2
#     4  12  25  43  77 110 143 189 249 308 368 431
#     4  12  25  48  74 101 148 196 243 301 369 440
#     4  12  28  50  76 107 150 196 249 306 367 451
#     4  12  27  48  76 111 150 192 249 310 375 434
#     4  12  26  46  76 106 144 198 246 295 375 441
#     4  12  25  46  72 105 152 188 237 310 366 433
#     4  12  24  46  73 108 147 183 244 309 363 432
#     4  12  26  48  76 109 149 195 247 306 375 433
#
# _framework density 24.306522999999999
#
# number of rings (size 3 to 8) (size 9 to 14) (size 15 to 20)
#    0.000    0.000    5.000    4.500    3.500    1.000 
#    0.000    0.000    0.000    0.000    0.000    0.000 
#    0.000    0.000    0.000    0.000    0.000    0.000 
#
# Total GULP energy -89540.817003 kJ/mol
# GULP energy per Si atom -5596.301063 kJ/mol
# Density = 2.425120 g / cm^3
# Si number density = 24.306523 Si / 1000 Ang^3
#
#
#
# Elastic Constant Matrix: (Units=GPa)
#
#
# Indices 1 2 3 4 5 6 
#
# 1 152.9718 53.6058 3.3368 -18.1609 1.0136 9.5875
# 2 53.6058 90.1819 3.8012 -26.8308 -8.5694 3.6837
# 3 3.3368 3.8012 85.6516 -9.0693 -15.8200 -8.5653
# 4 -18.1609 -26.8308 -9.0693 37.0481 10.7306 4.9769
# 5 1.0136 -8.5694 -15.8200 10.7306 22.7291 -8.8838
# 6 9.5875 3.6837 -8.5653 4.9769 -8.8838 34.2620
#
#
#
# Elastic Compliance Matrix: (Units=1/GPa)
#
#
# Indices 1 2 3 4 5 6 
#
# 1 0.008913 -0.004769 -0.001429 0.002991 -0.006327 -0.004414
# 2 -0.004769 0.017035 0.000725 0.009735 0.002079 -0.001191
# 3 -0.001429 0.000725 0.015086 -0.001928 0.014975 0.008256
# 4 0.002991 0.009735 -0.001928 0.044198 -0.024599 -0.015164
# 5 -0.006327 0.002079 0.014975 -0.024599 0.078521 0.029224
# 6 -0.004414 -0.001191 0.008256 -0.015164 0.029224 0.042394
#
#
# Mechanical properties :
#
#
# Convention : Reuss Voigt Hill
#
# Bulk Modulus (GPa) = 33.23381 50.03254 41.63317
# Shear Modulus (GPa) = 22.01450 36.67860 29.34655
#
# Velocity S-wave (km/s) = 3.01276 3.88880 3.47847
# Velocity P-wave (km/s) = 5.07984 6.38689 5.77049
#
# Compressibility (1/GPa) = 0.03008984
#
# Stress axis : x y z
#
# Youngs Moduli (GPa) = 112.19335 58.70131 66.28651
#
# Poissons Ratio (x) = 0.27994 0.09472
# Poissons Ratio (y) = 0.53504 -0.04809
# Poissons Ratio (z) = 0.16032 -0.04259
#
# Static dielectric constant tensor:
#      x y z
#    x 1.904410 -0.048570 -0.003110 
#    y -0.048570 1.997550 0.036050 
#    z -0.003110 0.036050 1.978010 
# 
# From -- ./inp_files/225981.got.cif
#   From: 2010.05.17/outbox.cif.g08.bks.cpg/sg2_113_cif.got.tgz:225981.got - 2010.06.03 11:33:40.
