data_PCOD9070443
_publ_section_title
;
Structure prediction by ZEFSAII (Michael W. Deem and Ramdas Pophale) SiO2 
 PCOD9070443
Probable space group: P -1
;
_chemical_formula_sum "Si O2"
_cell_formula_units_Z 16
_cell_length_a 24.257072
_cell_length_b 9.000886
_cell_length_c 9.320557
_cell_angle_alpha 45.158716
_cell_angle_beta 133.631238
_cell_angle_gamma 146.948805
_cell_volume 760.755671
_symmetry_space_group_name_H-M "P -1"
_symmetry_group_IT_number 2
_symmetry_cell_setting 'triclinic'
loop_
_space_group_symop_operation_xyz
x,y,z
-x,-y,-z
loop_
_atom_site_type_symbol
_atom_site_label
_atom_site_fract_x
_atom_site_fract_y
_atom_site_fract_z
Si Si1 0.990804 0.203633 0.926409
Si Si2 0.639697 0.269083 0.819104
Si Si3 0.449169 0.592317 0.935778
Si Si4 0.272862 0.352288 0.562048
Si Si5 0.600734 0.609370 0.692188
Si Si6 0.180815 0.789002 0.389698
Si Si7 0.075711 0.265106 0.347852
Si Si8 0.188162 0.732969 0.763894
O O1 0.078892 0.516288 0.799175
O O2 0.879239 0.102898 0.775949
O O3 0.016274 0.222180 0.126526
O O4 0.000000 0.000000 0.000000
O O5 0.662425 0.413298 0.607223
O O6 0.631383 0.440820 0.800045
O O7 0.533042 0.936729 0.856546
O O8 0.734147 0.291665 0.013190
O O9 0.344558 0.467021 0.752790
O O10 0.500000 0.500000 0.000000
O O11 0.425092 0.463149 0.138378
O O12 0.169987 0.291880 0.451130
O O13 0.239863 0.058385 0.652004
O O14 0.500000 0.500000 0.500000
O O15 0.698829 0.945800 0.612704
O O16 0.124068 0.551176 0.326205
O O17 0.172023 0.660956 0.615369
O O18 0.000000 0.000000 0.500000
#
# Coordination Sequence:
#
# PCOD9070443 Si02
#       8
#     2   2   2   2   2   2   2   2
#     4  12  25  48  78 108 148 199 246 299 375 443
#     4  12  25  50  73 106 148 196 249 303 368 438
#     4  12  27  45  76 108 147 193 247 308 367 438
#     4  12  26  47  74 109 146 196 245 305 372 435
#     4  12  28  48  75 111 149 196 251 302 372 441
#     4  12  27  45  75 108 151 195 248 307 365 443
#     4  12  28  46  72 113 155 190 247 309 369 441
#     4  12  24  48  75 107 147 193 246 299 366 442
#
# _framework density 21.031718999999999
#
# number of rings (size 3 to 8) (size 9 to 14) (size 15 to 20)
#    0.000    0.000    3.750    6.000    8.750    0.000 
#    0.000    0.000    0.000    0.000    0.000    0.000 
#    0.000    0.000    0.000    0.000    0.000    0.000 
#
# Total GULP energy -89698.686696 kJ/mol
# GULP energy per Si atom -5606.167918 kJ/mol
# Density = 2.098385 g / cm^3
# Si number density = 21.031719 Si / 1000 Ang^3
#
#
#
# Elastic Constant Matrix: (Units=GPa)
#
#
# Indices 1 2 3 4 5 6 
#
# 1 79.0996 12.3049 32.8395 -2.8473 -17.8641 6.3785
# 2 12.3049 93.8105 31.7961 1.7785 -18.0733 10.9117
# 3 32.8395 31.7961 145.5149 12.5912 -32.7184 15.6614
# 4 -2.8473 1.7785 12.5912 36.6076 3.9992 -0.9299
# 5 -17.8641 -18.0733 -32.7184 3.9992 56.1608 -3.4640
# 6 6.3785 10.9117 15.6614 -0.9299 -3.4640 47.4427
#
#
#
# Elastic Compliance Matrix: (Units=1/GPa)
#
#
# Indices 1 2 3 4 5 6 
#
# 1 0.014555 -0.000424 -0.002634 0.001735 0.002789 -0.000752
# 2 -0.000424 0.012037 -0.001693 -0.000376 0.002658 -0.001966
# 3 -0.002634 -0.001693 0.009342 -0.003848 0.004204 -0.002109
# 4 0.001735 -0.000376 -0.003848 0.029246 -0.003806 0.001419
# 5 0.002789 0.002658 0.004204 -0.003806 0.022217 -0.000826
# 6 -0.000752 -0.001966 -0.002109 0.001419 -0.000826 0.022295
#
#
# Mechanical properties :
#
#
# Convention : Reuss Voigt Hill
#
# Bulk Modulus (GPa) = 37.83435 52.47847 45.15641
# Shear Modulus (GPa) = 39.06122 44.14120 41.60121
#
# Velocity S-wave (km/s) = 4.31426 4.58623 4.45232
# Velocity P-wave (km/s) = 6.54564 7.28360 6.92446
#
# Compressibility (1/GPa) = 0.02643101
#
# Stress axis : x y z
#
# Youngs Moduli (GPa) = 68.70586 83.07678 107.04792
#
# Poissons Ratio (x) = 0.03527 0.28198
# Poissons Ratio (y) = 0.02916 0.18119
# Poissons Ratio (z) = 0.18098 0.14062
#
# Static dielectric constant tensor:
#      x y z
#    x 1.728990 -0.001860 0.005960 
#    y -0.001860 1.746970 -0.005360 
#    z 0.005960 -0.005360 1.737730 
# 
# From -- ./inp_files/91031.got.cif
#   From: 2010.05.17/outbox.cif.g08.bks.cpg/sg2_46_cif.got.tgz:91031.got - 2010.06.03 11:33:40.
