data_PCOD9070585
_publ_section_title
;
Structure prediction by ZEFSAII (Michael W. Deem and Ramdas Pophale) SiO2 
 PCOD9070585
Probable space group: P -1
;
_chemical_formula_sum "Si O2"
_cell_formula_units_Z 8
_cell_length_a 6.698469
_cell_length_b 10.314849
_cell_length_c 7.627986
_cell_angle_alpha 137.415235
_cell_angle_beta 57.795608
_cell_angle_gamma 120.514418
_cell_volume 295.584345
_symmetry_space_group_name_H-M "P -1"
_symmetry_group_IT_number 2
_symmetry_cell_setting 'triclinic'
loop_
_space_group_symop_operation_xyz
x,y,z
-x,-y,-z
loop_
_atom_site_type_symbol
_atom_site_label
_atom_site_fract_x
_atom_site_fract_y
_atom_site_fract_z
Si Si1 0.033827 0.163060 0.800534
Si Si2 0.044028 0.457514 0.645294
Si Si3 0.683942 0.867290 0.856864
Si Si4 0.521757 0.224528 0.759543
O O1 0.310927 0.274887 0.787887
O O2 0.900147 0.343454 0.070052
O O3 0.000000 0.000000 0.500000
O O4 0.935206 0.025868 0.876333
O O5 0.787546 0.334810 0.706636
O O6 0.000000 0.500000 0.500000
O O7 0.242608 0.325785 0.452894
O O8 0.578175 0.784231 0.007568
O O9 0.500000 0.000000 0.000000
O O10 0.500000 0.000000 0.500000
#
# Coordination Sequence:
#
# PCOD9070585 Si02
#       4
#     2   2   2   2
#     4  12  27  51  80 123 165 210 272 341 407 484
#     4  12  27  51  89 117 159 221 275 329 412 486
#     4  12  28  51  79 121 165 213 272 335 404 488
#     4  12  24  51  85 114 162 216 270 335 405 488
#
# _framework density 27.06503
#
# number of rings (size 3 to 8) (size 9 to 14) (size 15 to 20)
#    0.000    0.000    5.000    4.500    0.000    2.000 
#    0.000    0.000    0.000    0.000    0.000    0.000 
#    0.000    0.000    0.000    0.000    0.000    0.000 
#
# Total GULP energy -44722.398669 kJ/mol
# GULP energy per Si atom -5590.299834 kJ/mol
# Density = 2.700343 g / cm^3
# Si number density = 27.065030 Si / 1000 Ang^3
#
#
#
# Elastic Constant Matrix: (Units=GPa)
#
#
# Indices 1 2 3 4 5 6 
#
# 1 130.6506 37.3095 87.8268 -7.7135 -10.1939 -4.1987
# 2 37.3095 179.9529 92.0803 -20.9423 15.8787 13.8374
# 3 87.8268 92.0803 258.1141 28.2051 -35.8967 -9.3222
# 4 -7.7135 -20.9423 28.2051 66.7832 -19.1912 -8.5019
# 5 -10.1939 15.8787 -35.8967 -19.1912 49.2053 8.6488
# 6 -4.1987 13.8374 -9.3222 -8.5019 8.6488 55.1485
#
#
#
# Elastic Compliance Matrix: (Units=1/GPa)
#
#
# Indices 1 2 3 4 5 6 
#
# 1 0.010438 0.000069 -0.003828 0.003038 0.000439 0.000530
# 2 0.000069 0.008421 -0.003988 0.002918 -0.004180 -0.001676
# 3 -0.003828 -0.003988 0.007646 -0.003514 0.004571 0.000743
# 4 0.003038 0.002918 -0.003514 0.019131 0.004380 0.001167
# 5 0.000439 -0.004180 0.004571 0.004380 0.027108 -0.001721
# 6 0.000530 -0.001676 0.000743 0.001167 -0.001721 0.019169
#
#
# Mechanical properties :
#
#
# Convention : Reuss Voigt Hill
#
# Bulk Modulus (GPa) = 90.82571 111.46120 101.14345
# Shear Modulus (GPa) = 45.01291 57.66079 51.33685
#
# Velocity S-wave (km/s) = 4.08258 4.62069 4.35995
# Velocity P-wave (km/s) = 7.47359 8.35104 7.92447
#
# Compressibility (1/GPa) = 0.01101010
#
# Stress axis : x y z
#
# Youngs Moduli (GPa) = 95.80109 118.75283 130.78785
#
# Poissons Ratio (x) = -0.00814 0.50064
# Poissons Ratio (y) = -0.00656 0.52160
# Poissons Ratio (z) = 0.36672 0.47360
#
# Static dielectric constant tensor:
#      x y z
#    x 2.105680 0.044680 -0.198970 
#    y 0.044680 1.980300 0.045120 
#    z -0.198970 0.045120 2.085790 
# 
# From -- ./inp_files/183474.got.cif
#   From: 2010.05.17/outbox.cif.g08.bks.cpg/sg2_92_cif.got.tgz:183474.got - 2010.06.03 11:33:40.
