data_PCOD9070404
_publ_section_title
;
Structure prediction by ZEFSAII (Michael W. Deem and Ramdas Pophale) SiO2 
 PCOD9070404
Probable space group: P -1
;
_chemical_formula_sum "Si O2"
_cell_formula_units_Z 14
_cell_length_a 23.060883
_cell_length_b 8.772067
_cell_length_c 8.370906
_cell_angle_alpha 127.265304
_cell_angle_beta 46.575893
_cell_angle_gamma 149.250756
_cell_volume 628.311545
_symmetry_space_group_name_H-M "P -1"
_symmetry_group_IT_number 2
_symmetry_cell_setting 'triclinic'
loop_
_space_group_symop_operation_xyz
x,y,z
-x,-y,-z
loop_
_atom_site_type_symbol
_atom_site_label
_atom_site_fract_x
_atom_site_fract_y
_atom_site_fract_z
Si Si1 0.247911 0.716522 0.910970
Si Si2 0.646847 0.219656 0.566478
Si Si3 0.497460 0.284026 0.936341
Si Si4 0.898720 0.689770 0.589194
Si Si5 0.999313 0.530685 0.827107
Si Si6 0.445416 0.599304 0.728248
Si Si7 0.170665 0.212532 0.901161
O O1 0.317495 0.845713 0.691801
O O2 0.187472 0.394313 0.840704
O O3 0.355667 0.947671 0.982977
O O4 0.141193 0.678768 0.090646
O O5 0.589248 0.315781 0.682414
O O6 0.769123 0.464440 0.596762
O O7 0.536870 0.926288 0.691144
O O8 0.500000 0.500000 0.000000
O O9 0.547604 0.378675 0.080698
O O10 0.945455 0.557191 0.414067
O O11 0.878686 0.744898 0.834564
O O12 0.000000 0.000000 0.500000
O O13 0.080471 0.865326 0.838096
O O14 0.000000 0.500000 0.000000
O O15 0.500000 0.500000 0.500000
O O16 0.306097 0.379575 0.794321
#
# Coordination Sequence:
#
# PCOD9070404 Si02
#       7
#     2   2   2   2   2   2   2
#     4  12  27  47  73 108 149 189 242 306 363 433
#     4  12  24  48  71 105 147 190 239 293 374 430
#     4  12  27  43  71 112 146 184 243 301 362 434
#     4  12  25  45  77 103 141 199 243 299 364 435
#     4  12  26  48  76 106 142 196 249 300 365 438
#     4  12  26  46  76 105 146 195 239 299 367 441
#     4  12  26  49  73 107 149 190 250 302 366 435
#
# _framework density 22.281941
#
# number of rings (size 3 to 8) (size 9 to 14) (size 15 to 20)
#    0.000    0.000    5.714    3.857    6.000    0.571 
#    0.000    0.000    0.000    0.000    0.000    0.000 
#    0.000    0.000    0.000    0.000    0.000    0.000 
#
# Total GULP energy -78464.546854 kJ/mol
# GULP energy per Si atom -5604.610490 kJ/mol
# Density = 2.223123 g / cm^3
# Si number density = 22.281941 Si / 1000 Ang^3
#
#
#
# Elastic Constant Matrix: (Units=GPa)
#
#
# Indices 1 2 3 4 5 6 
#
# 1 78.6084 18.4520 23.7421 -8.3466 -41.3871 9.5756
# 2 18.4520 79.9635 29.3054 -4.7176 -30.2361 2.9501
# 3 23.7421 29.3054 120.7395 -0.2576 -46.9825 7.0022
# 4 -8.3466 -4.7176 -0.2576 38.7122 -6.0119 -8.2365
# 5 -41.3871 -30.2361 -46.9825 -6.0119 55.1695 -6.9381
# 6 9.5756 2.9501 7.0022 -8.2365 -6.9381 43.6596
#
#
#
# Elastic Compliance Matrix: (Units=1/GPa)
#
#
# Indices 1 2 3 4 5 6 
#
# 1 0.024826 0.002604 0.004055 0.009361 0.024446 -0.000620
# 2 0.002604 0.016547 -0.000066 0.004598 0.011597 0.001032
# 3 0.004055 -0.000066 0.013182 0.003200 0.014570 -0.000080
# 4 0.009361 0.004598 0.003200 0.032236 0.016513 0.005829
# 5 0.024446 0.011597 0.014570 0.016513 0.057503 0.003771
# 6 -0.000620 0.001032 -0.000080 0.005829 0.003771 0.024683
#
#
# Mechanical properties :
#
#
# Convention : Reuss Voigt Hill
#
# Bulk Modulus (GPa) = 14.76193 46.92339 30.84266
# Shear Modulus (GPa) = 28.03150 41.36238 34.69694
#
# Velocity S-wave (km/s) = 3.55073 4.31318 3.95039
# Velocity P-wave (km/s) = 4.84249 6.77564 5.88893
#
# Compressibility (1/GPa) = 0.06774182
#
# Stress axis : x y z
#
# Youngs Moduli (GPa) = 40.28076 60.43286 75.86102
#
# Poissons Ratio (x) = -0.15738 -0.30760
# Poissons Ratio (y) = -0.10490 0.00497
# Poissons Ratio (z) = -0.16333 0.00396
#
# Static dielectric constant tensor:
#      x y z
#    x 1.828420 -0.023960 0.021750 
#    y -0.023960 1.835480 0.033990 
#    z 0.021750 0.033990 1.856610 
# 
# From -- ./inp_files/181080.got.cif
#   From: 2010.05.17/outbox.cif.g08.bks.cpg/sg2_91_cif.got.tgz:181080.got - 2010.06.03 11:33:40.
