data_PCOD9070303
_publ_section_title
;
Structure prediction by ZEFSAII (Michael W. Deem and Ramdas Pophale) SiO2 
 PCOD9070303
Probable space group: P -1
;
_chemical_formula_sum "Si O2"
_cell_formula_units_Z 14
_cell_length_a 12.709595
_cell_length_b 16.401399
_cell_length_c 9.260889
_cell_angle_alpha 46.504171
_cell_angle_beta 52.652302
_cell_angle_gamma 27.272106
_cell_volume 641.618164
_symmetry_space_group_name_H-M "P -1"
_symmetry_group_IT_number 2
_symmetry_cell_setting 'triclinic'
loop_
_space_group_symop_operation_xyz
x,y,z
-x,-y,-z
loop_
_atom_site_type_symbol
_atom_site_label
_atom_site_fract_x
_atom_site_fract_y
_atom_site_fract_z
Si Si1 0.973280 0.386073 0.695478
Si Si2 0.503883 0.026618 0.298249
Si Si3 0.448165 0.634972 0.268805
Si Si4 0.265414 0.667379 0.080579
Si Si5 0.268416 0.122627 0.125225
Si Si6 0.189619 0.463566 0.036184
Si Si7 0.075851 0.028438 0.267632
O O1 0.831264 0.389355 0.724449
O O2 0.832618 0.489860 0.834429
O O3 0.000000 0.500000 0.500000
O O4 0.235054 0.157599 0.752361
O O5 0.500000 0.000000 0.500000
O O6 0.357136 0.038983 0.314275
O O7 0.362980 0.240153 0.142403
O O8 0.500000 0.500000 0.500000
O O9 0.316708 0.695832 0.153976
O O10 0.299514 0.823883 0.254781
O O11 0.692293 0.516934 0.168028
O O12 0.500000 0.500000 0.000000
O O13 0.096415 0.835661 0.891833
O O14 0.146657 0.099531 0.187667
O O15 0.079647 0.353511 0.002769
O O16 0.500000 0.000000 0.000000
O O17 0.000000 0.000000 0.500000
#
# Coordination Sequence:
#
# PCOD9070303 Si02
#       7
#     2   2   2   2   2   2   2
#     4  12  25  47  75 111 149 187 246 312 370 440
#     4  12  27  44  73 111 145 193 244 302 377 443
#     4  12  27  48  75 108 148 199 253 305 374 447
#     4  12  24  49  75 105 149 196 245 311 371 439
#     4  12  24  47  73 102 149 192 239 306 371 432
#     4  12  24  49  73 108 149 187 249 307 367 446
#     4  12  27  48  74 112 148 197 251 305 376 449
#
# _framework density 21.819832000000002
#
# number of rings (size 3 to 8) (size 9 to 14) (size 15 to 20)
#    0.000    0.000    5.714    4.286    0.000    5.714 
#    2.571    0.000    0.000    0.000    0.000    0.000 
#    0.000    0.000    0.000    0.000    0.000    0.000 
#
# Total GULP energy -78119.929280 kJ/mol
# GULP energy per Si atom -5579.994949 kJ/mol
# Density = 2.177017 g / cm^3
# Si number density = 21.819832 Si / 1000 Ang^3
#
#
#
# Elastic Constant Matrix: (Units=GPa)
#
#
# Indices 1 2 3 4 5 6 
#
# 1 68.9932 40.0120 32.5770 -7.9475 12.4355 4.5754
# 2 40.0120 193.0312 45.0227 -8.3362 -15.1487 -0.3145
# 3 32.5770 45.0227 133.2535 9.6591 -3.6138 -3.0220
# 4 -7.9475 -8.3362 9.6591 38.6419 1.3292 3.3417
# 5 12.4355 -15.1487 -3.6138 1.3292 41.0263 5.4256
# 6 4.5754 -0.3145 -3.0220 3.3417 5.4256 36.5896
#
#
#
# Elastic Compliance Matrix: (Units=1/GPa)
#
#
# Indices 1 2 3 4 5 6 
#
# 1 0.020948 -0.003699 -0.004511 0.005112 -0.007973 -0.002308
# 2 -0.003699 0.006553 -0.001284 0.000871 0.003422 -0.000174
# 3 -0.004511 -0.001284 0.009389 -0.003732 0.001653 0.001424
# 4 0.005112 0.000871 -0.003732 0.028400 -0.002049 -0.003230
# 5 -0.007973 0.003422 0.001653 -0.002049 0.028650 -0.002898
# 6 -0.002308 -0.000174 0.001424 -0.003230 -0.002898 0.028460
#
#
# Mechanical properties :
#
#
# Convention : Reuss Voigt Hill
#
# Bulk Modulus (GPa) = 55.85816 70.05571 62.95693
# Shear Modulus (GPa) = 33.93185 41.76264 37.84724
#
# Velocity S-wave (km/s) = 3.94774 4.37965 4.16929
# Velocity P-wave (km/s) = 6.81431 7.59942 7.21755
#
# Compressibility (1/GPa) = 0.01790249
#
# Stress axis : x y z
#
# Youngs Moduli (GPa) = 47.73700 152.61112 106.51163
#
# Poissons Ratio (x) = 0.56448 0.48044
# Poissons Ratio (y) = 0.17657 0.13676
# Poissons Ratio (z) = 0.21532 0.19595
#
# Static dielectric constant tensor:
#      x y z
#    x 2.725190 0.072640 -0.322320 
#    y 0.072640 1.832900 -0.092580 
#    z -0.322320 -0.092580 2.009410 
# 
# From -- ./inp_files/271790.got.cif
#   From: 2010.05.17/outbox.cif.g08.bks.cpg/sg2_136_cif.got.tgz:271790.got - 2010.06.03 11:33:40.
