data_PCOD9070389
_publ_section_title
;
Structure prediction by ZEFSAII (Michael W. Deem and Ramdas Pophale) SiO2 
 PCOD9070389
Probable space group: P -1
;
_chemical_formula_sum "Si O2"
_cell_formula_units_Z 10
_cell_length_a 9.476737
_cell_length_b 19.208935
_cell_length_c 13.076349
_cell_angle_alpha 16.960169
_cell_angle_beta 34.176894
_cell_angle_gamma 35.049951
_cell_volume 384.604302
_symmetry_space_group_name_H-M "P -1"
_symmetry_group_IT_number 2
_symmetry_cell_setting 'triclinic'
loop_
_space_group_symop_operation_xyz
x,y,z
-x,-y,-z
loop_
_atom_site_type_symbol
_atom_site_label
_atom_site_fract_x
_atom_site_fract_y
_atom_site_fract_z
Si Si1 0.997234 0.748372 0.289842
Si Si2 0.634865 0.668124 0.255465
Si Si3 0.833842 0.293840 0.364076
Si Si4 0.413720 0.805293 0.544277
Si Si5 0.718081 0.124021 0.249699
O O1 0.105358 0.503604 0.628436
O O2 0.712758 0.757291 0.410948
O O3 0.182705 0.734444 0.101331
O O4 0.000000 0.000000 0.000000
O O5 0.500000 0.500000 0.500000
O O6 0.426722 0.719292 0.399246
O O7 0.670451 0.909735 0.835154
O O8 0.745595 0.323816 0.257986
O O9 0.030733 0.056172 0.609981
O O10 0.000000 0.500000 0.000000
O O11 0.387363 0.759458 0.744560
O O12 0.500000 0.000000 0.500000
#
# Coordination Sequence:
#
# PCOD9070389 Si02
#       5
#     2   2   2   2   2
#     4  12  24  48  79 118 157 200 257 320 389 472
#     4  12  24  48  81 112 156 208 251 321 397 459
#     4  12  27  50  75 113 161 208 263 321 383 458
#     4  12  27  51  79 116 157 208 258 318 388 469
#     4  12  24  47  80 112 159 199 253 326 387 461
#
# _framework density 26.000747
#
# number of rings (size 3 to 8) (size 9 to 14) (size 15 to 20)
#    0.000    0.000    6.000    3.600    0.000    0.800 
#    7.200    4.000    0.000    0.000    0.000    0.000 
#    0.000    0.000    0.000    0.000    0.000    0.000 
#
# Total GULP energy -56123.463014 kJ/mol
# GULP energy per Si atom -5612.346301 kJ/mol
# Density = 2.594157 g / cm^3
# Si number density = 26.000747 Si / 1000 Ang^3
#
#
#
# Elastic Constant Matrix: (Units=GPa)
#
#
# Indices 1 2 3 4 5 6 
#
# 1 229.7023 59.1192 52.6293 5.3385 -14.3431 2.1064
# 2 59.1192 125.0694 36.3649 16.1448 2.3450 1.4951
# 3 52.6293 36.3649 114.7206 12.5431 1.6489 9.6433
# 4 5.3385 16.1448 12.5431 45.1320 -1.3658 20.8793
# 5 -14.3431 2.3450 1.6489 -1.3658 50.2318 -6.0763
# 6 2.1064 1.4951 9.6433 20.8793 -6.0763 67.2848
#
#
#
# Elastic Compliance Matrix: (Units=1/GPa)
#
#
# Indices 1 2 3 4 5 6 
#
# 1 0.005435 -0.002128 -0.001925 0.000657 0.001745 0.000107
# 2 -0.002128 0.009988 -0.001902 -0.003311 -0.000974 0.001057
# 3 -0.001925 -0.001902 0.010472 -0.001569 -0.000968 -0.000999
# 4 0.000657 -0.003311 -0.001569 0.027521 0.000144 -0.008249
# 5 0.001745 -0.000974 -0.000968 0.000144 0.020721 0.001932
# 6 0.000107 0.001057 -0.000999 -0.008249 0.001932 0.017713
#
#
# Mechanical properties :
#
#
# Convention : Reuss Voigt Hill
#
# Bulk Modulus (GPa) = 71.50854 85.07989 78.29422
# Shear Modulus (GPa) = 46.11647 53.95498 50.03572
#
# Velocity S-wave (km/s) = 4.21605 4.56030 4.39155
# Velocity P-wave (km/s) = 7.15977 7.77956 7.47609
#
# Compressibility (1/GPa) = 0.01398434
#
# Stress axis : x y z
#
# Youngs Moduli (GPa) = 183.99636 100.12311 95.49023
#
# Poissons Ratio (x) = 0.21308 0.18378
# Poissons Ratio (y) = 0.39158 0.18167
# Poissons Ratio (z) = 0.35411 0.19048
#
# Static dielectric constant tensor:
#      x y z
#    x 2.276200 -0.522770 -0.538920 
#    y -0.522770 3.140120 0.932560 
#    z -0.538920 0.932560 3.016490 
# 
# From -- ./inp_files/144149.got.cif
#   From: 2010.05.17/outbox.cif.g08.bks.cpg/sg2_73_cif.got.tgz:144149.got - 2010.06.03 11:33:40.
