data_PCOD9070358
_publ_section_title
;
Structure prediction by ZEFSAII (Michael W. Deem and Ramdas Pophale) SiO2 
 PCOD9070358
Probable space group: P -1
;
_chemical_formula_sum "Si O2"
_cell_formula_units_Z 14
_cell_length_a 14.632003
_cell_length_b 6.763646
_cell_length_c 21.252359
_cell_angle_alpha 67.244465
_cell_angle_beta 22.814260
_cell_angle_gamma 55.714610
_cell_volume 613.544736
_symmetry_space_group_name_H-M "P -1"
_symmetry_group_IT_number 2
_symmetry_cell_setting 'triclinic'
loop_
_space_group_symop_operation_xyz
x,y,z
-x,-y,-z
loop_
_atom_site_type_symbol
_atom_site_label
_atom_site_fract_x
_atom_site_fract_y
_atom_site_fract_z
Si Si1 0.174910 0.147474 0.660668
Si Si2 0.278924 0.248377 0.152288
Si Si3 0.934531 0.527825 0.963375
Si Si4 0.866563 0.189437 0.502768
Si Si5 0.675466 0.116734 0.027068
Si Si6 0.443659 0.693807 0.784249
Si Si7 0.526144 0.103058 0.626307
O O1 0.242485 0.051908 0.556676
O O2 0.964342 0.466831 0.757774
O O3 0.500000 0.000000 0.500000
O O4 0.985727 0.067152 0.826235
O O5 0.107393 0.157899 0.309576
O O6 0.500000 0.000000 0.000000
O O7 0.475584 0.269172 0.075563
O O8 0.736457 0.831393 0.031758
O O9 0.243322 0.383904 0.750339
O O10 0.000000 0.500000 0.000000
O O11 0.782163 0.382129 0.065130
O O12 0.700262 0.471922 0.605924
O O13 0.666823 0.145298 0.591739
O O14 0.000000 0.000000 0.500000
O O15 0.516411 0.281334 0.170549
O O16 0.386790 0.952285 0.756512
#
# Coordination Sequence:
#
# PCOD9070358 Si02
#       7
#     2   2   2   2   2   2   2
#     4  12  30  51  80 111 152 209 259 316 382 457
#     4  12  29  53  76 111 160 204 256 317 385 460
#     4  12  25  44  76 115 154 195 249 319 387 444
#     4  12  27  45  77 113 151 197 255 317 385 454
#     4  12  29  49  80 111 154 208 254 313 389 461
#     4  12  24  47  76 111 152 195 255 314 384 458
#     4  12  26  47  75 112 154 198 254 321 379 457
#
# _framework density 22.818221000000001
#
# number of rings (size 3 to 8) (size 9 to 14) (size 15 to 20)
#    0.000    0.000    4.286    4.286   12.000    1.714 
#    0.000    0.000    0.000    0.000    0.000    0.000 
#    0.000    0.000    0.000    0.000    0.000    0.000 
#
# Total GULP energy -78328.759109 kJ/mol
# GULP energy per Si atom -5594.911365 kJ/mol
# Density = 2.276629 g / cm^3
# Si number density = 22.818221 Si / 1000 Ang^3
#
#
#
# Elastic Constant Matrix: (Units=GPa)
#
#
# Indices 1 2 3 4 5 6 
#
# 1 103.9007 46.1571 41.3345 22.0451 5.4262 14.8635
# 2 46.1571 107.2765 51.5279 13.6487 3.2832 7.2493
# 3 41.3345 51.5279 147.7940 12.9058 14.4854 4.7008
# 4 22.0451 13.6487 12.9058 49.9326 2.3531 6.0204
# 5 5.4262 3.2832 14.4854 2.3531 48.0803 7.0271
# 6 14.8635 7.2493 4.7008 6.0204 7.0271 30.8476
#
#
#
# Elastic Compliance Matrix: (Units=1/GPa)
#
#
# Indices 1 2 3 4 5 6 
#
# 1 0.013716 -0.004185 -0.001909 -0.003869 0.000178 -0.004620
# 2 -0.004185 0.012809 -0.003280 -0.000778 0.000697 -0.000501
# 3 -0.001909 -0.003280 0.008682 -0.000516 -0.002296 0.000991
# 4 -0.003869 -0.000778 -0.000516 0.022354 -0.000126 -0.002208
# 5 0.000178 0.000697 -0.002296 -0.000126 0.022148 -0.004920
# 6 -0.004620 -0.000501 0.000991 -0.002208 -0.004920 0.036162
#
#
# Mechanical properties :
#
#
# Convention : Reuss Voigt Hill
#
# Bulk Modulus (GPa) = 60.75887 70.77890 65.76888
# Shear Modulus (GPa) = 35.68719 40.43555 38.06137
#
# Velocity S-wave (km/s) = 3.95901 4.21417 4.08858
# Velocity P-wave (km/s) = 6.89808 7.40033 7.15361
#
# Compressibility (1/GPa) = 0.01645850
#
# Stress axis : x y z
#
# Youngs Moduli (GPa) = 72.90710 78.06751 115.17742
#
# Poissons Ratio (x) = 0.32674 0.21993
# Poissons Ratio (y) = 0.30514 0.37777
# Poissons Ratio (z) = 0.13921 0.25605
#
# Static dielectric constant tensor:
#      x y z
#    x 1.862770 0.007630 -0.022540 
#    y 0.007630 1.851430 0.076200 
#    z -0.022540 0.076200 1.914630 
# 
# From -- ./inp_files/441609.got.cif
#   From: 2010.05.17/outbox.cif.g08.bks.cpg/sg2_221_cif.got.tgz:441609.got - 2010.06.03 11:33:40.
