data_PCOD9070008
_publ_section_title
;
Structure prediction by ZEFSAII (Michael W. Deem and Ramdas Pophale) SiO2 
 PCOD9070008
Probable space group: P -1
;
_chemical_formula_sum "Si O2"
_cell_formula_units_Z 12
_cell_length_a 12.307182
_cell_length_b 13.359697
_cell_length_c 10.461554
_cell_angle_alpha 49.456274
_cell_angle_beta 51.321756
_cell_angle_gamma 22.142830
_cell_volume 491.101789
_symmetry_space_group_name_H-M "P -1"
_symmetry_group_IT_number 2
_symmetry_cell_setting 'triclinic'
loop_
_space_group_symop_operation_xyz
x,y,z
-x,-y,-z
loop_
_atom_site_type_symbol
_atom_site_label
_atom_site_fract_x
_atom_site_fract_y
_atom_site_fract_z
Si Si1 0.522235 0.018237 0.617628
Si Si2 0.321828 0.723575 0.549187
Si Si3 0.816616 0.286632 0.909323
Si Si4 0.916763 0.298131 0.095681
Si Si5 0.158819 0.556067 0.490644
Si Si6 0.536860 0.843699 0.007545
O O1 0.518116 0.912352 0.819020
O O2 0.838898 0.825632 0.561824
O O3 0.500000 0.000000 0.500000
O O4 0.237243 0.342020 0.578511
O O5 0.500000 0.500000 0.500000
O O6 0.273060 0.669007 0.751360
O O7 0.549881 0.648023 0.477022
O O8 0.000000 0.000000 0.500000
O O9 0.843463 0.346445 0.710255
O O10 0.500000 0.500000 0.000000
O O11 0.898095 0.316720 0.940909
O O12 0.000000 0.000000 0.000000
O O13 0.805957 0.519036 0.071106
O O14 0.253687 0.994706 0.126161
O O15 0.500000 0.000000 0.000000
#
# Coordination Sequence:
#
# PCOD9070008 Si02
#       6
#     2   2   2   2   2   2
#     4  12  26  48  75 106 148 193 247 301 365 435
#     4  12  28  45  73 108 146 193 239 300 373 433
#     4  12  24  44  73 110 143 181 236 296 376 436
#     4  12  26  49  73 103 148 184 246 305 363 436
#     4  12  26  46  77 107 146 187 243 306 364 441
#     4  12  28  47  73 104 143 198 245 299 360 436
#
# _framework density 24.434853
#
# number of rings (size 3 to 8) (size 9 to 14) (size 15 to 20)
#    0.000    0.000    1.667    8.000    9.333    0.000 
#    0.000    0.000    0.000    0.000    0.000    0.000 
#    0.000    0.000    0.000    0.000    0.000    0.000 
#
# Total GULP energy -67061.200943 kJ/mol
# GULP energy per Si atom -5588.433412 kJ/mol
# Density = 2.437924 g / cm^3
# Si number density = 24.434853 Si / 1000 Ang^3
#
#
#
# Elastic Constant Matrix: (Units=GPa)
#
#
# Indices 1 2 3 4 5 6 
#
# 1 93.7109 23.1681 -12.5553 13.0689 9.9474 -5.8599
# 2 23.1681 191.9726 19.7482 6.9839 2.7404 -7.9190
# 3 -12.5553 19.7482 84.7342 13.6019 4.8397 -14.1969
# 4 13.0689 6.9839 13.6019 45.4558 -8.5268 -10.5166
# 5 9.9474 2.7404 4.8397 -8.5268 32.8474 8.3783
# 6 -5.8599 -7.9190 -14.1969 -10.5166 8.3783 46.2363
#
#
#
# Elastic Compliance Matrix: (Units=1/GPa)
#
#
# Indices 1 2 3 4 5 6 
#
# 1 0.013206 -0.001610 0.003998 -0.005369 -0.006507 0.002584
# 2 -0.001610 0.005563 -0.001529 0.000172 0.000223 0.000278
# 3 0.003998 -0.001529 0.014710 -0.005342 -0.005811 0.004600
# 4 -0.005369 0.000172 -0.005342 0.027319 0.008901 0.002309
# 5 -0.006507 0.000223 -0.005811 0.008901 0.037432 -0.007329
# 6 0.002584 0.000278 0.004600 0.002309 -0.007329 0.025269
#
#
# Mechanical properties :
#
#
# Convention : Reuss Voigt Hill
#
# Bulk Modulus (GPa) = 28.41101 47.90439 38.15770
# Shear Modulus (GPa) = 37.44958 47.57834 42.51396
#
# Velocity S-wave (km/s) = 3.91913 4.41744 4.17572
# Velocity P-wave (km/s) = 5.66850 6.75765 6.23690
#
# Compressibility (1/GPa) = 0.03519762
#
# Stress axis : x y z
#
# Youngs Moduli (GPa) = 75.72398 179.76830 67.97880
#
# Poissons Ratio (x) = 0.28948 -0.27180
# Poissons Ratio (y) = 0.12194 0.10392
# Poissons Ratio (z) = -0.30277 0.27482
#
# Static dielectric constant tensor:
#      x y z
#    x 2.005660 -0.011360 0.001110 
#    y -0.011360 1.853570 -0.040760 
#    z 0.001110 -0.040760 1.997230 
# 
# From -- ./inp_files/60219.got.cif
#   From: 2010.05.17/outbox.cif.g08.bks.cpg/sg2_31_cif.got.tgz:60219.got - 2010.06.03 11:33:40.
