data_PCOD9070325
_publ_section_title
;
Structure prediction by ZEFSAII (Michael W. Deem and Ramdas Pophale) SiO2 
 PCOD9070325
Probable space group: P -1
;
_chemical_formula_sum "Si O2"
_cell_formula_units_Z 12
_cell_length_a 12.535080
_cell_length_b 9.039735
_cell_length_c 9.308697
_cell_angle_alpha 98.352919
_cell_angle_beta 137.233939
_cell_angle_gamma 57.804188
_cell_volume 547.789500
_symmetry_space_group_name_H-M "P -1"
_symmetry_group_IT_number 2
_symmetry_cell_setting 'triclinic'
loop_
_space_group_symop_operation_xyz
x,y,z
-x,-y,-z
loop_
_atom_site_type_symbol
_atom_site_label
_atom_site_fract_x
_atom_site_fract_y
_atom_site_fract_z
Si Si1 0.674907 0.315144 0.740108
Si Si2 0.654346 0.000159 0.542149
Si Si3 0.995795 0.379617 0.600187
Si Si4 0.346933 0.967863 0.793958
Si Si5 0.037292 0.574269 0.906905
Si Si6 0.519663 0.626410 0.139886
O O1 0.500000 0.500000 0.500000
O O2 0.718689 0.122639 0.691017
O O3 0.603576 0.320605 0.829847
O O4 0.834267 0.355321 0.918758
O O5 0.611382 0.072721 0.342420
O O6 0.500000 0.000000 0.500000
O O7 0.832545 0.771118 0.671264
O O8 0.107246 0.402057 0.842141
O O9 0.755973 0.498438 0.403802
O O10 0.000000 0.500000 0.500000
O O11 0.118751 0.162066 0.633707
O O12 0.413067 0.807152 0.953723
O O13 0.500000 0.000000 0.000000
O O14 0.000000 0.500000 0.000000
O O15 0.500000 0.500000 0.000000
#
# Coordination Sequence:
#
# PCOD9070325 Si02
#       6
#     2   2   2   2   2   2
#     4  12  27  49  71 109 149 190 251 309 375 445
#     4  12  26  47  74 111 148 192 249 304 376 446
#     4  12  24  47  74 109 145 193 256 294 376 443
#     4  12  26  45  78 107 146 197 247 306 371 446
#     4  12  27  47  77 103 146 198 243 313 371 445
#     4  12  27  48  75 110 151 194 244 317 374 441
#
# _framework density 21.906226
#
# number of rings (size 3 to 8) (size 9 to 14) (size 15 to 20)
#    0.000    0.000    3.333    6.500    7.000    0.667 
#    3.000    0.000    0.000    0.000    0.000    0.000 
#    0.000    0.000    0.000    0.000    0.000    0.000 
#
# Total GULP energy -66842.952198 kJ/mol
# GULP energy per Si atom -5570.246017 kJ/mol
# Density = 2.185637 g / cm^3
# Si number density = 21.906226 Si / 1000 Ang^3
#
#
#
# Elastic Constant Matrix: (Units=GPa)
#
#
# Indices 1 2 3 4 5 6 
#
# 1 162.9291 62.0536 59.1008 15.1633 -30.0558 15.6056
# 2 62.0536 133.7175 40.6142 14.3740 -6.5756 11.2198
# 3 59.1008 40.6142 92.1889 13.9774 -9.8358 -1.9709
# 4 15.1633 14.3740 13.9774 59.8596 0.8937 -12.2947
# 5 -30.0558 -6.5756 -9.8358 0.8937 53.3878 3.0384
# 6 15.6056 11.2198 -1.9709 -12.2947 3.0384 41.1305
#
#
#
# Elastic Compliance Matrix: (Units=1/GPa)
#
#
# Indices 1 2 3 4 5 6 
#
# 1 0.010342 -0.002531 -0.004803 -0.001864 0.004906 -0.004383
# 2 -0.002531 0.009756 -0.002544 -0.001562 -0.000538 -0.002250
# 3 -0.004803 -0.002544 0.015242 -0.001123 -0.000357 0.002937
# 4 -0.001864 -0.001562 -0.001123 0.019286 -0.002170 0.007005
# 5 0.004906 -0.000538 -0.000357 -0.002170 0.021624 -0.003978
# 6 -0.004383 -0.002250 0.002937 0.007005 -0.003978 0.029118
#
#
# Mechanical properties :
#
#
# Convention : Reuss Voigt Hill
#
# Bulk Modulus (GPa) = 64.16763 79.15253 71.66008
# Shear Modulus (GPa) = 38.36737 46.01338 42.19037
#
# Velocity S-wave (km/s) = 4.18956 4.58806 4.39333
# Velocity P-wave (km/s) = 7.26352 8.01735 7.64973
#
# Compressibility (1/GPa) = 0.01558418
#
# Stress axis : x y z
#
# Youngs Moduli (GPa) = 96.69044 102.50082 65.60859
#
# Poissons Ratio (x) = 0.25946 0.31510
# Poissons Ratio (y) = 0.24475 0.16691
# Poissons Ratio (z) = 0.46437 0.26076
#
# Static dielectric constant tensor:
#      x y z
#    x 1.813550 -0.037920 0.067660 
#    y -0.037920 1.753220 0.007240 
#    z 0.067660 0.007240 1.821570 
# 
# From -- ./inp_files/149804.got.cif
#   From: 2010.05.17/outbox.cif.g08.bks.cpg/sg2_75_cif.got.tgz:149804.got - 2010.06.03 11:33:40.
