data_PCOD9070995
_publ_section_title
;
Structure prediction by ZEFSAII (Michael W. Deem and Ramdas Pophale) SiO2 
 PCOD9070995
Probable space group: P -1
;
_chemical_formula_sum "Si O2"
_cell_formula_units_Z 13
_cell_length_a 9.120849
_cell_length_b 12.128273
_cell_length_c 12.206030
_cell_angle_alpha 63.055430
_cell_angle_beta 140.857888
_cell_angle_gamma 140.740588
_cell_volume 501.321900
_symmetry_space_group_name_H-M "P -1"
_symmetry_group_IT_number 2
_symmetry_cell_setting 'triclinic'
loop_
_space_group_symop_operation_xyz
x,y,z
-x,-y,-z
loop_
_atom_site_type_symbol
_atom_site_label
_atom_site_fract_x
_atom_site_fract_y
_atom_site_fract_z
Si Si1 0.854398 0.810741 0.460966
Si Si2 0.046953 0.529859 0.172107
Si Si3 0.917127 0.140825 0.678469
Si Si4 0.813058 0.480917 0.295283
Si Si5 0.000000 0.000000 0.000000
Si Si6 0.855217 0.202574 0.158169
Si Si7 0.072203 0.231278 0.052008
O O1 0.438197 0.649800 0.311335
O O2 0.957931 0.831728 0.385848
O O3 0.013657 0.778565 0.654801
O O4 0.000000 0.000000 0.500000
O O5 0.975273 0.490199 0.277057
O O6 0.815740 0.334181 0.066105
O O7 0.963038 0.639000 0.051583
O O8 0.988212 0.059226 0.840672
O O9 0.125062 0.347165 0.745651
O O10 0.500000 0.000000 0.500000
O O11 0.392492 0.287374 0.148903
O O12 0.000000 0.500000 0.500000
O O13 0.222984 0.966710 0.089658
O O14 0.126829 0.253598 0.203127
O O15 0.500000 0.000000 0.000000
#
# Coordination Sequence:
#
# PCOD9070995 Si02
#       7
#     2   2   2   2   1   2   2
#     4  12  26  50  77 116 160 212 269 333 407 485
#     4  12  26  50  75 116 161 205 274 333 407 488
#     4  12  27  50  80 115 161 207 272 330 406 491
#     4  12  25  48  78 111 156 209 263 334 406 478
#     4  12  28  48  80 112 156 206 268 326 410 470
#     4  12  28  47  80 115 160 211 264 336 414 482
#     4  12  27  47  76 113 154 205 271 323 401 483
#
# _framework density 25.931443000000002
#
# number of rings (size 3 to 8) (size 9 to 14) (size 15 to 20)
#    0.000    0.000    1.538    7.846    4.308    1.231 
#    0.000    0.000    0.000    0.000    0.000    0.000 
#    0.000    0.000    0.000    0.000    0.000    0.000 
#
# Total GULP energy -72744.338136 kJ/mol
# GULP energy per Si atom -5595.718318 kJ/mol
# Density = 2.587242 g / cm^3
# Si number density = 25.931443 Si / 1000 Ang^3
#
#
#
# Elastic Constant Matrix: (Units=GPa)
#
#
# Indices 1 2 3 4 5 6 
#
# 1 260.8456 68.5084 75.5363 -6.7255 -37.9209 10.5300
# 2 68.5084 130.7775 37.5427 -18.6875 -2.3684 -24.0162
# 3 75.5363 37.5427 143.0723 -18.7668 -13.0663 31.0411
# 4 -6.7255 -18.6875 -18.7668 47.2898 11.0522 6.0703
# 5 -37.9209 -2.3684 -13.0663 11.0522 51.6584 3.6492
# 6 10.5300 -24.0162 31.0411 6.0703 3.6492 70.9108
#
#
#
# Elastic Compliance Matrix: (Units=1/GPa)
#
#
# Indices 1 2 3 4 5 6 
#
# 1 0.005716 -0.002818 -0.001939 -0.001888 0.004051 -0.001001
# 2 -0.002818 0.011162 -0.002445 0.003127 -0.003209 0.005167
# 3 -0.001939 -0.002445 0.010335 0.003379 0.000737 -0.005392
# 4 -0.001888 0.003127 0.003379 0.025019 -0.005600 -0.001993
# 5 0.004051 -0.003209 0.000737 -0.005600 0.023764 -0.002755
# 6 -0.001001 0.005167 -0.005392 -0.001993 -0.002755 0.018673
#
#
# Mechanical properties :
#
#
# Convention : Reuss Voigt Hill
#
# Bulk Modulus (GPa) = 78.06909 99.76338 88.91624
# Shear Modulus (GPa) = 44.11391 57.51234 50.81312
#
# Velocity S-wave (km/s) = 4.12900 4.71453 4.43145
# Velocity P-wave (km/s) = 7.27344 8.25779 7.78120
#
# Compressibility (1/GPa) = 0.01280917
#
# Stress axis : x y z
#
# Youngs Moduli (GPa) = 174.94963 89.58713 96.75880
#
# Poissons Ratio (x) = 0.25247 0.18759
# Poissons Ratio (y) = 0.49303 0.23659
# Poissons Ratio (z) = 0.33919 0.21905
#
# Static dielectric constant tensor:
#      x y z
#    x 2.094640 0.379470 0.249460 
#    y 0.379470 2.264950 0.280630 
#    z 0.249460 0.280630 2.410130 
# 
# From -- ./inp_files/244689.got.cif
#   From: 2010.05.17/outbox.cif.g08.bks.cpg/sg2_123_cif.got.tgz:244689.got - 2010.06.03 11:33:40.
