data_PCOD9070742
_publ_section_title
;
Structure prediction by ZEFSAII (Michael W. Deem and Ramdas Pophale) SiO2 
 PCOD9070742
Probable space group: P -1
;
_chemical_formula_sum "Si O2"
_cell_formula_units_Z 11
_cell_length_a 14.061025
_cell_length_b 5.777253
_cell_length_c 11.967316
_cell_angle_alpha 106.444982
_cell_angle_beta 34.860581
_cell_angle_gamma 118.811576
_cell_volume 474.469833
_symmetry_space_group_name_H-M "P -1"
_symmetry_group_IT_number 2
_symmetry_cell_setting 'triclinic'
loop_
_space_group_symop_operation_xyz
x,y,z
-x,-y,-z
loop_
_atom_site_type_symbol
_atom_site_label
_atom_site_fract_x
_atom_site_fract_y
_atom_site_fract_z
Si Si1 0.500000 0.500000 0.500000
Si Si2 0.820005 0.122318 0.891781
Si Si3 0.084726 0.552746 0.551239
Si Si4 0.440008 0.102032 0.296829
Si Si5 0.663896 0.712857 0.795064
Si Si6 0.944925 0.748596 0.105001
O O1 0.485481 0.339757 0.372330
O O2 0.723612 0.599854 0.303819
O O3 0.952143 0.117230 0.860701
O O4 0.919333 0.422802 0.782806
O O5 0.800937 0.935933 0.778920
O O6 0.613301 0.030999 0.126862
O O7 0.216569 0.402951 0.403607
O O8 0.000000 0.500000 0.500000
O O9 0.234277 0.855983 0.479397
O O10 0.432742 0.178282 0.185936
O O11 0.500000 0.500000 0.000000
O O12 0.000000 0.500000 0.000000
O O13 0.000000 0.000000 0.000000
#
# Coordination Sequence:
#
# PCOD9070742 Si02
#       6
#     1   2   2   2   2   2
#     4  12  30  52  82 112 172 218 282 336 420 490
#     4  12  26  50  77 116 159 207 276 342 416 492
#     4  12  26  45  76 114 158 205 266 332 422 492
#     4  12  27  51  74 116 159 212 268 339 412 500
#     4  12  25  45  77 116 155 203 261 340 415 493
#     4  12  31  55  82 120 166 225 284 345 418 506
#
# _framework density 23.183771
#
# number of rings (size 3 to 8) (size 9 to 14) (size 15 to 20)
#    0.000    0.000    5.455    3.273    7.636    2.182 
#    0.000    0.000    0.000    0.000    0.000    0.000 
#    0.000    0.000    0.000    0.000    0.000    0.000 
#
# Total GULP energy -61293.645272 kJ/mol
# GULP energy per Si atom -5572.149570 kJ/mol
# Density = 2.313100 g / cm^3
# Si number density = 23.183771 Si / 1000 Ang^3
#
#
#
# Elastic Constant Matrix: (Units=GPa)
#
#
# Indices 1 2 3 4 5 6 
#
# 1 198.4598 64.2969 31.1317 -9.9679 -10.3124 42.0818
# 2 64.2969 76.2406 24.0378 -1.1709 7.5417 16.4963
# 3 31.1317 24.0378 85.7293 4.6609 -29.5515 2.6390
# 4 -9.9679 -1.1709 4.6609 36.5613 7.6654 0.2441
# 5 -10.3124 7.5417 -29.5515 7.6654 51.4200 3.3515
# 6 42.0818 16.4963 2.6390 0.2441 3.3515 42.7787
#
#
#
# Elastic Compliance Matrix: (Units=1/GPa)
#
#
# Indices 1 2 3 4 5 6 
#
# 1 0.008603 -0.005937 -0.000513 0.001749 0.002454 -0.006344
# 2 -0.005937 0.021416 -0.006797 0.001705 -0.008404 -0.001350
# 3 -0.000513 -0.006797 0.018153 -0.005202 0.012031 0.001093
# 4 0.001749 0.001705 -0.005202 0.030080 -0.007265 -0.001659
# 5 0.002454 -0.008404 0.012031 -0.007265 0.029311 -0.002170
# 6 -0.006344 -0.001350 0.001093 -0.001659 -0.002170 0.030250
#
#
# Mechanical properties :
#
#
# Convention : Reuss Voigt Hill
#
# Bulk Modulus (GPa) = 46.13025 66.59583 56.36304
# Shear Modulus (GPa) = 29.14878 42.21623 35.68251
#
# Velocity S-wave (km/s) = 3.54968 4.27188 3.92741
# Velocity P-wave (km/s) = 6.06145 7.28831 6.70301
#
# Compressibility (1/GPa) = 0.02167775
#
# Stress axis : x y z
#
# Youngs Moduli (GPa) = 116.23314 46.69449 55.08691
#
# Poissons Ratio (x) = 0.27722 0.02829
# Poissons Ratio (y) = 0.69006 0.37442
# Poissons Ratio (z) = 0.05969 0.31738
#
# Static dielectric constant tensor:
#      x y z
#    x 1.812150 -0.038900 -0.002080 
#    y -0.038900 1.985740 -0.047560 
#    z -0.002080 -0.047560 1.702430 
# 
# From -- ./inp_files/22342.got.cif
#   From: 2010.05.17/outbox.cif.g08.bks.cpg/sg2_12_cif.got.tgz:22342.got - 2010.06.03 11:33:40.
