data_PCOD9070223
_publ_section_title
;
Structure prediction by ZEFSAII (Michael W. Deem and Ramdas Pophale) SiO2 
 PCOD9070223
Probable space group: P -1
;
_chemical_formula_sum "Si O2"
_cell_formula_units_Z 14
_cell_length_a 9.633829
_cell_length_b 13.562939
_cell_length_c 9.558279
_cell_angle_alpha 61.179115
_cell_angle_beta 135.951635
_cell_angle_gamma 140.756015
_cell_volume 541.371535
_symmetry_space_group_name_H-M "P -1"
_symmetry_group_IT_number 2
_symmetry_cell_setting 'triclinic'
loop_
_space_group_symop_operation_xyz
x,y,z
-x,-y,-z
loop_
_atom_site_type_symbol
_atom_site_label
_atom_site_fract_x
_atom_site_fract_y
_atom_site_fract_z
Si Si1 0.335723 0.323352 0.546987
Si Si2 0.622616 0.762110 0.095708
Si Si3 0.500000 0.500000 0.000000
Si Si4 0.373128 0.825098 0.502231
Si Si5 0.112229 0.683395 0.687853
Si Si6 0.045130 0.725049 0.054875
Si Si7 0.000000 0.500000 0.000000
Si Si8 0.867542 0.889170 0.718127
O O1 0.500000 0.500000 0.500000
O O2 0.524104 0.342679 0.794669
O O3 0.268677 0.207479 0.458755
O O4 0.045557 0.263702 0.430359
O O5 0.648510 0.673086 0.063912
O O6 0.437937 0.791309 0.885283
O O7 0.916690 0.922944 0.256007
O O8 0.738726 0.588518 0.993587
O O9 0.127560 0.688781 0.524918
O O10 0.617525 0.828900 0.679061
O O11 0.262034 0.785563 0.291861
O O12 0.500000 0.000000 0.500000
O O13 0.977230 0.529196 0.786905
O O14 0.073210 0.659213 0.984961
O O15 0.045724 0.854511 0.922765
#
# Coordination Sequence:
#
# PCOD9070223 Si02
#       8
#     2   2   1   2   2   2   1   2
#     4  12  27  48  78 114 153 202 262 317 388 465
#     4  12  27  48  76 112 158 196 265 319 385 461
#     4  12  24  46  76 102 146 204 246 314 376 450
#     4  12  29  50  77 114 156 203 257 318 392 459
#     4  12  26  50  77 111 154 205 254 319 390 456
#     4  12  27  51  78 110 158 198 262 322 383 465
#     4  12  26  52  74 118 152 202 258 320 392 456
#     4  12  28  48  79 115 151 207 257 324 389 457
#
# _framework density 25.860244999999999
#
# number of rings (size 3 to 8) (size 9 to 14) (size 15 to 20)
#    0.000    0.000    2.857    6.429    4.000    2.857 
#    0.000    0.000    0.000    0.000    0.000    0.000 
#    0.000    0.000    0.000    0.000    0.000    0.000 
#
# Total GULP energy -77983.233805 kJ/mol
# GULP energy per Si atom -5570.230986 kJ/mol
# Density = 2.580139 g / cm^3
# Si number density = 25.860245 Si / 1000 Ang^3
#
#
#
# Elastic Constant Matrix: (Units=GPa)
#
#
# Indices 1 2 3 4 5 6 
#
# 1 159.2891 51.7629 18.0348 -5.8097 -6.9201 -46.0966
# 2 51.7629 131.4523 53.3606 18.5329 -9.5291 -46.8872
# 3 18.0348 53.3606 125.1423 -22.2235 -3.9352 -25.5704
# 4 -5.8097 18.5329 -22.2235 44.2450 -14.8767 -7.0934
# 5 -6.9201 -9.5291 -3.9352 -14.8767 35.1886 -1.7794
# 6 -46.0966 -46.8872 -25.5704 -7.0934 -1.7794 33.4810
#
#
#
# Elastic Compliance Matrix: (Units=1/GPa)
#
#
# Indices 1 2 3 4 5 6 
#
# 1 0.014975 0.001597 0.006159 0.013106 0.011171 0.030928
# 2 0.001597 0.017695 -0.003404 -0.003607 0.004406 0.023848
# 3 0.006159 -0.003404 0.015976 0.016916 0.010241 0.020042
# 4 0.013106 -0.003607 0.016916 0.049185 0.026194 0.037724
# 5 0.011171 0.004406 0.010241 0.026194 0.045917 0.037361
# 6 0.030928 0.023848 0.020042 0.037724 0.037361 0.131131
#
#
# Mechanical properties :
#
#
# Convention : Reuss Voigt Hill
#
# Bulk Modulus (GPa) = 17.43700 73.57778 45.50739
# Shear Modulus (GPa) = 17.52586 42.09795 29.81191
#
# Velocity S-wave (km/s) = 2.60612 4.03910 3.39899
# Velocity P-wave (km/s) = 3.97659 7.08988 5.74802
#
# Compressibility (1/GPa) = 0.05734931
#
# Stress axis : x y z
#
# Youngs Moduli (GPa) = 66.77658 56.51369 62.59331
#
# Poissons Ratio (x) = -0.09022 -0.38553
# Poissons Ratio (y) = -0.10661 0.21309
# Poissons Ratio (z) = -0.41130 0.19239
#
# Static dielectric constant tensor:
#      x y z
#    x 1.849570 0.013680 -0.053160 
#    y 0.013680 1.956540 -0.043170 
#    z -0.053160 -0.043170 2.048640 
# 
# From -- ./inp_files/177067.got.cif
#   From: 2010.05.17/outbox.cif.g08.bks.cpg/sg2_89_cif.got.tgz:177067.got - 2010.06.03 11:33:40.
