data_PCOD9070188
_publ_section_title
;
Structure prediction by ZEFSAII (Michael W. Deem and Ramdas Pophale) SiO2 
 PCOD9070188
Probable space group: P -1
;
_chemical_formula_sum "Si O2"
_cell_formula_units_Z 14
_cell_length_a 9.224778
_cell_length_b 14.623186
_cell_length_c 9.104231
_cell_angle_alpha 73.160100
_cell_angle_beta 60.959062
_cell_angle_gamma 34.262437
_cell_volume 588.770010
_symmetry_space_group_name_H-M "P -1"
_symmetry_group_IT_number 2
_symmetry_cell_setting 'triclinic'
loop_
_space_group_symop_operation_xyz
x,y,z
-x,-y,-z
loop_
_atom_site_type_symbol
_atom_site_label
_atom_site_fract_x
_atom_site_fract_y
_atom_site_fract_z
Si Si1 0.206999 0.846668 0.583464
Si Si2 0.348901 0.062685 0.700326
Si Si3 0.304113 0.668107 0.106161
Si Si4 0.820182 0.648909 0.909110
Si Si5 0.627214 0.030809 0.840285
Si Si6 0.590310 0.189936 0.181946
Si Si7 0.604020 0.539841 0.335937
O O1 0.324585 0.839159 0.677094
O O2 0.477426 0.685139 0.429448
O O3 0.000000 0.000000 0.500000
O O4 0.971847 0.879470 0.740894
O O5 0.498221 0.072099 0.723731
O O6 0.006885 0.234304 0.771960
O O7 0.500000 0.000000 0.500000
O O8 0.383846 0.936761 0.800853
O O9 0.452363 0.613357 0.217130
O O10 0.500000 0.500000 0.000000
O O11 0.258796 0.792841 0.988631
O O12 0.732556 0.641727 0.802253
O O13 0.049706 0.623228 0.773258
O O14 0.532018 0.809125 0.068905
O O15 0.000000 0.500000 0.000000
O O16 0.500000 0.000000 0.000000
O O17 0.500000 0.500000 0.500000
#
# Coordination Sequence:
#
# PCOD9070188 Si02
#       7
#     2   2   2   2   2   2   2
#     4  12  27  48  73 106 144 191 243 303 374 434
#     4  12  27  46  75 112 147 190 250 311 372 435
#     4  12  26  49  77 110 149 199 253 300 373 449
#     4  12  26  46  75 107 148 192 252 300 370 443
#     4  12  24  46  74 103 142 191 243 301 363 441
#     4  12  27  49  77 108 150 200 249 305 368 454
#     4  12  26  47  70 106 153 190 237 310 373 430
#
# _framework density 23.778386000000001
#
# number of rings (size 3 to 8) (size 9 to 14) (size 15 to 20)
#    0.000    0.000    2.857    7.286    4.000    0.571 
#    0.000    0.000    0.000    0.000    0.000    0.000 
#    0.000    0.000    0.000    0.000    0.000    0.000 
#
# Total GULP energy -78219.269214 kJ/mol
# GULP energy per Si atom -5587.090658 kJ/mol
# Density = 2.372427 g / cm^3
# Si number density = 23.778386 Si / 1000 Ang^3
#
#
#
# Elastic Constant Matrix: (Units=GPa)
#
#
# Indices 1 2 3 4 5 6 
#
# 1 149.8357 27.0298 50.6227 0.8081 30.5467 -26.1990
# 2 27.0298 56.1200 34.8773 6.7466 7.9239 -5.5317
# 3 50.6227 34.8773 133.0220 -4.8369 15.1558 -8.2345
# 4 0.8081 6.7466 -4.8369 51.1032 -6.8333 -2.2165
# 5 30.5467 7.9239 15.1558 -6.8333 59.3719 -11.9960
# 6 -26.1990 -5.5317 -8.2345 -2.2165 -11.9960 44.5874
#
#
#
# Elastic Compliance Matrix: (Units=1/GPa)
#
#
# Indices 1 2 3 4 5 6 
#
# 1 0.009149 -0.002086 -0.002358 -0.000340 -0.003092 0.003833
# 2 -0.002086 0.022604 -0.005136 -0.003564 -0.001006 0.000182
# 3 -0.002358 -0.005136 0.009859 0.001572 -0.000489 -0.000255
# 4 -0.000340 -0.003564 0.001572 0.020647 0.002920 0.001461
# 5 -0.003092 -0.001006 -0.000489 0.002920 0.019720 0.003419
# 6 0.003833 0.000182 -0.000255 0.001461 0.003419 0.025648
#
#
# Mechanical properties :
#
#
# Convention : Reuss Voigt Hill
#
# Bulk Modulus (GPa) = 44.54067 62.67080 53.60574
# Shear Modulus (GPa) = 37.23810 46.10903 41.67356
#
# Velocity S-wave (km/s) = 3.96163 4.40832 4.19093
# Velocity P-wave (km/s) = 6.30065 7.23356 6.78316
#
# Compressibility (1/GPa) = 0.02245139
#
# Stress axis : x y z
#
# Youngs Moduli (GPa) = 109.29928 44.23914 101.43471
#
# Poissons Ratio (x) = 0.09229 0.23915
# Poissons Ratio (y) = 0.22803 0.52102
# Poissons Ratio (z) = 0.25769 0.22723
#
# Static dielectric constant tensor:
#      x y z
#    x 1.953450 0.063310 -0.030080 
#    y 0.063310 1.939440 -0.007280 
#    z -0.030080 -0.007280 1.972250 
# 
# From -- ./inp_files/206795.got.cif
#   From: 2010.05.17/outbox.cif.g08.bks.cpg/sg2_104_cif.got.tgz:206795.got - 2010.06.03 11:33:40.
