data_PCOD9070904
_publ_section_title
;
Structure prediction by ZEFSAII (Michael W. Deem and Ramdas Pophale) SiO2 
 PCOD9070904
Probable space group: P -1
;
_chemical_formula_sum "Si O2"
_cell_formula_units_Z 15
_cell_length_a 5.294391
_cell_length_b 18.931403
_cell_length_c 13.629311
_cell_angle_alpha 152.276152
_cell_angle_beta 56.680923
_cell_angle_gamma 117.493852
_cell_volume 529.984253
_symmetry_space_group_name_H-M "P -1"
_symmetry_group_IT_number 2
_symmetry_cell_setting 'triclinic'
loop_
_space_group_symop_operation_xyz
x,y,z
-x,-y,-z
loop_
_atom_site_type_symbol
_atom_site_label
_atom_site_fract_x
_atom_site_fract_y
_atom_site_fract_z
Si Si1 0.031515 0.711854 0.902157
Si Si2 0.500000 0.500000 0.500000
Si Si3 0.461418 0.437040 0.651970
Si Si4 0.812707 0.352558 0.880147
Si Si5 0.439493 0.098670 0.036881
Si Si6 0.273919 0.184730 0.703021
Si Si7 0.622884 0.976428 0.248485
Si Si8 0.940989 0.246660 0.440914
O O1 0.127457 0.535012 0.659897
O O2 0.365353 0.755722 0.845220
O O3 0.933813 0.781059 0.114643
O O4 0.794216 0.811235 0.009858
O O5 0.596309 0.479189 0.570380
O O6 0.653602 0.341252 0.574969
O O7 0.173484 0.339691 0.568216
O O8 0.373135 0.594863 0.918648
O O9 0.555341 0.293905 0.791386
O O10 0.068652 0.228616 0.707067
O O11 0.000000 0.500000 0.000000
O O12 0.104388 0.169598 0.215220
O O13 0.513260 0.006448 0.809763
O O14 0.500000 0.000000 0.000000
O O15 0.412015 0.016821 0.436076
O O16 0.861105 0.105160 0.351736
#
# Coordination Sequence:
#
# PCOD9070904 Si02
#       8
#     2   1   2   2   2   2   2   2
#     4  12  28  50  78 115 162 210 262 332 397 482
#     4  12  26  50  74 114 156 212 254 328 402 484
#     4  12  26  47  77 113 157 201 263 325 399 470
#     4  12  26  51  79 113 159 211 267 324 386 479
#     4  12  26  48  79 118 161 205 272 328 401 469
#     4  12  29  51  79 119 159 213 270 320 404 471
#     4  12  28  48  81 113 163 206 271 332 395 472
#     4  12  25  47  78 117 149 206 265 332 393 460
#
# _framework density 28.30273
#
# number of rings (size 3 to 8) (size 9 to 14) (size 15 to 20)
#    0.000    0.000    4.000    5.200    3.733    1.067 
#    0.000    0.000    0.000    0.000    0.000    0.000 
#    0.000    0.000    0.000    0.000    0.000    0.000 
#
# Total GULP energy -83781.474855 kJ/mol
# GULP energy per Si atom -5585.431657 kJ/mol
# Density = 2.823831 g / cm^3
# Si number density = 28.302730 Si / 1000 Ang^3
#
#
#
# Elastic Constant Matrix: (Units=GPa)
#
#
# Indices 1 2 3 4 5 6 
#
# 1 151.2562 33.0097 44.2463 13.4918 -17.7237 -13.3054
# 2 33.0097 100.5624 -1.8667 -14.7144 2.9465 7.5323
# 3 44.2463 -1.8667 165.7180 -45.3892 -1.8980 -14.3111
# 4 13.4918 -14.7144 -45.3892 52.1902 0.4813 9.8312
# 5 -17.7237 2.9465 -1.8980 0.4813 42.6407 9.4746
# 6 -13.3054 7.5323 -14.3111 9.8312 9.4746 41.0505
#
#
#
# Elastic Compliance Matrix: (Units=1/GPa)
#
#
# Indices 1 2 3 4 5 6 
#
# 1 0.011135 -0.005647 -0.005353 -0.009964 0.003947 0.004254
# 2 -0.005647 0.013696 0.003850 0.009594 -0.002164 -0.004799
# 3 -0.005353 0.003850 0.010667 0.011982 -0.001895 -0.001155
# 4 -0.009964 0.009594 0.011982 0.036572 -0.002695 -0.008949
# 5 0.003947 -0.002164 -0.001895 -0.002695 0.026161 -0.004377
# 6 0.004254 -0.004799 -0.001155 -0.008949 -0.004377 0.029371
#
#
# Mechanical properties :
#
#
# Convention : Reuss Voigt Hill
#
# Bulk Modulus (GPa) = 47.17177 63.14611 55.15894
# Shear Modulus (GPa) = 33.56460 49.98610 41.77535
#
# Velocity S-wave (km/s) = 3.44745 4.20709 3.84607
# Velocity P-wave (km/s) = 5.70522 6.77929 6.26532
#
# Compressibility (1/GPa) = 0.02119912
#
# Stress axis : x y z
#
# Youngs Moduli (GPa) = 89.80641 73.01565 93.74508
#
# Poissons Ratio (x) = 0.41230 0.50183
# Poissons Ratio (y) = 0.50711 -0.36095
# Poissons Ratio (z) = 0.48074 -0.28114
#
# Static dielectric constant tensor:
#      x y z
#    x 2.311180 0.071940 -0.027450 
#    y 0.071940 2.174360 -0.122390 
#    z -0.027450 -0.122390 2.115130 
# 
# From -- ./inp_files/485570.got.cif
#   From: 2010.05.17/outbox.cif.g08.bks.cpg/sg2_243_cif.got.tgz:485570.got - 2010.06.03 11:33:40.
