data_PCOD9070527
_publ_section_title
;
Structure prediction by ZEFSAII (Michael W. Deem and Ramdas Pophale) SiO2 
 PCOD9070527
Probable space group: P -1
;
_chemical_formula_sum "Si O2"
_cell_formula_units_Z 16
_cell_length_a 8.941244
_cell_length_b 9.392388
_cell_length_c 24.549430
_cell_angle_alpha 133.323064
_cell_angle_beta 142.788073
_cell_angle_gamma 74.634794
_cell_volume 697.173621
_symmetry_space_group_name_H-M "P -1"
_symmetry_group_IT_number 2
_symmetry_cell_setting 'triclinic'
loop_
_space_group_symop_operation_xyz
x,y,z
-x,-y,-z
loop_
_atom_site_type_symbol
_atom_site_label
_atom_site_fract_x
_atom_site_fract_y
_atom_site_fract_z
Si Si1 0.796717 0.253549 0.620707
Si Si2 0.858523 0.853864 0.664894
Si Si3 0.272266 0.134633 0.069638
Si Si4 0.649361 0.067556 0.424261
Si Si5 0.332166 0.568850 0.133225
Si Si6 0.111994 0.818453 0.839613
Si Si7 0.978189 0.458855 0.417085
Si Si8 0.307460 0.328036 0.848021
O O1 0.859592 0.139880 0.558250
O O2 0.875837 0.511040 0.688025
O O3 0.074861 0.386036 0.780325
O O4 0.500000 0.000000 0.500000
O O5 0.604243 0.900205 0.615328
O O6 0.023371 0.903693 0.784105
O O7 0.794647 0.603875 0.556674
O O8 0.091783 0.045821 0.735086
O O9 0.315025 0.354719 0.104384
O O10 0.618944 0.255495 0.231071
O O11 0.087872 0.900113 0.912455
O O12 0.000000 0.000000 0.000000
O O13 0.865192 0.272725 0.494573
O O14 0.484869 0.798079 0.280294
O O15 0.507723 0.630795 0.142346
O O16 0.000000 0.500000 0.000000
O O17 0.500000 0.000000 0.000000
O O18 0.000000 0.500000 0.500000
O O19 0.500000 0.500000 0.000000
#
# Coordination Sequence:
#
# PCOD9070527 Si02
#       8
#     2   2   2   2   2   2   2   2
#     4  12  27  46  77 117 152 203 259 326 387 461
#     4  12  25  45  78 111 148 199 256 315 380 460
#     4  12  30  49  77 112 153 209 255 315 385 464
#     4  12  26  50  76 112 156 200 256 319 390 456
#     4  12  29  50  78 113 160 203 258 321 388 468
#     4  12  24  49  78 105 154 202 261 312 382 462
#     4  12  28  48  75 117 157 199 256 319 390 460
#     4  12  26  47  76 113 152 204 258 311 393 460
#
# _framework density 22.949807
#
# number of rings (size 3 to 8) (size 9 to 14) (size 15 to 20)
#    0.000    0.000    3.750    5.625    7.000    3.000 
#    0.000    0.000    0.000    0.000    0.000    0.000 
#    0.000    0.000    0.000    0.000    0.000    0.000 
#
# Total GULP energy -89196.515478 kJ/mol
# GULP energy per Si atom -5574.782217 kJ/mol
# Density = 2.289757 g / cm^3
# Si number density = 22.949807 Si / 1000 Ang^3
#
#
#
# Elastic Constant Matrix: (Units=GPa)
#
#
# Indices 1 2 3 4 5 6 
#
# 1 152.2127 30.8130 47.9949 -0.2748 -13.5304 34.7109
# 2 30.8130 81.5672 29.4694 -4.5071 8.8385 27.1657
# 3 47.9949 29.4694 102.1365 1.0021 -22.2022 1.4103
# 4 -0.2748 -4.5071 1.0021 48.8032 3.2767 -0.2543
# 5 -13.5304 8.8385 -22.2022 3.2767 53.5784 -0.2996
# 6 34.7109 27.1657 1.4103 -0.2543 -0.2996 49.1330
#
#
#
# Elastic Compliance Matrix: (Units=1/GPa)
#
#
# Indices 1 2 3 4 5 6 
#
# 1 0.009448 0.000117 -0.004261 0.000079 0.000559 -0.006613
# 2 0.000117 0.018855 -0.006689 0.002231 -0.006047 -0.010341
# 3 -0.004261 -0.006689 0.015035 -0.001346 0.006375 0.006309
# 4 0.000079 0.002231 -0.001346 0.020865 -0.002188 -0.001157
# 5 0.000559 -0.006047 0.006375 -0.002188 0.022595 0.002892
# 6 -0.006613 -0.010341 0.006309 -0.001157 0.002892 0.030573
#
#
# Mechanical properties :
#
#
# Convention : Reuss Voigt Hill
#
# Bulk Modulus (GPa) = 46.14397 61.38566 53.76482
# Shear Modulus (GPa) = 34.18583 45.47886 39.83234
#
# Velocity S-wave (km/s) = 3.86371 4.45642 4.17061
# Velocity P-wave (km/s) = 6.32886 7.29969 6.83154
#
# Compressibility (1/GPa) = 0.02167130
#
# Stress axis : x y z
#
# Youngs Moduli (GPa) = 105.84747 53.03732 66.51183
#
# Poissons Ratio (x) = -0.00620 0.28342
# Poissons Ratio (y) = -0.01236 0.44487
# Poissons Ratio (z) = 0.45103 0.35474
#
# Static dielectric constant tensor:
#      x y z
#    x 1.749000 0.667980 -0.620290 
#    y 0.667980 -1.104960 3.179430 
#    z -0.620290 3.179430 -1.395860 
# 
# From -- ./inp_files/606826.got.cif
#   From: 2010.05.17/outbox.cif.g08.bks.cpg/sg2_304_cif.got.tgz:606826.got - 2010.06.03 11:33:40.
