data_PCOD9070327
_publ_section_title
;
Structure prediction by ZEFSAII (Michael W. Deem and Ramdas Pophale) SiO2 
 PCOD9070327
Probable space group: P -1
;
_chemical_formula_sum "Si O2"
_cell_formula_units_Z 12
_cell_length_a 8.328111
_cell_length_b 8.539596
_cell_length_c 9.535026
_cell_angle_alpha 112.482734
_cell_angle_beta 100.397944
_cell_angle_gamma 57.106707
_cell_volume 525.804089
_symmetry_space_group_name_H-M "P -1"
_symmetry_group_IT_number 2
_symmetry_cell_setting 'triclinic'
loop_
_space_group_symop_operation_xyz
x,y,z
-x,-y,-z
loop_
_atom_site_type_symbol
_atom_site_label
_atom_site_fract_x
_atom_site_fract_y
_atom_site_fract_z
Si Si1 0.876105 0.601654 0.881568
Si Si2 0.469918 0.336047 0.011807
Si Si3 0.125755 0.545984 0.637255
Si Si4 0.041066 0.008908 0.347793
Si Si5 0.506079 0.169954 0.656883
Si Si6 0.842306 0.990637 0.066107
O O1 0.029990 0.537001 0.762830
O O2 0.701193 0.570753 0.870088
O O3 0.786565 0.837115 0.949586
O O4 0.000000 0.500000 0.000000
O O5 0.452448 0.213932 0.832568
O O6 0.500000 0.500000 0.000000
O O7 0.653799 0.199895 0.088132
O O8 0.349987 0.377533 0.627485
O O9 0.000000 0.500000 0.500000
O O10 0.067289 0.766409 0.655238
O O11 0.269499 0.900531 0.329329
O O12 0.000000 0.000000 0.500000
O O13 0.941066 0.918706 0.207840
O O14 0.500000 0.000000 0.500000
O O15 0.000000 0.000000 0.000000
#
# Coordination Sequence:
#
# PCOD9070327 Si02
#       6
#     2   2   2   2   2   2
#     4  12  26  45  77 110 146 198 255 312 379 449
#     4  12  26  48  81 111 149 201 260 320 381 461
#     4  12  26  48  75 109 155 199 252 310 378 461
#     4  12  29  48  75 111 157 201 250 317 381 456
#     4  12  26  47  77 112 156 200 253 316 390 452
#     4  12  24  47  74 110 150 193 258 315 374 451
#
# _framework density 22.822188000000001
#
# number of rings (size 3 to 8) (size 9 to 14) (size 15 to 20)
#    0.000    0.000    6.667    2.500    4.667    2.000 
#    0.000    0.000    0.000    0.000    0.000    0.000 
#    0.000    0.000    0.000    0.000    0.000    0.000 
#
# Total GULP energy -66938.609441 kJ/mol
# GULP energy per Si atom -5578.217453 kJ/mol
# Density = 2.277024 g / cm^3
# Si number density = 22.822188 Si / 1000 Ang^3
#
#
#
# Elastic Constant Matrix: (Units=GPa)
#
#
# Indices 1 2 3 4 5 6 
#
# 1 79.8331 57.9362 -3.5000 -2.6763 -7.7407 -21.5438
# 2 57.9362 150.2029 22.0274 -11.8524 -7.1916 -38.5556
# 3 -3.5000 22.0274 102.7308 -20.0209 -3.6098 3.1046
# 4 -2.6763 -11.8524 -20.0209 38.3802 4.6047 7.4597
# 5 -7.7407 -7.1916 -3.6098 4.6047 45.7548 -7.3508
# 6 -21.5438 -38.5556 3.1046 7.4597 -7.3508 56.1148
#
#
#
# Elastic Compliance Matrix: (Units=1/GPa)
#
#
# Indices 1 2 3 4 5 6 
#
# 1 0.018392 -0.006548 0.001916 -0.000636 0.002764 0.002903
# 2 -0.006548 0.011023 -0.002627 0.000397 0.001231 0.005313
# 3 0.001916 -0.002627 0.011577 0.005870 -0.000170 -0.002512
# 4 -0.000636 0.000397 0.005870 0.030541 -0.003428 -0.004805
# 5 0.002764 0.001231 -0.000170 -0.003428 0.023729 0.005480
# 6 0.002903 0.005313 -0.002512 -0.004805 0.005480 0.024082
#
#
# Mechanical properties :
#
#
# Convention : Reuss Voigt Hill
#
# Bulk Modulus (GPa) = 37.77205 53.96599 45.86902
# Shear Modulus (GPa) = 35.04252 45.13683 40.08968
#
# Velocity S-wave (km/s) = 3.92274 4.45203 4.19574
# Velocity P-wave (km/s) = 6.09128 7.07990 6.60412
#
# Compressibility (1/GPa) = 0.02647460
#
# Stress axis : x y z
#
# Youngs Moduli (GPa) = 54.37123 90.72205 86.38136
#
# Poissons Ratio (x) = 0.59404 -0.16551
# Poissons Ratio (y) = 0.35602 0.22688
# Poissons Ratio (z) = -0.10418 0.23828
#
# Static dielectric constant tensor:
#      x y z
#    x 1.269530 -0.043830 -0.018910 
#    y -0.043830 1.867030 0.075380 
#    z -0.018910 0.075380 1.976590 
# 
# From -- ./inp_files/148721.got.cif
#   From: 2010.05.17/outbox.cif.g08.bks.cpg/sg2_75_cif.got.tgz:148721.got - 2010.06.03 11:33:40.
