data_PCOD9070205
_publ_section_title
;
Structure prediction by ZEFSAII (Michael W. Deem and Ramdas Pophale) SiO2 
 PCOD9070205
Probable space group: P -1
;
_chemical_formula_sum "Si O2"
_cell_formula_units_Z 15
_cell_length_a 11.244469
_cell_length_b 24.660294
_cell_length_c 9.200739
_cell_angle_alpha 147.144772
_cell_angle_beta 39.271816
_cell_angle_gamma 150.224372
_cell_volume 677.699917
_symmetry_space_group_name_H-M "P -1"
_symmetry_group_IT_number 2
_symmetry_cell_setting 'triclinic'
loop_
_space_group_symop_operation_xyz
x,y,z
-x,-y,-z
loop_
_atom_site_type_symbol
_atom_site_label
_atom_site_fract_x
_atom_site_fract_y
_atom_site_fract_z
Si Si1 0.333145 0.538935 0.380542
Si Si2 0.563590 0.462721 0.209497
Si Si3 0.000000 0.000000 0.000000
Si Si4 0.937591 0.273861 0.020449
Si Si5 0.440137 0.206074 0.831205
Si Si6 0.125651 0.636584 0.998330
Si Si7 0.486697 0.113718 0.282899
Si Si8 0.218149 0.172697 0.475901
O O1 0.468917 0.497721 0.246498
O O2 0.533021 0.679538 0.440948
O O3 0.181831 0.553857 0.672132
O O4 0.155866 0.425493 0.180410
O O5 0.500000 0.500000 0.500000
O O6 0.852195 0.545931 0.110700
O O7 0.431827 0.311933 0.002687
O O8 0.859759 0.891969 0.754579
O O9 0.210427 0.106919 0.925736
O O10 0.841079 0.263700 0.927076
O O11 0.027465 0.190132 0.755002
O O12 0.738452 0.231775 0.234705
O O13 0.679470 0.285940 0.884810
O O14 0.466051 0.136469 0.520559
O O15 0.275222 0.098407 0.358520
O O16 0.500000 0.000000 0.000000
#
# Coordination Sequence:
#
# PCOD9070205 Si02
#       8
#     2   2   1   2   2   2   2   2
#     4  12  24  46  74 114 152 196 245 308 390 455
#     4  12  25  43  74 116 153 188 244 311 382 447
#     4  12  26  52  80  98 152 206 258 306 364 442
#     4  12  26  44  81 108 152 199 242 314 384 456
#     4  12  27  49  77 111 154 202 252 318 369 450
#     4  12  25  46  73 115 153 194 245 302 388 455
#     4  12  29  51  72 111 151 202 260 307 373 443
#     4  12  26  50  76 110 147 200 255 308 374 454
#
# _framework density 22.133689
#
# number of rings (size 3 to 8) (size 9 to 14) (size 15 to 20)
#    0.000    0.000    5.333    3.600    3.733    4.267 
#    0.000    2.667    0.000    0.000    0.000    0.000 
#    0.000    0.000    0.000    0.000    0.000    0.000 
#
# Total GULP energy -83797.209282 kJ/mol
# GULP energy per Si atom -5586.480619 kJ/mol
# Density = 2.208331 g / cm^3
# Si number density = 22.133689 Si / 1000 Ang^3
#
#
#
# Elastic Constant Matrix: (Units=GPa)
#
#
# Indices 1 2 3 4 5 6 
#
# 1 109.7516 19.6166 61.6317 6.3728 -18.3328 -18.6898
# 2 19.6166 124.0752 26.7486 -18.0845 -21.5766 -11.9502
# 3 61.6317 26.7486 146.4752 -9.3883 -8.5969 -5.4275
# 4 6.3728 -18.0845 -9.3883 44.5092 -3.2171 -0.0234
# 5 -18.3328 -21.5766 -8.5969 -3.2171 40.2512 -4.7892
# 6 -18.6898 -11.9502 -5.4275 -0.0234 -4.7892 19.5442
#
#
#
# Elastic Compliance Matrix: (Units=1/GPa)
#
#
# Indices 1 2 3 4 5 6 
#
# 1 0.017210 0.001659 -0.006494 -0.002480 0.009277 0.017939
# 2 0.001659 0.011134 -0.001610 0.004524 0.007918 0.009892
# 3 -0.006494 -0.001610 0.009677 0.002157 -0.002181 -0.005039
# 4 -0.002480 0.004524 0.002157 0.025408 0.004026 0.002011
# 5 0.009277 0.007918 -0.002181 0.004026 0.035773 0.021878
# 6 0.017939 0.009892 -0.005039 0.002011 0.021878 0.078333
#
#
# Mechanical properties :
#
#
# Convention : Reuss Voigt Hill
#
# Bulk Modulus (GPa) = 39.79271 66.25510 53.02390
# Shear Modulus (GPa) = 25.15063 39.01460 32.08262
#
# Velocity S-wave (km/s) = 3.37457 4.20298 3.81135
# Velocity P-wave (km/s) = 5.76203 7.31795 6.58610
#
# Compressibility (1/GPa) = 0.02513023
#
# Stress axis : x y z
#
# Youngs Moduli (GPa) = 58.10479 89.81798 103.33698
#
# Poissons Ratio (x) = -0.14897 0.67109
# Poissons Ratio (y) = -0.09637 0.16635
# Poissons Ratio (z) = 0.37734 0.14458
#
# Static dielectric constant tensor:
#      x y z
#    x 1.847550 0.000620 -0.053730 
#    y 0.000620 1.827700 -0.000490 
#    z -0.053730 -0.000490 1.814200 
# 
# From -- ./inp_files/285236.got.cif
#   From: 2010.05.17/outbox.cif.g08.bks.cpg/sg2_143_cif.got.tgz:285236.got - 2010.06.03 11:33:40.
