data_PCOD9070586
_publ_section_title
;
Structure prediction by ZEFSAII (Michael W. Deem and Ramdas Pophale) SiO2 
 PCOD9070586
Probable space group: P -1
;
_chemical_formula_sum "Si O2"
_cell_formula_units_Z 14
_cell_length_a 11.620976
_cell_length_b 9.188009
_cell_length_c 11.577643
_cell_angle_alpha 49.852712
_cell_angle_beta 38.508153
_cell_angle_gamma 61.275294
_cell_volume 587.592712
_symmetry_space_group_name_H-M "P -1"
_symmetry_group_IT_number 2
_symmetry_cell_setting 'triclinic'
loop_
_space_group_symop_operation_xyz
x,y,z
-x,-y,-z
loop_
_atom_site_type_symbol
_atom_site_label
_atom_site_fract_x
_atom_site_fract_y
_atom_site_fract_z
Si Si1 0.402514 0.193270 0.448000
Si Si2 0.096940 0.268789 0.349358
Si Si3 0.467619 0.066335 0.120951
Si Si4 0.697784 0.328550 0.960057
Si Si5 0.511777 0.289790 0.549758
Si Si6 0.013721 0.904905 0.249777
Si Si7 0.055927 0.704557 0.802213
O O1 0.388265 0.291125 0.532154
O O2 0.200764 0.150157 0.578377
O O3 0.500000 0.000000 0.500000
O O4 0.544583 0.301083 0.194085
O O5 0.255171 0.115969 0.284815
O O6 0.200293 0.465330 0.211747
O O7 0.958260 0.196185 0.596197
O O8 0.998165 0.291131 0.292584
O O9 0.528239 0.892071 0.243255
O O10 0.584830 0.258347 0.970000
O O11 0.500000 0.000000 0.000000
O O12 0.860555 0.178973 0.905435
O O13 0.500000 0.500000 0.500000
O O14 0.726134 0.265297 0.363559
O O15 0.039767 0.128350 0.139114
O O16 0.000000 0.500000 0.000000
#
# Coordination Sequence:
#
# PCOD9070586 Si02
#       7
#     2   2   2   2   2   2   2
#     4  12  24  52  74 108 156 193 253 316 372 447
#     4  12  26  50  75 110 156 194 255 319 369 456
#     4  12  27  49  77 110 151 204 248 312 381 445
#     4  12  27  46  79 112 146 202 252 306 385 440
#     4  12  29  49  76 109 154 200 246 314 380 445
#     4  12  27  49  77 111 151 198 255 313 379 444
#     4  12  27  47  73 111 151 199 252 309 378 452
#
# _framework density 23.826028000000001
#
# number of rings (size 3 to 8) (size 9 to 14) (size 15 to 20)
#    0.000    0.000    5.714    3.000   10.000    0.571 
#    0.000    0.000    0.000    0.000    0.000    0.000 
#    0.000    0.000    0.000    0.000    0.000    0.000 
#
# Total GULP energy -78421.090143 kJ/mol
# GULP energy per Si atom -5601.506439 kJ/mol
# Density = 2.377180 g / cm^3
# Si number density = 23.826028 Si / 1000 Ang^3
#
#
#
# Elastic Constant Matrix: (Units=GPa)
#
#
# Indices 1 2 3 4 5 6 
#
# 1 112.6202 26.3021 29.3601 -7.6311 17.1265 16.6553
# 2 26.3021 134.2620 40.6835 -26.7747 14.2377 21.1709
# 3 29.3601 40.6835 88.6596 -11.2479 -0.2822 0.7771
# 4 -7.6311 -26.7747 -11.2479 39.8666 2.4836 -9.3669
# 5 17.1265 14.2377 -0.2822 2.4836 29.5395 9.1050
# 6 16.6553 21.1709 0.7771 -9.3669 9.1050 46.4623
#
#
#
# Elastic Compliance Matrix: (Units=1/GPa)
#
#
# Indices 1 2 3 4 5 6 
#
# 1 0.011135 0.000143 -0.003629 0.000939 -0.005816 -0.002667
# 2 0.000143 0.010828 -0.004278 0.005749 -0.004969 -0.002781
# 3 -0.003629 -0.004278 0.014549 0.000912 0.003453 0.002514
# 4 0.000939 0.005749 0.000912 0.030947 -0.007360 0.004710
# 5 -0.005816 -0.004969 0.003453 -0.007360 0.041940 -0.005411
# 6 -0.002667 -0.002781 0.002514 0.004710 -0.005411 0.025714
#
#
# Mechanical properties :
#
#
# Convention : Reuss Voigt Hill
#
# Bulk Modulus (GPa) = 47.65709 58.69259 53.17484
# Shear Modulus (GPa) = 31.71878 39.12008 35.41943
#
# Velocity S-wave (km/s) = 3.65261 4.05644 3.85981
# Velocity P-wave (km/s) = 6.15096 6.82839 6.49851
#
# Compressibility (1/GPa) = 0.02098323
#
# Stress axis : x y z
#
# Youngs Moduli (GPa) = 89.81034 92.34955 68.73467
#
# Poissons Ratio (x) = -0.01320 0.24943
# Poissons Ratio (y) = -0.01283 0.29407
# Poissons Ratio (z) = 0.32591 0.39510
#
# Static dielectric constant tensor:
#      x y z
#    x 1.872520 -0.073590 0.066600 
#    y -0.073590 1.826980 0.067960 
#    z 0.066600 0.067960 1.900700 
# 
# From -- ./inp_files/418800.got.cif
#   From: 2010.05.17/outbox.cif.g08.bks.cpg/sg2_210_cif.got.tgz:418800.got - 2010.06.03 11:33:40.
