data_PCOD9070610
_publ_section_title
;
Structure prediction by ZEFSAII (Michael W. Deem and Ramdas Pophale) SiO2 
 PCOD9070610
Probable space group: P -1
;
_chemical_formula_sum "Si O2"
_cell_formula_units_Z 14
_cell_length_a 23.502959
_cell_length_b 6.419344
_cell_length_c 14.892204
_cell_angle_alpha 96.807535
_cell_angle_beta 18.710364
_cell_angle_gamma 107.544739
_cell_volume 575.768417
_symmetry_space_group_name_H-M "P -1"
_symmetry_group_IT_number 2
_symmetry_cell_setting 'triclinic'
loop_
_space_group_symop_operation_xyz
x,y,z
-x,-y,-z
loop_
_atom_site_type_symbol
_atom_site_label
_atom_site_fract_x
_atom_site_fract_y
_atom_site_fract_z
Si Si1 0.405891 0.307740 0.871412
Si Si2 0.969818 0.808759 0.232871
Si Si3 0.734952 0.046620 0.642745
Si Si4 0.684228 0.120736 0.153667
Si Si5 0.278952 0.727720 0.505802
Si Si6 0.230597 0.104037 0.705723
Si Si7 0.083524 0.403131 0.293720
O O1 0.488641 0.236001 0.831305
O O2 0.593328 0.607878 0.580099
O O3 0.383008 0.119632 0.819513
O O4 0.182712 0.281263 0.196417
O O5 0.889513 0.583343 0.268031
O O6 0.772424 0.824008 0.558534
O O7 0.078899 0.766340 0.150530
O O8 0.171799 0.075406 0.897602
O O9 0.795210 0.187540 0.463784
O O10 0.893089 0.211260 0.497846
O O11 0.500000 0.000000 0.000000
O O12 0.500000 0.000000 0.500000
O O13 0.727888 0.354060 0.037794
O O14 0.285948 0.904954 0.582858
O O15 0.000000 0.000000 0.000000
O O16 0.000000 0.500000 0.500000
#
# Coordination Sequence:
#
# PCOD9070610 Si02
#       7
#     2   2   2   2   2   2   2
#     4  12  27  47  76 112 152 201 253 317 382 461
#     4  12  25  47  74 114 151 199 253 316 385 458
#     4  12  29  49  76 107 152 203 260 317 378 459
#     4  12  28  48  79 116 155 200 252 319 394 458
#     4  12  25  47  75 107 151 194 252 303 392 452
#     4  12  25  42  77 113 156 195 251 319 385 457
#     4  12  30  52  76 111 157 201 260 319 379 456
#
# _framework density 24.315329999999999
#
# number of rings (size 3 to 8) (size 9 to 14) (size 15 to 20)
#    0.000    0.000    5.714    3.000   10.000    3.429 
#    0.000    0.000    0.000    0.000    0.000    0.000 
#    0.000    0.000    0.000    0.000    0.000    0.000 
#
# Total GULP energy -78195.417185 kJ/mol
# GULP energy per Si atom -5585.386942 kJ/mol
# Density = 2.425999 g / cm^3
# Si number density = 24.315330 Si / 1000 Ang^3
#
#
#
# Elastic Constant Matrix: (Units=GPa)
#
#
# Indices 1 2 3 4 5 6 
#
# 1 96.3556 19.2284 12.1407 6.9990 -42.3843 -17.9159
# 2 19.2284 125.0428 46.1824 9.1878 -20.9180 3.3742
# 3 12.1407 46.1824 79.8844 3.4039 -18.1247 -5.8657
# 4 6.9990 9.1878 3.4039 30.3957 -12.1753 -17.1593
# 5 -42.3843 -20.9180 -18.1247 -12.1753 51.5592 9.8998
# 6 -17.9159 3.3742 -5.8657 -17.1593 9.8998 49.8169
#
#
#
# Elastic Compliance Matrix: (Units=1/GPa)
#
#
# Indices 1 2 3 4 5 6 
#
# 1 0.017490 -0.001376 0.001621 0.005107 0.014550 0.005442
# 2 -0.001376 0.010967 -0.006004 -0.003909 0.000953 -0.003480
# 3 0.001621 -0.006004 0.016976 0.003331 0.005050 0.003132
# 4 0.005107 -0.003909 0.003331 0.046292 0.011618 0.016130
# 5 0.014550 0.000953 0.005050 0.011618 0.035750 0.002660
# 6 0.005442 -0.003480 0.003132 0.016130 0.002660 0.027662
#
#
# Mechanical properties :
#
#
# Convention : Reuss Voigt Hill
#
# Bulk Modulus (GPa) = 29.48602 50.70951 40.09777
# Shear Modulus (GPa) = 28.09613 41.26977 34.68295
#
# Velocity S-wave (km/s) = 3.40294 4.12427 3.78084
# Velocity P-wave (km/s) = 5.25289 6.60149 5.96542
#
# Compressibility (1/GPa) = 0.03391438
#
# Stress axis : x y z
#
# Youngs Moduli (GPa) = 57.17673 91.18452 58.90540
#
# Poissons Ratio (x) = 0.12548 -0.09547
# Poissons Ratio (y) = 0.07868 0.35365
# Poissons Ratio (z) = -0.09266 0.54745
#
# Static dielectric constant tensor:
#      x y z
#    x 1.996870 -0.017130 0.060110 
#    y -0.017130 1.933690 -0.000870 
#    z 0.060110 -0.000870 2.019100 
# 
# From -- ./inp_files/100988.got.cif
#   From: 2010.05.17/outbox.cif.g08.bks.cpg/sg2_51_cif.got.tgz:100988.got - 2010.06.03 11:33:40.
