data_PCOD9070189
_publ_section_title
;
Structure prediction by ZEFSAII (Michael W. Deem and Ramdas Pophale) SiO2 
 PCOD9070189
Probable space group: P -1
;
_chemical_formula_sum "Si O2"
_cell_formula_units_Z 16
_cell_length_a 10.942145
_cell_length_b 9.693377
_cell_length_c 12.536207
_cell_angle_alpha 72.615955
_cell_angle_beta 114.392793
_cell_angle_gamma 56.694279
_cell_volume 732.098122
_symmetry_space_group_name_H-M "P -1"
_symmetry_group_IT_number 2
_symmetry_cell_setting 'triclinic'
loop_
_space_group_symop_operation_xyz
x,y,z
-x,-y,-z
loop_
_atom_site_type_symbol
_atom_site_label
_atom_site_fract_x
_atom_site_fract_y
_atom_site_fract_z
Si Si1 0.952832 0.797217 0.305580
Si Si2 0.080476 0.207769 0.292212
Si Si3 0.348614 0.956980 0.235879
Si Si4 0.619057 0.576669 0.795504
Si Si5 0.262277 0.717446 0.906460
Si Si6 0.680871 0.929754 0.370109
Si Si7 0.991052 0.607958 0.139230
Si Si8 0.421347 0.519542 0.583919
O O1 0.842836 0.803582 0.360583
O O2 0.972077 0.681281 0.235533
O O3 0.181896 0.664831 0.454600
O O4 0.812292 0.055650 0.167330
O O5 0.236325 0.032628 0.292684
O O6 0.205290 0.135580 0.461837
O O7 0.977405 0.446574 0.165852
O O8 0.903810 0.232684 0.237283
O O9 0.553079 0.887805 0.339217
O O10 0.426781 0.739581 0.269218
O O11 0.186620 0.170610 0.049128
O O12 0.782425 0.529319 0.792830
O O13 0.458387 0.619202 0.655199
O O14 0.489108 0.799334 0.766789
O O15 0.744063 0.359703 0.964693
O O16 0.500000 0.500000 0.000000
O O17 0.500000 0.500000 0.500000
#
# Coordination Sequence:
#
# PCOD9070189 Si02
#       8
#     2   2   2   2   2   2   2   2
#     4  12  28  48  68 108 144 186 234 289 352 418
#     4  12  26  45  75 105 138 187 240 286 347 421
#     4  12  25  47  73 104 139 187 238 291 347 413
#     4  12  24  46  74 104 139 187 235 289 351 414
#     4  12  26  46  72 104 143 182 230 290 355 413
#     4  12  27  46  72 103 145 186 234 289 351 416
#     4  12  26  46  76 106 138 183 243 290 342 419
#     4  12  26  43  71 103 144 182 230 289 350 414
#
# _framework density 21.854991999999999
#
# number of rings (size 3 to 8) (size 9 to 14) (size 15 to 20)
#    0.000    0.000    5.000    5.250    1.750    4.500 
#    0.000    0.000    0.000    0.000    0.000    0.000 
#    0.000    0.000    0.000    0.000    0.000    0.000 
#
# Total GULP energy -89695.920209 kJ/mol
# GULP energy per Si atom -5605.995013 kJ/mol
# Density = 2.180525 g / cm^3
# Si number density = 21.854992 Si / 1000 Ang^3
#
#
#
# Elastic Constant Matrix: (Units=GPa)
#
#
# Indices 1 2 3 4 5 6 
#
# 1 98.7503 24.8660 5.0304 -0.4816 29.9523 -11.9441
# 2 24.8660 72.5303 -5.8454 -6.6943 10.8993 -0.8451
# 3 5.0304 -5.8454 64.1659 -1.1073 3.3996 -7.5281
# 4 -0.4816 -6.6943 -1.1073 46.3593 10.3748 -3.4109
# 5 29.9523 10.8993 3.3996 10.3748 40.9329 -3.0706
# 6 -11.9441 -0.8451 -7.5281 -3.4109 -3.0706 39.6662
#
#
#
# Elastic Compliance Matrix: (Units=1/GPa)
#
#
# Indices 1 2 3 4 5 6 
#
# 1 0.014426 -0.003248 -0.000440 0.002158 -0.009931 0.003608
# 2 -0.003248 0.015718 0.001850 0.002868 -0.002709 -0.000255
# 3 -0.000440 0.001850 0.016243 0.001229 -0.001608 0.002971
# 4 0.002158 0.002868 0.001229 0.024084 -0.008372 0.002367
# 5 -0.009931 -0.002709 -0.001608 -0.008372 0.034569 -0.001397
# 6 0.003608 -0.000255 0.002971 0.002367 -0.001397 0.026951
#
#
# Mechanical properties :
#
#
# Convention : Reuss Voigt Hill
#
# Bulk Modulus (GPa) = 23.41324 31.50538 27.45931
# Shear Modulus (GPa) = 33.35471 39.48472 36.41972
#
# Velocity S-wave (km/s) = 3.91088 4.25510 4.08662
# Velocity P-wave (km/s) = 5.57938 6.21194 5.90414
#
# Compressibility (1/GPa) = 0.04271088
#
# Stress axis : x y z
#
# Youngs Moduli (GPa) = 69.31979 63.61930 61.56669
#
# Poissons Ratio (x) = 0.20661 0.02709
# Poissons Ratio (y) = 0.22512 -0.11387
# Poissons Ratio (z) = 0.03051 -0.11767
#
# Static dielectric constant tensor:
#      x y z
#    x 1.770640 0.008240 -0.016920 
#    y 0.008240 1.748350 -0.015890 
#    z -0.016920 -0.015890 1.818250 
# 
# From -- ./inp_files/243427.got.cif
#   From: 2010.05.17/outbox.cif.g08.bks.cpg/sg2_122_cif.got.tgz:243427.got - 2010.06.03 11:33:40.
