data_PCOD9070873
_publ_section_title
;
Structure prediction by ZEFSAII (Michael W. Deem and Ramdas Pophale) SiO2 
 PCOD9070873
Probable space group: P -1
;
_chemical_formula_sum "Si O2"
_cell_formula_units_Z 14
_cell_length_a 8.601450
_cell_length_b 12.903871
_cell_length_c 14.263679
_cell_angle_alpha 30.482626
_cell_angle_beta 49.514314
_cell_angle_gamma 64.898805
_cell_volume 572.019984
_symmetry_space_group_name_H-M "P -1"
_symmetry_group_IT_number 2
_symmetry_cell_setting 'triclinic'
loop_
_space_group_symop_operation_xyz
x,y,z
-x,-y,-z
loop_
_atom_site_type_symbol
_atom_site_label
_atom_site_fract_x
_atom_site_fract_y
_atom_site_fract_z
Si Si1 0.652390 0.292727 0.547014
Si Si2 0.804658 0.035173 0.276431
Si Si3 0.975391 0.106264 0.524132
Si Si4 0.835088 0.921161 0.039163
Si Si5 0.227911 0.646785 0.338949
Si Si6 0.698282 0.461181 0.005872
Si Si7 0.539086 0.430900 0.295485
O O1 0.766418 0.393952 0.520657
O O2 0.681093 0.408833 0.345008
O O3 0.729779 0.084901 0.663153
O O4 0.603620 0.761396 0.289669
O O5 0.898012 0.974095 0.383434
O O6 0.639960 0.809528 0.471957
O O7 0.691963 0.214558 0.192800
O O8 0.016254 0.140302 0.046465
O O9 0.094235 0.365811 0.260077
O O10 0.000000 0.000000 0.500000
O O11 0.766179 0.110601 0.870554
O O12 0.000000 0.000000 0.000000
O O13 0.411544 0.586171 0.258981
O O14 0.000000 0.500000 0.500000
O O15 0.678983 0.509862 0.085311
O O16 0.500000 0.500000 0.000000
#
# Coordination Sequence:
#
# PCOD9070873 Si02
#       7
#     2   2   2   2   2   2   2
#     4  12  27  49  74 116 157 200 259 326 391 468
#     4  12  26  53  77 116 158 200 267 322 393 465
#     4  12  29  50  78 115 158 204 264 326 383 468
#     4  12  26  46  79 113 152 205 252 323 395 470
#     4  12  25  47  75 113 155 199 259 319 397 460
#     4  12  30  49  83 112 152 216 264 321 393 461
#     4  12  26  47  78 112 154 204 260 324 384 467
#
# _framework density 24.474668000000001
#
# number of rings (size 3 to 8) (size 9 to 14) (size 15 to 20)
#    0.000    0.000    5.714    2.143    6.000    4.571 
#    0.000    0.000    0.000    0.000    0.000    0.000 
#    0.000    0.000    0.000    0.000    0.000    0.000 
#
# Total GULP energy -78475.127423 kJ/mol
# GULP energy per Si atom -5605.366245 kJ/mol
# Density = 2.441896 g / cm^3
# Si number density = 24.474668 Si / 1000 Ang^3
#
#
#
# Elastic Constant Matrix: (Units=GPa)
#
#
# Indices 1 2 3 4 5 6 
#
# 1 206.9095 73.1188 42.4874 9.0177 29.0395 13.5035
# 2 73.1188 171.4630 25.2368 3.1114 26.7063 -3.3819
# 3 42.4874 25.2368 66.3318 8.2158 24.9370 5.7688
# 4 9.0177 3.1114 8.2158 36.8411 -0.8978 13.3698
# 5 29.0395 26.7063 24.9370 -0.8978 44.3624 1.1976
# 6 13.5035 -3.3819 5.7688 13.3698 1.1976 60.4724
#
#
#
# Elastic Compliance Matrix: (Units=1/GPa)
#
#
# Indices 1 2 3 4 5 6 
#
# 1 0.006423 -0.002150 -0.002608 -0.000413 -0.001421 -0.001186
# 2 -0.002150 0.007269 -0.000373 -0.000465 -0.002798 0.001080
# 3 -0.002608 -0.000373 0.021223 -0.004186 -0.010074 -0.000338
# 4 -0.000413 -0.000465 -0.004186 0.030622 0.003695 -0.006378
# 5 -0.001421 -0.002798 -0.010074 0.003695 0.030902 -0.000307
# 6 -0.001186 0.001080 -0.000338 -0.006378 -0.000307 0.018310
#
#
# Mechanical properties :
#
#
# Convention : Reuss Voigt Hill
#
# Bulk Modulus (GPa) = 40.56180 80.71001 60.63590
# Shear Modulus (GPa) = 37.52932 48.59261 43.06096
#
# Velocity S-wave (km/s) = 3.92011 4.46064 4.19908
# Velocity P-wave (km/s) = 6.09086 7.71870 6.95259
#
# Compressibility (1/GPa) = 0.02465374
#
# Stress axis : x y z
#
# Youngs Moduli (GPa) = 155.68890 137.56334 47.11835
#
# Poissons Ratio (x) = 0.29574 0.12287
# Poissons Ratio (y) = 0.33471 0.01759
# Poissons Ratio (z) = 0.40600 0.05136
#
# Static dielectric constant tensor:
#      x y z
#    x 2.913740 -1.384590 -1.202430 
#    y -1.384590 3.731940 1.513170 
#    z -1.202430 1.513170 3.195190 
# 
# From -- ./inp_files/68203.got.cif
#   From: 2010.05.17/outbox.cif.g08.bks.cpg/sg2_35_cif.got.tgz:68203.got - 2010.06.03 11:33:40.
