data_PCOD9070179
_publ_section_title
;
Structure prediction by ZEFSAII (Michael W. Deem and Ramdas Pophale) SiO2 
 PCOD9070179
Probable space group: P -1
;
_chemical_formula_sum "Si O2"
_cell_formula_units_Z 16
_cell_length_a 14.972084
_cell_length_b 9.538553
_cell_length_c 18.516695
_cell_angle_alpha 37.176618
_cell_angle_beta 36.677172
_cell_angle_gamma 28.846795
_cell_volume 720.130963
_symmetry_space_group_name_H-M "P -1"
_symmetry_group_IT_number 2
_symmetry_cell_setting 'triclinic'
loop_
_space_group_symop_operation_xyz
x,y,z
-x,-y,-z
loop_
_atom_site_type_symbol
_atom_site_label
_atom_site_fract_x
_atom_site_fract_y
_atom_site_fract_z
Si Si1 0.069401 0.671746 0.109093
Si Si2 0.726855 0.350635 0.416544
Si Si3 0.357752 0.363854 0.932451
Si Si4 0.950286 0.352300 0.535532
Si Si5 0.551137 0.715971 0.874902
Si Si6 0.563574 0.629965 0.736396
Si Si7 0.799357 0.593933 0.129147
Si Si8 0.259923 0.287690 0.620153
O O1 0.244230 0.462400 0.140730
O O2 0.878430 0.735119 0.232643
O O3 0.160462 0.489329 0.050825
O O4 0.000000 0.000000 0.000000
O O5 0.500000 0.500000 0.500000
O O6 0.799898 0.440945 0.265270
O O7 0.736919 0.477809 0.433401
O O8 0.864470 0.985181 0.472182
O O9 0.444329 0.509759 0.853048
O O10 0.300253 0.460768 0.847115
O O11 0.500000 0.000000 0.000000
O O12 0.785443 0.357645 0.677816
O O13 0.846180 0.569532 0.444943
O O14 0.000000 0.500000 0.500000
O O15 0.569451 0.734428 0.769755
O O16 0.366980 0.041533 0.894913
O O17 0.500000 0.500000 0.000000
O O18 0.462216 0.936326 0.629486
O O19 0.000000 0.500000 0.000000
#
# Coordination Sequence:
#
# PCOD9070179 Si02
#       8
#     2   2   2   2   2   2   2   2
#     4  12  25  44  75 111 148 192 242 300 378 440
#     4  12  30  51  77 109 150 199 253 304 377 444
#     4  12  26  43  70 111 151 185 238 306 370 437
#     4  12  30  49  76 107 146 194 257 306 366 442
#     4  12  24  46  73 106 154 192 241 302 376 446
#     4  12  26  47  75 108 145 197 243 304 369 439
#     4  12  29  47  77 110 149 192 250 311 368 440
#     4  12  26  50  77 103 149 197 249 304 370 446
#
# _framework density 22.21818
#
# number of rings (size 3 to 8) (size 9 to 14) (size 15 to 20)
#    0.000    0.000    5.000    3.000   12.250    0.000 
#    0.000    0.000    0.000    0.000    0.000    0.000 
#    0.000    0.000    0.000    0.000    0.000    0.000 
#
# Total GULP energy -89468.564203 kJ/mol
# GULP energy per Si atom -5591.785263 kJ/mol
# Density = 2.216761 g / cm^3
# Si number density = 22.218180 Si / 1000 Ang^3
#
#
#
# Elastic Constant Matrix: (Units=GPa)
#
#
# Indices 1 2 3 4 5 6 
#
# 1 136.3077 35.8949 24.3304 -14.2502 16.1904 13.5462
# 2 35.8949 171.0474 25.8667 -2.3247 -2.7643 -6.2465
# 3 24.3304 25.8667 69.3740 8.1507 3.6747 -1.7517
# 4 -14.2502 -2.3247 8.1507 42.1198 -6.4789 -0.0137
# 5 16.1904 -2.7643 3.6747 -6.4789 40.1925 -1.7851
# 6 13.5462 -6.2465 -1.7517 -0.0137 -1.7851 31.2037
#
#
#
# Elastic Compliance Matrix: (Units=1/GPa)
#
#
# Indices 1 2 3 4 5 6 
#
# 1 0.009553 -0.001736 -0.003021 0.003198 -0.003392 -0.004857
# 2 -0.001736 0.006606 -0.001925 0.000378 0.001482 0.002053
# 3 -0.003021 -0.001925 0.016832 -0.004556 -0.001108 0.001806
# 4 0.003198 0.000378 -0.004556 0.026237 0.003323 -0.001366
# 5 -0.003392 0.001482 -0.001108 0.003323 0.027130 0.003260
# 6 -0.004857 0.002053 0.001806 -0.001366 0.003260 0.034854
#
#
# Mechanical properties :
#
#
# Convention : Reuss Voigt Hill
#
# Bulk Modulus (GPa) = 50.95788 60.99034 55.97411
# Shear Modulus (GPa) = 35.43104 42.07900 38.75502
#
# Velocity S-wave (km/s) = 3.99769 4.35662 4.18100
# Velocity P-wave (km/s) = 6.65535 7.26753 6.96817
#
# Compressibility (1/GPa) = 0.01962405
#
# Stress axis : x y z
#
# Youngs Moduli (GPa) = 104.68203 151.37882 59.41192
#
# Poissons Ratio (x) = 0.26287 0.17951
# Poissons Ratio (y) = 0.18178 0.11438
# Poissons Ratio (z) = 0.31629 0.29143
#
# Static dielectric constant tensor:
#      x y z
#    x 1.830280 0.017950 0.036610 
#    y 0.017950 1.723720 0.023780 
#    z 0.036610 0.023780 1.863180 
# 
# From -- ./inp_files/495629.got.cif
#   From: 2010.05.17/outbox.cif.g08.bks.cpg/sg2_248_cif.got.tgz:495629.got - 2010.06.03 11:33:40.
