data_PCOD9070960
_publ_section_title
;
Structure prediction by ZEFSAII (Michael W. Deem and Ramdas Pophale) SiO2 
 PCOD9070960
Probable space group: P -1
;
_chemical_formula_sum "Si O2"
_cell_formula_units_Z 16
_cell_length_a 9.603394
_cell_length_b 13.928782
_cell_length_c 14.002833
_cell_angle_alpha 33.205374
_cell_angle_beta 113.415404
_cell_angle_gamma 90.780425
_cell_volume 727.516178
_symmetry_space_group_name_H-M "P -1"
_symmetry_group_IT_number 2
_symmetry_cell_setting 'triclinic'
loop_
_space_group_symop_operation_xyz
x,y,z
-x,-y,-z
loop_
_atom_site_type_symbol
_atom_site_label
_atom_site_fract_x
_atom_site_fract_y
_atom_site_fract_z
Si Si1 0.437954 0.537821 0.560640
Si Si2 0.222008 0.835071 0.898572
Si Si3 0.780137 0.706573 0.738487
Si Si4 0.918483 0.431325 0.615288
Si Si5 0.726338 0.809952 0.412830
Si Si6 0.310122 0.023968 0.160199
Si Si7 0.202322 0.016014 0.339265
Si Si8 0.465195 0.452110 0.134841
O O1 0.500000 0.500000 0.500000
O O2 0.238260 0.575245 0.475189
O O3 0.392471 0.766756 0.391508
O O4 0.619837 0.320972 0.846587
O O5 0.178282 0.072275 0.681059
O O6 0.334109 0.689231 0.956177
O O7 0.025782 0.864618 0.831595
O O8 0.761964 0.728179 0.600887
O O9 0.646002 0.651757 0.792114
O O10 0.746199 0.917780 0.604916
O O11 0.000000 0.500000 0.000000
O O12 0.809428 0.612059 0.522717
O O13 0.000000 0.500000 0.500000
O O14 0.106580 0.193679 0.908006
O O15 0.488768 0.004586 0.181002
O O16 0.268499 0.085950 0.209268
O O17 0.322917 0.746279 0.597425
O O18 0.500000 0.500000 0.000000
#
# Coordination Sequence:
#
# PCOD9070960 Si02
#       8
#     2   2   2   2   2   2   2   2
#     4  12  25  49  77 103 145 192 246 307 366 427
#     4  12  28  47  70 111 150 188 246 307 358 435
#     4  12  25  48  75 103 147 197 240 297 363 433
#     4  12  29  48  75 110 143 192 245 303 372 431
#     4  12  28  49  72 107 153 189 246 304 359 437
#     4  12  26  48  76 106 144 194 244 301 367 440
#     4  12  26  46  77 105 148 196 242 296 371 430
#     4  12  27  47  72 109 148 190 249 300 361 432
#
# _framework density 21.992636999999998
#
# number of rings (size 3 to 8) (size 9 to 14) (size 15 to 20)
#    0.000    0.000    5.000    3.750    7.000    3.000 
#    0.000    0.000    0.000    0.000    0.000    0.000 
#    0.000    0.000    0.000    0.000    0.000    0.000 
#
# Total GULP energy -89546.109108 kJ/mol
# GULP energy per Si atom -5596.631819 kJ/mol
# Density = 2.194258 g / cm^3
# Si number density = 21.992637 Si / 1000 Ang^3
#
#
#
# Elastic Constant Matrix: (Units=GPa)
#
#
# Indices 1 2 3 4 5 6 
#
# 1 103.1053 35.0949 17.4856 20.2031 1.0523 -8.1487
# 2 35.0949 82.5226 7.8534 6.1635 1.6813 -6.4094
# 3 17.4856 7.8534 91.0924 17.0711 11.7515 -6.9678
# 4 20.2031 6.1635 17.0711 38.1231 1.0753 -3.7716
# 5 1.0523 1.6813 11.7515 1.0753 41.8110 -0.5779
# 6 -8.1487 -6.4094 -6.9678 -3.7716 -0.5779 41.4877
#
#
#
# Elastic Compliance Matrix: (Units=1/GPa)
#
#
# Indices 1 2 3 4 5 6 
#
# 1 0.012635 -0.004801 -0.000956 -0.005392 0.000297 0.001093
# 2 -0.004801 0.014252 -0.000254 0.000489 -0.000376 0.001255
# 3 -0.000956 -0.000254 0.012640 -0.004878 -0.003374 0.001405
# 4 -0.005392 0.000489 -0.004878 0.031278 0.000697 0.001050
# 5 0.000297 -0.000376 -0.003374 0.000697 0.024853 -0.000157
# 6 0.001093 0.001255 0.001405 0.001050 -0.000157 0.024842
#
#
# Mechanical properties :
#
#
# Convention : Reuss Voigt Hill
#
# Bulk Modulus (GPa) = 36.35568 44.17646 40.26607
# Shear Modulus (GPa) = 35.28833 38.70348 36.99591
#
# Velocity S-wave (km/s) = 4.01003 4.19959 4.10591
# Velocity P-wave (km/s) = 6.16500 6.60651 6.38957
#
# Compressibility (1/GPa) = 0.02750602
#
# Stress axis : x y z
#
# Youngs Moduli (GPa) = 79.14596 70.16356 79.11286
#
# Poissons Ratio (x) = 0.33684 0.07561
# Poissons Ratio (y) = 0.37996 0.02011
# Poissons Ratio (z) = 0.07564 0.01784
#
# Static dielectric constant tensor:
#      x y z
#    x 1.835350 0.037250 0.020040 
#    y 0.037250 1.878250 -0.006330 
#    z 0.020040 -0.006330 1.827990 
# 
# From -- ./inp_files/505083.got.cif
#   From: 2010.05.17/outbox.cif.g08.bks.cpg/sg2_253_cif.got.tgz:505083.got - 2010.06.03 11:33:40.
