data_PCOD9070298
_publ_section_title
;
Structure prediction by ZEFSAII (Michael W. Deem and Ramdas Pophale) SiO2 
 PCOD9070298
Probable space group: P -1
;
_chemical_formula_sum "Si O2"
_cell_formula_units_Z 14
_cell_length_a 16.577050
_cell_length_b 8.824784
_cell_length_c 5.001295
_cell_angle_alpha 118.592170
_cell_angle_beta 70.519678
_cell_angle_gamma 124.740389
_cell_volume 526.020220
_symmetry_space_group_name_H-M "P -1"
_symmetry_group_IT_number 2
_symmetry_cell_setting 'triclinic'
loop_
_space_group_symop_operation_xyz
x,y,z
-x,-y,-z
loop_
_atom_site_type_symbol
_atom_site_label
_atom_site_fract_x
_atom_site_fract_y
_atom_site_fract_z
Si Si1 0.934057 0.979188 0.305887
Si Si2 0.583027 0.229245 0.078589
Si Si3 0.492012 0.684497 0.266274
Si Si4 0.752925 0.423485 0.453804
Si Si5 0.983587 0.599702 0.353752
Si Si6 0.288584 0.996051 0.653372
Si Si7 0.750236 0.809335 0.649522
O O1 0.928417 0.176835 0.515506
O O2 0.828037 0.804028 0.343040
O O3 0.000000 0.000000 0.500000
O O4 0.000000 0.000000 0.000000
O O5 0.537838 0.332562 0.406959
O O6 0.688601 0.301234 0.159406
O O7 0.582332 0.287058 0.822196
O O8 0.500000 0.000000 0.000000
O O9 0.597804 0.878725 0.271834
O O10 0.500000 0.500000 0.000000
O O11 0.872545 0.560134 0.432805
O O12 0.720540 0.597791 0.648806
O O13 0.742906 0.236278 0.488958
O O14 0.000000 0.500000 0.500000
O O15 0.000000 0.500000 0.000000
O O16 0.295714 0.101135 0.443259
O O17 0.229016 0.048518 0.991518
#
# Coordination Sequence:
#
# PCOD9070298 Si02
#       7
#     2   2   2   2   2   2   2
#     4  12  24  47  72 103 150 188 244 317 377 447
#     4  12  26  47  74 109 150 200 253 311 386 450
#     4  12  25  48  74 107 153 196 257 317 378 452
#     4  12  28  49  82 109 157 202 259 313 392 454
#     4  12  27  48  75 110 147 195 252 312 382 458
#     4  12  27  47  75 112 152 197 255 317 372 456
#     4  12  27  48  75 113 150 200 257 308 385 461
#
# _framework density 26.614944999999999
#
# number of rings (size 3 to 8) (size 9 to 14) (size 15 to 20)
#    0.000    0.000    2.857    6.857    0.000    2.286 
#    0.000    0.000    0.000    0.000    0.000    0.000 
#    0.000    0.000    0.000    0.000    0.000    0.000 
#
# Total GULP energy -78059.524597 kJ/mol
# GULP energy per Si atom -5575.680328 kJ/mol
# Density = 2.655437 g / cm^3
# Si number density = 26.614945 Si / 1000 Ang^3
#
#
#
# Elastic Constant Matrix: (Units=GPa)
#
#
# Indices 1 2 3 4 5 6 
#
# 1 104.7987 30.0403 -3.2567 0.1332 11.5897 -24.5478
# 2 30.0403 172.4106 40.6663 6.6098 0.0905 -37.1216
# 3 -3.2567 40.6663 161.5462 -6.9638 -6.5860 -25.9756
# 4 0.1332 6.6098 -6.9638 48.8308 -11.0513 -0.0686
# 5 11.5897 0.0905 -6.5860 -11.0513 42.7478 -8.2847
# 6 -24.5478 -37.1216 -25.9756 -0.0686 -8.2847 63.4675
#
#
#
# Elastic Compliance Matrix: (Units=1/GPa)
#
#
# Indices 1 2 3 4 5 6 
#
# 1 0.011061 -0.001391 0.001057 -0.000179 -0.002179 0.003613
# 2 -0.001391 0.007066 -0.001330 -0.001026 0.000496 0.003114
# 3 0.001057 -0.001330 0.007135 0.001599 0.001768 0.002784
# 4 -0.000179 -0.001026 0.001599 0.022253 0.006209 0.000820
# 5 -0.002179 0.000496 0.001768 0.006209 0.026567 0.003645
# 6 0.003613 0.003114 0.002784 0.000820 0.003645 0.020591
#
#
# Mechanical properties :
#
#
# Convention : Reuss Voigt Hill
#
# Bulk Modulus (GPa) = 45.58915 63.73948 54.66432
# Shear Modulus (GPa) = 47.47880 55.76293 51.62086
#
# Velocity S-wave (km/s) = 4.22822 4.58227 4.40880
# Velocity P-wave (km/s) = 6.40340 7.21090 6.81911
#
# Compressibility (1/GPa) = 0.02193504
#
# Stress axis : x y z
#
# Youngs Moduli (GPa) = 90.40680 141.52945 140.15590
#
# Poissons Ratio (x) = 0.19684 -0.14821
# Poissons Ratio (y) = 0.12574 0.18641
# Poissons Ratio (z) = -0.09560 0.18823
#
# Static dielectric constant tensor:
#      x y z
#    x 2.245330 0.320690 0.114740 
#    y 0.320690 2.979790 0.483570 
#    z 0.114740 0.483570 2.306270 
# 
# From -- ./inp_files/107536.got.cif
#   From: 2010.05.17/outbox.cif.g08.bks.cpg/sg2_54_cif.got.tgz:107536.got - 2010.06.03 11:33:40.
