data_PCOD9070830
_publ_section_title
;
Structure prediction by ZEFSAII (Michael W. Deem and Ramdas Pophale) SiO2 
 PCOD9070830
Probable space group: P -1
;
_chemical_formula_sum "Si O2"
_cell_formula_units_Z 16
_cell_length_a 15.388265
_cell_length_b 12.756211
_cell_length_c 8.522402
_cell_angle_alpha 71.984607
_cell_angle_beta 126.656904
_cell_angle_gamma 64.673453
_cell_volume 761.039330
_symmetry_space_group_name_H-M "P -1"
_symmetry_group_IT_number 2
_symmetry_cell_setting 'triclinic'
loop_
_space_group_symop_operation_xyz
x,y,z
-x,-y,-z
loop_
_atom_site_type_symbol
_atom_site_label
_atom_site_fract_x
_atom_site_fract_y
_atom_site_fract_z
Si Si1 0.153208 0.074756 0.424023
Si Si2 0.497471 0.238839 0.263513
Si Si3 0.507594 0.509801 0.816762
Si Si4 0.561954 0.079526 0.733772
Si Si5 0.186640 0.308409 0.367485
Si Si6 0.255449 0.867101 0.924255
Si Si7 0.206156 0.324597 0.744798
Si Si8 0.124594 0.834393 0.088529
O O1 0.180002 0.181710 0.428152
O O2 0.334943 0.884047 0.619402
O O3 0.133615 0.028334 0.589530
O O4 0.981979 0.184279 0.081950
O O5 0.441695 0.403597 0.193175
O O6 0.565591 0.109019 0.541633
O O7 0.331448 0.314850 0.964043
O O8 0.312644 0.652781 0.459065
O O9 0.500000 0.500000 0.000000
O O10 0.640831 0.314984 0.969610
O O11 0.361245 0.202529 0.505428
O O12 0.612784 0.146017 0.858500
O O13 0.702435 0.867152 0.022948
O O14 0.208727 0.334448 0.555579
O O15 0.000000 0.500000 0.000000
O O16 0.157027 0.891258 0.953123
O O17 0.000000 0.500000 0.500000
O O18 0.000000 0.000000 0.000000
#
# Coordination Sequence:
#
# PCOD9070830 Si02
#       8
#     2   2   2   2   2   2   2   2
#     4  12  25  47  73 103 149 189 239 303 361 428
#     4  12  25  48  73 105 149 191 237 306 365 426
#     4  12  26  46  71 107 143 191 241 295 363 428
#     4  12  25  48  76 102 149 192 240 301 367 428
#     4  12  28  46  73 110 143 193 243 297 369 437
#     4  12  25  47  73 104 145 195 236 300 364 429
#     4  12  27  48  73 108 141 190 247 299 366 434
#     4  12  25  47  71 107 142 189 248 294 359 430
#
# _framework density 21.023880999999999
#
# number of rings (size 3 to 8) (size 9 to 14) (size 15 to 20)
#    0.000    0.000    6.250    3.000    3.500    1.000 
#    4.500    0.000    0.000    0.000    0.000    0.000 
#    0.000    0.000    0.000    0.000    0.000    0.000 
#
# Total GULP energy -89630.695683 kJ/mol
# GULP energy per Si atom -5601.918480 kJ/mol
# Density = 2.097603 g / cm^3
# Si number density = 21.023881 Si / 1000 Ang^3
#
#
#
# Elastic Constant Matrix: (Units=GPa)
#
#
# Indices 1 2 3 4 5 6 
#
# 1 102.0408 23.6972 42.8978 -0.6307 1.4935 -17.8556
# 2 23.6972 102.7632 51.9180 8.0930 20.2570 3.7924
# 3 42.8978 51.9180 102.4729 23.3003 -5.9189 5.4652
# 4 -0.6307 8.0930 23.3003 47.6858 2.7900 2.4835
# 5 1.4935 20.2570 -5.9189 2.7900 26.9285 16.9380
# 6 -17.8556 3.7924 5.4652 2.4835 16.9380 37.5990
#
#
#
# Elastic Compliance Matrix: (Units=1/GPa)
#
#
# Indices 1 2 3 4 5 6 
#
# 1 0.018327 0.006298 -0.014693 0.006618 -0.022065 0.019707
# 2 0.006298 0.023460 -0.018957 0.006418 -0.034450 0.018476
# 3 -0.014693 -0.018957 0.032462 -0.013805 0.040776 -0.027241
# 4 0.006618 0.006418 -0.013805 0.027197 -0.017790 0.010720
# 5 -0.022065 -0.034450 0.040776 -0.017790 0.115085 -0.063600
# 6 0.019707 0.018476 -0.027241 0.010720 -0.063600 0.065995
#
#
# Mechanical properties :
#
#
# Convention : Reuss Voigt Hill
#
# Bulk Modulus (GPa) = 51.16734 60.47810 55.82272
# Shear Modulus (GPa) = 14.54575 35.02694 24.78634
#
# Velocity S-wave (km/s) = 2.63319 4.08616 3.43733
# Velocity P-wave (km/s) = 5.79961 7.14781 6.50871
#
# Compressibility (1/GPa) = 0.01954372
#
# Stress axis : x y z
#
# Youngs Moduli (GPa) = 54.56554 42.62588 30.80566
#
# Poissons Ratio (x) = -0.26847 0.45264
# Poissons Ratio (y) = -0.34367 0.58399
# Poissons Ratio (z) = 0.80175 0.80807
#
# Static dielectric constant tensor:
#      x y z
#    x 1.745430 -0.008900 -0.000800 
#    y -0.008900 1.697640 0.036110 
#    z -0.000800 0.036110 1.714860 
# 
# From -- ./inp_files/274437.got.cif
#   From: 2010.05.17/outbox.cif.g08.bks.cpg/sg2_138_cif.got.tgz:274437.got - 2010.06.03 11:33:40.
