data_PCOD9070231
_publ_section_title
;
Structure prediction by ZEFSAII (Michael W. Deem and Ramdas Pophale) SiO2 
 PCOD9070231
Probable space group: P -1
;
_chemical_formula_sum "Si O2"
_cell_formula_units_Z 16
_cell_length_a 18.282822
_cell_length_b 9.469074
_cell_length_c 8.471942
_cell_angle_alpha 76.219435
_cell_angle_beta 122.049307
_cell_angle_gamma 145.006629
_cell_volume 652.059531
_symmetry_space_group_name_H-M "P -1"
_symmetry_group_IT_number 2
_symmetry_cell_setting 'triclinic'
loop_
_space_group_symop_operation_xyz
x,y,z
-x,-y,-z
loop_
_atom_site_type_symbol
_atom_site_label
_atom_site_fract_x
_atom_site_fract_y
_atom_site_fract_z
Si Si1 0.090433 0.003408 0.506771
Si Si2 0.346754 0.082858 0.364265
Si Si3 0.102822 0.963639 0.187419
Si Si4 0.131231 0.742456 0.705754
Si Si5 0.482827 0.145189 0.970530
Si Si6 0.669536 0.461111 0.812882
Si Si7 0.832380 0.404098 0.910044
Si Si8 0.537076 0.437310 0.199336
O O1 0.018044 0.871696 0.283777
O O2 0.278182 0.300124 0.611335
O O3 0.097109 0.864194 0.650222
O O4 0.000000 0.000000 0.500000
O O5 0.238250 0.035003 0.355252
O O6 0.507502 0.265383 0.586045
O O7 0.410863 0.270178 0.240020
O O8 0.244099 0.798691 0.263151
O O9 0.188462 0.230823 0.156826
O O10 0.991742 0.728743 0.991346
O O11 0.126510 0.651299 0.889498
O O12 0.000000 0.500000 0.500000
O O13 0.306734 0.955168 0.779802
O O14 0.620724 0.411329 0.951490
O O15 0.508640 0.235466 0.152500
O O16 0.500000 0.000000 0.000000
O O17 0.711930 0.355223 0.849681
O O18 0.500000 0.500000 0.000000
#
# Coordination Sequence:
#
# PCOD9070231 Si02
#       8
#     2   2   2   2   2   2   2   2
#     4  12  28  49  75 112 151 202 258 316 386 460
#     4  12  25  49  77 111 153 203 256 317 384 455
#     4  12  27  50  76 110 156 202 250 316 391 456
#     4  12  25  48  75 107 154 199 256 314 388 451
#     4  12  25  46  78 112 148 202 259 319 377 458
#     4  12  26  47  79 111 159 199 258 315 384 458
#     4  12  26  50  71 114 152 205 251 313 384 465
#     4  12  24  46  76 109 148 199 264 315 377 453
#
# _framework density 24.537635999999999
#
# number of rings (size 3 to 8) (size 9 to 14) (size 15 to 20)
#    0.000    0.000    6.250    3.000    3.500    0.000 
#    6.750    0.000    0.000    0.000    0.000    0.000 
#    0.000    0.000    0.000    0.000    0.000    0.000 
#
# Total GULP energy -89654.598039 kJ/mol
# GULP energy per Si atom -5603.412377 kJ/mol
# Density = 2.448179 g / cm^3
# Si number density = 24.537636 Si / 1000 Ang^3
#
#
#
# Elastic Constant Matrix: (Units=GPa)
#
#
# Indices 1 2 3 4 5 6 
#
# 1 166.6146 44.4873 21.2486 -2.7683 10.9080 -20.6522
# 2 44.4873 119.5539 23.2406 11.5293 2.4797 -19.7269
# 3 21.2486 23.2406 60.1823 13.9859 9.4300 -3.7473
# 4 -2.7683 11.5293 13.9859 41.3426 -1.0836 2.3153
# 5 10.9080 2.4797 9.4300 -1.0836 34.9778 -4.7500
# 6 -20.6522 -19.7269 -3.7473 2.3153 -4.7500 40.5590
#
#
#
# Elastic Compliance Matrix: (Units=1/GPa)
#
#
# Indices 1 2 3 4 5 6 
#
# 1 0.007163 -0.002075 -0.001735 0.001486 -0.001268 0.002245
# 2 -0.002075 0.010542 -0.002709 -0.002362 0.001112 0.004086
# 3 -0.001735 -0.002709 0.020525 -0.006407 -0.005071 -0.000533
# 4 0.001486 -0.002362 -0.006407 0.027295 0.001963 -0.002312
# 5 -0.001268 0.001112 -0.005071 0.001963 0.030730 0.002913
# 6 0.002245 0.004086 -0.000533 -0.002312 0.002913 0.028209
#
#
# Mechanical properties :
#
#
# Convention : Reuss Voigt Hill
#
# Bulk Modulus (GPa) = 39.69421 58.25596 48.97508
# Shear Modulus (GPa) = 34.27003 40.53417 37.40210
#
# Velocity S-wave (km/s) = 3.74121 4.06879 3.90843
# Velocity P-wave (km/s) = 5.90544 6.77247 6.35376
#
# Compressibility (1/GPa) = 0.02519259
#
# Stress axis : x y z
#
# Youngs Moduli (GPa) = 139.60533 94.85809 48.72014
#
# Poissons Ratio (x) = 0.19682 0.08451
# Poissons Ratio (y) = 0.28967 0.13200
# Poissons Ratio (z) = 0.24217 0.25701
#
# Static dielectric constant tensor:
#      x y z
#    x 1.903090 0.028300 0.008290 
#    y 0.028300 2.006440 0.013410 
#    z 0.008290 0.013410 1.980220 
# 
# From -- ./inp_files/328926.got.cif
#   From: 2010.05.17/outbox.cif.g08.bks.cpg/sg2_165_cif.got.tgz:328926.got - 2010.06.03 11:33:40.
