data_PCOD9070274
_publ_section_title
;
Structure prediction by ZEFSAII (Michael W. Deem and Ramdas Pophale) SiO2 
 PCOD9070274
Probable space group: P -1
;
_chemical_formula_sum "Si O2"
_cell_formula_units_Z 13
_cell_length_a 9.343400
_cell_length_b 9.454042
_cell_length_c 9.191942
_cell_angle_alpha 78.666293
_cell_angle_beta 46.289698
_cell_angle_gamma 72.023248
_cell_volume 558.095317
_symmetry_space_group_name_H-M "P -1"
_symmetry_group_IT_number 2
_symmetry_cell_setting 'triclinic'
loop_
_space_group_symop_operation_xyz
x,y,z
-x,-y,-z
loop_
_atom_site_type_symbol
_atom_site_label
_atom_site_fract_x
_atom_site_fract_y
_atom_site_fract_z
Si Si1 0.531003 0.146083 0.535738
Si Si2 0.000000 0.500000 0.500000
Si Si3 0.760509 0.028064 0.697979
Si Si4 0.264407 0.703721 0.119914
Si Si5 0.814849 0.648669 0.091795
Si Si6 0.311948 0.292082 0.135781
Si Si7 0.094957 0.832148 0.918989
O O1 0.631587 0.092139 0.631559
O O2 0.332552 0.282158 0.682451
O O3 0.697494 0.195531 0.310195
O O4 0.500000 0.000000 0.500000
O O5 0.837688 0.403161 0.693835
O O6 0.901285 0.629621 0.658265
O O7 0.736431 0.147755 0.818462
O O8 0.686341 0.881499 0.822882
O O9 0.000000 0.000000 0.500000
O O10 0.502795 0.664343 0.917527
O O11 0.132667 0.739332 0.059397
O O12 0.680209 0.644225 0.045233
O O13 0.000000 0.500000 0.000000
O O14 0.929316 0.778176 0.952538
O O15 0.000000 0.000000 0.000000
#
# Coordination Sequence:
#
# PCOD9070274 Si02
#       7
#     2   1   2   2   2   2   2
#     4  12  26  47  78 114 152 202 255 318 390 457
#     4  12  28  46  74 106 160 196 254 304 388 460
#     4  12  24  46  80 112 148 195 261 325 373 451
#     4  12  26  48  74 111 150 201 255 314 377 453
#     4  12  28  48  72 111 159 201 252 317 392 457
#     4  12  26  47  78 111 147 201 262 315 384 453
#     4  12  26  46  76 112 155 196 256 320 387 455
#
# _framework density 23.293510999999999
#
# number of rings (size 3 to 8) (size 9 to 14) (size 15 to 20)
#    0.000    0.000    4.615    5.538    0.000    4.308 
#    0.000    0.000    0.000    0.000    0.000    0.000 
#    0.000    0.000    0.000    0.000    0.000    0.000 
#
# Total GULP energy -72412.021244 kJ/mol
# GULP energy per Si atom -5570.155480 kJ/mol
# Density = 2.324049 g / cm^3
# Si number density = 23.293511 Si / 1000 Ang^3
#
#
#
# Elastic Constant Matrix: (Units=GPa)
#
#
# Indices 1 2 3 4 5 6 
#
# 1 80.9884 10.2422 6.7644 -3.4698 3.1898 -1.6742
# 2 10.2422 124.2088 49.9000 12.4463 -2.8245 16.8695
# 3 6.7644 49.9000 157.3129 22.1729 -19.7833 -9.6669
# 4 -3.4698 12.4463 22.1729 51.1523 12.7810 -11.5301
# 5 3.1898 -2.8245 -19.7833 12.7810 34.4075 -3.7023
# 6 -1.6742 16.8695 -9.6669 -11.5301 -3.7023 18.1588
#
#
#
# Elastic Compliance Matrix: (Units=1/GPa)
#
#
# Indices 1 2 3 4 5 6 
#
# 1 0.012911 -0.001784 -0.000447 0.002983 -0.002274 0.004040
# 2 -0.001784 0.013008 -0.004662 -0.004981 -0.001557 -0.018211
# 3 -0.000447 -0.004662 0.009743 -0.002889 0.007317 0.009135
# 4 0.002983 -0.004981 -0.002889 0.029468 -0.011162 0.019800
# 5 -0.002274 -0.001557 0.007317 -0.011162 0.038126 0.005817
# 6 0.004040 -0.018211 0.009135 0.019800 0.005817 0.090982
#
#
# Mechanical properties :
#
#
# Convention : Reuss Voigt Hill
#
# Bulk Modulus (GPa) = 45.71343 55.14701 50.43022
# Shear Modulus (GPa) = 23.22152 40.45064 31.83608
#
# Velocity S-wave (km/s) = 3.16081 4.17173 3.70095
# Velocity P-wave (km/s) = 5.74357 6.85060 6.32136
#
# Compressibility (1/GPa) = 0.02187541
#
# Stress axis : x y z
#
# Youngs Moduli (GPa) = 77.45146 76.87428 102.63273
#
# Poissons Ratio (x) = 0.13716 0.04591
# Poissons Ratio (y) = 0.13819 0.47850
# Poissons Ratio (z) = 0.03464 0.35841
#
# Static dielectric constant tensor:
#      x y z
#    x 1.911840 -0.049800 -0.037370 
#    y -0.049800 1.962590 0.074860 
#    z -0.037370 0.074860 1.865790 
# 
# From -- ./inp_files/157820.got.cif
#   From: 2010.05.17/outbox.cif.g08.bks.cpg/sg2_79_cif.got.tgz:157820.got - 2010.06.03 11:33:40.
