data_PCOD9070768
_publ_section_title
;
Structure prediction by ZEFSAII (Michael W. Deem and Ramdas Pophale) SiO2 
 PCOD9070768
Probable space group: P -1
;
_chemical_formula_sum "Si O2"
_cell_formula_units_Z 15
_cell_length_a 13.250296
_cell_length_b 21.119590
_cell_length_c 9.868158
_cell_angle_alpha 147.708842
_cell_angle_beta 137.582353
_cell_angle_gamma 26.657555
_cell_volume 660.171826
_symmetry_space_group_name_H-M "P -1"
_symmetry_group_IT_number 2
_symmetry_cell_setting 'triclinic'
loop_
_space_group_symop_operation_xyz
x,y,z
-x,-y,-z
loop_
_atom_site_type_symbol
_atom_site_label
_atom_site_fract_x
_atom_site_fract_y
_atom_site_fract_z
Si Si1 0.862097 0.138507 0.422179
Si Si2 0.081301 0.300457 0.606446
Si Si3 0.556938 0.600151 0.700353
Si Si4 0.734203 0.398038 0.981697
Si Si5 0.627248 0.676509 0.178820
Si Si6 0.746292 0.922544 0.368316
Si Si7 0.500000 0.000000 0.000000
Si Si8 0.886781 0.854261 0.912941
O O1 0.613076 0.270056 0.352726
O O2 0.830269 0.224979 0.688130
O O3 0.028920 0.129339 0.493598
O O4 0.954673 0.951517 0.167551
O O5 0.155242 0.380278 0.757882
O O6 0.225217 0.186983 0.679074
O O7 0.134220 0.172036 0.310943
O O8 0.817754 0.457109 0.662302
O O9 0.500000 0.500000 0.500000
O O10 0.507399 0.704981 0.974668
O O11 0.500000 0.500000 0.000000
O O12 0.691369 0.526503 0.062164
O O13 0.906983 0.337680 0.159053
O O14 0.464116 0.864009 0.432819
O O15 0.706104 0.894370 0.128067
O O16 0.664449 0.957820 0.966749
#
# Coordination Sequence:
#
# PCOD9070768 Si02
#       8
#     2   2   2   2   2   2   1   2
#     4  12  26  46  76 104 147 196 248 309 364 439
#     4  12  27  50  77 110 151 195 251 304 372 446
#     4  12  25  46  72 112 147 192 246 307 368 437
#     4  12  26  45  71 107 153 193 250 305 372 440
#     4  12  27  46  74 110 150 200 244 309 372 437
#     4  12  26  50  76 109 150 194 251 305 368 446
#     4  12  28  48  74 110 152 190 252 302 376 440
#     4  12  28  47  77 109 144 201 250 304 372 440
#
# _framework density 22.721357000000001
#
# number of rings (size 3 to 8) (size 9 to 14) (size 15 to 20)
#    0.000    0.000    5.333    3.600    5.600    2.667 
#    0.000    0.000    0.000    0.000    0.000    0.000 
#    0.000    0.000    0.000    0.000    0.000    0.000 
#
# Total GULP energy -83700.808236 kJ/mol
# GULP energy per Si atom -5580.053882 kJ/mol
# Density = 2.266964 g / cm^3
# Si number density = 22.721357 Si / 1000 Ang^3
#
#
#
# Elastic Constant Matrix: (Units=GPa)
#
#
# Indices 1 2 3 4 5 6 
#
# 1 101.8334 8.9537 31.4421 -2.9455 7.9799 -0.7849
# 2 8.9537 96.6459 16.3639 -26.2298 0.5618 15.5352
# 3 31.4421 16.3639 58.9929 -10.7032 3.6671 27.1472
# 4 -2.9455 -26.2298 -10.7032 20.9077 -0.7932 -9.9443
# 5 7.9799 0.5618 3.6671 -0.7932 30.9943 -12.3995
# 6 -0.7849 15.5352 27.1472 -9.9443 -12.3995 41.5166
#
#
#
# Elastic Compliance Matrix: (Units=1/GPa)
#
#
# Indices 1 2 3 4 5 6 
#
# 1 0.013047 -0.000947 -0.010300 -0.001123 0.000767 0.007296
# 2 -0.000947 0.015829 0.000377 0.019101 -0.000277 -0.001695
# 3 -0.010300 0.000377 0.036079 0.004438 -0.012103 -0.026479
# 4 -0.001123 0.019101 0.004438 0.079157 0.005678 0.010585
# 5 0.000767 -0.000277 -0.012103 0.005678 0.042482 0.022080
# 6 0.007296 -0.001695 -0.026479 0.010585 0.022080 0.051303
#
#
# Mechanical properties :
#
#
# Convention : Reuss Voigt Hill
#
# Bulk Modulus (GPa) = 23.14043 41.22130 32.18086
# Shear Modulus (GPa) = 18.24521 32.06453 25.15487
#
# Velocity S-wave (km/s) = 2.83680 3.76068 3.33092
# Velocity P-wave (km/s) = 4.57564 6.08592 5.38400
#
# Compressibility (1/GPa) = 0.04321441
#
# Stress axis : x y z
#
# Youngs Moduli (GPa) = 76.64492 63.17438 27.71672
#
# Poissons Ratio (x) = 0.05982 0.28549
# Poissons Ratio (y) = 0.07257 -0.01044
# Poissons Ratio (z) = 0.78946 -0.02379
#
# Static dielectric constant tensor:
#      x y z
#    x 1.881500 0.144700 -0.024330 
#    y 0.144700 2.230360 -0.061650 
#    z -0.024330 -0.061650 1.880280 
# 
# From -- ./inp_files/280170.got.cif
#   From: 2010.05.17/outbox.cif.g08.bks.cpg/sg2_141_cif.got.tgz:280170.got - 2010.06.03 11:33:40.
