data_PCOD9070813
_publ_section_title
;
Structure prediction by ZEFSAII (Michael W. Deem and Ramdas Pophale) SiO2 
 PCOD9070813
Probable space group: P -1
;
_chemical_formula_sum "Si O2"
_cell_formula_units_Z 14
_cell_length_a 8.502643
_cell_length_b 9.472359
_cell_length_c 8.823153
_cell_angle_alpha 113.842478
_cell_angle_beta 109.087654
_cell_angle_gamma 66.231096
_cell_volume 583.300660
_symmetry_space_group_name_H-M "P -1"
_symmetry_group_IT_number 2
_symmetry_cell_setting 'triclinic'
loop_
_space_group_symop_operation_xyz
x,y,z
-x,-y,-z
loop_
_atom_site_type_symbol
_atom_site_label
_atom_site_fract_x
_atom_site_fract_y
_atom_site_fract_z
Si Si1 0.182911 0.017409 0.008739
Si Si2 0.358754 0.779499 0.697653
Si Si3 0.034910 0.659733 0.010745
Si Si4 0.852837 0.654446 0.449014
Si Si5 0.931651 0.189945 0.609639
Si Si6 0.392699 0.068804 0.342860
Si Si7 0.638623 0.466828 0.161805
O O1 0.334312 0.954563 0.155581
O O2 0.143861 0.208504 0.044797
O O3 0.241554 0.924028 0.830118
O O4 0.000000 0.000000 0.000000
O O5 0.237767 0.734934 0.514499
O O6 0.497499 0.841191 0.680260
O O7 0.421691 0.634708 0.773223
O O8 0.103379 0.758170 0.205199
O O9 0.173625 0.618076 0.898618
O O10 0.000000 0.500000 0.000000
O O11 0.791165 0.803704 0.608866
O O12 0.680432 0.612457 0.325829
O O13 0.000000 0.500000 0.500000
O O14 0.927607 0.724569 0.360597
O O15 0.000000 0.000000 0.500000
O O16 0.500000 0.000000 0.500000
O O17 0.500000 0.500000 0.000000
#
# Coordination Sequence:
#
# PCOD9070813 Si02
#       7
#     2   2   2   2   2   2   2
#     4  12  26  50  80 110 152 204 262 311 388 475
#     4  12  27  47  76 112 156 199 255 323 390 462
#     4  12  27  47  80 112 152 205 261 320 386 464
#     4  12  26  50  75 108 152 204 264 314 384 467
#     4  12  25  46  78 114 149 203 264 316 386 470
#     4  12  31  47  77 114 158 200 258 330 396 458
#     4  12  29  47  75 111 157 200 255 324 393 455
#
# _framework density 24.001345000000001
#
# number of rings (size 3 to 8) (size 9 to 14) (size 15 to 20)
#    0.000    0.000    5.714    3.000    8.000    0.571 
#    0.000    0.000    0.000    0.000    0.000    0.000 
#    0.000    0.000    0.000    0.000    0.000    0.000 
#
# Total GULP energy -78378.271564 kJ/mol
# GULP energy per Si atom -5598.447969 kJ/mol
# Density = 2.394672 g / cm^3
# Si number density = 24.001345 Si / 1000 Ang^3
#
#
#
# Elastic Constant Matrix: (Units=GPa)
#
#
# Indices 1 2 3 4 5 6 
#
# 1 77.9724 8.2429 5.1662 -15.6767 -3.1854 33.7959
# 2 8.2429 96.3948 15.7572 -20.2607 13.7404 24.3420
# 3 5.1662 15.7572 153.9235 -25.7089 12.2003 2.1080
# 4 -15.6767 -20.2607 -25.7089 45.0957 -9.2458 -6.1598
# 5 -3.1854 13.7404 12.2003 -9.2458 50.1594 -3.2546
# 6 33.7959 24.3420 2.1080 -6.1598 -3.2546 45.5863
#
#
#
# Elastic Compliance Matrix: (Units=1/GPa)
#
#
# Indices 1 2 3 4 5 6 
#
# 1 0.021048 0.003764 0.000266 0.006977 0.000446 -0.016652
# 2 0.003764 0.014201 -0.000267 0.005536 -0.003205 -0.009843
# 3 0.000266 -0.000267 0.007243 0.003918 -0.000945 0.000072
# 4 0.006977 0.005536 0.003918 0.029400 0.003126 -0.004114
# 5 0.000446 -0.003205 -0.000945 0.003126 0.021870 0.003408
# 6 -0.016652 -0.009843 0.000072 -0.004114 0.003408 0.039221
#
#
# Mechanical properties :
#
#
# Convention : Reuss Voigt Hill
#
# Bulk Modulus (GPa) = 19.99175 42.95815 31.47495
# Shear Modulus (GPa) = 35.17904 48.10991 41.64448
#
# Velocity S-wave (km/s) = 3.83261 4.48198 4.16996
# Velocity P-wave (km/s) = 5.28514 6.68740 6.02719
#
# Compressibility (1/GPa) = 0.05002063
#
# Stress axis : x y z
#
# Youngs Moduli (GPa) = 47.51058 70.41524 138.05551
#
# Poissons Ratio (x) = -0.26508 -0.03675
# Poissons Ratio (y) = -0.17885 0.03683
# Poissons Ratio (z) = -0.01265 0.01879
#
# Static dielectric constant tensor:
#      x y z
#    x 1.890570 -0.016980 -0.012140 
#    y -0.016980 2.099630 -0.066620 
#    z -0.012140 -0.066620 1.974190 
# 
# From -- ./inp_files/159911.got.cif
#   From: 2010.05.17/outbox.cif.g08.bks.cpg/sg2_80_cif.got.tgz:159911.got - 2010.06.03 11:33:40.
