data_PCOD9070632
_publ_section_title
;
Structure prediction by ZEFSAII (Michael W. Deem and Ramdas Pophale) SiO2 
 PCOD9070632
Probable space group: P -1
;
_chemical_formula_sum "Si O2"
_cell_formula_units_Z 14
_cell_length_a 6.835887
_cell_length_b 13.774698
_cell_length_c 7.278582
_cell_angle_alpha 127.203798
_cell_angle_beta 101.500243
_cell_angle_gamma 77.052668
_cell_volume 530.204637
_symmetry_space_group_name_H-M "P -1"
_symmetry_group_IT_number 2
_symmetry_cell_setting 'triclinic'
loop_
_space_group_symop_operation_xyz
x,y,z
-x,-y,-z
loop_
_atom_site_type_symbol
_atom_site_label
_atom_site_fract_x
_atom_site_fract_y
_atom_site_fract_z
Si Si1 0.718532 0.367918 0.329319
Si Si2 0.405216 0.177379 0.535842
Si Si3 0.994720 0.134665 0.234203
Si Si4 0.797151 0.013879 0.353200
Si Si5 0.069521 0.579958 0.925729
Si Si6 0.401763 0.600651 0.250341
Si Si7 0.679923 0.753938 0.987481
O O1 0.457576 0.296075 0.575237
O O2 0.904350 0.258676 0.259613
O O3 0.526775 0.295747 0.165912
O O4 0.789970 0.451892 0.270817
O O5 0.215152 0.135911 0.355248
O O6 0.339297 0.227355 0.777796
O O7 0.592400 0.072615 0.476323
O O8 0.832074 0.121697 0.345563
O O9 0.000000 0.000000 0.000000
O O10 0.746435 0.887815 0.100229
O O11 0.000000 0.000000 0.500000
O O12 0.868848 0.650875 0.886006
O O13 0.209494 0.659902 0.160763
O O14 0.668890 0.431102 0.593090
O O15 0.500000 0.500000 0.000000
O O16 0.000000 0.500000 0.000000
#
# Coordination Sequence:
#
# PCOD9070632 Si02
#       7
#     2   2   2   2   2   2   2
#     4  12  29  51  83 120 168 215 283 351 418 500
#     4  12  25  49  77 116 171 218 271 343 413 496
#     4  12  27  45  78 124 171 218 273 336 421 510
#     4  12  25  43  78 121 164 219 271 327 420 505
#     4  12  29  55  82 116 159 216 283 352 425 497
#     4  12  28  55  81 116 163 222 287 346 417 493
#     4  12  26  48  83 119 162 214 274 344 423 504
#
# _framework density 26.404896999999998
#
# number of rings (size 3 to 8) (size 9 to 14) (size 15 to 20)
#    0.000    0.000    4.286    4.714    6.000    2.286 
#    0.000    0.000    0.000    0.000    0.000    0.000 
#    0.000    0.000    0.000    0.000    0.000    0.000 
#
# Total GULP energy -78150.334242 kJ/mol
# GULP energy per Si atom -5582.166732 kJ/mol
# Density = 2.634480 g / cm^3
# Si number density = 26.404897 Si / 1000 Ang^3
#
#
#
# Elastic Constant Matrix: (Units=GPa)
#
#
# Indices 1 2 3 4 5 6 
#
# 1 186.7748 61.8779 85.7236 1.9807 1.8683 6.5607
# 2 61.8779 132.0193 38.3576 -8.2050 -21.3393 23.7830
# 3 85.7236 38.3576 172.1340 -1.0820 -8.9675 8.1747
# 4 1.9807 -8.2050 -1.0820 48.0562 9.0774 -2.9385
# 5 1.8683 -21.3393 -8.9675 9.0774 51.5890 -8.3068
# 6 6.5607 23.7830 8.1747 -2.9385 -8.3068 49.5180
#
#
#
# Elastic Compliance Matrix: (Units=1/GPa)
#
#
# Indices 1 2 3 4 5 6 
#
# 1 0.007988 -0.003240 -0.003397 -0.000536 -0.002015 0.000689
# 2 -0.003240 0.010548 -0.000357 0.001005 0.003612 -0.003912
# 3 -0.003397 -0.000357 0.007666 -0.000009 0.001239 -0.000437
# 4 -0.000536 0.001005 -0.000009 0.021650 -0.003325 0.000317
# 5 -0.002015 0.003612 0.001239 -0.003325 0.022046 0.001829
# 6 0.000689 -0.003912 -0.000437 0.000317 0.001829 0.022380
#
#
# Mechanical properties :
#
#
# Convention : Reuss Voigt Hill
#
# Bulk Modulus (GPa) = 81.87132 95.87180 88.87156
# Shear Modulus (GPa) = 45.31541 50.16392 47.73966
#
# Velocity S-wave (km/s) = 4.14717 4.36339 4.25665
# Velocity P-wave (km/s) = 7.34884 7.85957 7.60849
#
# Compressibility (1/GPa) = 0.01221429
#
# Stress axis : x y z
#
# Youngs Moduli (GPa) = 125.18143 94.80467 130.44625
#
# Poissons Ratio (x) = 0.30719 0.44316
# Poissons Ratio (y) = 0.40562 0.04651
# Poissons Ratio (z) = 0.42528 0.03380
#
# Static dielectric constant tensor:
#      x y z
#    x 2.182620 0.117080 -0.120320 
#    y 0.117080 2.120480 -0.134240 
#    z -0.120320 -0.134240 2.024230 
# 
# From -- ./inp_files/135682.got.cif
#   From: 2010.05.17/outbox.cif.g08.bks.cpg/sg2_68_cif.got.tgz:135682.got - 2010.06.03 11:33:40.
