data_PCOD9070275
_publ_section_title
;
Structure prediction by ZEFSAII (Michael W. Deem and Ramdas Pophale) SiO2 
 PCOD9070275
Probable space group: P -1
;
_chemical_formula_sum "Si O2"
_cell_formula_units_Z 12
_cell_length_a 8.200947
_cell_length_b 6.913367
_cell_length_c 11.578729
_cell_angle_alpha 67.279084
_cell_angle_beta 119.905339
_cell_angle_gamma 98.575814
_cell_volume 524.124393
_symmetry_space_group_name_H-M "P -1"
_symmetry_group_IT_number 2
_symmetry_cell_setting 'triclinic'
loop_
_space_group_symop_operation_xyz
x,y,z
-x,-y,-z
loop_
_atom_site_type_symbol
_atom_site_label
_atom_site_fract_x
_atom_site_fract_y
_atom_site_fract_z
Si Si1 0.918351 0.271364 0.535103
Si Si2 0.586858 0.265060 0.599449
Si Si3 0.708280 0.886229 0.176685
Si Si4 0.624649 0.116740 0.317835
Si Si5 0.189931 0.862344 0.058516
Si Si6 0.565142 0.466979 0.896200
O O1 0.734618 0.249688 0.552453
O O2 0.833062 0.189862 0.404547
O O3 0.000000 0.500000 0.500000
O O4 0.084868 0.150249 0.689652
O O5 0.500000 0.500000 0.500000
O O6 0.705019 0.213885 0.770001
O O7 0.430213 0.091513 0.585266
O O8 0.591312 0.679232 0.180542
O O9 0.621351 0.051686 0.198403
O O10 0.719175 0.972528 0.032637
O O11 0.468371 0.307936 0.229619
O O12 0.232830 0.652130 0.038564
O O13 0.000000 0.000000 0.000000
O O14 0.500000 0.500000 0.000000
#
# Coordination Sequence:
#
# PCOD9070275 Si02
#       6
#     2   2   2   2   2   2
#     4  12  25  46  75 111 157 207 266 328 391 471
#     4  12  26  49  78 112 158 209 266 330 395 473
#     4  12  24  47  77 112 159 205 266 326 396 475
#     4  12  25  48  81 112 155 213 266 322 397 474
#     4  12  25  48  77 113 164 206 255 339 394 462
#     4  12  24  46  80 112 153 212 264 317 398 475
#
# _framework density 22.895327999999999
#
# number of rings (size 3 to 8) (size 9 to 14) (size 15 to 20)
#    0.000    0.000    6.667    4.500    0.000    0.000 
#    0.000    5.000    0.000    0.000    0.000    0.000 
#    0.000    0.000    0.000    0.000    0.000    0.000 
#
# Total GULP energy -66925.136524 kJ/mol
# GULP energy per Si atom -5577.094710 kJ/mol
# Density = 2.284322 g / cm^3
# Si number density = 22.895328 Si / 1000 Ang^3
#
#
#
# Elastic Constant Matrix: (Units=GPa)
#
#
# Indices 1 2 3 4 5 6 
#
# 1 92.4041 57.4950 35.9374 -0.0141 7.0300 -6.1223
# 2 57.4950 152.3383 60.3259 -11.1657 13.8197 5.8834
# 3 35.9374 60.3259 139.4057 -3.5366 15.5891 -2.4876
# 4 -0.0141 -11.1657 -3.5366 60.8008 -5.5497 -1.7575
# 5 7.0300 13.8197 15.5891 -5.5497 50.4813 -11.2295
# 6 -6.1223 5.8834 -2.4876 -1.7575 -11.2295 42.9202
#
#
#
# Elastic Compliance Matrix: (Units=1/GPa)
#
#
# Indices 1 2 3 4 5 6 
#
# 1 0.014815 -0.005167 -0.001598 -0.000925 0.000363 0.002786
# 2 -0.005167 0.009981 -0.002822 0.001449 -0.001565 -0.002619
# 3 -0.001598 -0.002822 0.009003 -0.000149 -0.001753 0.000216
# 4 -0.000925 0.001449 -0.000149 0.016894 0.001820 0.000829
# 5 0.000363 -0.001565 -0.001753 0.001820 0.022278 0.006068
# 6 0.002786 -0.002619 0.000216 0.000829 0.006068 0.025690
#
#
# Mechanical properties :
#
#
# Convention : Reuss Voigt Hill
#
# Bulk Modulus (GPa) = 68.37467 76.85164 72.61316
# Shear Modulus (GPa) = 40.74620 46.19979 43.47300
#
# Velocity S-wave (km/s) = 4.22319 4.49694 4.36222
# Velocity P-wave (km/s) = 7.32867 7.78478 7.56016
#
# Compressibility (1/GPa) = 0.01462530
#
# Stress axis : x y z
#
# Youngs Moduli (GPa) = 67.49779 100.18576 111.07935
#
# Poissons Ratio (x) = 0.51768 0.17745
# Poissons Ratio (y) = 0.34878 0.31350
# Poissons Ratio (z) = 0.10783 0.28275
#
# Static dielectric constant tensor:
#      x y z
#    x 1.905730 -0.076420 0.016960 
#    y -0.076420 1.928780 0.060540 
#    z 0.016960 0.060540 1.988550 
# 
# From -- ./inp_files/229456.got.cif
#   From: 2010.05.17/outbox.cif.g08.bks.cpg/sg2_115_cif.got.tgz:229456.got - 2010.06.03 11:33:40.
