data_PCOD9070746
_publ_section_title
;
Structure prediction by ZEFSAII (Michael W. Deem and Ramdas Pophale) SiO2 
 PCOD9070746
Probable space group: P -1
;
_chemical_formula_sum "Si O2"
_cell_formula_units_Z 13
_cell_length_a 4.863382
_cell_length_b 11.900146
_cell_length_c 8.956320
_cell_angle_alpha 75.365206
_cell_angle_beta 105.908566
_cell_angle_gamma 94.956881
_cell_volume 482.238993
_symmetry_space_group_name_H-M "P -1"
_symmetry_group_IT_number 2
_symmetry_cell_setting 'triclinic'
loop_
_space_group_symop_operation_xyz
x,y,z
-x,-y,-z
loop_
_atom_site_type_symbol
_atom_site_label
_atom_site_fract_x
_atom_site_fract_y
_atom_site_fract_z
Si Si1 0.646471 0.683343 0.556440
Si Si2 0.838751 0.451077 0.341590
Si Si3 0.778469 0.822036 0.263010
Si Si4 0.916223 0.764755 0.982252
Si Si5 0.367678 0.917385 0.851531
Si Si6 0.298761 0.888018 0.534327
Si Si7 0.000000 0.500000 0.000000
O O1 0.482744 0.570156 0.637995
O O2 0.590173 0.732167 0.364859
O O3 0.519468 0.783873 0.600037
O O4 0.981469 0.665855 0.609920
O O5 0.000000 0.500000 0.500000
O O6 0.864556 0.495746 0.159572
O O7 0.057357 0.864449 0.383428
O O8 0.632267 0.945068 0.162727
O O9 0.875407 0.750998 0.158188
O O10 0.670335 0.859199 0.882559
O O11 0.931803 0.640977 0.942804
O O12 0.208555 0.833571 0.971486
O O13 0.181151 0.903696 0.676927
O O14 0.500000 0.000000 0.500000
#
# Coordination Sequence:
#
# PCOD9070746 Si02
#       7
#     2   2   2   2   2   2   1
#     4  12  26  47  80 116 157 205 266 323 414 487
#     4  12  28  52  81 117 157 212 278 336 399 482
#     4  12  27  48  82 120 167 210 265 340 417 503
#     4  12  30  50  78 113 162 215 273 335 412 481
#     4  12  27  48  77 117 160 208 266 333 412 501
#     4  12  25  45  78 116 157 209 258 323 406 494
#     4  12  30  56  80 114 162 220 276 346 396 474
#
# _framework density 26.957587
#
# number of rings (size 3 to 8) (size 9 to 14) (size 15 to 20)
#    0.000    0.000    3.077    5.538    4.308    2.462 
#    0.000    0.000    0.000    0.000    0.000    0.000 
#    0.000    0.000    0.000    0.000    0.000    0.000 
#
# Total GULP energy -72409.398639 kJ/mol
# GULP energy per Si atom -5569.953741 kJ/mol
# Density = 2.689623 g / cm^3
# Si number density = 26.957587 Si / 1000 Ang^3
#
#
#
# Elastic Constant Matrix: (Units=GPa)
#
#
# Indices 1 2 3 4 5 6 
#
# 1 101.4559 49.1892 14.6822 5.9683 -7.5740 -2.0294
# 2 49.1892 165.2709 51.2063 10.7958 -5.1761 -29.3874
# 3 14.6822 51.2063 136.8402 17.4183 -50.2655 10.1366
# 4 5.9683 10.7958 17.4183 60.0313 -3.5817 -6.2480
# 5 -7.5740 -5.1761 -50.2655 -3.5817 60.9507 -2.5706
# 6 -2.0294 -29.3874 10.1366 -6.2480 -2.5706 45.3578
#
#
#
# Elastic Compliance Matrix: (Units=1/GPa)
#
#
# Indices 1 2 3 4 5 6 
#
# 1 0.011908 -0.004323 0.001439 -0.000968 0.002133 -0.002602
# 2 -0.004323 0.010162 -0.005354 0.000711 -0.003733 0.007473
# 3 0.001439 -0.005354 0.014022 -0.003266 0.010827 -0.006374
# 4 -0.000968 0.000711 -0.003266 0.017847 -0.001556 0.003517
# 5 0.002133 -0.003733 0.010827 -0.001556 0.025043 -0.003538
# 6 -0.002602 0.007473 -0.006374 0.003517 -0.003538 0.028481
#
#
# Mechanical properties :
#
#
# Convention : Reuss Voigt Hill
#
# Bulk Modulus (GPa) = 50.97589 70.41361 60.69475
# Shear Modulus (GPa) = 38.32109 52.50057 45.41083
#
# Velocity S-wave (km/s) = 3.77441 4.41786 4.10875
# Velocity P-wave (km/s) = 6.16000 7.22497 6.71364
#
# Compressibility (1/GPa) = 0.01961712
#
# Stress axis : x y z
#
# Youngs Moduli (GPa) = 83.97584 98.41013 71.31737
#
# Poissons Ratio (x) = 0.42541 -0.10266
# Poissons Ratio (y) = 0.36302 0.38182
# Poissons Ratio (z) = -0.12088 0.52687
#
# Static dielectric constant tensor:
#      x y z
#    x 2.077940 0.028270 0.074310 
#    y 0.028270 2.108330 -0.017030 
#    z 0.074310 -0.017030 2.252800 
# 
# From -- ./inp_files/129682.got.cif
#   From: 2010.05.17/outbox.cif.g08.bks.cpg/sg2_65_cif.got.tgz:129682.got - 2010.06.03 11:33:40.
