data_PCOD9070804
_publ_section_title
;
Structure prediction by ZEFSAII (Michael W. Deem and Ramdas Pophale) SiO2 
 PCOD9070804
Probable space group: P -1
;
_chemical_formula_sum "Si O2"
_cell_formula_units_Z 14
_cell_length_a 9.057759
_cell_length_b 12.409391
_cell_length_c 8.338038
_cell_angle_alpha 47.765402
_cell_angle_beta 113.439717
_cell_angle_gamma 125.985402
_cell_volume 561.479616
_symmetry_space_group_name_H-M "P -1"
_symmetry_group_IT_number 2
_symmetry_cell_setting 'triclinic'
loop_
_space_group_symop_operation_xyz
x,y,z
-x,-y,-z
loop_
_atom_site_type_symbol
_atom_site_label
_atom_site_fract_x
_atom_site_fract_y
_atom_site_fract_z
Si Si1 0.439341 0.814404 0.808685
Si Si2 0.023826 0.677263 0.781953
Si Si3 0.075105 0.218898 0.677410
Si Si4 0.291972 0.851744 0.237175
Si Si5 0.555691 0.751417 0.579506
Si Si6 0.138592 0.957638 0.784011
Si Si7 0.525530 0.576233 0.258932
O O1 0.236622 0.783035 0.717780
O O2 0.525816 0.788033 0.711071
O O3 0.569435 0.992439 0.755536
O O4 0.428685 0.685168 0.067438
O O5 0.907727 0.674456 0.581066
O O6 0.005859 0.789838 0.802403
O O7 0.000000 0.500000 0.000000
O O8 0.049731 0.042970 0.774674
O O9 0.258185 0.299909 0.779615
O O10 0.907197 0.211575 0.710436
O O11 0.380827 0.731875 0.417131
O O12 0.271037 0.911141 0.993093
O O13 0.733318 0.898123 0.427637
O O14 0.549188 0.575951 0.741679
O O15 0.500000 0.500000 0.500000
#
# Coordination Sequence:
#
# PCOD9070804 Si02
#       7
#     2   2   2   2   2   2   2
#     4  12  25  49  71 107 146 191 235 299 360 424
#     4  12  28  46  74 106 149 182 243 299 358 426
#     4  12  26  50  70 110 145 186 238 304 352 424
#     4  12  25  47  76 105 144 187 247 295 354 430
#     4  12  25  46  77 103 144 196 238 286 365 430
#     4  12  26  46  76 104 140 198 238 290 363 426
#     4  12  26  46  75 106 148 186 242 293 355 426
#
# _framework density 24.934117000000001
#
# number of rings (size 3 to 8) (size 9 to 14) (size 15 to 20)
#    0.000    0.000    5.714    3.857    4.000    1.714 
#    0.000    0.000    0.000    0.000    0.000    0.000 
#    0.000    0.000    0.000    0.000    0.000    0.000 
#
# Total GULP energy -78529.563195 kJ/mol
# GULP energy per Si atom -5609.254514 kJ/mol
# Density = 2.487737 g / cm^3
# Si number density = 24.934117 Si / 1000 Ang^3
#
#
#
# Elastic Constant Matrix: (Units=GPa)
#
#
# Indices 1 2 3 4 5 6 
#
# 1 71.3789 12.1463 -6.5981 -7.9504 2.1063 6.4961
# 2 12.1463 102.0611 5.5841 -7.0591 -6.9600 0.6040
# 3 -6.5981 5.5841 93.9856 -0.4899 9.2476 0.0058
# 4 -7.9504 -7.0591 -0.4899 43.5352 -3.1575 10.1527
# 5 2.1063 -6.9600 9.2476 -3.1575 40.3766 8.3176
# 6 6.4961 0.6040 0.0058 10.1527 8.3176 34.7106
#
#
#
# Elastic Compliance Matrix: (Units=1/GPa)
#
#
# Indices 1 2 3 4 5 6 
#
# 1 0.015119 -0.001634 0.001208 0.003350 -0.000322 -0.003704
# 2 -0.001634 0.010339 -0.000958 0.001770 0.002426 -0.000973
# 3 0.001208 -0.000958 0.011064 -0.000140 -0.002880 0.000520
# 4 0.003350 0.001770 -0.000140 0.026351 0.004151 -0.009360
# 5 -0.000322 0.002426 -0.002880 0.004151 0.027805 -0.007859
# 6 -0.003704 -0.000973 0.000520 -0.009360 -0.007859 0.034141
#
#
# Mechanical properties :
#
#
# Convention : Reuss Voigt Hill
#
# Bulk Modulus (GPa) = 29.62649 32.18778 30.90713
# Shear Modulus (GPa) = 36.01310 40.81070 38.41190
#
# Velocity S-wave (km/s) = 3.80456 4.05005 3.92922
# Velocity P-wave (km/s) = 5.58634 5.89981 5.74522
#
# Compressibility (1/GPa) = 0.03375358
#
# Stress axis : x y z
#
# Youngs Moduli (GPa) = 66.14123 96.72563 90.38063
#
# Poissons Ratio (x) = 0.15802 -0.10917
# Poissons Ratio (y) = 0.10806 0.08661
# Poissons Ratio (z) = -0.07989 0.09270
#
# Static dielectric constant tensor:
#      x y z
#    x 1.985540 -0.007450 -0.015140 
#    y -0.007450 1.929730 -0.010100 
#    z -0.015140 -0.010100 1.985050 
# 
# From -- ./inp_files/156090.got.cif
#   From: 2010.05.17/outbox.cif.g08.bks.cpg/sg2_79_cif.got.tgz:156090.got - 2010.06.03 11:33:40.
