data_PCOD9070927
_publ_section_title
;
Structure prediction by ZEFSAII (Michael W. Deem and Ramdas Pophale) SiO2 
 PCOD9070927
Probable space group: P -1
;
_chemical_formula_sum "Si O2"
_cell_formula_units_Z 16
_cell_length_a 18.748108
_cell_length_b 12.794782
_cell_length_c 9.134263
_cell_angle_alpha 48.940237
_cell_angle_beta 133.921328
_cell_angle_gamma 153.709645
_cell_volume 694.832358
_symmetry_space_group_name_H-M "P -1"
_symmetry_group_IT_number 2
_symmetry_cell_setting 'triclinic'
loop_
_space_group_symop_operation_xyz
x,y,z
-x,-y,-z
loop_
_atom_site_type_symbol
_atom_site_label
_atom_site_fract_x
_atom_site_fract_y
_atom_site_fract_z
Si Si1 0.035231 0.730163 0.002851
Si Si2 0.884369 0.417907 0.544228
Si Si3 0.586004 0.476508 0.050138
Si Si4 0.967072 0.962309 0.164090
Si Si5 0.493899 0.639266 0.288084
Si Si6 0.114396 0.886377 0.628997
Si Si7 0.353128 0.755070 0.106355
Si Si8 0.483646 0.909511 0.710720
O O1 0.845914 0.452685 0.009205
O O2 0.073064 0.806486 0.814853
O O3 0.037428 0.882246 0.941643
O O4 0.147738 0.747517 0.237996
O O5 0.714504 0.289804 0.348216
O O6 0.000000 0.500000 0.500000
O O7 0.990806 0.650479 0.573897
O O8 0.779860 0.688758 0.178861
O O9 0.489753 0.221891 0.156529
O O10 0.500000 0.500000 0.000000
O O11 0.586205 0.490897 0.862354
O O12 0.084727 0.005591 0.402627
O O13 0.000000 0.000000 0.000000
O O14 0.500000 0.500000 0.500000
O O15 0.391074 0.636954 0.234999
O O16 0.685236 0.914161 0.287910
O O17 0.391396 0.864207 0.216824
O O18 0.500000 0.000000 0.000000
O O19 0.500000 0.000000 0.500000
#
# Coordination Sequence:
#
# PCOD9070927 Si02
#       8
#     2   2   2   2   2   2   2   2
#     4  12  27  45  76 107 144 193 239 300 367 432
#     4  12  26  46  74 108 142 190 243 295 367 433
#     4  12  28  49  73 106 148 192 241 300 368 434
#     4  12  26  48  75 103 146 191 245 299 359 436
#     4  12  27  46  75 107 146 193 245 299 367 435
#     4  12  25  48  70 107 146 186 244 299 358 435
#     4  12  25  48  75 107 147 190 241 303 367 432
#     4  12  28  47  74 108 149 188 242 304 365 436
#
# _framework density 23.027135999999999
#
# number of rings (size 3 to 8) (size 9 to 14) (size 15 to 20)
#    0.000    0.000    2.500    7.500    5.250    0.000 
#    0.000    0.000    0.000    0.000    0.000    0.000 
#    0.000    0.000    0.000    0.000    0.000    0.000 
#
# Total GULP energy -89459.419434 kJ/mol
# GULP energy per Si atom -5591.213715 kJ/mol
# Density = 2.297473 g / cm^3
# Si number density = 23.027136 Si / 1000 Ang^3
#
#
#
# Elastic Constant Matrix: (Units=GPa)
#
#
# Indices 1 2 3 4 5 6 
#
# 1 117.9647 30.7974 26.7181 -7.7281 8.2450 -28.9856
# 2 30.7974 80.3804 6.3126 15.5562 4.8329 -4.7299
# 3 26.7181 6.3126 104.1395 -18.2597 4.6524 -21.3114
# 4 -7.7281 15.5562 -18.2597 40.6782 4.9223 2.0267
# 5 8.2450 4.8329 4.6524 4.9223 45.2449 -0.2181
# 6 -28.9856 -4.7299 -21.3114 2.0267 -0.2181 57.5317
#
#
#
# Elastic Compliance Matrix: (Units=1/GPa)
#
#
# Indices 1 2 3 4 5 6 
#
# 1 0.011456 -0.004586 -0.000964 0.003477 -0.001853 0.004908
# 2 -0.004586 0.015656 -0.001332 -0.007406 0.000100 -0.001256
# 3 -0.000964 -0.001332 0.011699 0.005580 -0.001475 0.003536
# 4 0.003477 -0.007406 0.005580 0.030932 -0.003771 0.002106
# 5 -0.001853 0.000100 -0.001475 -0.003771 0.022985 -0.001252
# 6 0.004908 -0.001256 0.003536 0.002106 -0.001252 0.020982
#
#
# Mechanical properties :
#
#
# Convention : Reuss Voigt Hill
#
# Bulk Modulus (GPa) = 39.92861 47.79343 43.86102
# Shear Modulus (GPa) = 36.81219 44.60140 40.70680
#
# Velocity S-wave (km/s) = 4.00264 4.40580 4.20905
# Velocity P-wave (km/s) = 6.22406 6.83241 6.53532
#
# Compressibility (1/GPa) = 0.02504470
#
# Stress axis : x y z
#
# Youngs Moduli (GPa) = 87.28888 63.87267 85.48076
#
# Poissons Ratio (x) = 0.29294 0.08243
# Poissons Ratio (y) = 0.40034 0.11389
# Poissons Ratio (z) = 0.08417 0.08510
#
# Static dielectric constant tensor:
#      x y z
#    x 1.823570 0.083970 0.056280 
#    y 0.083970 1.597330 -0.184990 
#    z 0.056280 -0.184990 1.722450 
# 
# From -- ./inp_files/297938.got.cif
#   From: 2010.05.17/outbox.cif.g08.bks.cpg/sg2_149_cif.got.tgz:297938.got - 2010.06.03 11:33:40.
