data_PCOD9070082
_publ_section_title
;
Structure prediction by ZEFSAII (Michael W. Deem and Ramdas Pophale) SiO2 
 PCOD9070082
Probable space group: P -1
;
_chemical_formula_sum "Si O2"
_cell_formula_units_Z 12
_cell_length_a 9.275421
_cell_length_b 11.662347
_cell_length_c 5.462062
_cell_angle_alpha 104.964349
_cell_angle_beta 86.527645
_cell_angle_gamma 53.678950
_cell_volume 442.268276
_symmetry_space_group_name_H-M "P -1"
_symmetry_group_IT_number 2
_symmetry_cell_setting 'triclinic'
loop_
_space_group_symop_operation_xyz
x,y,z
-x,-y,-z
loop_
_atom_site_type_symbol
_atom_site_label
_atom_site_fract_x
_atom_site_fract_y
_atom_site_fract_z
Si Si1 0.238484 0.861683 0.980974
Si Si2 0.239569 0.139161 0.024881
Si Si3 0.642061 0.537160 0.785554
Si Si4 0.855261 0.485063 0.234900
Si Si5 0.134543 0.800001 0.454936
Si Si6 0.196571 0.222200 0.573985
O O1 0.439113 0.696319 0.880729
O O2 0.138878 0.850189 0.754945
O O3 0.250333 0.993725 0.983435
O O4 0.151003 0.880641 0.268325
O O5 0.316975 0.139777 0.757706
O O6 0.312003 0.160089 0.277444
O O7 0.029898 0.304865 0.121753
O O8 0.743718 0.523879 0.518057
O O9 0.678349 0.377415 0.684809
O O10 0.733337 0.527457 0.029069
O O11 0.904098 0.599013 0.296462
O O12 0.957992 0.802886 0.437910
#
# Coordination Sequence:
#
# PCOD9070082 Si02
#       6
#     2   2   2   2   2   2
#     4  12  28  45  70 104 148 176 233 282 358 412
#     4  12  24  46  69 108 136 182 230 298 339 400
#     4  12  25  47  70 106 136 191 226 285 348 416
#     4  12  24  47  76 102 134 182 244 283 339 415
#     4  12  24  45  73 101 138 190 228 283 339 426
#     4  12  25  44  75 104 136 181 240 285 341 410
#
# _framework density 27.132853999999998
#
# number of rings (size 3 to 8) (size 9 to 14) (size 15 to 20)
#    0.000    0.000    3.333    7.000    0.000    4.000 
#    0.000    5.000    0.000    0.000    0.000    0.000 
#    0.000    0.000    0.000    0.000    0.000    0.000 
#
# Total GULP energy -67364.384561 kJ/mol
# GULP energy per Si atom -5613.698713 kJ/mol
# Density = 2.707110 g / cm^3
# Si number density = 27.132854 Si / 1000 Ang^3
#
#
#
# Elastic Constant Matrix: (Units=GPa)
#
#
# Indices 1 2 3 4 5 6 
#
# 1 47.0546 43.4814 36.0658 -10.7678 -3.6704 0.0156
# 2 43.4814 200.0182 57.1024 -25.0368 0.8185 9.3731
# 3 36.0658 57.1024 230.2535 -54.6954 15.1379 5.5106
# 4 -10.7678 -25.0368 -54.6954 65.4815 12.0672 3.1551
# 5 -3.6704 0.8185 15.1379 12.0672 40.6399 8.2910
# 6 0.0156 9.3731 5.5106 3.1551 8.2910 63.1086
#
#
#
# Elastic Compliance Matrix: (Units=1/GPa)
#
#
# Indices 1 2 3 4 5 6 
#
# 1 0.029323 -0.005489 -0.003864 -0.001359 0.004474 0.000626
# 2 -0.005489 0.006520 -0.000329 0.001501 -0.000764 -0.000913
# 3 -0.003864 -0.000329 0.006668 0.005640 -0.004454 -0.000229
# 4 -0.001359 0.001501 0.005640 0.021957 -0.008635 -0.000678
# 5 0.004474 -0.000764 -0.004454 -0.008635 0.029859 -0.002990
# 6 0.000626 -0.000913 -0.000229 -0.000678 -0.002990 0.016428
#
#
# Mechanical properties :
#
#
# Convention : Reuss Voigt Hill
#
# Bulk Modulus (GPa) = 43.19891 83.40284 63.30087
# Shear Modulus (GPa) = 36.27524 56.55779 46.41652
#
# Velocity S-wave (km/s) = 3.66040 4.57056 4.14056
# Velocity P-wave (km/s) = 5.81554 7.65890 6.79997
#
# Compressibility (1/GPa) = 0.02314873
#
# Stress axis : x y z
#
# Youngs Moduli (GPa) = 34.10236 153.36431 149.97230
#
# Poissons Ratio (x) = 0.84185 0.57944
# Poissons Ratio (y) = 0.18720 0.04930
# Poissons Ratio (z) = 0.13176 0.05041
#
# Static dielectric constant tensor:
#      x y z
#    x 2.130540 0.007710 -0.029120 
#    y 0.007710 2.089260 0.000580 
#    z -0.029120 0.000580 2.177740 
# 
# From -- ./inp_files/67598.got.cif
#   From: 2010.05.17/outbox.cif.g08.bks.cpg/sg2_34_cif.got.tgz:67598.got - 2010.06.03 11:33:40.
