data_PCOD9070088
_publ_section_title
;
Structure prediction by ZEFSAII (Michael W. Deem and Ramdas Pophale) SiO2 
 PCOD9070088
Probable space group: P -1
;
_chemical_formula_sum "Si O2"
_cell_formula_units_Z 14
_cell_length_a 24.693121
_cell_length_b 8.407604
_cell_length_c 8.175498
_cell_angle_alpha 129.470155
_cell_angle_beta 148.404357
_cell_angle_gamma 43.953364
_cell_volume 616.029434
_symmetry_space_group_name_H-M "P -1"
_symmetry_group_IT_number 2
_symmetry_cell_setting 'triclinic'
loop_
_space_group_symop_operation_xyz
x,y,z
-x,-y,-z
loop_
_atom_site_type_symbol
_atom_site_label
_atom_site_fract_x
_atom_site_fract_y
_atom_site_fract_z
Si Si1 0.345337 0.841818 0.187329
Si Si2 0.125510 0.952507 0.239488
Si Si3 0.783772 0.684025 0.271098
Si Si4 0.562375 0.732225 0.543132
Si Si5 0.657737 0.403489 0.279769
Si Si6 0.627381 0.830542 0.279797
Si Si7 0.124483 0.833375 0.785560
O O1 0.485592 0.698152 0.468288
O O2 0.331830 0.069980 0.395019
O O3 0.344684 0.807759 0.966713
O O4 0.239267 0.801567 0.958812
O O5 0.153102 0.159649 0.504151
O O6 0.215066 0.716262 0.397130
O O7 0.136396 0.924828 0.054177
O O8 0.000000 0.000000 0.000000
O O9 0.713064 0.788606 0.323655
O O10 0.868807 0.418751 0.343817
O O11 0.687027 0.690035 0.900268
O O12 0.580646 0.544666 0.326842
O O13 0.500000 0.000000 0.500000
O O14 0.632314 0.593804 0.200601
O O15 0.500000 0.000000 0.000000
O O16 0.000000 0.000000 0.500000
#
# Coordination Sequence:
#
# PCOD9070088 Si02
#       7
#     2   2   2   2   2   2   2
#     4  12  25  45  75 108 151 199 248 296 375 447
#     4  12  29  50  76 111 146 196 254 313 379 438
#     4  12  26  50  76 109 150 194 251 309 374 453
#     4  12  24  45  73 114 155 194 239 309 378 442
#     4  12  26  46  73 112 155 197 246 310 374 438
#     4  12  25  45  75 112 152 195 248 301 371 458
#     4  12  28  50  76 109 147 202 256 306 369 446
#
# _framework density 22.726185999999998
#
# number of rings (size 3 to 8) (size 9 to 14) (size 15 to 20)
#    0.000    0.000    7.143    2.143    0.000    5.714 
#    0.000    0.000    0.000    0.000    0.000    0.000 
#    0.000    0.000    0.000    0.000    0.000    0.000 
#
# Total GULP energy -78165.734372 kJ/mol
# GULP energy per Si atom -5583.266741 kJ/mol
# Density = 2.267446 g / cm^3
# Si number density = 22.726186 Si / 1000 Ang^3
#
#
#
# Elastic Constant Matrix: (Units=GPa)
#
#
# Indices 1 2 3 4 5 6 
#
# 1 93.9230 40.7652 53.2707 9.5782 17.3510 -16.4350
# 2 40.7652 152.7596 82.2101 -11.4530 6.2832 1.0734
# 3 53.2707 82.2101 138.0034 3.5925 0.1978 -2.5593
# 4 9.5782 -11.4530 3.5925 54.2004 -2.6800 -14.0132
# 5 17.3510 6.2832 0.1978 -2.6800 45.9841 14.3324
# 6 -16.4350 1.0734 -2.5593 -14.0132 14.3324 43.3930
#
#
#
# Elastic Compliance Matrix: (Units=1/GPa)
#
#
# Indices 1 2 3 4 5 6 
#
# 1 0.018174 -0.001397 -0.005966 -0.001165 -0.009630 0.009370
# 2 -0.001397 0.010154 -0.005580 0.002728 -0.000676 -0.000005
# 3 -0.005966 -0.005580 0.012851 -0.001601 0.003847 -0.003151
# 4 -0.001165 0.002728 -0.001601 0.020957 -0.000698 0.006395
# 5 -0.009630 -0.000676 0.003847 -0.000698 0.029593 -0.013403
# 6 0.009370 -0.000005 -0.003151 0.006395 -0.013403 0.032901
#
#
# Mechanical properties :
#
#
# Convention : Reuss Voigt Hill
#
# Bulk Modulus (GPa) = 65.38156 81.90865 73.64510
# Shear Modulus (GPa) = 32.13109 42.61150 37.37129
#
# Velocity S-wave (km/s) = 3.76418 4.33482 4.05954
# Velocity P-wave (km/s) = 6.90824 7.82138 7.37895
#
# Compressibility (1/GPa) = 0.01529483
#
# Stress axis : x y z
#
# Youngs Moduli (GPa) = 55.02356 98.48101 77.81636
#
# Poissons Ratio (x) = 0.13753 0.46421
# Poissons Ratio (y) = 0.07684 0.43422
# Poissons Ratio (z) = 0.32824 0.54953
#
# Static dielectric constant tensor:
#      x y z
#    x 1.863450 0.003650 -0.009630 
#    y 0.003650 1.840930 0.001860 
#    z -0.009630 0.001860 1.936800 
# 
# From -- ./inp_files/356555.got.cif
#   From: 2010.05.17/outbox.cif.g08.bks.cpg/sg2_179_cif.got.tgz:356555.got - 2010.06.03 11:33:40.
