data_PCOD9070417
_publ_section_title
;
Structure prediction by ZEFSAII (Michael W. Deem and Ramdas Pophale) SiO2 
 PCOD9070417
Probable space group: P -1
;
_chemical_formula_sum "Si O2"
_cell_formula_units_Z 16
_cell_length_a 9.355384
_cell_length_b 16.018240
_cell_length_c 9.289219
_cell_angle_alpha 143.788013
_cell_angle_beta 106.282962
_cell_angle_gamma 83.532082
_cell_volume 773.407493
_symmetry_space_group_name_H-M "P -1"
_symmetry_group_IT_number 2
_symmetry_cell_setting 'triclinic'
loop_
_space_group_symop_operation_xyz
x,y,z
-x,-y,-z
loop_
_atom_site_type_symbol
_atom_site_label
_atom_site_fract_x
_atom_site_fract_y
_atom_site_fract_z
Si Si1 0.274443 0.763420 0.918043
Si Si2 0.872255 0.520539 0.103651
Si Si3 0.554747 0.960745 0.117850
Si Si4 0.279270 0.215883 0.671391
Si Si5 0.632896 0.239055 0.730461
Si Si6 0.813688 0.815470 0.064215
Si Si7 0.100104 0.496436 0.384676
Si Si8 0.941552 0.041812 0.887628
O O1 0.256125 0.609328 0.620897
O O2 0.412848 0.874960 0.046394
O O3 0.291203 0.771096 0.105749
O O4 0.120007 0.813567 0.905298
O O5 0.796004 0.652009 0.216929
O O6 0.982871 0.540768 0.299754
O O7 0.736523 0.381042 0.887788
O O8 0.000000 0.500000 0.000000
O O9 0.669741 0.850554 0.986247
O O10 0.626187 0.102632 0.431302
O O11 0.500000 0.000000 0.000000
O O12 0.459353 0.249004 0.735470
O O13 0.233858 0.175475 0.768760
O O14 0.200407 0.080378 0.366965
O O15 0.859018 0.659334 0.848407
O O16 0.947289 0.929204 0.179701
O O17 0.000000 0.500000 0.500000
O O18 0.000000 0.000000 0.000000
#
# Coordination Sequence:
#
# PCOD9070417 Si02
#       8
#     2   2   2   2   2   2   2   2
#     4  12  24  48  73 100 146 192 233 287 365 425
#     4  12  27  46  72 110 142 185 243 293 357 421
#     4  12  28  46  73 108 143 184 240 299 357 425
#     4  12  26  47  72 104 147 192 239 289 358 434
#     4  12  26  50  73 101 147 193 231 295 365 429
#     4  12  26  45  71 110 138 191 242 291 358 421
#     4  12  25  47  74 103 146 188 235 299 355 425
#     4  12  25  43  73 106 143 186 243 297 354 422
#
# _framework density 20.687671000000002
#
# number of rings (size 3 to 8) (size 9 to 14) (size 15 to 20)
#    0.000    0.000    6.250    3.375    3.500    0.500 
#    2.250    0.000    0.000    0.000    0.000    0.000 
#    0.000    0.000    0.000    0.000    0.000    0.000 
#
# Total GULP energy -89286.262350 kJ/mol
# GULP energy per Si atom -5580.391397 kJ/mol
# Density = 2.064058 g / cm^3
# Si number density = 20.687671 Si / 1000 Ang^3
#
#
#
# Elastic Constant Matrix: (Units=GPa)
#
#
# Indices 1 2 3 4 5 6 
#
# 1 107.7558 36.3541 21.9321 6.4915 5.3832 -0.4808
# 2 36.3541 131.6928 37.0340 -6.8952 14.4354 -12.1265
# 3 21.9321 37.0340 101.8990 -0.0624 24.9833 4.9107
# 4 6.4915 -6.8952 -0.0624 35.3204 2.1051 5.2985
# 5 5.3832 14.4354 24.9833 2.1051 26.9049 8.7996
# 6 -0.4808 -12.1265 4.9107 5.2985 8.7996 48.9476
#
#
#
# Elastic Compliance Matrix: (Units=1/GPa)
#
#
# Indices 1 2 3 4 5 6 
#
# 1 0.010627 -0.002789 -0.001528 -0.002512 0.001104 -0.000360
# 2 -0.002789 0.009792 -0.002156 0.002190 -0.003870 0.003073
# 3 -0.001528 -0.002156 0.013699 0.000551 -0.011318 0.000051
# 4 -0.002512 0.002190 0.000551 0.029706 -0.002771 -0.002255
# 5 0.001104 -0.003870 -0.011318 -0.002771 0.052688 -0.008985
# 6 -0.000360 0.003073 0.000051 -0.002255 -0.008985 0.023042
#
#
# Mechanical properties :
#
#
# Convention : Reuss Voigt Hill
#
# Bulk Modulus (GPa) = 47.23778 59.10980 53.17379
# Shear Modulus (GPa) = 31.33649 38.63640 34.98644
#
# Velocity S-wave (km/s) = 3.89619 4.32627 4.11685
# Velocity P-wave (km/s) = 6.56687 7.32052 6.95391
#
# Compressibility (1/GPa) = 0.02116950
#
# Stress axis : x y z
#
# Youngs Moduli (GPa) = 94.09989 102.12732 72.99808
#
# Poissons Ratio (x) = 0.28488 0.11156
# Poissons Ratio (y) = 0.26249 0.15741
# Poissons Ratio (z) = 0.14381 0.22022
#
# Static dielectric constant tensor:
#      x y z
#    x 1.782640 0.030080 0.029360 
#    y 0.030080 1.676640 0.041080 
#    z 0.029360 0.041080 1.777300 
# 
# From -- ./inp_files/209538.got.cif
#   From: 2010.05.17/outbox.cif.g08.bks.cpg/sg2_105_cif.got.tgz:209538.got - 2010.06.03 11:33:40.
