data_PCOD9070054
_publ_section_title
;
Structure prediction by ZEFSAII (Michael W. Deem and Ramdas Pophale) SiO2 
 PCOD9070054
Probable space group: P -1
;
_chemical_formula_sum "Si O2"
_cell_formula_units_Z 13
_cell_length_a 8.721768
_cell_length_b 8.497366
_cell_length_c 11.460570
_cell_angle_alpha 41.771084
_cell_angle_beta 110.591458
_cell_angle_gamma 113.056881
_cell_volume 518.144004
_symmetry_space_group_name_H-M "P -1"
_symmetry_group_IT_number 2
_symmetry_cell_setting 'triclinic'
loop_
_space_group_symop_operation_xyz
x,y,z
-x,-y,-z
loop_
_atom_site_type_symbol
_atom_site_label
_atom_site_fract_x
_atom_site_fract_y
_atom_site_fract_z
Si Si1 0.172854 0.637908 0.907114
Si Si2 0.272434 0.321212 0.271908
Si Si3 0.896370 0.209708 0.457375
Si Si4 0.385702 0.637040 0.548324
Si Si5 0.813760 0.401103 0.690236
Si Si6 0.674332 0.932103 0.123742
Si Si7 0.000000 0.000000 0.000000
O O1 0.144117 0.686399 0.737471
O O2 0.252476 0.890601 0.848455
O O3 0.284139 0.438683 0.081113
O O4 0.000000 0.500000 0.000000
O O5 0.439488 0.253588 0.404395
O O6 0.234035 0.530501 0.230856
O O7 0.131576 0.079258 0.381728
O O8 0.762696 0.279935 0.469760
O O9 0.083629 0.338040 0.470823
O O10 0.352411 0.699861 0.371469
O O11 0.367350 0.351409 0.706329
O O12 0.951613 0.240514 0.799008
O O13 0.821319 0.969200 0.044746
O O14 0.500000 0.000000 0.000000
#
# Coordination Sequence:
#
# PCOD9070054 Si02
#       7
#     2   2   2   2   2   2   1
#     4  12  26  47  76 109 154 202 251 316 390 460
#     4  12  26  50  75 110 154 199 252 317 396 453
#     4  12  27  47  72 112 151 200 247 313 385 461
#     4  12  27  48  75 110 151 199 259 317 380 459
#     4  12  25  48  76 108 147 200 256 312 380 465
#     4  12  25  50  76 111 152 197 260 318 377 461
#     4  12  24  44  80 112 146 192 264 314 380 446
#
# _framework density 25.089551
#
# number of rings (size 3 to 8) (size 9 to 14) (size 15 to 20)
#    0.000    0.000    6.154    2.769    2.154    3.077 
#    0.000    0.000    0.000    0.000    0.000    0.000 
#    0.000    0.000    0.000    0.000    0.000    0.000 
#
# Total GULP energy -72541.892530 kJ/mol
# GULP energy per Si atom -5580.145579 kJ/mol
# Density = 2.503245 g / cm^3
# Si number density = 25.089551 Si / 1000 Ang^3
#
#
#
# Elastic Constant Matrix: (Units=GPa)
#
#
# Indices 1 2 3 4 5 6 
#
# 1 101.0406 1.6595 11.7881 12.6388 14.7773 -6.9727
# 2 1.6595 67.8755 33.2022 4.3398 4.2392 13.4984
# 3 11.7881 33.2022 120.9800 -0.1309 11.6341 -18.0244
# 4 12.6388 4.3398 -0.1309 38.8413 0.3667 -2.6154
# 5 14.7773 4.2392 11.6341 0.3667 45.4350 -2.9330
# 6 -6.9727 13.4984 -18.0244 -2.6154 -2.9330 36.2164
#
#
#
# Elastic Compliance Matrix: (Units=1/GPa)
#
#
# Indices 1 2 3 4 5 6 
#
# 1 0.010972 0.000243 -0.000644 -0.003489 -0.003322 0.001180
# 2 0.000243 0.020980 -0.007458 -0.003234 -0.000861 -0.011788
# 3 -0.000644 -0.007458 0.011799 0.001671 -0.001579 0.008521
# 4 -0.003489 -0.003234 0.001671 0.027469 0.001008 0.003431
# 5 -0.003322 -0.000861 -0.001579 0.001008 0.023623 0.000882
# 6 0.001180 -0.011788 0.008521 0.003431 0.000882 0.036793
#
#
# Mechanical properties :
#
#
# Convention : Reuss Voigt Hill
#
# Bulk Modulus (GPa) = 35.67512 42.57729 39.12620
# Shear Modulus (GPa) = 31.90817 40.31495 36.11156
#
# Velocity S-wave (km/s) = 3.57006 4.01289 3.79794
# Velocity P-wave (km/s) = 5.58961 6.20307 5.90431
#
# Compressibility (1/GPa) = 0.02803074
#
# Stress axis : x y z
#
# Youngs Moduli (GPa) = 91.14248 47.66393 84.75534
#
# Poissons Ratio (x) = -0.01156 0.05459
# Poissons Ratio (y) = -0.02211 0.63214
# Poissons Ratio (z) = 0.05871 0.35550
#
# Static dielectric constant tensor:
#      x y z
#    x 1.972510 0.027530 0.010810 
#    y 0.027530 1.978060 0.031040 
#    z 0.010810 0.031040 2.038010 
# 
# From -- ./inp_files/174106.got.cif
#   From: 2010.05.17/outbox.cif.g08.bks.cpg/sg2_88_cif.got.tgz:174106.got - 2010.06.03 11:33:40.
