data_PCOD9070532
_publ_section_title
;
Structure prediction by ZEFSAII (Michael W. Deem and Ramdas Pophale) SiO2 
 PCOD9070532
Probable space group: P -1
;
_chemical_formula_sum "Si O2"
_cell_formula_units_Z 12
_cell_length_a 7.914821
_cell_length_b 9.553395
_cell_length_c 11.076838
_cell_angle_alpha 139.461742
_cell_angle_beta 68.579363
_cell_angle_gamma 92.637748
_cell_volume 468.202091
_symmetry_space_group_name_H-M "P -1"
_symmetry_group_IT_number 2
_symmetry_cell_setting 'triclinic'
loop_
_space_group_symop_operation_xyz
x,y,z
-x,-y,-z
loop_
_atom_site_type_symbol
_atom_site_label
_atom_site_fract_x
_atom_site_fract_y
_atom_site_fract_z
Si Si1 0.975923 0.001850 0.844633
Si Si2 0.951696 0.816951 0.472944
Si Si3 0.751588 0.542569 0.207439
Si Si4 0.674210 0.587063 0.983281
Si Si5 0.372694 0.584392 0.466171
Si Si6 0.683925 0.822587 0.906693
O O1 0.905085 0.923721 0.686433
O O2 0.861892 0.911713 0.915031
O O3 0.205951 0.841188 0.683146
O O4 0.898916 0.281849 0.037044
O O5 0.791568 0.734375 0.402319
O O6 0.152517 0.594324 0.260137
O O7 0.000000 0.000000 0.500000
O O8 0.533956 0.559686 0.305840
O O9 0.762123 0.597304 0.099213
O O10 0.614101 0.801322 0.047353
O O11 0.500000 0.500000 0.000000
O O12 0.500000 0.500000 0.500000
O O13 0.268560 0.410004 0.339385
O O14 0.500000 0.000000 0.000000
#
# Coordination Sequence:
#
# PCOD9070532 Si02
#       6
#     2   2   2   2   2   2
#     4  12  26  52  82 113 163 209 263 336 401 466
#     4  12  27  50  81 113 156 205 268 330 395 476
#     4  12  27  53  81 117 158 209 271 327 405 476
#     4  12  24  49  79 112 161 204 264 327 399 474
#     4  12  27  49  78 117 159 205 272 326 397 482
#     4  12  25  48  79 114 160 212 256 328 399 470
#
# _framework density 25.629956
#
# number of rings (size 3 to 8) (size 9 to 14) (size 15 to 20)
#    0.000    0.000    6.667    2.000    2.333    2.000 
#    3.000    1.667    0.000    0.000    0.000    0.000 
#    0.000    0.000    0.000    0.000    0.000    0.000 
#
# Total GULP energy -67298.375992 kJ/mol
# GULP energy per Si atom -5608.197999 kJ/mol
# Density = 2.557162 g / cm^3
# Si number density = 25.629956 Si / 1000 Ang^3
#
#
#
# Elastic Constant Matrix: (Units=GPa)
#
#
# Indices 1 2 3 4 5 6 
#
# 1 93.2141 50.2148 26.4332 25.9576 -3.8066 -3.7750
# 2 50.2148 190.7445 38.8247 -7.5604 2.0269 -19.4751
# 3 26.4332 38.8247 111.5551 6.3035 8.6895 -9.8127
# 4 25.9576 -7.5604 6.3035 31.6499 1.0533 2.7754
# 5 -3.8066 2.0269 8.6895 1.0533 62.0572 0.3967
# 6 -3.7750 -19.4751 -9.8127 2.7754 0.3967 59.9584
#
#
#
# Elastic Compliance Matrix: (Units=1/GPa)
#
#
# Indices 1 2 3 4 5 6 
#
# 1 0.018642 -0.005204 -0.001841 -0.016221 0.001847 -0.000079
# 2 -0.005204 0.007323 -0.001496 0.006197 -0.000464 0.001522
# 3 -0.001841 -0.001496 0.010187 -0.000925 -0.001482 0.001118
# 4 -0.016221 0.006197 -0.000925 0.046740 -0.001853 -0.001311
# 5 0.001847 -0.000464 -0.001482 -0.001853 0.016483 -0.000300
# 6 -0.000079 0.001522 0.001118 -0.001311 -0.000300 0.017413
#
#
# Mechanical properties :
#
#
# Convention : Reuss Voigt Hill
#
# Bulk Modulus (GPa) = 52.43214 69.60659 61.01936
# Shear Modulus (GPa) = 35.65655 49.40251 42.52953
#
# Velocity S-wave (km/s) = 3.73393 4.39513 4.07795
# Velocity P-wave (km/s) = 6.25232 7.27829 6.78472
#
# Compressibility (1/GPa) = 0.01907227
#
# Stress axis : x y z
#
# Youngs Moduli (GPa) = 53.64117 136.55686 98.16495
#
# Poissons Ratio (x) = 0.71060 0.18068
# Poissons Ratio (y) = 0.27913 0.14683
# Poissons Ratio (z) = 0.09873 0.20425
#
# Static dielectric constant tensor:
#      x y z
#    x 2.049080 -0.001350 0.113940 
#    y -0.001350 1.968410 -0.166310 
#    z 0.113940 -0.166310 1.783640 
# 
# From -- ./inp_files/383652.got.cif
#   From: 2010.05.17/outbox.cif.g08.bks.cpg/sg2_192_cif.got.tgz:383652.got - 2010.06.03 11:33:40.
