data_PCOD9070133
_publ_section_title
;
Structure prediction by ZEFSAII (Michael W. Deem and Ramdas Pophale) SiO2 
 PCOD9070133
Probable space group: P -1
;
_chemical_formula_sum "Si O2"
_cell_formula_units_Z 14
_cell_length_a 12.077984
_cell_length_b 8.890280
_cell_length_c 17.984649
_cell_angle_alpha 112.470908
_cell_angle_beta 159.747864
_cell_angle_gamma 70.230533
_cell_volume 616.459850
_symmetry_space_group_name_H-M "P -1"
_symmetry_group_IT_number 2
_symmetry_cell_setting 'triclinic'
loop_
_space_group_symop_operation_xyz
x,y,z
-x,-y,-z
loop_
_atom_site_type_symbol
_atom_site_label
_atom_site_fract_x
_atom_site_fract_y
_atom_site_fract_z
Si Si1 0.264735 0.836999 0.813379
Si Si2 0.265787 0.464570 0.414663
Si Si3 0.196831 0.102141 0.339393
Si Si4 0.548133 0.502519 0.911818
Si Si5 0.166840 0.154007 0.589437
Si Si6 0.237323 0.034377 0.087547
Si Si7 0.671581 0.587472 0.829948
O O1 0.407988 0.664389 0.891116
O O2 0.956132 0.881067 0.673825
O O3 0.126761 0.803256 0.638631
O O4 0.500000 0.000000 0.000000
O O5 0.500000 0.500000 0.500000
O O6 0.311401 0.277989 0.419772
O O7 0.385258 0.539621 0.582574
O O8 0.902832 0.491628 0.167542
O O9 0.500000 0.000000 0.500000
O O10 0.906541 0.048184 0.092699
O O11 0.335946 0.329585 0.756426
O O12 0.590327 0.538926 0.855609
O O13 0.451396 0.059534 0.713328
O O14 0.000000 0.000000 0.500000
O O15 0.272068 0.221859 0.119470
O O16 0.000000 0.000000 0.000000
O O17 0.000000 0.500000 0.000000
#
# Coordination Sequence:
#
# PCOD9070133 Si02
#       7
#     2   2   2   2   2   2   2
#     4  12  29  49  78 113 152 206 254 323 396 465
#     4  12  26  46  80 116 153 202 258 319 389 460
#     4  12  26  49  75 109 152 195 257 317 384 464
#     4  12  27  52  77 113 162 204 266 319 394 470
#     4  12  26  50  75 108 153 205 255 319 392 461
#     4  12  25  47  76 111 150 197 259 320 384 461
#     4  12  24  45  77 114 157 207 255 322 393 463
#
# _framework density 22.710318999999998
#
# number of rings (size 3 to 8) (size 9 to 14) (size 15 to 20)
#    0.000    0.000    2.857    7.286    4.000    1.714 
#    2.571    0.000    0.000    0.000    0.000    0.000 
#    0.000    0.000    0.000    0.000    0.000    0.000 
#
# Total GULP energy -78181.671738 kJ/mol
# GULP energy per Si atom -5584.405124 kJ/mol
# Density = 2.265863 g / cm^3
# Si number density = 22.710319 Si / 1000 Ang^3
#
#
#
# Elastic Constant Matrix: (Units=GPa)
#
#
# Indices 1 2 3 4 5 6 
#
# 1 99.3880 30.0686 38.3261 4.0114 8.9870 7.2575
# 2 30.0686 238.4547 104.7882 -1.1993 8.2767 0.5830
# 3 38.3261 104.7882 178.6316 -16.2141 -12.6341 0.7819
# 4 4.0114 -1.1993 -16.2141 59.3952 -3.0465 11.7423
# 5 8.9870 8.2767 -12.6341 -3.0465 54.2453 -2.9342
# 6 7.2575 0.5830 0.7819 11.7423 -2.9342 33.0111
#
#
#
# Elastic Compliance Matrix: (Units=1/GPa)
#
#
# Indices 1 2 3 4 5 6 
#
# 1 0.011610 -0.000200 -0.002664 -0.001199 -0.002705 -0.002300
# 2 -0.000200 0.005860 -0.003608 -0.000987 -0.001745 0.000222
# 3 -0.002664 -0.003608 0.008757 0.002708 0.003171 -0.000239
# 4 -0.001199 -0.000987 0.002708 0.018986 0.001701 -0.006385
# 5 -0.002705 -0.001745 0.003171 0.001701 0.020077 0.001730
# 6 -0.002300 0.000222 -0.000239 -0.006385 0.001730 0.033225
#
#
# Mechanical properties :
#
#
# Convention : Reuss Voigt Hill
#
# Bulk Modulus (GPa) = 75.28422 95.87111 85.57766
# Shear Modulus (GPa) = 43.14525 52.21643 47.68084
#
# Velocity S-wave (km/s) = 4.36341 4.80024 4.58703
# Velocity P-wave (km/s) = 7.65555 8.54573 8.11286
#
# Compressibility (1/GPa) = 0.01328300
#
# Stress axis : x y z
#
# Youngs Moduli (GPa) = 86.13063 170.65947 114.18816
#
# Poissons Ratio (x) = 0.03411 0.30419
# Poissons Ratio (y) = 0.01722 0.41203
# Poissons Ratio (z) = 0.22944 0.61580
#
# Static dielectric constant tensor:
#      x y z
#    x 1.824030 -0.012240 -0.009840 
#    y -0.012240 1.864290 -0.011920 
#    z -0.009840 -0.011920 2.173320 
# 
# From -- ./inp_files/566832.got.cif
#   From: 2010.05.17/outbox.cif.g08.bks.cpg/sg2_284_cif.got.tgz:566832.got - 2010.06.03 11:33:40.
