data_PCOD9070728
_publ_section_title
;
Structure prediction by ZEFSAII (Michael W. Deem and Ramdas Pophale) SiO2 
 PCOD9070728
Probable space group: P -1
;
_chemical_formula_sum "Si O2"
_cell_formula_units_Z 16
_cell_length_a 14.435814
_cell_length_b 14.350913
_cell_length_c 6.218484
_cell_angle_alpha 104.838896
_cell_angle_beta 61.431504
_cell_angle_gamma 141.142884
_cell_volume 693.838789
_symmetry_space_group_name_H-M "P -1"
_symmetry_group_IT_number 2
_symmetry_cell_setting 'triclinic'
loop_
_space_group_symop_operation_xyz
x,y,z
-x,-y,-z
loop_
_atom_site_type_symbol
_atom_site_label
_atom_site_fract_x
_atom_site_fract_y
_atom_site_fract_z
Si Si1 0.196814 0.451624 0.003092
Si Si2 0.961757 0.935507 0.751440
Si Si3 0.645094 0.635086 0.076953
Si Si4 0.731236 0.362409 0.601212
Si Si5 0.846256 0.253588 0.245522
Si Si6 0.774825 0.040453 0.531609
Si Si7 0.507536 0.304086 0.486047
Si Si8 0.428077 0.022658 0.919592
O O1 0.167359 0.504881 0.261600
O O2 0.021160 0.336836 0.005812
O O3 0.246095 0.378043 0.969082
O O4 0.367153 0.609466 0.800710
O O5 0.764691 0.786965 0.893519
O O6 0.000000 0.000000 0.500000
O O7 0.060127 0.904987 0.622306
O O8 0.000000 0.000000 0.000000
O O9 0.577079 0.652336 0.357631
O O10 0.500000 0.500000 0.000000
O O11 0.844215 0.366833 0.348957
O O12 0.632985 0.372123 0.580067
O O13 0.582907 0.191424 0.758355
O O14 0.683257 0.114101 0.205219
O O15 0.812362 0.167544 0.448551
O O16 0.631736 0.876944 0.474520
O O17 0.702209 0.001956 0.826250
O O18 0.500000 0.000000 0.000000
#
# Coordination Sequence:
#
# PCOD9070728 Si02
#       8
#     2   2   2   2   2   2   2   2
#     4  12  28  48  71 106 151 197 247 311 390 460
#     4  12  30  50  81 116 156 207 266 327 393 460
#     4  12  27  49  74 112 149 200 255 317 388 472
#     4  12  25  46  72 106 147 193 252 306 383 468
#     4  12  27  46  74 110 149 188 258 317 380 457
#     4  12  25  46  77 108 147 197 251 322 381 461
#     4  12  26  46  77 103 149 198 249 313 391 460
#     4  12  25  45  76 106 143 197 253 312 383 461
#
# _framework density 23.060110999999999
#
# number of rings (size 3 to 8) (size 9 to 14) (size 15 to 20)
#    0.000    0.000    7.500    1.875    5.250    3.500 
#    0.000    0.000    0.000    0.000    0.000    0.000 
#    0.000    0.000    0.000    0.000    0.000    0.000 
#
# Total GULP energy -89349.318766 kJ/mol
# GULP energy per Si atom -5584.332423 kJ/mol
# Density = 2.300763 g / cm^3
# Si number density = 23.060111 Si / 1000 Ang^3
#
#
#
# Elastic Constant Matrix: (Units=GPa)
#
#
# Indices 1 2 3 4 5 6 
#
# 1 98.4415 15.7844 23.0283 0.9423 -15.8993 -0.3076
# 2 15.7844 86.8170 17.4646 -1.5876 -4.2403 13.3555
# 3 23.0283 17.4646 73.9399 3.7111 -20.4396 2.7343
# 4 0.9423 -1.5876 3.7111 35.8405 1.7681 -9.5167
# 5 -15.8993 -4.2403 -20.4396 1.7681 41.0987 3.4798
# 6 -0.3076 13.3555 2.7343 -9.5167 3.4798 24.7009
#
#
#
# Elastic Compliance Matrix: (Units=1/GPa)
#
#
# Indices 1 2 3 4 5 6 
#
# 1 0.011461 -0.001582 -0.002390 -0.000056 0.003015 0.000816
# 2 -0.001582 0.013409 -0.002245 -0.001143 0.000340 -0.007509
# 3 -0.002390 -0.002245 0.017211 -0.002991 0.007783 -0.002970
# 4 -0.000056 -0.001143 -0.002991 0.032056 -0.004182 0.013888
# 5 0.003015 0.000340 0.007783 -0.004182 0.030166 -0.006869
# 6 0.000816 -0.007509 -0.002970 0.013888 -0.006869 0.051202
#
#
# Mechanical properties :
#
#
# Convention : Reuss Voigt Hill
#
# Bulk Modulus (GPa) = 33.73167 41.30588 37.51878
# Shear Modulus (GPa) = 28.11823 33.85609 30.98716
#
# Velocity S-wave (km/s) = 3.49570 3.83582 3.66970
# Velocity P-wave (km/s) = 5.56351 6.12937 5.85329
#
# Compressibility (1/GPa) = 0.02964573
#
# Stress axis : x y z
#
# Youngs Moduli (GPa) = 87.25131 74.57825 58.10355
#
# Poissons Ratio (x) = 0.11801 0.13884
# Poissons Ratio (y) = 0.13807 0.13047
# Poissons Ratio (z) = 0.20849 0.16746
#
# Static dielectric constant tensor:
#      x y z
#    x 1.858910 0.012890 0.027230 
#    y 0.012890 1.896280 -0.000100 
#    z 0.027230 -0.000100 1.918940 
# 
# From -- ./inp_files/98391.got.cif
#   From: 2010.05.17/outbox.cif.g08.bks.cpg/sg2_50_cif.got.tgz:98391.got - 2010.06.03 11:33:40.
