data_PCOD9070863
_publ_section_title
;
Structure prediction by ZEFSAII (Michael W. Deem and Ramdas Pophale) SiO2 
 PCOD9070863
Probable space group: P -1
;
_chemical_formula_sum "Si O2"
_cell_formula_units_Z 14
_cell_length_a 11.380838
_cell_length_b 9.188063
_cell_length_c 9.568804
_cell_angle_alpha 45.240860
_cell_angle_beta 103.810134
_cell_angle_gamma 102.313986
_cell_volume 688.469448
_symmetry_space_group_name_H-M "P -1"
_symmetry_group_IT_number 2
_symmetry_cell_setting 'triclinic'
loop_
_space_group_symop_operation_xyz
x,y,z
-x,-y,-z
loop_
_atom_site_type_symbol
_atom_site_label
_atom_site_fract_x
_atom_site_fract_y
_atom_site_fract_z
Si Si1 0.820851 0.933153 0.860463
Si Si2 0.534333 0.451299 0.881767
Si Si3 0.712781 0.087441 0.198777
Si Si4 0.884952 0.410298 0.616128
Si Si5 0.957192 0.317850 0.007643
Si Si6 0.701393 0.715899 0.239951
Si Si7 0.371976 0.101006 0.414737
O O1 0.705412 0.911646 0.740143
O O2 0.931389 0.819684 0.902422
O O3 0.856868 0.171936 0.732258
O O4 0.785947 0.824281 0.070470
O O5 0.416370 0.384752 0.803110
O O6 0.599525 0.661002 0.700937
O O7 0.500000 0.500000 0.000000
O O8 0.623197 0.268204 0.029576
O O9 0.846787 0.176297 0.136457
O O10 0.673939 0.894580 0.219734
O O11 0.701740 0.015600 0.404082
O O12 0.773384 0.543142 0.454044
O O13 0.000000 0.500000 0.500000
O O14 0.913665 0.415493 0.784783
O O15 0.000000 0.500000 0.000000
O O16 0.500000 0.000000 0.500000
#
# Coordination Sequence:
#
# PCOD9070863 Si02
#       7
#     2   2   2   2   2   2   2
#     4  12  25  48  74 103 148 190 232 291 360 425
#     4  12  25  47  75 102 143 186 239 295 352 422
#     4  12  28  47  70 107 148 184 239 297 357 420
#     4  12  26  46  74 103 141 192 239 283 357 427
#     4  12  28  47  72 107 148 185 238 299 354 423
#     4  12  26  47  75 105 144 187 236 296 356 421
#     4  12  26  45  75 107 139 189 241 291 357 420
#
# _framework density 20.334962000000001
#
# number of rings (size 3 to 8) (size 9 to 14) (size 15 to 20)
#    0.000    0.000    5.714    3.429    6.000    1.143 
#    0.000    0.000    0.000    0.000    0.000    0.000 
#    0.000    0.000    0.000    0.000    0.000    0.000 
#
# Total GULP energy -78445.346350 kJ/mol
# GULP energy per Si atom -5603.239025 kJ/mol
# Density = 2.028868 g / cm^3
# Si number density = 20.334962 Si / 1000 Ang^3
#
#
#
# Elastic Constant Matrix: (Units=GPa)
#
#
# Indices 1 2 3 4 5 6 
#
# 1 69.1876 29.9712 43.1429 7.1875 19.0473 -5.2037
# 2 29.9712 151.9479 55.5791 -10.7138 22.2166 3.7831
# 3 43.1429 55.5791 142.8305 -7.9270 9.9660 -5.1671
# 4 7.1875 -10.7138 -7.9270 37.1417 -5.6919 -2.5424
# 5 19.0473 22.2166 9.9660 -5.6919 51.7763 -7.5764
# 6 -5.2037 3.7831 -5.1671 -2.5424 -7.5764 40.0407
#
#
#
# Elastic Compliance Matrix: (Units=1/GPa)
#
#
# Indices 1 2 3 4 5 6 
#
# 1 0.021301 -0.001629 -0.005691 -0.006803 -0.006719 0.000485
# 2 -0.001629 0.008374 -0.002556 0.001674 -0.002568 -0.001712
# 3 -0.005691 -0.002556 0.009792 0.002818 0.001804 0.001286
# 4 -0.006803 0.001674 0.002818 0.030221 0.004881 0.002164
# 5 -0.006719 -0.002568 0.001804 0.004881 0.023721 0.004401
# 6 0.000485 -0.001712 0.001286 0.002164 0.004401 0.026335
#
#
# Mechanical properties :
#
#
# Convention : Reuss Voigt Hill
#
# Bulk Modulus (GPa) = 50.72691 69.03913 59.88302
# Shear Modulus (GPa) = 34.23050 41.47658 37.85354
#
# Velocity S-wave (km/s) = 4.10729 4.52117 4.31919
# Velocity P-wave (km/s) = 6.89151 7.82811 7.37469
#
# Compressibility (1/GPa) = 0.01971340
#
# Stress axis : x y z
#
# Youngs Moduli (GPa) = 46.94631 119.42091 102.12236
#
# Poissons Ratio (x) = 0.19456 0.58122
# Poissons Ratio (y) = 0.07648 0.26104
# Poissons Ratio (z) = 0.26719 0.30526
#
# Static dielectric constant tensor:
#      x y z
#    x 1.700190 -0.002740 -0.012620 
#    y -0.002740 1.690380 0.010630 
#    z -0.012620 0.010630 1.704390 
# 
# From -- ./inp_files/61205.got.cif
#   From: 2010.05.17/outbox.cif.g08.bks.cpg/sg2_31_cif.got.tgz:61205.got - 2010.06.03 11:33:40.
