data_PCOD9070740
_publ_section_title
;
Structure prediction by ZEFSAII (Michael W. Deem and Ramdas Pophale) SiO2 
 PCOD9070740
Probable space group: P -1
;
_chemical_formula_sum "Si O2"
_cell_formula_units_Z 14
_cell_length_a 14.054422
_cell_length_b 22.583312
_cell_length_c 28.316005
_cell_angle_alpha 11.411644
_cell_angle_beta 21.267604
_cell_angle_gamma 21.518358
_cell_volume 627.021845
_symmetry_space_group_name_H-M "P -1"
_symmetry_group_IT_number 2
_symmetry_cell_setting 'triclinic'
loop_
_space_group_symop_operation_xyz
x,y,z
-x,-y,-z
loop_
_atom_site_type_symbol
_atom_site_label
_atom_site_fract_x
_atom_site_fract_y
_atom_site_fract_z
Si Si1 0.235897 0.823613 0.993544
Si Si2 0.232138 0.628043 0.902087
Si Si3 0.835979 0.411774 0.188409
Si Si4 0.987305 0.692577 0.668342
Si Si5 0.263163 0.449611 0.450065
Si Si6 0.577129 0.322299 0.705460
Si Si7 0.964440 0.692438 0.566263
O O1 0.328205 0.091609 0.713478
O O2 0.505008 0.595632 0.067911
O O3 0.124343 0.600905 0.184268
O O4 0.000000 0.000000 0.000000
O O5 0.220710 0.983357 0.620140
O O6 0.964907 0.559115 0.056340
O O7 0.194695 0.520157 0.057301
O O8 0.514404 0.531609 0.242700
O O9 0.895065 0.044679 0.452134
O O10 0.000000 0.500000 0.000000
O O11 0.299590 0.575616 0.630171
O O12 0.967660 0.687548 0.624827
O O13 0.250099 0.617922 0.375498
O O14 0.000000 0.500000 0.500000
O O15 0.748258 0.317882 0.582439
O O16 0.500000 0.000000 0.000000
#
# Coordination Sequence:
#
# PCOD9070740 Si02
#       7
#     2   2   2   2   2   2   2
#     4  12  28  49  74 107 157 206 251 321 395 458
#     4  12  25  51  77 107 157 197 261 321 380 460
#     4  12  25  47  79 110 146 205 258 317 387 457
#     4  12  25  45  77 110 150 195 259 313 379 458
#     4  12  28  48  77 114 153 205 264 318 390 468
#     4  12  25  48  75 110 154 199 255 324 380 452
#     4  12  27  46  76 116 149 209 251 317 392 461
#
# _framework density 22.327770000000001
#
# number of rings (size 3 to 8) (size 9 to 14) (size 15 to 20)
#    0.000    0.000    7.143    2.143    4.000    0.571 
#    2.571    0.000    0.000    0.000    0.000    0.000 
#    0.000    0.000    0.000    0.000    0.000    0.000 
#
# Total GULP energy -78323.008303 kJ/mol
# GULP energy per Si atom -5594.500593 kJ/mol
# Density = 2.227695 g / cm^3
# Si number density = 22.327770 Si / 1000 Ang^3
#
#
#
# Elastic Constant Matrix: (Units=GPa)
#
#
# Indices 1 2 3 4 5 6 
#
# 1 107.0278 31.9893 42.9336 5.4895 -6.6791 14.5143
# 2 31.9893 130.4467 6.2849 12.0176 4.5543 -1.3512
# 3 42.9336 6.2849 85.1779 3.6114 -13.1209 24.1012
# 4 5.4895 12.0176 3.6114 43.8478 9.5541 1.5955
# 5 -6.6791 4.5543 -13.1209 9.5541 44.3064 10.8310
# 6 14.5143 -1.3512 24.1012 1.5955 10.8310 33.6161
#
#
#
# Elastic Compliance Matrix: (Units=1/GPa)
#
#
# Indices 1 2 3 4 5 6 
#
# 1 0.012770 -0.002886 -0.005399 -0.000561 0.001267 -0.002140
# 2 -0.002886 0.008603 0.000093 -0.001771 -0.001415 0.002065
# 3 -0.005399 0.000093 0.020298 -0.002526 0.009433 -0.015137
# 4 -0.000561 -0.001771 -0.002526 0.024933 -0.006754 0.002975
# 5 0.001267 -0.001415 0.009433 -0.006754 0.031348 -0.017146
# 6 -0.002140 0.002065 -0.015137 0.002975 -0.017146 0.046991
#
#
# Mechanical properties :
#
#
# Convention : Reuss Voigt Hill
#
# Bulk Modulus (GPa) = 39.54787 53.89646 46.72216
# Shear Modulus (GPa) = 29.45390 40.45036 34.95213
#
# Velocity S-wave (km/s) = 3.63596 4.26098 3.96082
# Velocity P-wave (km/s) = 5.94793 6.95694 6.47213
#
# Compressibility (1/GPa) = 0.02528581
#
# Stress axis : x y z
#
# Youngs Moduli (GPa) = 78.30896 116.23547 49.26635
#
# Poissons Ratio (x) = 0.33547 0.26599
# Poissons Ratio (y) = 0.22601 -0.00456
# Poissons Ratio (z) = 0.42280 -0.01077
#
# Static dielectric constant tensor:
#      x y z
#    x 2.022300 0.000350 0.027610 
#    y 0.000350 1.873930 0.024540 
#    z 0.027610 0.024540 1.797480 
# 
# From -- ./inp_files/623700.got.cif
#   From: 2010.05.17/outbox.cif.g08.bks.cpg/sg2_312_cif.got.tgz:623700.got - 2010.06.03 11:33:40.
