data_PCOD9070344
_publ_section_title
;
Structure prediction by ZEFSAII (Michael W. Deem and Ramdas Pophale) SiO2 
 PCOD9070344
Probable space group: P -1
;
_chemical_formula_sum "Si O2"
_cell_formula_units_Z 14
_cell_length_a 8.887551
_cell_length_b 11.770768
_cell_length_c 5.559510
_cell_angle_alpha 89.948088
_cell_angle_beta 78.776380
_cell_angle_gamma 98.555167
_cell_volume 563.860595
_symmetry_space_group_name_H-M "P -1"
_symmetry_group_IT_number 2
_symmetry_cell_setting 'triclinic'
loop_
_space_group_symop_operation_xyz
x,y,z
-x,-y,-z
loop_
_atom_site_type_symbol
_atom_site_label
_atom_site_fract_x
_atom_site_fract_y
_atom_site_fract_z
Si Si1 0.732935 0.527802 0.622350
Si Si2 0.025556 0.318750 0.193986
Si Si3 0.670236 0.977555 0.881379
Si Si4 0.441061 0.254215 0.368999
Si Si5 0.943622 0.121114 0.564506
Si Si6 0.774057 0.807742 0.176754
Si Si7 0.731735 0.393759 0.115048
O O1 0.624596 0.627029 0.658438
O O2 0.721390 0.469971 0.362090
O O3 0.906665 0.592114 0.622709
O O4 0.694459 0.445747 0.868451
O O5 0.939623 0.201570 0.336808
O O6 0.907665 0.368792 0.057372
O O7 0.177198 0.284807 0.020191
O O8 0.645721 0.863428 0.721135
O O9 0.775357 0.086951 0.733508
O O10 0.766864 0.932727 0.069408
O O11 0.500000 0.000000 0.000000
O O12 0.395794 0.232913 0.661650
O O13 0.613901 0.278785 0.216515
O O14 0.083236 0.183946 0.683718
O O15 0.000000 0.000000 0.500000
#
# Coordination Sequence:
#
# PCOD9070344 Si02
#       7
#     2   2   2   2   2   2   2
#     4  12  25  53  76 115 150 207 255 317 386 452
#     4  12  27  46  77 110 150 196 257 319 373 461
#     4  12  29  46  76 111 151 196 253 316 383 461
#     4  12  27  49  73 112 152 199 251 319 382 460
#     4  12  24  48  72 110 143 204 253 304 390 457
#     4  12  24  47  75  99 158 196 250 304 389 444
#     4  12  31  45  82 114 155 200 262 318 382 446
#
# _framework density 24.828832999999999
#
# number of rings (size 3 to 8) (size 9 to 14) (size 15 to 20)
#    0.000    0.000    5.714    3.000    8.000    0.571 
#    0.000    0.000    0.000    0.000    0.000    0.000 
#    0.000    0.000    0.000    0.000    0.000    0.000 
#
# Total GULP energy -78325.030049 kJ/mol
# GULP energy per Si atom -5594.645003 kJ/mol
# Density = 2.477232 g / cm^3
# Si number density = 24.828833 Si / 1000 Ang^3
#
#
#
# Elastic Constant Matrix: (Units=GPa)
#
#
# Indices 1 2 3 4 5 6 
#
# 1 55.2120 5.0066 5.1957 -0.7300 -23.6656 -6.8186
# 2 5.0066 63.7232 39.5353 -8.6260 -5.7865 15.4481
# 3 5.1957 39.5353 105.8320 -14.4589 -15.7482 -6.0896
# 4 -0.7300 -8.6260 -14.4589 38.3298 7.7901 -17.0317
# 5 -23.6656 -5.7865 -15.7482 7.7901 39.5069 -5.2409
# 6 -6.8186 15.4481 -6.0896 -17.0317 -5.2409 33.9566
#
#
#
# Elastic Compliance Matrix: (Units=1/GPa)
#
#
# Indices 1 2 3 4 5 6 
#
# 1 0.028369 -0.006846 0.005367 0.003552 0.019359 0.014543
# 2 -0.006846 0.027995 -0.013248 -0.006753 -0.006724 -0.020912
# 3 0.005367 -0.013248 0.017611 0.009217 0.008629 0.016218
# 4 0.003552 -0.006753 0.009217 0.039214 0.000419 0.025172
# 5 0.019359 -0.006724 0.008629 0.000419 0.041281 0.015076
# 6 0.014543 -0.020912 0.016218 0.025172 0.015076 0.059744
#
#
# Mechanical properties :
#
#
# Convention : Reuss Voigt Hill
#
# Bulk Modulus (GPa) = 22.46113 36.02694 29.24404
# Shear Modulus (GPa) = 19.34185 34.02729 26.68457
#
# Velocity S-wave (km/s) = 2.79410 3.70601 3.28188
# Velocity P-wave (km/s) = 4.41309 5.73187 5.11516
#
# Compressibility (1/GPa) = 0.04452135
#
# Stress axis : x y z
#
# Youngs Moduli (GPa) = 35.25012 35.72055 56.78277
#
# Poissons Ratio (x) = 0.24453 -0.30478
# Poissons Ratio (y) = 0.24131 0.75228
# Poissons Ratio (z) = -0.18920 0.47324
#
# Static dielectric constant tensor:
#      x y z
#    x 1.938290 0.042570 0.000950 
#    y 0.042570 1.944010 0.029710 
#    z 0.000950 0.029710 2.093530 
# 
# From -- ./inp_files/27598.got.cif
#   From: 2010.05.17/outbox.cif.g08.bks.cpg/sg2_14_cif.got.tgz:27598.got - 2010.06.03 11:33:40.
