data_PCOD9070656
_publ_section_title
;
Structure prediction by ZEFSAII (Michael W. Deem and Ramdas Pophale) SiO2 
 PCOD9070656
Probable space group: P -1
;
_chemical_formula_sum "Si O2"
_cell_formula_units_Z 12
_cell_length_a 11.722032
_cell_length_b 4.828310
_cell_length_c 10.303101
_cell_angle_alpha 76.229853
_cell_angle_beta 67.497881
_cell_angle_gamma 67.394452
_cell_volume 494.511237
_symmetry_space_group_name_H-M "P -1"
_symmetry_group_IT_number 2
_symmetry_cell_setting 'triclinic'
loop_
_space_group_symop_operation_xyz
x,y,z
-x,-y,-z
loop_
_atom_site_type_symbol
_atom_site_label
_atom_site_fract_x
_atom_site_fract_y
_atom_site_fract_z
Si Si1 0.104818 0.722727 0.557200
Si Si2 0.945467 0.845391 0.247698
Si Si3 0.352733 0.395092 0.308604
Si Si4 0.496088 0.287660 0.645568
Si Si5 0.750726 0.806003 0.119283
Si Si6 0.234232 0.640763 0.067771
O O1 0.231191 0.582804 0.429752
O O2 0.403903 0.050502 0.371413
O O3 0.131398 0.866855 0.664571
O O4 0.000000 0.000000 0.500000
O O5 0.870179 0.828659 0.150840
O O6 0.953277 0.542162 0.355686
O O7 0.091624 0.840934 0.159860
O O8 0.462081 0.551836 0.268335
O O9 0.308039 0.427892 0.175844
O O10 0.500000 0.500000 0.500000
O O11 0.356063 0.252457 0.733674
O O12 0.787419 0.550803 0.022575
O O13 0.694900 0.125876 0.034955
#
# Coordination Sequence:
#
# PCOD9070656 Si02
#       6
#     2   2   2   2   2   2
#     4  12  25  44  74 111 149 187 245 307 371 429
#     4  12  25  46  74 109 152 194 247 305 364 437
#     4  12  27  46  78 111 147 194 247 308 367 438
#     4  12  28  51  75 107 149 194 251 306 368 441
#     4  12  27  48  72 106 150 202 244 299 367 442
#     4  12  26  46  75 109 151 192 250 300 371 439
#
# _framework density 24.266383999999999
#
# number of rings (size 3 to 8) (size 9 to 14) (size 15 to 20)
#    0.000    0.000    1.667    8.000    2.333    6.667 
#    0.000    0.000    0.000    0.000    0.000    0.000 
#    0.000    0.000    0.000    0.000    0.000    0.000 
#
# Total GULP energy -67363.846317 kJ/mol
# GULP energy per Si atom -5613.653860 kJ/mol
# Density = 2.421115 g / cm^3
# Si number density = 24.266384 Si / 1000 Ang^3
#
#
#
# Elastic Constant Matrix: (Units=GPa)
#
#
# Indices 1 2 3 4 5 6 
#
# 1 74.5101 19.9499 11.7785 -4.0929 11.0041 -0.5647
# 2 19.9499 167.4794 46.1112 -2.4153 -1.4640 -3.4922
# 3 11.7785 46.1112 63.3819 2.1131 10.1869 -1.8089
# 4 -4.0929 -2.4153 2.1131 39.7056 10.3394 2.4835
# 5 11.0041 -1.4640 10.1869 10.3394 40.5487 0.8663
# 6 -0.5647 -3.4922 -1.8089 2.4835 0.8663 46.5936
#
#
#
# Elastic Compliance Matrix: (Units=1/GPa)
#
#
# Indices 1 2 3 4 5 6 
#
# 1 0.014789 -0.001476 -0.001044 0.002659 -0.004482 -0.000030
# 2 -0.001476 0.007737 -0.005683 0.000059 0.002086 0.000299
# 3 -0.001044 -0.005683 0.020953 -0.000263 -0.005129 0.000484
# 4 0.002659 0.000059 -0.000263 0.027551 -0.007651 -0.001300
# 5 -0.004482 0.002086 -0.005129 -0.007651 0.029198 -0.000232
# 6 -0.000030 0.000299 0.000484 -0.001300 -0.000232 0.021577
#
#
# Mechanical properties :
#
#
# Convention : Reuss Voigt Hill
#
# Bulk Modulus (GPa) = 36.93694 51.22786 44.08240
# Shear Modulus (GPa) = 33.95985 40.53836 37.24910
#
# Velocity S-wave (km/s) = 3.74499 4.09168 3.92217
# Velocity P-wave (km/s) = 5.82705 6.59385 6.22227
#
# Compressibility (1/GPa) = 0.02707317
#
# Stress axis : x y z
#
# Youngs Moduli (GPa) = 67.61837 129.25473 47.72645
#
# Poissons Ratio (x) = 0.19074 0.04982
# Poissons Ratio (y) = 0.09978 0.27123
# Poissons Ratio (z) = 0.07059 0.73455
#
# Static dielectric constant tensor:
#      x y z
#    x 1.943310 -0.023310 0.021370 
#    y -0.023310 1.893740 -0.009830 
#    z 0.021370 -0.009830 1.928890 
# 
# From -- ./inp_files/408439.got.cif
#   From: 2010.05.17/outbox.cif.g08.bks.cpg/sg2_205_cif.got.tgz:408439.got - 2010.06.03 11:33:40.
