data_PCOD9070521
_publ_section_title
;
Structure prediction by ZEFSAII (Michael W. Deem and Ramdas Pophale) SiO2 
 PCOD9070521
Probable space group: P -1
;
_chemical_formula_sum "Si O2"
_cell_formula_units_Z 14
_cell_length_a 11.629327
_cell_length_b 9.307350
_cell_length_c 18.758724
_cell_angle_alpha 145.223853
_cell_angle_beta 148.600027
_cell_angle_gamma 45.896857
_cell_volume 603.284576
_symmetry_space_group_name_H-M "P -1"
_symmetry_group_IT_number 2
_symmetry_cell_setting 'triclinic'
loop_
_space_group_symop_operation_xyz
x,y,z
-x,-y,-z
loop_
_atom_site_type_symbol
_atom_site_label
_atom_site_fract_x
_atom_site_fract_y
_atom_site_fract_z
Si Si1 0.513380 0.276801 0.590208
Si Si2 0.156410 0.532641 0.883157
Si Si3 0.150632 0.668306 0.098688
Si Si4 0.816601 0.115868 0.082976
Si Si5 0.655618 0.999837 0.252087
Si Si6 0.942021 0.454932 0.533995
Si Si7 0.680700 0.296483 0.529114
O O1 0.622506 0.390699 0.765058
O O2 0.283697 0.406044 0.507448
O O3 0.652278 0.252569 0.580827
O O4 0.500000 0.000000 0.500000
O O5 0.185849 0.791646 0.962195
O O6 0.310600 0.298694 0.853056
O O7 0.916364 0.422626 0.692156
O O8 0.167678 0.585935 0.993782
O O9 0.021334 0.935778 0.136881
O O10 0.000000 0.500000 0.000000
O O11 0.863347 0.384263 0.257386
O O12 0.578064 0.969675 0.901692
O O13 0.862671 0.165558 0.394489
O O14 0.645904 0.083218 0.363870
O O15 0.000000 0.500000 0.500000
O O16 0.500000 0.500000 0.500000
#
# Coordination Sequence:
#
# PCOD9070521 Si02
#       7
#     2   2   2   2   2   2   2
#     4  12  26  46  74 112 148 199 251 313 378 442
#     4  12  27  48  77 112 154 200 256 316 378 454
#     4  12  26  47  75 110 150 198 256 311 375 452
#     4  12  27  51  75 113 149 206 258 306 384 451
#     4  12  28  49  80 111 154 203 255 318 377 449
#     4  12  29  49  76 113 157 197 252 317 389 453
#     4  12  24  49  77 107 153 200 256 306 373 453
#
# _framework density 23.206295999999998
#
# number of rings (size 3 to 8) (size 9 to 14) (size 15 to 20)
#    0.000    0.000    5.714    3.000    8.000    0.571 
#    0.000    0.000    0.000    0.000    0.000    0.000 
#    0.000    0.000    0.000    0.000    0.000    0.000 
#
# Total GULP energy -78093.631861 kJ/mol
# GULP energy per Si atom -5578.116561 kJ/mol
# Density = 2.315348 g / cm^3
# Si number density = 23.206296 Si / 1000 Ang^3
#
#
#
# Elastic Constant Matrix: (Units=GPa)
#
#
# Indices 1 2 3 4 5 6 
#
# 1 95.5839 18.2202 23.3069 7.7502 -15.7440 23.0363
# 2 18.2202 95.7694 -6.1452 8.3308 4.7787 23.0972
# 3 23.3069 -6.1452 128.7752 -12.8938 -7.0368 14.4967
# 4 7.7502 8.3308 -12.8938 37.7661 2.3388 4.4662
# 5 -15.7440 4.7787 -7.0368 2.3388 29.2627 -13.2579
# 6 23.0363 23.0972 14.4967 4.4662 -13.2579 35.9074
#
#
#
# Elastic Compliance Matrix: (Units=1/GPa)
#
#
# Indices 1 2 3 4 5 6 
#
# 1 0.013431 -0.001609 -0.002006 -0.002877 0.005201 -0.004493
# 2 -0.001609 0.014111 0.001816 -0.000283 -0.008012 -0.011700
# 3 -0.002006 0.001816 0.009016 0.003727 -0.001574 -0.004566
# 4 -0.002877 -0.000283 0.003727 0.029327 -0.005242 -0.005061
# 5 0.005201 -0.008012 -0.001574 -0.005242 0.047707 0.020719
# 6 -0.004493 -0.011700 -0.004566 -0.005061 0.020719 0.048381
#
#
# Mechanical properties :
#
#
# Convention : Reuss Voigt Hill
#
# Bulk Modulus (GPa) = 30.34101 43.43247 36.88674
# Shear Modulus (GPa) = 28.31933 39.57034 33.94484
#
# Velocity S-wave (km/s) = 3.49711 4.13383 3.82873
# Velocity P-wave (km/s) = 5.42303 6.44525 5.95611
#
# Compressibility (1/GPa) = 0.03295869
#
# Stress axis : x y z
#
# Youngs Moduli (GPa) = 74.45660 70.86889 110.91070
#
# Poissons Ratio (x) = 0.11406 0.22244
# Poissons Ratio (y) = 0.11983 -0.20138
# Poissons Ratio (z) = 0.14933 -0.12867
#
# Static dielectric constant tensor:
#      x y z
#    x 1.974710 -0.671990 0.371440 
#    y -0.671990 4.307480 -1.210980 
#    z 0.371440 -1.210980 2.494870 
# 
# From -- ./inp_files/183294.got.cif
#   From: 2010.05.17/outbox.cif.g08.bks.cpg/sg2_92_cif.got.tgz:183294.got - 2010.06.03 11:33:40.
