data_PCOD9070690
_publ_section_title
;
Structure prediction by ZEFSAII (Michael W. Deem and Ramdas Pophale) SiO2 
 PCOD9070690
Probable space group: P -1
;
_chemical_formula_sum "Si O2"
_cell_formula_units_Z 14
_cell_length_a 4.943048
_cell_length_b 17.847762
_cell_length_c 8.893911
_cell_angle_alpha 116.429549
_cell_angle_beta 60.987606
_cell_angle_gamma 81.247599
_cell_volume 542.376734
_symmetry_space_group_name_H-M "P -1"
_symmetry_group_IT_number 2
_symmetry_cell_setting 'triclinic'
loop_
_space_group_symop_operation_xyz
x,y,z
-x,-y,-z
loop_
_atom_site_type_symbol
_atom_site_label
_atom_site_fract_x
_atom_site_fract_y
_atom_site_fract_z
Si Si1 0.173740 0.084270 0.293819
Si Si2 0.329837 0.767067 0.235826
Si Si3 0.758617 0.129455 0.142621
Si Si4 0.429695 0.695156 0.815033
Si Si5 0.466120 0.067867 0.709033
Si Si6 0.199075 0.589006 0.574468
Si Si7 0.595283 0.566968 0.137648
O O1 0.545665 0.071797 0.124507
O O2 0.033380 0.173738 0.525749
O O3 0.891530 0.116015 0.265622
O O4 0.243950 0.995992 0.301918
O O5 0.538517 0.664744 0.165497
O O6 0.489774 0.840434 0.261444
O O7 0.285400 0.744952 0.056318
O O8 0.502377 0.235532 0.251516
O O9 0.097386 0.098457 0.919050
O O10 0.165399 0.671915 0.770837
O O11 0.806637 0.605267 0.669556
O O12 0.500000 0.000000 0.500000
O O13 0.500000 0.500000 0.500000
O O14 0.365313 0.592400 0.373556
O O15 0.500000 0.500000 0.000000
O O16 0.000000 0.500000 0.000000
#
# Coordination Sequence:
#
# PCOD9070690 Si02
#       7
#     2   2   2   2   2   2   2
#     4  12  27  48  75 109 151 203 258 320 384 459
#     4  12  27  49  76 113 155 202 259 323 391 467
#     4  12  26  48  74 106 151 202 257 315 380 461
#     4  12  25  45  72 105 146 197 250 310 382 457
#     4  12  27  49  77 114 158 209 264 325 393 467
#     4  12  25  46  74 109 147 193 250 316 385 459
#     4  12  27  49  77 112 152 200 254 319 390 466
#
# _framework density 25.812315000000002
#
# number of rings (size 3 to 8) (size 9 to 14) (size 15 to 20)
#    0.000    0.000    0.000   10.286    0.000    6.857 
#    0.000    0.000    0.000    0.000    0.000    0.000 
#    0.000    0.000    0.000    0.000    0.000    0.000 
#
# Total GULP energy -78562.849307 kJ/mol
# GULP energy per Si atom -5611.632093 kJ/mol
# Density = 2.575356 g / cm^3
# Si number density = 25.812315 Si / 1000 Ang^3
#
#
#
# Elastic Constant Matrix: (Units=GPa)
#
#
# Indices 1 2 3 4 5 6 
#
# 1 157.5867 45.4224 57.4024 -13.3767 22.1557 -12.4722
# 2 45.4224 209.0838 40.8833 5.3174 16.0080 -8.1746
# 3 57.4024 40.8833 139.5853 -11.1278 22.6004 -9.9624
# 4 -13.3767 5.3174 -11.1278 49.1521 -7.4768 0.7730
# 5 22.1557 16.0080 22.6004 -7.4768 51.2861 1.6164
# 6 -12.4722 -8.1746 -9.9624 0.7730 1.6164 51.9212
#
#
#
# Elastic Compliance Matrix: (Units=1/GPa)
#
#
# Indices 1 2 3 4 5 6 
#
# 1 0.008058 -0.001108 -0.002476 0.001446 -0.001875 0.001323
# 2 -0.001108 0.005345 -0.001029 -0.001261 -0.000934 0.000426
# 3 -0.002476 -0.001029 0.009045 0.001093 -0.002468 0.001039
# 4 0.001446 -0.001261 0.001093 0.021492 0.002421 -0.000037
# 5 -0.001875 -0.000934 -0.002468 0.002421 0.022097 -0.001795
# 6 0.001323 0.000426 0.001039 -0.000037 -0.001795 0.019901
#
#
# Mechanical properties :
#
#
# Convention : Reuss Voigt Hill
#
# Bulk Modulus (GPa) = 75.63125 88.18577 81.90851
# Shear Modulus (GPa) = 50.21614 54.64172 52.42893
#
# Velocity S-wave (km/s) = 4.41549 4.60595 4.51173
# Velocity P-wave (km/s) = 7.44040 7.90726 7.67738
#
# Compressibility (1/GPa) = 0.01322205
#
# Stress axis : x y z
#
# Youngs Moduli (GPa) = 124.09965 187.09615 110.56330
#
# Poissons Ratio (x) = 0.20729 0.27375
# Poissons Ratio (y) = 0.13749 0.11375
# Poissons Ratio (z) = 0.30726 0.19249
#
# Static dielectric constant tensor:
#      x y z
#    x 2.004280 0.046450 -0.000300 
#    y 0.046450 2.101620 0.062380 
#    z -0.000300 0.062380 2.051200 
# 
# From -- ./inp_files/140685.got.cif
#   From: 2010.05.17/outbox.cif.g08.bks.cpg/sg2_71_cif.got.tgz:140685.got - 2010.06.03 11:33:40.
