data_PCOD9070752
_publ_section_title
;
Structure prediction by ZEFSAII (Michael W. Deem and Ramdas Pophale) SiO2 
 PCOD9070752
Probable space group: P -1
;
_chemical_formula_sum "Si O2"
_cell_formula_units_Z 12
_cell_length_a 16.034312
_cell_length_b 9.411705
_cell_length_c 13.502365
_cell_angle_alpha 46.909954
_cell_angle_beta 154.302940
_cell_angle_gamma 141.674406
_cell_volume 545.770734
_symmetry_space_group_name_H-M "P -1"
_symmetry_group_IT_number 2
_symmetry_cell_setting 'triclinic'
loop_
_space_group_symop_operation_xyz
x,y,z
-x,-y,-z
loop_
_atom_site_type_symbol
_atom_site_label
_atom_site_fract_x
_atom_site_fract_y
_atom_site_fract_z
Si Si1 0.112786 0.752057 0.461442
Si Si2 0.018118 0.041535 0.382056
Si Si3 0.697022 0.115867 0.737422
Si Si4 0.898844 0.732499 0.030644
Si Si5 0.575360 0.470721 0.486483
Si Si6 0.429370 0.232483 0.073906
O O1 0.000000 0.500000 0.500000
O O2 0.978029 0.717298 0.232051
O O3 0.090740 0.904073 0.450279
O O4 0.364460 0.808092 0.686188
O O5 0.199535 0.304400 0.422358
O O6 0.000000 0.000000 0.500000
O O7 0.756317 0.931827 0.125701
O O8 0.627374 0.270482 0.648765
O O9 0.942015 0.293297 0.866381
O O10 0.500000 0.000000 0.500000
O O11 0.691236 0.904133 0.887872
O O12 0.636106 0.594984 0.782552
O O13 0.000000 0.000000 0.000000
O O14 0.500000 0.500000 0.500000
O O15 0.500000 0.500000 0.000000
#
# Coordination Sequence:
#
# PCOD9070752 Si02
#       6
#     2   2   2   2   2   2
#     4  12  27  48  77 108 145 203 255 296 373 456
#     4  12  31  48  73 115 156 196 246 318 390 434
#     4  12  25  45  81 113 141 198 259 298 373 449
#     4  12  25  46  82 109 145 197 259 307 363 451
#     4  12  28  51  76 114 159 191 249 321 379 441
#     4  12  26  49  78 108 153 197 253 309 366 457
#
# _framework density 21.987252999999999
#
# number of rings (size 3 to 8) (size 9 to 14) (size 15 to 20)
#    0.000    0.000    5.000    4.000    7.000    4.667 
#    0.000    0.000    0.000    0.000    0.000    0.000 
#    0.000    0.000    0.000    0.000    0.000    0.000 
#
# Total GULP energy -66947.337971 kJ/mol
# GULP energy per Si atom -5578.944831 kJ/mol
# Density = 2.193721 g / cm^3
# Si number density = 21.987253 Si / 1000 Ang^3
#
#
#
# Elastic Constant Matrix: (Units=GPa)
#
#
# Indices 1 2 3 4 5 6 
#
# 1 130.7470 53.4739 47.7347 -17.9593 -11.6469 0.3741
# 2 53.4739 163.6910 62.3644 -6.9415 -13.7343 23.4446
# 3 47.7347 62.3644 171.0298 3.5007 -23.6006 10.7212
# 4 -17.9593 -6.9415 3.5007 47.5953 6.2553 2.7673
# 5 -11.6469 -13.7343 -23.6006 6.2553 55.3124 -12.7828
# 6 0.3741 23.4446 10.7212 2.7673 -12.7828 45.3328
#
#
#
# Elastic Compliance Matrix: (Units=1/GPa)
#
#
# Indices 1 2 3 4 5 6 
#
# 1 0.009899 -0.002547 -0.001918 0.003323 0.000643 0.001668
# 2 -0.002547 0.008316 -0.002141 0.000685 -0.000368 -0.003919
# 3 -0.001918 -0.002141 0.007542 -0.001935 0.002542 0.000174
# 4 0.003323 0.000685 -0.001935 0.023038 -0.003068 -0.002196
# 5 0.000643 -0.000368 0.002542 -0.003068 0.020861 0.005654
# 6 0.001668 -0.003919 0.000174 -0.002196 0.005654 0.025759
#
#
# Mechanical properties :
#
#
# Convention : Reuss Voigt Hill
#
# Bulk Modulus (GPa) = 79.70429 88.06818 83.88624
# Shear Modulus (GPa) = 44.32245 49.77443 47.04844
#
# Velocity S-wave (km/s) = 4.49466 4.76309 4.63082
# Velocity P-wave (km/s) = 7.95393 8.38990 8.17482
#
# Compressibility (1/GPa) = 0.01254638
#
# Stress axis : x y z
#
# Youngs Moduli (GPa) = 101.01667 120.24671 132.58653
#
# Poissons Ratio (x) = 0.30628 0.25430
# Poissons Ratio (y) = 0.25730 0.28382
# Poissons Ratio (z) = 0.19375 0.25741
#
# Static dielectric constant tensor:
#      x y z
#    x 1.698330 -0.002550 -0.131210 
#    y -0.002550 1.856500 0.014130 
#    z -0.131210 0.014130 1.765030 
# 
# From -- ./inp_files/190748.got.cif
#   From: 2010.05.17/outbox.cif.g08.bks.cpg/sg2_96_cif.got.tgz:190748.got - 2010.06.03 11:33:40.
