data_PCOD9070817
_publ_section_title
;
Structure prediction by ZEFSAII (Michael W. Deem and Ramdas Pophale) SiO2 
 PCOD9070817
Probable space group: P -1
;
_chemical_formula_sum "Si O2"
_cell_formula_units_Z 14
_cell_length_a 12.780209
_cell_length_b 13.211099
_cell_length_c 7.676691
_cell_angle_alpha 135.514979
_cell_angle_beta 129.981707
_cell_angle_gamma 47.815885
_cell_volume 638.772422
_symmetry_space_group_name_H-M "P -1"
_symmetry_group_IT_number 2
_symmetry_cell_setting 'triclinic'
loop_
_space_group_symop_operation_xyz
x,y,z
-x,-y,-z
loop_
_atom_site_type_symbol
_atom_site_label
_atom_site_fract_x
_atom_site_fract_y
_atom_site_fract_z
Si Si1 0.160108 0.667307 0.502044
Si Si2 0.601523 0.205220 0.974287
Si Si3 0.328101 0.127195 0.198620
Si Si4 0.169184 0.461663 0.593142
Si Si5 0.338901 0.515494 0.165522
Si Si6 0.598325 0.203119 0.553057
Si Si7 0.886884 0.930769 0.379160
O O1 0.178074 0.548482 0.531957
O O2 0.535185 0.658891 0.910038
O O3 0.990567 0.782556 0.422553
O O4 0.250448 0.773580 0.780547
O O5 0.584380 0.229357 0.778119
O O6 0.613278 0.034855 0.831899
O O7 0.239370 0.522623 0.899676
O O8 0.255077 0.275852 0.429586
O O9 0.468215 0.149554 0.289618
O O10 0.203302 0.123077 0.926774
O O11 0.000000 0.500000 0.500000
O O12 0.236613 0.571298 0.293397
O O13 0.415354 0.637692 0.360602
O O14 0.759689 0.069638 0.518557
O O15 0.000000 0.000000 0.500000
#
# Coordination Sequence:
#
# PCOD9070817 Si02
#       7
#     2   2   2   2   2   2   2
#     4  12  27  49  77 111 147 205 248 305 381 448
#     4  12  25  46  79 109 148 199 255 307 378 442
#     4  12  27  48  72 114 149 197 257 309 371 445
#     4  12  29  48  76 110 157 197 252 311 373 452
#     4  12  25  50  76 110 153 196 252 309 377 447
#     4  12  25  46  79 109 153 199 252 311 372 447
#     4  12  26  48  74 110 152 194 252 312 375 442
#
# _framework density 21.91704
#
# number of rings (size 3 to 8) (size 9 to 14) (size 15 to 20)
#    0.000    0.000    5.714    3.429    2.000    5.143 
#    0.000    0.000    0.000    0.000    0.000    0.000 
#    0.000    0.000    0.000    0.000    0.000    0.000 
#
# Total GULP energy -78503.069218 kJ/mol
# GULP energy per Si atom -5607.362087 kJ/mol
# Density = 2.186716 g / cm^3
# Si number density = 21.917040 Si / 1000 Ang^3
#
#
#
# Elastic Constant Matrix: (Units=GPa)
#
#
# Indices 1 2 3 4 5 6 
#
# 1 115.0586 71.4354 66.4159 15.9103 11.2526 -4.1141
# 2 71.4354 112.4187 44.0463 12.5947 10.7774 -0.1661
# 3 66.4159 44.0463 126.6510 -4.7562 -5.2373 2.1476
# 4 15.9103 12.5947 -4.7562 43.8679 -0.2784 1.5924
# 5 11.2526 10.7774 -5.2373 -0.2784 33.9054 -6.4390
# 6 -4.1141 -0.1661 2.1476 1.5924 -6.4390 45.3854
#
#
#
# Elastic Compliance Matrix: (Units=1/GPa)
#
#
# Indices 1 2 3 4 5 6 
#
# 1 0.019764 -0.008354 -0.007903 -0.005717 -0.004859 0.001646
# 2 -0.008354 0.014946 -0.000947 -0.001345 -0.002314 -0.000939
# 3 -0.007903 -0.000947 0.012753 0.004580 0.004778 -0.000806
# 4 -0.005717 -0.001345 0.004580 0.025815 0.003013 -0.001218
# 5 -0.004859 -0.002314 0.004778 0.003013 0.033355 0.003952
# 6 0.001646 -0.000939 -0.000806 -0.001218 0.003952 0.022821
#
#
# Mechanical properties :
#
#
# Convention : Reuss Voigt Hill
#
# Bulk Modulus (GPa) = 76.59870 79.76928 78.18399
# Shear Modulus (GPa) = 29.72419 36.11378 32.91898
#
# Velocity S-wave (km/s) = 3.68668 4.06365 3.87974
# Velocity P-wave (km/s) = 7.29022 7.64805 7.47128
#
# Compressibility (1/GPa) = 0.01305505
#
# Stress axis : x y z
#
# Youngs Moduli (GPa) = 50.59684 66.90774 78.41558
#
# Poissons Ratio (x) = 0.55894 0.61968
# Poissons Ratio (y) = 0.42268 0.07429
# Poissons Ratio (z) = 0.39985 0.06339
#
# Static dielectric constant tensor:
#      x y z
#    x 1.781630 0.006930 -0.009520 
#    y 0.006930 1.789990 -0.013450 
#    z -0.009520 -0.013450 1.801610 
# 
# From -- ./inp_files/316125.got.cif
#   From: 2010.05.17/outbox.cif.g08.bks.cpg/sg2_159_cif.got.tgz:316125.got - 2010.06.03 11:33:40.
