data_PCOD9070568
_publ_section_title
;
Structure prediction by ZEFSAII (Michael W. Deem and Ramdas Pophale) SiO2 
 PCOD9070568
Probable space group: P -1
;
_chemical_formula_sum "Si O2"
_cell_formula_units_Z 12
_cell_length_a 16.733751
_cell_length_b 5.092084
_cell_length_c 6.102933
_cell_angle_alpha 88.714568
_cell_angle_beta 101.761476
_cell_angle_gamma 100.303244
_cell_volume 500.848146
_symmetry_space_group_name_H-M "P -1"
_symmetry_group_IT_number 2
_symmetry_cell_setting 'triclinic'
loop_
_space_group_symop_operation_xyz
x,y,z
-x,-y,-z
loop_
_atom_site_type_symbol
_atom_site_label
_atom_site_fract_x
_atom_site_fract_y
_atom_site_fract_z
Si Si1 0.321812 0.659694 0.753012
Si Si2 0.091400 0.090888 0.647223
Si Si3 0.501955 0.748928 0.658751
Si Si4 0.788059 0.660863 0.657311
Si Si5 0.091551 0.579381 0.946110
Si Si6 0.316671 0.149723 0.042669
O O1 0.420051 0.710202 0.761325
O O2 0.274891 0.565507 0.504411
O O3 0.300252 0.405928 0.899808
O O4 0.298279 0.903376 0.871239
O O5 0.155772 0.140407 0.483030
O O6 0.095755 0.379712 0.751381
O O7 0.105385 0.877085 0.846136
O O8 0.000000 0.000000 0.500000
O O9 0.500000 0.500000 0.500000
O O10 0.586589 0.803914 0.840680
O O11 0.500000 0.000000 0.500000
O O12 0.736337 0.840074 0.768436
O O13 0.845026 0.502598 0.839498
O O14 0.000000 0.500000 0.000000
#
# Coordination Sequence:
#
# PCOD9070568 Si02
#       6
#     2   2   2   2   2   2
#     4  12  28  51  79 116 158 210 261 321 395 465
#     4  12  28  53  82 114 152 208 265 323 401 476
#     4  12  24  50  82 109 159 212 257 316 391 465
#     4  12  30  51  80 118 168 198 270 339 388 470
#     4  12  28  53  82 114 152 208 265 323 401 476
#     4  12  28  51  79 116 158 210 261 321 395 465
#
# _framework density 23.959357000000001
#
# number of rings (size 3 to 8) (size 9 to 14) (size 15 to 20)
#    0.000    0.000    3.333    5.000    0.000    8.000 
#    0.000    0.000    0.000    0.000    0.000    0.000 
#    0.000    0.000    0.000    0.000    0.000    0.000 
#
# Total GULP energy -67365.394376 kJ/mol
# GULP energy per Si atom -5613.782865 kJ/mol
# Density = 2.390482 g / cm^3
# Si number density = 23.959357 Si / 1000 Ang^3
#
#
#
# Elastic Constant Matrix: (Units=GPa)
#
#
# Indices 1 2 3 4 5 6 
#
# 1 198.9028 10.2327 55.7320 11.6770 -24.7148 4.4081
# 2 10.2327 205.4968 69.0773 36.4726 7.5342 -61.9904
# 3 55.7320 69.0773 137.7855 36.6471 24.5606 -47.5855
# 4 11.6770 36.4726 36.6471 59.2959 9.9576 -25.6219
# 5 -24.7148 7.5342 24.5606 9.9576 91.7285 -24.3601
# 6 4.4081 -61.9904 -47.5855 -25.6219 -24.3601 64.7030
#
#
#
# Elastic Compliance Matrix: (Units=1/GPa)
#
#
# Indices 1 2 3 4 5 6 
#
# 1 0.006427 0.000245 -0.003804 -0.000450 0.002150 -0.002370
# 2 0.000245 0.007373 -0.001714 -0.001245 0.001623 0.005904
# 3 -0.003804 -0.001714 0.013022 -0.003247 -0.002427 0.005995
# 4 -0.000450 -0.001245 -0.003247 0.021948 -0.000185 0.005072
# 5 0.002150 0.001623 -0.002427 -0.000185 0.013220 0.004527
# 6 -0.002370 0.005904 0.005995 0.005072 0.004527 0.029395
#
#
# Mechanical properties :
#
#
# Convention : Reuss Voigt Hill
#
# Bulk Modulus (GPa) = 61.44605 90.25212 75.84909
# Shear Modulus (GPa) = 46.57335 70.28834 58.43085
#
# Velocity S-wave (km/s) = 4.41369 5.42219 4.94373
# Velocity P-wave (km/s) = 7.18859 8.77216 8.01956
#
# Compressibility (1/GPa) = 0.01627444
#
# Stress axis : x y z
#
# Youngs Moduli (GPa) = 155.59320 135.63229 76.79097
#
# Poissons Ratio (x) = -0.03322 0.29214
# Poissons Ratio (y) = -0.03811 0.13165
# Poissons Ratio (z) = 0.59194 0.23254
#
# Static dielectric constant tensor:
#      x y z
#    x 1.814790 0.001960 0.001180 
#    y 0.001960 1.842810 -0.008430 
#    z 0.001180 -0.008430 1.817000 
# 
# From -- ./inp_files/85678.got.cif
#   From: 2010.05.17/outbox.cif.g08.bks.cpg/sg2_43_cif.got.tgz:85678.got - 2010.06.03 11:33:40.
