data_PCOD9070643
_publ_section_title
;
Structure prediction by ZEFSAII (Michael W. Deem and Ramdas Pophale) SiO2 
 PCOD9070643
Probable space group: P -1
;
_chemical_formula_sum "Si O2"
_cell_formula_units_Z 14
_cell_length_a 9.020738
_cell_length_b 9.354832
_cell_length_c 19.104470
_cell_angle_alpha 127.260689
_cell_angle_beta 135.092759
_cell_angle_gamma 31.255302
_cell_volume 590.524091
_symmetry_space_group_name_H-M "P -1"
_symmetry_group_IT_number 2
_symmetry_cell_setting 'triclinic'
loop_
_space_group_symop_operation_xyz
x,y,z
-x,-y,-z
loop_
_atom_site_type_symbol
_atom_site_label
_atom_site_fract_x
_atom_site_fract_y
_atom_site_fract_z
Si Si1 0.718194 0.202363 0.518825
Si Si2 0.568017 0.961391 0.807104
Si Si3 0.175371 0.209157 0.000009
Si Si4 0.838300 0.797626 0.518833
Si Si5 0.146513 0.961513 0.192871
Si Si6 0.818866 0.430240 0.730582
Si Si7 0.373024 0.569662 0.730595
O O1 0.500000 0.500000 0.500000
O O2 0.771595 0.268972 0.630173
O O3 0.700305 0.999989 0.466863
O O4 0.000000 0.000000 0.500000
O O5 0.620209 0.728674 0.722996
O O6 0.727036 0.999903 0.817951
O O7 0.749383 0.838784 0.906107
O O8 0.193919 0.233249 0.783697
O O9 0.969040 0.161146 0.906131
O O10 0.000000 0.500000 0.000000
O O11 0.500000 0.000000 0.000000
O O12 0.000000 0.500000 0.500000
O O13 0.118989 0.730960 0.630177
O O14 0.500000 0.000000 0.500000
O O15 0.451065 0.728769 0.276981
O O16 0.842628 0.233343 0.216268
O O17 0.666106 0.499948 0.777359
#
# Coordination Sequence:
#
# PCOD9070643 Si02
#       7
#     2   2   2   2   2   2   2
#     4  12  26  44  69 100 138 182 233 291 351 419
#     4  12  26  44  70 105 140 178 231 295 348 407
#     4  12  25  44  71 100 137 186 229 276 345 424
#     4  12  26  44  69 100 138 182 233 291 351 419
#     4  12  26  44  70 105 140 178 231 295 348 407
#     4  12  25  46  71  99 138 187 234 282 349 428
#     4  12  25  46  71  99 138 187 234 282 349 428
#
# _framework density 23.707754000000001
#
# number of rings (size 3 to 8) (size 9 to 14) (size 15 to 20)
#    0.000    0.000    0.000   12.429    0.000    6.857 
#    0.000    4.286    0.000    0.000    0.000    0.000 
#    0.000    0.000    0.000    0.000    0.000    0.000 
#
# Total GULP energy -77994.045626 kJ/mol
# GULP energy per Si atom -5571.003259 kJ/mol
# Density = 2.365379 g / cm^3
# Si number density = 23.707754 Si / 1000 Ang^3
#
#
#
# Elastic Constant Matrix: (Units=GPa)
#
#
# Indices 1 2 3 4 5 6 
#
# 1 228.8878 120.0867 -2.6463 -10.3640 -0.7304 7.2195
# 2 120.0867 244.4644 35.5401 -12.6601 0.9390 1.7811
# 3 -2.6463 35.5401 32.5406 -5.2216 -1.3325 1.9570
# 4 -10.3640 -12.6601 -5.2216 30.0152 6.8184 0.5825
# 5 -0.7304 0.9390 -1.3325 6.8184 26.3377 -3.4952
# 6 7.2195 1.7811 1.9570 0.5825 -3.4952 67.6587
#
#
#
# Elastic Compliance Matrix: (Units=1/GPa)
#
#
# Indices 1 2 3 4 5 6 
#
# 1 0.006548 -0.003867 0.005046 0.001503 0.000086 -0.000751
# 2 -0.003867 0.007202 -0.008165 0.000465 -0.000843 0.000412
# 3 0.005046 -0.008165 0.041030 0.005251 0.000948 -0.001507
# 4 0.001503 0.000465 0.005251 0.037118 -0.009469 -0.001133
# 5 0.000086 -0.000843 0.000948 -0.009469 0.040789 0.002174
# 6 -0.000751 0.000412 -0.001507 -0.001133 0.002174 0.015015
#
#
# Mechanical properties :
#
#
# Convention : Reuss Voigt Hill
#
# Bulk Modulus (GPa) = 24.50449 90.20596 57.35522
# Shear Modulus (GPa) = 28.52641 48.32982 38.42811
#
# Velocity S-wave (km/s) = 3.47256 4.51995 4.03042
# Velocity P-wave (km/s) = 5.14166 8.08527 6.77526
#
# Compressibility (1/GPa) = 0.04080885
#
# Stress axis : x y z
#
# Youngs Moduli (GPa) = 152.71085 138.85828 24.37227
#
# Poissons Ratio (x) = 0.53701 -0.12299
# Poissons Ratio (y) = 0.59058 0.19899
# Poissons Ratio (z) = -0.77061 1.13371
#
# Static dielectric constant tensor:
#      x y z
#    x 1.744660 0.053880 -0.004290 
#    y 0.053880 1.832480 0.025300 
#    z -0.004290 0.025300 2.133180 
# 
# From -- ./inp_files/588065.got.cif
#   From: 2010.05.17/outbox.cif.g08.bks.cpg/sg2_295_cif.got.tgz:588065.got - 2010.06.03 11:33:40.
