data_PCOD9070340
_publ_section_title
;
Structure prediction by ZEFSAII (Michael W. Deem and Ramdas Pophale) SiO2 
 PCOD9070340
Probable space group: P -1
;
_chemical_formula_sum "Si O2"
_cell_formula_units_Z 16
_cell_length_a 24.918325
_cell_length_b 17.816960
_cell_length_c 5.758924
_cell_angle_alpha 69.620876
_cell_angle_beta 97.883077
_cell_angle_gamma 160.236293
_cell_volume 647.624103
_symmetry_space_group_name_H-M "P -1"
_symmetry_group_IT_number 2
_symmetry_cell_setting 'triclinic'
loop_
_space_group_symop_operation_xyz
x,y,z
-x,-y,-z
loop_
_atom_site_type_symbol
_atom_site_label
_atom_site_fract_x
_atom_site_fract_y
_atom_site_fract_z
Si Si1 0.161070 0.677817 0.042149
Si Si2 0.921643 0.077270 0.114809
Si Si3 0.358223 0.248165 0.353399
Si Si4 0.705797 0.473849 0.151247
Si Si5 0.522058 0.986261 0.278829
Si Si6 0.104532 0.807727 0.315574
Si Si7 0.539094 0.793647 0.068964
Si Si8 0.290888 0.365788 0.729519
O O1 0.052817 0.484128 0.407401
O O2 0.337866 0.986070 0.898152
O O3 0.263343 0.751496 0.883662
O O4 0.000000 0.500000 0.000000
O O5 0.723606 0.811220 0.430938
O O6 0.860539 0.922878 0.057239
O O7 0.966463 0.226615 0.868496
O O8 0.109672 0.305567 0.105683
O O9 0.493481 0.366241 0.380515
O O10 0.163991 0.938620 0.444141
O O11 0.500000 0.500000 0.000000
O O12 0.519735 0.227500 0.141827
O O13 0.758504 0.634222 0.122240
O O14 0.640356 0.315994 0.474597
O O15 0.500000 0.000000 0.500000
O O16 0.500000 0.000000 0.000000
O O17 0.311702 0.062215 0.087076
O O18 0.332693 0.465000 0.397347
#
# Coordination Sequence:
#
# PCOD9070340 Si02
#       8
#     2   2   2   2   2   2   2   2
#     4  12  27  49  80 116 145 201 268 322 386 474
#     4  12  28  44  76 113 146 197 259 319 379 471
#     4  12  24  47  75 111 148 197 255 316 394 452
#     4  12  28  48  75 109 155 203 256 318 395 478
#     4  12  28  52  79 113 163 214 257 328 408 475
#     4  12  25  45  78 109 152 192 261 322 375 467
#     4  12  25  49  76 108 156 205 250 323 401 468
#     4  12  24  48  74 108 151 197 258 313 395 464
#
# _framework density 24.705691999999999
#
# number of rings (size 3 to 8) (size 9 to 14) (size 15 to 20)
#    0.000    0.000    5.000    4.875    1.750    2.500 
#    0.000    0.000    0.000    0.000    0.000    0.000 
#    0.000    0.000    0.000    0.000    0.000    0.000 
#
# Total GULP energy -89591.311001 kJ/mol
# GULP energy per Si atom -5599.456938 kJ/mol
# Density = 2.464946 g / cm^3
# Si number density = 24.705692 Si / 1000 Ang^3
#
#
#
# Elastic Constant Matrix: (Units=GPa)
#
#
# Indices 1 2 3 4 5 6 
#
# 1 160.9374 66.0970 55.6039 9.2360 -8.2414 30.1275
# 2 66.0970 66.1897 8.0708 7.6461 -10.3318 17.8246
# 3 55.6039 8.0708 92.3136 5.3232 14.9871 18.5793
# 4 9.2360 7.6461 5.3232 31.1439 -0.9701 -1.3951
# 5 -8.2414 -10.3318 14.9871 -0.9701 48.5300 -12.7782
# 6 30.1275 17.8246 18.5793 -1.3951 -12.7782 50.8501
#
#
#
# Elastic Compliance Matrix: (Units=1/GPa)
#
#
# Indices 1 2 3 4 5 6 
#
# 1 0.014461 -0.013047 -0.007758 0.000270 0.001902 -0.000674
# 2 -0.013047 0.029296 0.006431 -0.004619 0.000666 -0.004848
# 3 -0.007758 0.006431 0.017394 -0.002727 -0.006908 -0.005824
# 4 0.000270 -0.004619 -0.002727 0.033848 0.001577 0.003781
# 5 0.001902 0.000666 -0.006908 0.001577 0.025222 0.007545
# 6 -0.000674 -0.004848 -0.005824 0.003781 0.007545 0.025892
#
#
# Mechanical properties :
#
#
# Convention : Reuss Voigt Hill
#
# Bulk Modulus (GPa) = 30.86109 64.33158 47.59634
# Shear Modulus (GPa) = 26.93074 38.74940 32.84007
#
# Velocity S-wave (km/s) = 3.30519 3.96465 3.64985
# Velocity P-wave (km/s) = 5.20426 6.85957 6.08843
#
# Compressibility (1/GPa) = 0.03240326
#
# Stress axis : x y z
#
# Youngs Moduli (GPa) = 69.15355 34.13447 57.49007
#
# Poissons Ratio (x) = 0.44536 0.44601
# Poissons Ratio (y) = 0.90225 -0.36974
# Poissons Ratio (z) = 0.53650 -0.21953
#
# Static dielectric constant tensor:
#      x y z
#    x 1.989410 -0.010100 0.005890 
#    y -0.010100 1.984110 0.034540 
#    z 0.005890 0.034540 2.031440 
# 
# From -- ./inp_files/124689.got.cif
#   From: 2010.05.17/outbox.cif.g08.bks.cpg/sg2_63_cif.got.tgz:124689.got - 2010.06.03 11:33:40.
