data_PCOD9070509
_publ_section_title
;
Structure prediction by ZEFSAII (Michael W. Deem and Ramdas Pophale) SiO2 
 PCOD9070509
Probable space group: P -1
;
_chemical_formula_sum "Si O2"
_cell_formula_units_Z 14
_cell_length_a 15.348844
_cell_length_b 15.210385
_cell_length_c 6.527133
_cell_angle_alpha 120.305136
_cell_angle_beta 73.243274
_cell_angle_gamma 152.810324
_cell_volume 549.122688
_symmetry_space_group_name_H-M "P -1"
_symmetry_group_IT_number 2
_symmetry_cell_setting 'triclinic'
loop_
_space_group_symop_operation_xyz
x,y,z
-x,-y,-z
loop_
_atom_site_type_symbol
_atom_site_label
_atom_site_fract_x
_atom_site_fract_y
_atom_site_fract_z
Si Si1 0.593615 0.021238 0.581560
Si Si2 0.019915 0.282263 0.117212
Si Si3 0.632519 0.313121 0.321067
Si Si4 0.675651 0.878226 0.203311
Si Si5 0.887961 0.463104 0.952666
Si Si6 0.570348 0.455494 0.356366
Si Si7 0.992419 0.105557 0.550473
O O1 0.497986 0.907598 0.739511
O O2 0.621758 0.938156 0.370944
O O3 0.358750 0.813270 0.342966
O O4 0.871420 0.319628 0.817977
O O5 0.218527 0.497661 0.377944
O O6 0.997655 0.367823 0.117163
O O7 0.037832 0.224653 0.848129
O O8 0.845330 0.063575 0.127757
O O9 0.769129 0.408896 0.148614
O O10 0.498530 0.278035 0.307714
O O11 0.489365 0.627136 0.935472
O O12 0.781455 0.925506 0.372534
O O13 0.500000 0.500000 0.500000
O O14 0.817209 0.697236 0.504580
O O15 0.000000 0.000000 0.500000
#
# Coordination Sequence:
#
# PCOD9070509 Si02
#       7
#     2   2   2   2   2   2   2
#     4  12  26  46  72 110 152 204 250 309 383 445
#     4  12  24  49  75 106 155 193 252 313 369 456
#     4  12  26  49  73 110 157 190 260 316 365 466
#     4  12  29  50  77 113 155 198 255 314 378 460
#     4  12  26  44  73 108 148 205 251 303 383 443
#     4  12  28  50  79 112 149 202 250 313 391 443
#     4  12  28  51  78 112 149 199 258 316 383 451
#
# _framework density 25.495215000000002
#
# number of rings (size 3 to 8) (size 9 to 14) (size 15 to 20)
#    0.000    0.000    4.286    4.714   10.000    2.857 
#    0.000    0.000    0.000    0.000    0.000    0.000 
#    0.000    0.000    0.000    0.000    0.000    0.000 
#
# Total GULP energy -78216.702367 kJ/mol
# GULP energy per Si atom -5586.907312 kJ/mol
# Density = 2.543719 g / cm^3
# Si number density = 25.495215 Si / 1000 Ang^3
#
#
#
# Elastic Constant Matrix: (Units=GPa)
#
#
# Indices 1 2 3 4 5 6 
#
# 1 191.7036 29.5210 73.0136 -3.1542 18.5706 4.3545
# 2 29.5210 75.5794 -7.8443 -12.8289 26.4880 -6.3499
# 3 73.0136 -7.8443 145.6460 16.1696 24.1374 10.3661
# 4 -3.1542 -12.8289 16.1696 46.4516 3.0345 4.2085
# 5 18.5706 26.4880 24.1374 3.0345 31.9215 4.7073
# 6 4.3545 -6.3499 10.3661 4.2085 4.7073 43.7531
#
#
#
# Elastic Compliance Matrix: (Units=1/GPa)
#
#
# Indices 1 2 3 4 5 6 
#
# 1 0.007274 -0.004052 -0.004304 0.000773 0.002404 -0.000625
# 2 -0.004052 0.025717 0.006624 0.005742 -0.025234 0.004729
# 3 -0.004304 0.006624 0.011474 -0.001711 -0.011517 0.000075
# 4 0.000773 0.005742 -0.001711 0.024209 -0.006147 -0.000506
# 5 0.002404 -0.025234 -0.011517 -0.006147 0.061218 -0.007168
# 6 -0.000625 0.004729 0.000075 -0.000506 -0.007168 0.024406
#
#
# Mechanical properties :
#
#
# Convention : Reuss Voigt Hill
#
# Bulk Modulus (GPa) = 24.38959 66.92329 45.65644
# Shear Modulus (GPa) = 29.16688 45.64114 37.40401
#
# Velocity S-wave (km/s) = 3.38600 4.23565 3.83443
# Velocity P-wave (km/s) = 4.98736 7.08712 6.12785
#
# Compressibility (1/GPa) = 0.04100111
#
# Stress axis : x y z
#
# Youngs Moduli (GPa) = 137.48117 38.88496 87.15488
#
# Poissons Ratio (x) = 0.15755 0.37514
# Poissons Ratio (y) = 0.55702 -0.57733
# Poissons Ratio (z) = 0.59176 -0.25758
#
# Static dielectric constant tensor:
#      x y z
#    x 1.982130 0.109370 0.287170 
#    y 0.109370 2.469720 0.560860 
#    z 0.287170 0.560860 2.687050 
# 
# From -- ./inp_files/120439.got.cif
#   From: 2010.05.17/outbox.cif.g08.bks.cpg/sg2_61_cif.got.tgz:120439.got - 2010.06.03 11:33:40.
