data_PCOD9070507
_publ_section_title
;
Structure prediction by ZEFSAII (Michael W. Deem and Ramdas Pophale) SiO2 
 PCOD9070507
Probable space group: P -1
;
_chemical_formula_sum "Si O2"
_cell_formula_units_Z 16
_cell_length_a 14.308943
_cell_length_b 8.910917
_cell_length_c 11.450961
_cell_angle_alpha 96.151383
_cell_angle_beta 30.996473
_cell_angle_gamma 105.157793
_cell_volume 705.366852
_symmetry_space_group_name_H-M "P -1"
_symmetry_group_IT_number 2
_symmetry_cell_setting 'triclinic'
loop_
_space_group_symop_operation_xyz
x,y,z
-x,-y,-z
loop_
_atom_site_type_symbol
_atom_site_label
_atom_site_fract_x
_atom_site_fract_y
_atom_site_fract_z
Si Si1 0.883435 0.067674 0.888516
Si Si2 0.693864 0.854853 0.574097
Si Si3 0.718464 0.214388 0.512318
Si Si4 0.330970 0.280872 0.951601
Si Si5 0.850025 0.322153 0.120763
Si Si6 0.007641 0.662457 0.568258
Si Si7 0.540128 0.421838 0.333602
Si Si8 0.641672 0.132444 0.941143
O O1 0.732192 0.089037 0.958173
O O2 0.091599 0.111052 0.607756
O O3 0.910701 0.182756 0.980977
O O4 0.798924 0.878674 0.991542
O O5 0.649100 0.720764 0.512104
O O6 0.691650 0.027738 0.546459
O O7 0.508212 0.780312 0.849821
O O8 0.531791 0.252958 0.762810
O O9 0.748247 0.256842 0.347487
O O10 0.905053 0.321761 0.393055
O O11 0.387412 0.439419 0.827123
O O12 0.193485 0.304110 0.204160
O O13 0.702887 0.347904 0.185911
O O14 0.000000 0.500000 0.000000
O O15 0.174058 0.789518 0.328731
O O16 0.000000 0.500000 0.500000
O O17 0.500000 0.500000 0.500000
O O18 0.500000 0.000000 0.000000
#
# Coordination Sequence:
#
# PCOD9070507 Si02
#       8
#     2   2   2   2   2   2   2   2
#     4  12  27  47  80 111 149 201 244 308 374 447
#     4  12  26  48  72 111 147 197 247 308 374 443
#     4  12  26  49  75 108 152 193 250 303 379 443
#     4  12  25  48  75 110 146 193 251 300 380 439
#     4  12  27  47  76 113 155 197 248 308 374 453
#     4  12  28  47  75 106 148 193 250 316 362 446
#     4  12  25  45  74 109 151 194 244 307 374 446
#     4  12  24  49  75 105 146 190 251 303 369 435
#
# _framework density 22.683233999999999
#
# number of rings (size 3 to 8) (size 9 to 14) (size 15 to 20)
#    0.000    0.000    6.250    2.250    3.500    5.000 
#    0.000    0.000    0.000    0.000    0.000    0.000 
#    0.000    0.000    0.000    0.000    0.000    0.000 
#
# Total GULP energy -89401.831928 kJ/mol
# GULP energy per Si atom -5587.614495 kJ/mol
# Density = 2.263161 g / cm^3
# Si number density = 22.683234 Si / 1000 Ang^3
#
#
#
# Elastic Constant Matrix: (Units=GPa)
#
#
# Indices 1 2 3 4 5 6 
#
# 1 75.6531 36.0288 26.5120 -4.3103 -13.3586 15.4404
# 2 36.0288 144.8638 44.8264 5.6265 3.1574 27.3172
# 3 26.5120 44.8264 128.3898 13.5232 -21.5029 -1.6225
# 4 -4.3103 5.6265 13.5232 36.6325 0.1495 -3.6440
# 5 -13.3586 3.1574 -21.5029 0.1495 36.3398 -2.3219
# 6 15.4404 27.3172 -1.6225 -3.6440 -2.3219 24.6746
#
#
#
# Elastic Compliance Matrix: (Units=1/GPa)
#
#
# Indices 1 2 3 4 5 6 
#
# 1 0.017795 -0.002426 -0.002385 0.002554 0.004834 -0.007774
# 2 -0.002426 0.011257 -0.004275 -0.001604 -0.005156 -0.011947
# 3 -0.002385 -0.004275 0.011307 -0.003115 0.006654 0.007135
# 4 0.002554 -0.001604 -0.003115 0.029421 -0.000614 0.004260
# 5 0.004834 -0.005156 0.006654 -0.000614 0.034081 0.006237
# 6 -0.007774 -0.011947 0.007135 0.004260 0.006237 0.060305
#
#
# Mechanical properties :
#
#
# Convention : Reuss Voigt Hill
#
# Bulk Modulus (GPa) = 45.07353 62.62679 53.85016
# Shear Modulus (GPa) = 26.35272 35.63202 30.99237
#
# Velocity S-wave (km/s) = 3.41217 3.96770 3.70038
# Velocity P-wave (km/s) = 5.95297 6.97563 6.48449
#
# Compressibility (1/GPa) = 0.02218597
#
# Stress axis : x y z
#
# Youngs Moduli (GPa) = 56.19443 88.83445 88.44461
#
# Poissons Ratio (x) = 0.21554 0.21096
# Poissons Ratio (y) = 0.13634 0.37809
# Poissons Ratio (z) = 0.13404 0.37976
#
# Static dielectric constant tensor:
#      x y z
#    x 1.917300 0.015570 -0.015020 
#    y 0.015570 1.929420 0.051060 
#    z -0.015020 0.051060 1.915520 
# 
# From -- ./inp_files/447619.got.cif
#   From: 2010.05.17/outbox.cif.g08.bks.cpg/sg2_224_cif.got.tgz:447619.got - 2010.06.03 11:33:40.
