data_PCOD9070331
_publ_section_title
;
Structure prediction by ZEFSAII (Michael W. Deem and Ramdas Pophale) SiO2 
 PCOD9070331
Probable space group: P -1
;
_chemical_formula_sum "Si O2"
_cell_formula_units_Z 13
_cell_length_a 5.131855
_cell_length_b 9.718738
_cell_length_c 14.002913
_cell_angle_alpha 123.791141
_cell_angle_beta 58.868415
_cell_angle_gamma 105.359888
_cell_volume 496.574929
_symmetry_space_group_name_H-M "P -1"
_symmetry_group_IT_number 2
_symmetry_cell_setting 'triclinic'
loop_
_space_group_symop_operation_xyz
x,y,z
-x,-y,-z
loop_
_atom_site_type_symbol
_atom_site_label
_atom_site_fract_x
_atom_site_fract_y
_atom_site_fract_z
Si Si1 0.744176 0.346935 0.137989
Si Si2 0.420866 0.863850 0.162582
Si Si3 0.508068 0.327131 0.379086
Si Si4 0.779830 0.052251 0.323305
Si Si5 0.311053 0.552778 0.169812
Si Si6 0.500000 0.000000 0.000000
Si Si7 0.924488 0.172631 0.527966
O O1 0.519327 0.349926 0.273383
O O2 0.601998 0.471989 0.135630
O O3 0.722840 0.161648 0.031421
O O4 0.060966 0.418105 0.140638
O O5 0.388416 0.669840 0.111318
O O6 0.575009 0.928873 0.255604
O O7 0.590831 0.932493 0.064834
O O8 0.087951 0.950592 0.247422
O O9 0.500000 0.500000 0.500000
O O10 0.797719 0.209595 0.309694
O O11 0.215331 0.235233 0.438167
O O12 0.682270 0.134765 0.474942
O O13 0.164611 0.683302 0.325710
O O14 0.000000 0.000000 0.500000
#
# Coordination Sequence:
#
# PCOD9070331 Si02
#       7
#     2   2   2   2   2   1   2
#     4  12  29  49  77 112 152 202 258 315 382 444
#     4  12  28  49  80 108 150 200 259 316 377 449
#     4  12  25  44  72 112 155 199 245 307 379 458
#     4  12  24  47  74 114 152 196 255 303 372 462
#     4  12  28  49  74 116 157 197 253 315 382 456
#     4  12  30  54  84 108 146 208 262 328 378 446
#     4  12  25  42  77 114 158 206 240 305 379 461
#
# _framework density 26.179333
#
# number of rings (size 3 to 8) (size 9 to 14) (size 15 to 20)
#    0.000    0.000    6.154    1.846    4.308    6.154 
#    0.000    0.000    0.000    0.000    0.000    0.000 
#    0.000    0.000    0.000    0.000    0.000    0.000 
#
# Total GULP energy -72639.936274 kJ/mol
# GULP energy per Si atom -5587.687406 kJ/mol
# Density = 2.611975 g / cm^3
# Si number density = 26.179333 Si / 1000 Ang^3
#
#
#
# Elastic Constant Matrix: (Units=GPa)
#
#
# Indices 1 2 3 4 5 6 
#
# 1 134.0247 26.6537 39.7523 11.1262 24.7035 -2.4368
# 2 26.6537 160.0248 22.6500 1.5524 0.4043 1.8658
# 3 39.7523 22.6500 111.5479 -8.0708 34.7545 10.0387
# 4 11.1262 1.5524 -8.0708 56.0691 7.3607 9.6951
# 5 24.7035 0.4043 34.7545 7.3607 46.2883 4.4841
# 6 -2.4368 1.8658 10.0387 9.6951 4.4841 50.9970
#
#
#
# Elastic Compliance Matrix: (Units=1/GPa)
#
#
# Indices 1 2 3 4 5 6 
#
# 1 0.009139 -0.001173 -0.002407 -0.002023 -0.002892 0.001592
# 2 -0.001173 0.006658 -0.001505 -0.000385 0.001767 -0.000086
# 3 -0.002407 -0.001505 0.013566 0.004159 -0.009287 -0.002704
# 4 -0.002023 -0.000385 0.004159 0.020228 -0.004838 -0.004322
# 5 -0.002892 0.001767 -0.009287 -0.004838 0.030891 -0.000171
# 6 0.001592 -0.000086 -0.002704 -0.004322 -0.000171 0.021057
#
#
# Mechanical properties :
#
#
# Convention : Reuss Voigt Hill
#
# Bulk Modulus (GPa) = 52.10303 64.85660 58.47982
# Shear Modulus (GPa) = 42.33510 51.77365 47.05438
#
# Velocity S-wave (km/s) = 4.02570 4.45191 4.24416
# Velocity P-wave (km/s) = 6.44624 7.15917 6.81204
#
# Compressibility (1/GPa) = 0.01919274
#
# Stress axis : x y z
#
# Youngs Moduli (GPa) = 109.42685 150.20344 73.71380
#
# Poissons Ratio (x) = 0.17619 0.17744
# Poissons Ratio (y) = 0.12836 0.11091
# Poissons Ratio (z) = 0.26340 0.22599
#
# Static dielectric constant tensor:
#      x y z
#    x 2.081570 0.008570 -0.040140 
#    y 0.008570 1.987940 -0.019720 
#    z -0.040140 -0.019720 2.142490 
# 
# From -- ./inp_files/479367.got.cif
#   From: 2010.05.17/outbox.cif.g08.bks.cpg/sg2_240_cif.got.tgz:479367.got - 2010.06.03 11:33:40.
