data_PCOD9070096
_publ_section_title
;
Structure prediction by ZEFSAII (Michael W. Deem and Ramdas Pophale) SiO2 
 PCOD9070096
Probable space group: P -1
;
_chemical_formula_sum "Si O2"
_cell_formula_units_Z 14
_cell_length_a 9.023327
_cell_length_b 8.858875
_cell_length_c 24.388265
_cell_angle_alpha 39.297023
_cell_angle_beta 29.046165
_cell_angle_gamma 48.710570
_cell_volume 598.584732
_symmetry_space_group_name_H-M "P -1"
_symmetry_group_IT_number 2
_symmetry_cell_setting 'triclinic'
loop_
_space_group_symop_operation_xyz
x,y,z
-x,-y,-z
loop_
_atom_site_type_symbol
_atom_site_label
_atom_site_fract_x
_atom_site_fract_y
_atom_site_fract_z
Si Si1 0.162029 0.436139 0.296671
Si Si2 0.751917 0.110021 0.929309
Si Si3 0.359856 0.865014 0.813926
Si Si4 0.257453 0.548109 0.357261
Si Si5 0.311400 0.875223 0.645792
Si Si6 0.392669 0.105320 0.155853
Si Si7 0.438765 0.780238 0.439014
O O1 0.111642 0.653246 0.211364
O O2 0.503443 0.348729 0.204528
O O3 0.117193 0.508704 0.353390
O O4 0.912193 0.221047 0.426427
O O5 0.006233 0.918622 0.910540
O O6 0.500000 0.000000 0.000000
O O7 0.597126 0.178277 0.017034
O O8 0.466023 0.811248 0.855904
O O9 0.519946 0.103289 0.666993
O O10 0.524075 0.367094 0.328363
O O11 0.384206 0.818553 0.242808
O O12 0.000000 0.500000 0.500000
O O13 0.500000 0.000000 0.500000
O O14 0.354368 0.053336 0.633916
O O15 0.956862 0.831540 0.757976
O O16 0.500000 0.500000 0.500000
#
# Coordination Sequence:
#
# PCOD9070096 Si02
#       7
#     2   2   2   2   2   2   2
#     4  12  26  46  75 106 143 194 238 299 368 428
#     4  12  27  50  75 103 144 192 246 296 359 440
#     4  12  27  47  75 107 146 187 245 300 365 429
#     4  12  25  44  73 109 146 189 238 299 367 423
#     4  12  26  44  72 111 147 187 240 299 363 431
#     4  12  27  48  73 108 147 192 243 299 360 433
#     4  12  24  45  74 106 146 187 239 301 362 426
#
# _framework density 23.388503
#
# number of rings (size 3 to 8) (size 9 to 14) (size 15 to 20)
#    0.000    0.000    5.714    4.286    2.000    3.429 
#    0.000    0.000    0.000    0.000    0.000    0.000 
#    0.000    0.000    0.000    0.000    0.000    0.000 
#
# Total GULP energy -78455.228401 kJ/mol
# GULP energy per Si atom -5603.944886 kJ/mol
# Density = 2.333527 g / cm^3
# Si number density = 23.388503 Si / 1000 Ang^3
#
#
#
# Elastic Constant Matrix: (Units=GPa)
#
#
# Indices 1 2 3 4 5 6 
#
# 1 129.9570 42.4583 55.7137 31.1017 18.8655 -0.2851
# 2 42.4583 124.6475 13.3948 21.8222 1.2553 -30.1777
# 3 55.7137 13.3948 96.6971 27.0000 19.0930 -1.3343
# 4 31.1017 21.8222 27.0000 44.6094 -3.9699 -0.4868
# 5 18.8655 1.2553 19.0930 -3.9699 48.6419 11.6075
# 6 -0.2851 -30.1777 -1.3343 -0.4868 11.6075 41.5347
#
#
#
# Elastic Compliance Matrix: (Units=1/GPa)
#
#
# Indices 1 2 3 4 5 6 
#
# 1 0.012290 -0.003328 -0.004948 -0.004201 -0.002651 -0.001801
# 2 -0.003328 0.012150 0.002329 -0.005164 -0.002639 0.009557
# 3 -0.004948 0.002329 0.016406 -0.008125 -0.006153 0.003810
# 4 -0.004201 -0.005164 -0.008125 0.033538 0.009172 -0.006212
# 5 -0.002651 -0.002639 -0.006153 0.009172 0.027110 -0.009602
# 6 -0.001801 0.009557 0.003810 -0.006212 -0.009602 0.033741
#
#
# Mechanical properties :
#
#
# Convention : Reuss Voigt Hill
#
# Bulk Modulus (GPa) = 34.53995 63.82614 49.18304
# Shear Modulus (GPa) = 31.89154 42.93950 37.41552
#
# Velocity S-wave (km/s) = 3.69664 4.28942 4.00401
# Velocity P-wave (km/s) = 5.74632 7.20284 6.51541
#
# Compressibility (1/GPa) = 0.02895198
#
# Stress axis : x y z
#
# Youngs Moduli (GPa) = 81.36658 82.30125 60.95214
#
# Poissons Ratio (x) = 0.27394 0.30161
# Poissons Ratio (y) = 0.27083 -0.14198
# Poissons Ratio (z) = 0.40263 -0.19171
#
# Static dielectric constant tensor:
#      x y z
#    x 1.907050 -0.002320 -0.038590 
#    y -0.002320 1.902230 0.028740 
#    z -0.038590 0.028740 1.935950 
# 
# From -- ./inp_files/185480.got.cif
#   From: 2010.05.17/outbox.cif.g08.bks.cpg/sg2_93_cif.got.tgz:185480.got - 2010.06.03 11:33:40.
