data_PCOD9070177
_publ_section_title
;
Structure prediction by ZEFSAII (Michael W. Deem and Ramdas Pophale) SiO2 
 PCOD9070177
Probable space group: P -1
;
_chemical_formula_sum "Si O2"
_cell_formula_units_Z 15
_cell_length_a 9.389051
_cell_length_b 9.547955
_cell_length_c 14.636038
_cell_angle_alpha 122.228930
_cell_angle_beta 136.598799
_cell_angle_gamma 83.819378
_cell_volume 668.433071
_symmetry_space_group_name_H-M "P -1"
_symmetry_group_IT_number 2
_symmetry_cell_setting 'triclinic'
loop_
_space_group_symop_operation_xyz
x,y,z
-x,-y,-z
loop_
_atom_site_type_symbol
_atom_site_label
_atom_site_fract_x
_atom_site_fract_y
_atom_site_fract_z
Si Si1 0.000000 0.000000 0.500000
Si Si2 0.667316 0.961925 0.632688
Si Si3 0.780562 0.580077 0.175197
Si Si4 0.085320 0.369570 0.945555
Si Si5 0.271464 0.782540 0.883683
Si Si6 0.890021 0.769516 0.562993
Si Si7 0.527214 0.359343 0.214093
Si Si8 0.279601 0.054244 0.139958
O O1 0.121287 0.214684 0.666287
O O2 0.027256 0.085841 0.433248
O O3 0.697791 0.796780 0.542330
O O4 0.609138 0.932580 0.703095
O O5 0.500000 0.000000 0.500000
O O6 0.919405 0.151701 0.815848
O O7 0.914438 0.602949 0.151526
O O8 0.823290 0.431019 0.200166
O O9 0.500000 0.500000 0.000000
O O10 0.348569 0.427042 0.117179
O O11 0.000000 0.500000 0.000000
O O12 0.473392 0.792282 0.911896
O O13 0.095984 0.810165 0.744649
O O14 0.309999 0.905786 0.036087
O O15 0.774207 0.549636 0.404617
O O16 0.426173 0.251536 0.224248
O O17 0.000000 0.000000 0.000000
#
# Coordination Sequence:
#
# PCOD9070177 Si02
#       8
#     1   2   2   2   2   2   2   2
#     4  12  26  48  78 108 162 196 260 328 396 464
#     4  12  27  48  73 111 151 203 258 318 392 464
#     4  12  26  47  79 115 153 207 263 324 401 470
#     4  12  24  46  73 104 156 199 255 318 387 472
#     4  12  26  49  79 113 155 201 264 326 390 474
#     4  12  26  49  76 113 157 199 264 328 389 470
#     4  12  26  46  77 113 147 207 259 318 393 465
#     4  12  26  50  77 108 154 206 256 316 396 470
#
# _framework density 22.440542000000001
#
# number of rings (size 3 to 8) (size 9 to 14) (size 15 to 20)
#    0.000    0.000    6.667    2.400    0.000    4.800 
#    0.000    0.000    0.000    0.000    0.000    0.000 
#    0.000    0.000    0.000    0.000    0.000    0.000 
#
# Total GULP energy -83628.241547 kJ/mol
# GULP energy per Si atom -5575.216103 kJ/mol
# Density = 2.238947 g / cm^3
# Si number density = 22.440542 Si / 1000 Ang^3
#
#
#
# Elastic Constant Matrix: (Units=GPa)
#
#
# Indices 1 2 3 4 5 6 
#
# 1 129.0280 59.6209 29.4844 -12.9445 -43.8511 0.8258
# 2 59.6209 131.9135 50.5947 -5.1992 -20.8293 23.2525
# 3 29.4844 50.5947 71.0989 -2.8068 -37.8164 -5.6906
# 4 -12.9445 -5.1992 -2.8068 48.5722 3.1450 -1.8354
# 5 -43.8511 -20.8293 -37.8164 3.1450 40.5191 -3.1240
# 6 0.8258 23.2525 -5.6906 -1.8354 -3.1240 68.5024
#
#
#
# Elastic Compliance Matrix: (Units=1/GPa)
#
#
# Indices 1 2 3 4 5 6 
#
# 1 0.021628 -0.013008 0.020030 0.003501 0.035723 0.007542
# 2 -0.013008 0.020156 -0.024081 -0.001338 -0.026854 -0.009946
# 3 0.020030 -0.024081 0.059096 0.002536 0.065481 0.015896
# 4 0.003501 -0.001338 0.002536 0.021322 0.003919 0.001373
# 5 0.035723 -0.026854 0.065481 0.003919 0.111835 0.019330
# 6 0.007542 -0.009946 0.015896 0.001373 0.019330 0.020122
#
#
# Mechanical properties :
#
#
# Convention : Reuss Voigt Hill
#
# Bulk Modulus (GPa) = 14.97883 67.93783 41.45833
# Shear Modulus (GPa) = 16.10143 44.34143 30.22143
#
# Velocity S-wave (km/s) = 2.68155 4.44999 3.67377
# Velocity P-wave (km/s) = 4.03448 7.53283 6.04237
#
# Compressibility (1/GPa) = 0.06676091
#
# Stress axis : x y z
#
# Youngs Moduli (GPa) = 46.23724 49.61185 16.92173
#
# Poissons Ratio (x) = 0.64536 -0.33895
# Poissons Ratio (y) = 0.60146 0.40750
# Poissons Ratio (z) = -0.92614 1.19472
#
# Static dielectric constant tensor:
#      x y z
#    x 1.956390 0.175420 0.006950 
#    y 0.175420 2.119860 -0.009670 
#    z 0.006950 -0.009670 1.859430 
# 
# From -- ./inp_files/381318.got.cif
#   From: 2010.05.17/outbox.cif.g08.bks.cpg/sg2_191_cif.got.tgz:381318.got - 2010.06.03 11:33:40.
