data_PCOD9070003
_publ_section_title
;
Structure prediction by ZEFSAII (Michael W. Deem and Ramdas Pophale) SiO2 
 PCOD9070003
Probable space group: P -1
;
_chemical_formula_sum "Si O2"
_cell_formula_units_Z 15
_cell_length_a 14.621436
_cell_length_b 10.449751
_cell_length_c 10.802894
_cell_angle_alpha 39.283400
_cell_angle_beta 140.279744
_cell_angle_gamma 143.661126
_cell_volume 570.681523
_symmetry_space_group_name_H-M "P -1"
_symmetry_group_IT_number 2
_symmetry_cell_setting 'triclinic'
loop_
_space_group_symop_operation_xyz
x,y,z
-x,-y,-z
loop_
_atom_site_type_symbol
_atom_site_label
_atom_site_fract_x
_atom_site_fract_y
_atom_site_fract_z
Si Si1 0.093696 0.573288 0.745388
Si Si2 0.698227 0.056679 0.942817
Si Si3 0.226571 0.325004 0.212394
Si Si4 0.019354 0.244188 0.293523
Si Si5 0.000000 0.000000 0.000000
Si Si6 0.694611 0.646040 0.127745
Si Si7 0.245131 0.764827 0.412355
Si Si8 0.378827 0.042174 0.577954
O O1 0.978749 0.611223 0.693680
O O2 0.202384 0.816314 0.606330
O O3 0.956475 0.329718 0.712831
O O4 0.229699 0.532635 0.983399
O O5 0.719479 0.152004 0.753387
O O6 0.525065 0.038583 0.808069
O O7 0.857537 0.211153 0.077223
O O8 0.698480 0.814915 0.113575
O O9 0.166528 0.341129 0.274558
O O10 0.378971 0.282211 0.411595
O O11 0.083482 0.099974 0.153461
O O12 0.000000 0.000000 0.500000
O O13 0.185273 0.193672 0.979037
O O14 0.741467 0.455890 0.363443
O O15 0.500000 0.500000 0.000000
O O16 0.367935 0.978619 0.469342
#
# Coordination Sequence:
#
# PCOD9070003 Si02
#       8
#     2   2   2   2   1   2   2   2
#     4  12  25  45  75 104 141 201 257 294 370 461
#     4  12  27  48  72 111 156 193 245 321 379 451
#     4  12  24  44  73 106 143 193 247 313 365 457
#     4  12  25  52  75  99 148 200 254 305 372 452
#     4  12  24  46  76 114 152 194 254 312 386 446
#     4  12  25  45  74 113 160 197 243 314 388 460
#     4  12  25  45  77 113 148 194 248 314 386 448
#     4  12  26  43  72 111 150 187 239 316 387 437
#
# _framework density 26.284361000000001
#
# number of rings (size 3 to 8) (size 9 to 14) (size 15 to 20)
#    0.000    0.000    5.333    5.200    1.867    0.533 
#    0.000    0.667    0.000    0.000    0.000    0.000 
#    0.000    0.000    0.000    0.000    0.000    0.000 
#
# Total GULP energy -83813.852408 kJ/mol
# GULP energy per Si atom -5587.590161 kJ/mol
# Density = 2.622454 g / cm^3
# Si number density = 26.284361 Si / 1000 Ang^3
#
#
#
# Elastic Constant Matrix: (Units=GPa)
#
#
# Indices 1 2 3 4 5 6 
#
# 1 94.4401 26.2092 31.8339 6.8080 15.0876 -8.1263
# 2 26.2092 51.0169 7.3135 10.5845 4.3731 9.1411
# 3 31.8339 7.3135 160.9874 -3.5750 21.1322 19.6708
# 4 6.8080 10.5845 -3.5750 45.0537 2.9162 4.3964
# 5 15.0876 4.3731 21.1322 2.9162 48.5259 -1.1974
# 6 -8.1263 9.1411 19.6708 4.3964 -1.1974 32.5082
#
#
#
# Elastic Compliance Matrix: (Units=1/GPa)
#
#
# Indices 1 2 3 4 5 6 
#
# 1 0.015205 -0.008359 -0.003375 -0.001266 -0.002224 0.008283
# 2 -0.008359 0.026273 0.001664 -0.003769 -0.000514 -0.009994
# 3 -0.003375 0.001664 0.008002 0.001569 -0.002839 -0.006470
# 4 -0.001266 -0.003769 0.001569 0.023832 -0.001468 -0.003483
# 5 -0.002224 -0.000514 -0.002839 -0.001468 0.022728 0.002342
# 6 0.008283 -0.009994 -0.006470 -0.003483 0.002342 0.040115
#
#
# Mechanical properties :
#
#
# Convention : Reuss Voigt Hill
#
# Bulk Modulus (GPa) = 34.08199 48.57307 41.32753
# Shear Modulus (GPa) = 30.10692 41.29009 35.69850
#
# Velocity S-wave (km/s) = 3.38809 3.96776 3.68933
# Velocity P-wave (km/s) = 5.31981 6.28576 5.82285
#
# Compressibility (1/GPa) = 0.02934101
#
# Stress axis : x y z
#
# Youngs Moduli (GPa) = 65.76579 38.06118 124.97478
#
# Poissons Ratio (x) = 0.31814 0.42183
# Poissons Ratio (y) = 0.54971 -0.20797
# Poissons Ratio (z) = 0.22198 -0.06334
#
# Static dielectric constant tensor:
#      x y z
#    x 2.108610 0.017270 -0.020440 
#    y 0.017270 2.022330 0.076760 
#    z -0.020440 0.076760 1.891660 
# 
# From -- ./inp_files/449661.got.cif
#   From: 2010.05.17/outbox.cif.g08.bks.cpg/sg2_225_cif.got.tgz:449661.got - 2010.06.03 11:33:40.
