data_PCOD9070825
_publ_section_title
;
Structure prediction by ZEFSAII (Michael W. Deem and Ramdas Pophale) SiO2 
 PCOD9070825
Probable space group: P -1
;
_chemical_formula_sum "Si O2"
_cell_formula_units_Z 10
_cell_length_a 10.495068
_cell_length_b 10.149719
_cell_length_c 19.822191
_cell_angle_alpha 151.958360
_cell_angle_beta 24.466041
_cell_angle_gamma 137.101148
_cell_volume 382.964785
_symmetry_space_group_name_H-M "P -1"
_symmetry_group_IT_number 2
_symmetry_cell_setting 'triclinic'
loop_
_space_group_symop_operation_xyz
x,y,z
-x,-y,-z
loop_
_atom_site_type_symbol
_atom_site_label
_atom_site_fract_x
_atom_site_fract_y
_atom_site_fract_z
Si Si1 0.271094 0.191840 0.755970
Si Si2 0.916473 0.741432 0.881154
Si Si3 0.389774 0.034510 0.147403
Si Si4 0.640045 0.407364 0.514012
Si Si5 0.112548 0.572502 0.118359
O O1 0.880243 0.115683 0.773295
O O2 0.500000 0.000000 0.500000
O O3 0.000000 0.500000 0.000000
O O4 0.381288 0.321771 0.828459
O O5 0.356896 0.119280 0.982163
O O6 0.237253 0.534677 0.591423
O O7 0.812706 0.535089 0.889998
O O8 0.000000 0.000000 0.000000
O O9 0.286975 0.384877 0.372009
O O10 0.853657 0.058598 0.267608
O O11 0.500000 0.000000 0.000000
O O12 0.257939 0.438860 0.714231
#
# Coordination Sequence:
#
# PCOD9070825 Si02
#       5
#     2   2   2   2   2
#     4  12  25  46  81 120 167 224 275 342 429 500
#     4  12  26  51  82 119 171 225 283 346 426 509
#     4  12  30  51  80 126 171 217 291 351 424 506
#     4  12  26  50  85 115 172 221 286 344 429 503
#     4  12  27  50  84 123 167 222 281 354 424 502
#
# _framework density 26.112061000000001
#
# number of rings (size 3 to 8) (size 9 to 14) (size 15 to 20)
#    0.000    0.000    6.000    2.400    2.800    3.200 
#    0.000    0.000    0.000    0.000    0.000    0.000 
#    0.000    0.000    0.000    0.000    0.000    0.000 
#
# Total GULP energy -55865.160131 kJ/mol
# GULP energy per Si atom -5586.516013 kJ/mol
# Density = 2.605263 g / cm^3
# Si number density = 26.112061 Si / 1000 Ang^3
#
#
#
# Elastic Constant Matrix: (Units=GPa)
#
#
# Indices 1 2 3 4 5 6 
#
# 1 149.5309 46.7079 61.1502 -11.7563 11.2678 -4.6297
# 2 46.7079 150.9148 27.9506 -5.1792 -2.7247 -3.6513
# 3 61.1502 27.9506 131.9958 -12.4851 21.4897 2.1470
# 4 -11.7563 -5.1792 -12.4851 59.1892 -5.3788 8.5809
# 5 11.2678 -2.7247 21.4897 -5.3788 39.2611 -1.1077
# 6 -4.6297 -3.6513 2.1470 8.5809 -1.1077 65.1705
#
#
#
# Elastic Compliance Matrix: (Units=1/GPa)
#
#
# Indices 1 2 3 4 5 6 
#
# 1 0.008896 -0.002077 -0.003515 0.000707 -0.000661 0.000527
# 2 -0.002077 0.007473 -0.000874 0.000160 0.001624 0.000306
# 3 -0.003515 -0.000874 0.010246 0.001099 -0.004533 -0.000858
# 4 0.000707 0.000160 0.001099 0.017756 0.001575 -0.002288
# 5 -0.000661 0.001624 -0.004533 0.001575 0.028483 0.000470
# 6 0.000527 0.000306 -0.000858 -0.002288 0.000470 0.015737
#
#
# Mechanical properties :
#
#
# Convention : Reuss Voigt Hill
#
# Bulk Modulus (GPa) = 73.09448 78.22876 75.66162
# Shear Modulus (GPa) = 47.13208 52.49967 49.81588
#
# Velocity S-wave (km/s) = 4.25313 4.48878 4.37254
# Velocity P-wave (km/s) = 7.22303 7.54251 7.38450
#
# Compressibility (1/GPa) = 0.01368092
#
# Stress axis : x y z
#
# Youngs Moduli (GPa) = 112.41365 133.80977 97.60177
#
# Poissons Ratio (x) = 0.27793 0.34310
# Poissons Ratio (y) = 0.23349 0.08535
# Poissons Ratio (z) = 0.39517 0.11702
#
# Static dielectric constant tensor:
#      x y z
#    x 2.200840 -0.035380 -0.049760 
#    y -0.035380 2.275690 -0.016290 
#    z -0.049760 -0.016290 2.152580 
# 
# From -- ./inp_files/249339.got.cif
#   From: 2010.05.17/outbox.cif.g08.bks.cpg/sg2_125_cif.got.tgz:249339.got - 2010.06.03 11:33:40.
