data_PCOD9070431
_publ_section_title
;
Structure prediction by ZEFSAII (Michael W. Deem and Ramdas Pophale) SiO2 
 PCOD9070431
Probable space group: P -1
;
_chemical_formula_sum "Si O2"
_cell_formula_units_Z 16
_cell_length_a 11.331907
_cell_length_b 5.061276
_cell_length_c 17.386249
_cell_angle_alpha 71.995449
_cell_angle_beta 132.480126
_cell_angle_gamma 84.961017
_cell_volume 633.812007
_symmetry_space_group_name_H-M "P -1"
_symmetry_group_IT_number 2
_symmetry_cell_setting 'triclinic'
loop_
_space_group_symop_operation_xyz
x,y,z
-x,-y,-z
loop_
_atom_site_type_symbol
_atom_site_label
_atom_site_fract_x
_atom_site_fract_y
_atom_site_fract_z
Si Si1 0.624088 0.180826 0.314739
Si Si2 0.091876 0.638079 0.585111
Si Si3 0.812935 0.687583 0.017699
Si Si4 0.331159 0.419725 0.333029
Si Si5 0.424461 0.250473 0.552863
Si Si6 0.588683 0.193366 0.129709
Si Si7 0.211562 0.388294 0.822752
Si Si8 0.784941 0.345688 0.896779
O O1 0.665023 0.902842 0.415702
O O2 0.710692 0.415000 0.346098
O O3 0.677312 0.056188 0.263160
O O4 0.000000 0.000000 0.500000
O O5 0.093463 0.549664 0.682683
O O6 0.000000 0.500000 0.500000
O O7 0.807754 0.003766 0.954414
O O8 0.609871 0.760107 0.946045
O O9 0.876511 0.439119 0.999789
O O10 0.893963 0.571835 0.148127
O O11 0.301064 0.428899 0.410909
O O12 0.485423 0.546039 0.387115
O O13 0.415667 0.396822 0.205153
O O14 0.412675 0.058599 0.380190
O O15 0.809727 0.395525 0.812221
O O16 0.637580 0.481419 0.118222
O O17 0.687232 0.964826 0.125353
#
# Coordination Sequence:
#
# PCOD9070431 Si02
#       8
#     2   2   2   2   2   2   2   2
#     4   9  19  33  48  68  93 127 159 187 230 274
#     4  11  23  36  49  64  88 121 161 206 237 258
#     4  11  19  29  45  67  91 121 150 179 221 279
#     4   9  16  28  42  69  98 124 148 178 218 269
#     4   9  17  27  46  65  93 127 155 179 216 274
#     4  10  18  29  46  66  91 117 147 186 224 272
#     4  11  21  33  46  63  88 117 155 192 230 268
#     4  10  19  29  47  70  98 122 147 179 222 279
#
# _framework density 25.244077000000001
#
# number of rings (size 3 to 8) (size 9 to 14) (size 15 to 20)
#    0.000    2.000    0.000    7.500    0.000    5.000 
#    0.000    0.000    0.000    0.000    0.000    0.000 
#    0.000    6.000    0.000    0.000    0.000    0.000 
#
# Total GULP energy -89409.406183 kJ/mol
# GULP energy per Si atom -5588.087886 kJ/mol
# Density = 2.518662 g / cm^3
# Si number density = 25.244077 Si / 1000 Ang^3
#
#
#
# Elastic Constant Matrix: (Units=GPa)
#
#
# Indices 1 2 3 4 5 6 
#
# 1 69.0861 13.4352 34.5938 0.7550 -29.4163 16.6003
# 2 13.4352 157.1750 54.0136 6.0701 -28.0471 5.2690
# 3 34.5938 54.0136 182.5757 -12.0700 -52.0542 13.4630
# 4 0.7550 6.0701 -12.0700 45.4325 3.5310 -9.2958
# 5 -29.4163 -28.0471 -52.0542 3.5310 48.2869 -12.6663
# 6 16.6003 5.2690 13.4630 -9.2958 -12.6663 27.9622
#
#
#
# Elastic Compliance Matrix: (Units=1/GPa)
#
#
# Indices 1 2 3 4 5 6 
#
# 1 0.021354 0.000758 -0.000857 -0.003290 0.010468 -0.008759
# 2 0.000758 0.007472 -0.001535 -0.001716 0.003211 -0.000235
# 3 -0.000857 -0.001535 0.008350 0.002032 0.007684 0.000934
# 4 -0.003290 -0.001716 0.002032 0.024784 -0.000138 0.009475
# 5 0.010468 0.003211 0.007684 -0.000138 0.039123 0.007157
# 6 -0.008759 -0.000235 0.000934 0.009475 0.007157 0.046949
#
#
# Mechanical properties :
#
#
# Convention : Reuss Voigt Hill
#
# Bulk Modulus (GPa) = 29.49159 68.10243 48.79701
# Shear Modulus (GPa) = 30.74967 44.78927 37.76947
#
# Velocity S-wave (km/s) = 3.49391 4.21675 3.87223
# Velocity P-wave (km/s) = 5.29003 7.12349 6.27410
#
# Compressibility (1/GPa) = 0.03390798
#
# Stress axis : x y z
#
# Youngs Moduli (GPa) = 46.82854 133.82992 119.76163
#
# Poissons Ratio (x) = -0.10144 0.10269
# Poissons Ratio (y) = -0.03549 0.18381
# Poissons Ratio (z) = 0.04015 0.20540
#
# Static dielectric constant tensor:
#      x y z
#    x 2.128030 0.041730 0.085050 
#    y 0.041730 1.965120 0.060310 
#    z 0.085050 0.060310 2.237940 
# 
# From -- ./inp_files/571387.got.cif
#   From: 2010.05.17/outbox.cif.g08.bks.cpg/sg2_286_cif.got.tgz:571387.got - 2010.06.03 11:33:40.
