data_PCOD9070313
_publ_section_title
;
Structure prediction by ZEFSAII (Michael W. Deem and Ramdas Pophale) SiO2 
 PCOD9070313
Probable space group: P -1
;
_chemical_formula_sum "Si O2"
_cell_formula_units_Z 16
_cell_length_a 9.257563
_cell_length_b 10.129681
_cell_length_c 9.827913
_cell_angle_alpha 101.206702
_cell_angle_beta 133.230040
_cell_angle_gamma 72.569292
_cell_volume 640.590897
_symmetry_space_group_name_H-M "P -1"
_symmetry_group_IT_number 2
_symmetry_cell_setting 'triclinic'
loop_
_space_group_symop_operation_xyz
x,y,z
-x,-y,-z
loop_
_atom_site_type_symbol
_atom_site_label
_atom_site_fract_x
_atom_site_fract_y
_atom_site_fract_z
Si Si1 0.937460 0.526657 0.308171
Si Si2 0.819992 0.303015 0.876143
Si Si3 0.741563 0.840003 0.909430
Si Si4 0.900302 0.921012 0.530765
Si Si5 0.231673 0.714444 0.859341
Si Si6 0.355706 0.182999 0.862350
Si Si7 0.688516 0.564743 0.684409
Si Si8 0.691564 0.052289 0.684201
O O1 0.752959 0.448137 0.166076
O O2 0.835469 0.683709 0.239169
O O3 0.000000 0.500000 0.500000
O O4 0.131073 0.465190 0.320349
O O5 0.762300 0.464819 0.842153
O O6 0.655906 0.217202 0.709071
O O7 0.867976 0.255421 0.051168
O O8 0.029765 0.241287 0.925108
O O9 0.649499 0.723378 0.745475
O O10 0.752309 0.968346 0.845839
O O11 0.643182 0.884412 0.001085
O O12 0.697307 0.896512 0.321265
O O13 0.849923 0.005306 0.654386
O O14 0.070948 0.786220 0.657054
O O15 0.000000 0.000000 0.500000
O O16 0.437175 0.765399 0.000749
O O17 0.500000 0.500000 0.500000
O O18 0.500000 0.000000 0.500000
#
# Coordination Sequence:
#
# PCOD9070313 Si02
#       8
#     2   2   2   2   2   2   2   2
#     4  12  25  46  73 105 149 187 238 301 366 434
#     4  12  24  47  74 101 145 191 241 301 365 428
#     4  12  25  48  73 105 145 190 244 300 360 432
#     4  12  28  48  71 106 151 192 245 304 359 437
#     4  12  27  47  76 106 148 194 240 301 369 438
#     4  12  28  46  76 108 149 193 243 298 372 436
#     4  12  27  45  77 108 145 192 246 305 367 437
#     4  12  27  47  75 106 143 190 247 300 364 436
#
# _framework density 24.976938000000001
#
# number of rings (size 3 to 8) (size 9 to 14) (size 15 to 20)
#    0.000    0.000    5.000    4.125    7.000    0.500 
#    0.000    0.000    0.000    0.000    0.000    0.000 
#    0.000    0.000    0.000    0.000    0.000    0.000 
#
# Total GULP energy -89505.443425 kJ/mol
# GULP energy per Si atom -5594.090214 kJ/mol
# Density = 2.492009 g / cm^3
# Si number density = 24.976938 Si / 1000 Ang^3
#
#
#
# Elastic Constant Matrix: (Units=GPa)
#
#
# Indices 1 2 3 4 5 6 
#
# 1 121.3373 20.3461 44.7486 -8.6908 -25.8130 27.4842
# 2 20.3461 91.0684 37.8388 3.6776 -29.7975 21.2836
# 3 44.7486 37.8388 133.2709 4.2073 -8.3118 24.5454
# 4 -8.6908 3.6776 4.2073 52.3945 17.2831 -0.1782
# 5 -25.8130 -29.7975 -8.3118 17.2831 50.6089 -1.4417
# 6 27.4842 21.2836 24.5454 -0.1782 -1.4417 38.9051
#
#
#
# Elastic Compliance Matrix: (Units=1/GPa)
#
#
# Indices 1 2 3 4 5 6 
#
# 1 0.012192 0.002753 -0.002939 -0.000353 0.007250 -0.007998
# 2 0.002753 0.018510 -0.003469 -0.004933 0.013149 -0.009417
# 3 -0.002939 -0.003469 0.009792 -0.000427 -0.001853 -0.002274
# 4 -0.000353 -0.004933 -0.000427 0.023025 -0.010935 0.002918
# 5 0.007250 0.013149 -0.001853 -0.010935 0.034346 -0.009923
# 6 -0.007998 -0.009417 -0.002274 0.002918 -0.009923 0.037586
#
#
# Mechanical properties :
#
#
# Convention : Reuss Voigt Hill
#
# Bulk Modulus (GPa) = 30.13617 61.28263 45.70940
# Shear Modulus (GPa) = 32.50474 44.56456 38.53465
#
# Velocity S-wave (km/s) = 3.61139 4.22860 3.93212
# Velocity P-wave (km/s) = 5.42967 6.95919 6.24146
#
# Compressibility (1/GPa) = 0.03318271
#
# Stress axis : x y z
#
# Youngs Moduli (GPa) = 82.01856 54.02584 102.12166
#
# Poissons Ratio (x) = -0.14872 0.30015
# Poissons Ratio (y) = -0.22577 0.35430
# Poissons Ratio (z) = 0.24106 0.18744
#
# Static dielectric constant tensor:
#      x y z
#    x 1.968040 -0.035400 -0.014570 
#    y -0.035400 1.992650 0.054390 
#    z -0.014570 0.054390 2.025800 
# 
# From -- ./inp_files/188029.got.cif
#   From: 2010.05.17/outbox.cif.g08.bks.cpg/sg2_95_cif.got.tgz:188029.got - 2010.06.03 11:33:40.
