data_PCOD9070200
_publ_section_title
;
Structure prediction by ZEFSAII (Michael W. Deem and Ramdas Pophale) SiO2 
 PCOD9070200
Probable space group: P -1
;
_chemical_formula_sum "Si O2"
_cell_formula_units_Z 12
_cell_length_a 12.133716
_cell_length_b 9.184458
_cell_length_c 8.499521
_cell_angle_alpha 84.186269
_cell_angle_beta 111.879037
_cell_angle_gamma 140.489270
_cell_volume 530.682822
_symmetry_space_group_name_H-M "P -1"
_symmetry_group_IT_number 2
_symmetry_cell_setting 'triclinic'
loop_
_space_group_symop_operation_xyz
x,y,z
-x,-y,-z
loop_
_atom_site_type_symbol
_atom_site_label
_atom_site_fract_x
_atom_site_fract_y
_atom_site_fract_z
Si Si1 0.299449 0.980271 0.805034
Si Si2 0.344882 0.289270 0.313949
Si Si3 0.934227 0.505305 0.127740
Si Si4 0.941416 0.975761 0.295424
Si Si5 0.675106 0.522973 0.009688
Si Si6 0.664214 0.039984 0.545744
O O1 0.234738 0.760605 0.858508
O O2 0.338963 0.008456 0.635063
O O3 0.123691 0.920159 0.756121
O O4 0.486080 0.236513 0.958720
O O5 0.500000 0.500000 0.500000
O O6 0.370657 0.400218 0.153822
O O7 0.366699 0.135725 0.346041
O O8 0.126152 0.116393 0.271969
O O9 0.119728 0.692332 0.322567
O O10 0.847250 0.580688 0.043995
O O11 0.000000 0.500000 0.000000
O O12 0.761679 0.695526 0.183215
O O13 0.000000 0.000000 0.500000
O O14 0.500000 0.000000 0.500000
#
# Coordination Sequence:
#
# PCOD9070200 Si02
#       6
#     2   2   2   2   2   2
#     4  12  26  48  71 111 147 195 244 304 370 440
#     4  12  25  48  77 106 147 193 250 303 367 436
#     4  12  27  48  74 106 151 196 245 305 369 440
#     4  12  24  46  74 108 148 188 245 308 365 433
#     4  12  25  48  72 112 146 191 249 303 368 439
#     4  12  27  50  74 106 151 198 245 302 370 440
#
# _framework density 22.612378
#
# number of rings (size 3 to 8) (size 9 to 14) (size 15 to 20)
#    0.000    0.000    5.000    4.000    4.667    0.000 
#    3.000    0.000    0.000    0.000    0.000    0.000 
#    0.000    0.000    0.000    0.000    0.000    0.000 
#
# Total GULP energy -67244.991083 kJ/mol
# GULP energy per Si atom -5603.749257 kJ/mol
# Density = 2.256091 g / cm^3
# Si number density = 22.612378 Si / 1000 Ang^3
#
#
#
# Elastic Constant Matrix: (Units=GPa)
#
#
# Indices 1 2 3 4 5 6 
#
# 1 161.8629 32.3441 33.1588 -7.4186 34.6834 -17.2806
# 2 32.3441 143.9218 65.9485 12.9468 5.0047 -15.7117
# 3 33.1588 65.9485 138.7225 19.1579 -4.6841 -12.4271
# 4 -7.4186 12.9468 19.1579 41.0417 -11.7220 10.1824
# 5 34.6834 5.0047 -4.6841 -11.7220 39.7788 6.5147
# 6 -17.2806 -15.7117 -12.4271 10.1824 6.5147 34.4728
#
#
#
# Elastic Compliance Matrix: (Units=1/GPa)
#
#
# Indices 1 2 3 4 5 6 
#
# 1 0.009250 -0.000102 -0.001652 -0.001941 -0.009873 0.006434
# 2 -0.000102 0.009627 -0.003786 -0.003375 -0.003315 0.004595
# 3 -0.001652 -0.003786 0.010165 -0.003855 0.001660 0.001936
# 4 -0.001941 -0.003375 -0.003855 0.035397 0.014906 -0.017173
# 5 -0.009873 -0.003315 0.001660 0.014906 0.041725 -0.018150
# 6 0.006434 0.004595 0.001936 -0.017173 -0.018150 0.043528
#
#
# Mechanical properties :
#
#
# Convention : Reuss Voigt Hill
#
# Bulk Modulus (GPa) = 55.67103 78.60111 67.13607
# Shear Modulus (GPa) = 29.98335 43.92905 36.95620
#
# Velocity S-wave (km/s) = 3.64534 4.41239 4.04708
# Velocity P-wave (km/s) = 6.51085 7.79709 7.18282
#
# Compressibility (1/GPa) = 0.01796266
#
# Stress axis : x y z
#
# Youngs Moduli (GPa) = 108.10557 103.87916 98.37294
#
# Poissons Ratio (x) = 0.01056 0.16248
# Poissons Ratio (y) = 0.01099 0.37249
# Poissons Ratio (z) = 0.17855 0.39333
#
# Static dielectric constant tensor:
#      x y z
#    x 1.865180 0.050290 0.006860 
#    y 0.050290 1.841610 0.007530 
#    z 0.006860 0.007530 1.809560 
# 
# From -- ./inp_files/148353.got.cif
#   From: 2010.05.17/outbox.cif.g08.bks.cpg/sg2_75_cif.got.tgz:148353.got - 2010.06.03 11:33:40.
