data_PCOD9070455
_publ_section_title
;
Structure prediction by ZEFSAII (Michael W. Deem and Ramdas Pophale) SiO2 
 PCOD9070455
Probable space group: P -1
;
_chemical_formula_sum "Si O2"
_cell_formula_units_Z 15
_cell_length_a 9.739195
_cell_length_b 12.186263
_cell_length_c 9.726776
_cell_angle_alpha 117.820299
_cell_angle_beta 124.517841
_cell_angle_gamma 40.370142
_cell_volume 614.777628
_symmetry_space_group_name_H-M "P -1"
_symmetry_group_IT_number 2
_symmetry_cell_setting 'triclinic'
loop_
_space_group_symop_operation_xyz
x,y,z
-x,-y,-z
loop_
_atom_site_type_symbol
_atom_site_label
_atom_site_fract_x
_atom_site_fract_y
_atom_site_fract_z
Si Si1 0.705888 0.490579 0.117115
Si Si2 0.404888 0.349444 0.566849
Si Si3 0.943937 0.034000 0.652374
Si Si4 0.253975 0.435484 0.118431
Si Si5 0.055841 0.102588 0.157749
Si Si6 0.449308 0.062054 0.352307
Si Si7 0.369986 0.958619 0.826209
Si Si8 0.500000 0.500000 0.500000
O O1 0.679822 0.590814 0.292834
O O2 0.914751 0.291422 0.138190
O O3 0.500000 0.500000 0.000000
O O4 0.700023 0.564631 0.015111
O O5 0.681084 0.198237 0.625053
O O6 0.320670 0.260882 0.406198
O O7 0.364793 0.491845 0.537791
O O8 0.000000 0.000000 0.500000
O O9 0.981273 0.900531 0.700694
O O10 0.128857 0.044406 0.802992
O O11 0.454928 0.245384 0.182846
O O12 0.314195 0.530411 0.294551
O O13 0.000000 0.500000 0.000000
O O14 0.306613 0.015202 0.201603
O O15 0.000000 0.000000 0.000000
O O16 0.645835 0.989285 0.311272
O O17 0.500000 0.000000 0.500000
O O18 0.500000 0.000000 0.000000
#
# Coordination Sequence:
#
# PCOD9070455 Si02
#       8
#     2   2   2   2   2   2   2   1
#     4  12  27  47  76 114 157 208 261 332 404 480
#     4  12  27  48  79 115 160 210 265 337 403 476
#     4  12  24  48  76 107 149 204 266 315 395 471
#     4  12  28  53  79 115 158 209 269 329 410 478
#     4  12  27  48  78 111 153 204 257 328 405 479
#     4  12  25  49  74 112 152 195 263 328 388 477
#     4  12  27  46  74 113 150 200 269 325 396 474
#     4  12  26  52  84 106 164 208 268 328 396 486
#
# _framework density 24.399065
#
# number of rings (size 3 to 8) (size 9 to 14) (size 15 to 20)
#    0.000    0.000    5.333    3.200    5.600    0.533 
#    0.000    0.000    0.000    0.000    0.000    0.000 
#    0.000    0.000    0.000    0.000    0.000    0.000 
#
# Total GULP energy -83505.958355 kJ/mol
# GULP energy per Si atom -5567.063890 kJ/mol
# Density = 2.434353 g / cm^3
# Si number density = 24.399065 Si / 1000 Ang^3
#
#
#
# Elastic Constant Matrix: (Units=GPa)
#
#
# Indices 1 2 3 4 5 6 
#
# 1 175.7788 12.1284 51.4661 -7.8366 -0.9177 18.7280
# 2 12.1284 54.2756 9.5466 -3.1809 -7.8722 -0.3972
# 3 51.4661 9.5466 126.2484 5.0029 -11.7402 10.5216
# 4 -7.8366 -3.1809 5.0029 28.6641 15.9409 0.0108
# 5 -0.9177 -7.8722 -11.7402 15.9409 75.2244 -9.1016
# 6 18.7280 -0.3972 10.5216 0.0108 -9.1016 31.8325
#
#
#
# Elastic Compliance Matrix: (Units=1/GPa)
#
#
# Indices 1 2 3 4 5 6 
#
# 1 0.007115 -0.001174 -0.002775 0.003189 -0.001598 -0.003741
# 2 -0.001174 0.019198 -0.000987 0.000949 0.001856 0.001787
# 3 -0.002775 -0.000987 0.009538 -0.003650 0.002009 -0.000957
# 4 0.003189 0.000949 -0.003650 0.041914 -0.009732 -0.003455
# 5 -0.001598 0.001856 0.002009 -0.009732 0.016450 0.005006
# 6 -0.003741 0.001787 -0.000957 -0.003455 0.005006 0.035386
#
#
# Mechanical properties :
#
#
# Convention : Reuss Voigt Hill
#
# Bulk Modulus (GPa) = 38.49219 55.84278 47.16748
# Shear Modulus (GPa) = 33.75344 46.02165 39.88754
#
# Velocity S-wave (km/s) = 3.72343 4.34776 4.04765
# Velocity P-wave (km/s) = 5.85624 6.93837 6.42015
#
# Compressibility (1/GPa) = 0.02597930
#
# Stress axis : x y z
#
# Youngs Moduli (GPa) = 140.55132 52.08790 104.84497
#
# Poissons Ratio (x) = 0.06115 0.29092
# Poissons Ratio (y) = 0.16501 0.10349
# Poissons Ratio (z) = 0.39000 0.05141
#
# Static dielectric constant tensor:
#      x y z
#    x 1.691350 -0.078330 -0.124830 
#    y -0.078330 1.808430 -0.169620 
#    z -0.124830 -0.169620 1.943800 
# 
# From -- ./inp_files/189515.got.cif
#   From: 2010.05.17/outbox.cif.g08.bks.cpg/sg2_95_cif.got.tgz:189515.got - 2010.06.03 11:33:40.
