data_PCOD9070667
_publ_section_title
;
Structure prediction by ZEFSAII (Michael W. Deem and Ramdas Pophale) SiO2 
 PCOD9070667
Probable space group: P -1
;
_chemical_formula_sum "Si O2"
_cell_formula_units_Z 16
_cell_length_a 15.622025
_cell_length_b 14.997241
_cell_length_c 8.952846
_cell_angle_alpha 132.589744
_cell_angle_beta 46.828881
_cell_angle_gamma 152.409344
_cell_volume 692.966295
_symmetry_space_group_name_H-M "P -1"
_symmetry_group_IT_number 2
_symmetry_cell_setting 'triclinic'
loop_
_space_group_symop_operation_xyz
x,y,z
-x,-y,-z
loop_
_atom_site_type_symbol
_atom_site_label
_atom_site_fract_x
_atom_site_fract_y
_atom_site_fract_z
Si Si1 0.479095 0.432281 0.780790
Si Si2 0.454692 0.905814 0.784576
Si Si3 0.880885 0.221366 0.615743
Si Si4 0.258609 0.955644 0.907708
Si Si5 0.429599 0.638362 0.904428
Si Si6 0.854980 0.993376 0.191824
Si Si7 0.085853 0.498827 0.252656
Si Si8 0.233023 0.492822 0.655414
O O1 0.438263 0.512124 0.814604
O O2 0.303095 0.197073 0.730603
O O3 0.662937 0.515015 0.588998
O O4 0.500000 0.500000 0.000000
O O5 0.393613 0.949279 0.777107
O O6 0.292444 0.674154 0.732937
O O7 0.658548 0.014458 0.632068
O O8 0.500000 0.000000 0.000000
O O9 0.896009 0.376269 0.743577
O O10 0.004825 0.294489 0.696333
O O11 0.962628 0.196231 0.365339
O O12 0.053827 0.722470 0.884697
O O13 0.248990 0.031351 0.856198
O O14 0.359043 0.131903 0.101267
O O15 0.323871 0.553630 0.777342
O O16 0.295980 0.611153 0.143015
O O17 0.000000 0.000000 0.000000
O O18 0.000000 0.500000 0.500000
#
# Coordination Sequence:
#
# PCOD9070667 Si02
#       8
#     2   2   2   2   2   2   2   2
#     4  12  26  48  77 104 144 199 252 303 365 438
#     4  12  25  46  72 107 147 194 240 298 376 442
#     4  12  26  44  71 108 148 189 241 303 367 439
#     4  12  25  44  77 104 147 189 246 303 371 427
#     4  12  28  48  73 108 149 194 248 304 371 438
#     4  12  26  48  72 109 147 190 249 307 366 436
#     4  12  26  42  72 112 146 186 243 303 369 437
#     4  12  27  48  75 107 153 194 243 308 374 442
#
# _framework density 23.089147000000001
#
# number of rings (size 3 to 8) (size 9 to 14) (size 15 to 20)
#    0.000    0.000    7.500    1.875    3.500    3.000 
#    0.000    0.625    0.000    0.000    0.000    0.000 
#    0.000    0.000    0.000    0.000    0.000    0.000 
#
# Total GULP energy -89313.585330 kJ/mol
# GULP energy per Si atom -5582.099083 kJ/mol
# Density = 2.303660 g / cm^3
# Si number density = 23.089147 Si / 1000 Ang^3
#
#
#
# Elastic Constant Matrix: (Units=GPa)
#
#
# Indices 1 2 3 4 5 6 
#
# 1 135.7525 40.2786 33.2816 22.6748 -16.3796 0.3326
# 2 40.2786 99.4815 -3.7374 13.4015 -17.8043 0.6664
# 3 33.2816 -3.7374 65.3636 -0.7448 -19.4606 -7.9857
# 4 22.6748 13.4015 -0.7448 30.6513 -0.5888 -5.9867
# 5 -16.3796 -17.8043 -19.4606 -0.5888 36.4241 12.2288
# 6 0.3326 0.6664 -7.9857 -5.9867 12.2288 36.5612
#
#
#
# Elastic Compliance Matrix: (Units=1/GPa)
#
#
# Indices 1 2 3 4 5 6 
#
# 1 0.011311 -0.003625 -0.006143 -0.007482 0.000886 -0.002900
# 2 -0.003625 0.013701 0.004784 -0.003533 0.008429 -0.002569
# 3 -0.006143 0.004784 0.022202 0.003543 0.010908 0.001750
# 4 -0.007482 -0.003533 0.003543 0.041562 -0.005763 0.009639
# 5 0.000886 0.008429 0.010908 -0.005763 0.041995 -0.012769
# 6 -0.002900 -0.002569 0.001750 0.009639 -0.012769 0.033656
#
#
# Mechanical properties :
#
#
# Convention : Reuss Voigt Hill
#
# Bulk Modulus (GPa) = 26.84657 48.91590 37.88124
# Shear Modulus (GPa) = 26.76520 36.11230 31.43875
#
# Velocity S-wave (km/s) = 3.40841 3.95908 3.69402
# Velocity P-wave (km/s) = 5.20983 6.49082 5.88528
#
# Compressibility (1/GPa) = 0.03724871
#
# Stress axis : x y z
#
# Youngs Moduli (GPa) = 88.40643 72.98663 45.04072
#
# Poissons Ratio (x) = 0.26456 0.27667
# Poissons Ratio (y) = 0.32046 -0.21549
# Poissons Ratio (z) = 0.54305 -0.34920
#
# Static dielectric constant tensor:
#      x y z
#    x 1.932180 0.150510 -0.105030 
#    y 0.150510 2.162680 -0.231200 
#    z -0.105030 -0.231200 2.079060 
# 
# From -- ./inp_files/315824.got.cif
#   From: 2010.05.17/outbox.cif.g08.bks.cpg/sg2_158_cif.got.tgz:315824.got - 2010.06.03 11:33:40.
