data_PCOD9070717
_publ_section_title
;
Structure prediction by ZEFSAII (Michael W. Deem and Ramdas Pophale) SiO2 
 PCOD9070717
Probable space group: P -1
;
_chemical_formula_sum "Si O2"
_cell_formula_units_Z 12
_cell_length_a 9.975284
_cell_length_b 13.203020
_cell_length_c 5.001350
_cell_angle_alpha 91.711943
_cell_angle_beta 113.162849
_cell_angle_gamma 69.681410
_cell_volume 563.550689
_symmetry_space_group_name_H-M "P -1"
_symmetry_group_IT_number 2
_symmetry_cell_setting 'triclinic'
loop_
_space_group_symop_operation_xyz
x,y,z
-x,-y,-z
loop_
_atom_site_type_symbol
_atom_site_label
_atom_site_fract_x
_atom_site_fract_y
_atom_site_fract_z
Si Si1 0.402813 0.066961 0.184596
Si Si2 0.937512 0.578805 0.701279
Si Si3 0.083867 0.759055 0.715563
Si Si4 0.964143 0.903306 0.119075
Si Si5 0.444590 0.630486 0.978038
Si Si6 0.586730 0.702184 0.598077
O O1 0.406363 0.185394 0.269738
O O2 0.500000 0.000000 0.500000
O O3 0.222374 0.074187 0.036617
O O4 0.500000 0.000000 0.000000
O O5 0.753536 0.632061 0.602490
O O6 0.000000 0.500000 0.500000
O O7 0.988779 0.679210 0.666134
O O8 0.000000 0.500000 0.000000
O O9 0.016923 0.859657 0.459597
O O10 0.260937 0.687204 0.775516
O O11 0.066548 0.804576 0.004904
O O12 0.000000 0.000000 0.000000
O O13 0.471560 0.691370 0.271901
O O14 0.500000 0.500000 0.000000
O O15 0.545616 0.651405 0.823680
#
# Coordination Sequence:
#
# PCOD9070717 Si02
#       6
#     2   2   2   2   2   2
#     4  12  28  48  77 107 145 191 249 310 371 435
#     4  12  25  45  75 106 142 191 241 302 369 437
#     4  12  26  48  73 106 150 189 242 304 365 441
#     4  12  28  49  74 107 144 192 249 303 373 435
#     4  12  27  47  74 109 151 196 243 296 371 442
#     4  12  26  47  73 108 148 189 247 303 365 444
#
# _framework density 21.293557
#
# number of rings (size 3 to 8) (size 9 to 14) (size 15 to 20)
#    0.000    0.000    1.667    8.000    9.333    0.000 
#    0.000    0.000    0.000    0.000    0.000    0.000 
#    0.000    0.000    0.000    0.000    0.000    0.000 
#
# Total GULP energy -66933.710144 kJ/mol
# GULP energy per Si atom -5577.809179 kJ/mol
# Density = 2.124509 g / cm^3
# Si number density = 21.293557 Si / 1000 Ang^3
#
#
#
# Elastic Constant Matrix: (Units=GPa)
#
#
# Indices 1 2 3 4 5 6 
#
# 1 152.3694 13.5400 38.6619 -27.2706 -9.5183 -14.9743
# 2 13.5400 275.9221 36.7654 35.2398 5.9299 45.2358
# 3 38.6619 36.7654 128.3500 -4.2279 -20.3112 3.3033
# 4 -27.2706 35.2398 -4.2279 51.0526 -12.4992 0.2423
# 5 -9.5183 5.9299 -20.3112 -12.4992 50.0314 1.0116
# 6 -14.9743 45.2358 3.3033 0.2423 1.0116 63.4131
#
#
#
# Elastic Compliance Matrix: (Units=1/GPa)
#
#
# Indices 1 2 3 4 5 6 
#
# 1 0.008723 -0.001599 -0.001620 0.006274 0.002694 0.003218
# 2 -0.001599 0.005308 -0.001555 -0.005316 -0.002812 -0.004018
# 3 -0.001620 -0.001555 0.009454 0.002023 0.004217 0.000160
# 4 0.006274 -0.005316 0.002023 0.029160 0.009831 0.004900
# 5 0.002694 -0.002812 0.004217 0.009831 0.024961 0.001986
# 6 0.003218 -0.004018 0.000160 0.004900 0.001986 0.019337
#
#
# Mechanical properties :
#
#
# Convention : Reuss Voigt Hill
#
# Bulk Modulus (GPa) = 71.74691 81.61956 76.68323
# Shear Modulus (GPa) = 44.98944 64.07771 54.53357
#
# Velocity S-wave (km/s) = 4.60153 5.49162 5.06616
# Velocity P-wave (km/s) = 7.87397 8.86704 8.38522
#
# Compressibility (1/GPa) = 0.01393788
#
# Stress axis : x y z
#
# Youngs Moduli (GPa) = 114.63430 188.39334 105.77076
#
# Poissons Ratio (x) = 0.30124 0.17130
# Poissons Ratio (y) = 0.18330 0.16452
# Poissons Ratio (z) = 0.18565 0.29304
#
# Static dielectric constant tensor:
#      x y z
#    x 1.693650 0.003880 0.025870 
#    y 0.003880 1.604090 -0.015890 
#    z 0.025870 -0.015890 1.769570 
# 
# From -- ./inp_files/24781.got.cif
#   From: 2010.05.17/outbox.cif.g08.bks.cpg/sg2_13_cif.got.tgz:24781.got - 2010.06.03 11:33:40.
