data_PCOD9070514
_publ_section_title
;
Structure prediction by ZEFSAII (Michael W. Deem and Ramdas Pophale) SiO2 
 PCOD9070514
Probable space group: P -1
;
_chemical_formula_sum "Si O2"
_cell_formula_units_Z 12
_cell_length_a 9.312104
_cell_length_b 8.881503
_cell_length_c 17.286614
_cell_angle_alpha 33.717331
_cell_angle_beta 118.495867
_cell_angle_gamma 96.630475
_cell_volume 569.770557
_symmetry_space_group_name_H-M "P -1"
_symmetry_group_IT_number 2
_symmetry_cell_setting 'triclinic'
loop_
_space_group_symop_operation_xyz
x,y,z
-x,-y,-z
loop_
_atom_site_type_symbol
_atom_site_label
_atom_site_fract_x
_atom_site_fract_y
_atom_site_fract_z
Si Si1 0.716854 0.678436 0.173180
Si Si2 0.475249 0.055704 0.562182
Si Si3 0.068068 0.766192 0.191355
Si Si4 0.885265 0.893919 0.795222
Si Si5 0.993472 0.237448 0.558662
Si Si6 0.377445 0.689412 0.810065
O O1 0.799287 0.424414 0.374644
O O2 0.698160 0.511892 0.163886
O O3 0.883010 0.751040 0.174036
O O4 0.500000 0.000000 0.000000
O O5 0.264336 0.403382 0.376544
O O6 0.500000 0.000000 0.500000
O O7 0.659584 0.055035 0.641423
O O8 0.483111 0.767442 0.737047
O O9 0.112568 0.934820 0.199149
O O10 0.000000 0.000000 0.000000
O O11 0.993002 0.976160 0.724028
O O12 0.000000 0.500000 0.000000
O O13 0.000000 0.500000 0.500000
O O14 0.187223 0.042263 0.638390
O O15 0.500000 0.500000 0.000000
#
# Coordination Sequence:
#
# PCOD9070514 Si02
#       6
#     2   2   2   2   2   2
#     4  12  28  47  74 106 147 192 246 304 364 434
#     4  12  27  49  75 108 149 193 242 301 371 437
#     4  12  29  47  72 109 147 193 246 299 370 437
#     4  12  27  47  77 108 149 191 244 304 368 438
#     4  12  24  49  76 106 144 190 247 304 363 434
#     4  12  27  46  76 108 144 191 250 304 365 434
#
# _framework density 21.061108999999998
#
# number of rings (size 3 to 8) (size 9 to 14) (size 15 to 20)
#    0.000    0.000    3.333    5.000   14.000    0.000 
#    0.000    0.000    0.000    0.000    0.000    0.000 
#    0.000    0.000    0.000    0.000    0.000    0.000 
#
# Total GULP energy -67206.818294 kJ/mol
# GULP energy per Si atom -5600.568191 kJ/mol
# Density = 2.101317 g / cm^3
# Si number density = 21.061109 Si / 1000 Ang^3
#
#
#
# Elastic Constant Matrix: (Units=GPa)
#
#
# Indices 1 2 3 4 5 6 
#
# 1 132.8052 64.6176 52.6610 0.8496 -7.3582 -1.6738
# 2 64.6176 211.3914 71.5577 15.1391 9.2834 0.2634
# 3 52.6610 71.5577 145.3835 10.1622 -4.9156 -12.4027
# 4 0.8496 15.1391 10.1622 45.6256 -8.8746 -0.2992
# 5 -7.3582 9.2834 -4.9156 -8.8746 54.3509 1.4777
# 6 -1.6738 0.2634 -12.4027 -0.2992 1.4777 39.1661
#
#
#
# Elastic Compliance Matrix: (Units=1/GPa)
#
#
# Indices 1 2 3 4 5 6 
#
# 1 0.009714 -0.002320 -0.002455 0.001472 0.001740 -0.000401
# 2 -0.002320 0.006456 -0.002336 -0.001959 -0.001925 -0.000825
# 3 -0.002455 -0.002336 0.009256 -0.001096 0.000648 0.002809
# 4 0.001472 -0.001959 -0.001096 0.023619 0.004298 -0.000253
# 5 0.001740 -0.001925 0.000648 0.004298 0.019735 -0.000419
# 6 -0.000401 -0.000825 0.002809 -0.000253 -0.000419 0.026424
#
#
# Mechanical properties :
#
#
# Convention : Reuss Voigt Hill
#
# Bulk Modulus (GPa) = 89.25208 96.36142 92.80675
# Shear Modulus (GPa) = 44.18518 47.87810 46.03164
#
# Velocity S-wave (km/s) = 4.58531 4.77308 4.68014
# Velocity P-wave (km/s) = 8.39661 8.73092 8.56540
#
# Compressibility (1/GPa) = 0.01120422
#
# Stress axis : x y z
#
# Youngs Moduli (GPa) = 102.94503 154.88858 108.04187
#
# Poissons Ratio (x) = 0.35927 0.26526
# Poissons Ratio (y) = 0.23879 0.25240
# Poissons Ratio (z) = 0.25274 0.36184
#
# Static dielectric constant tensor:
#      x y z
#    x 1.775820 -0.014710 -0.027360 
#    y -0.014710 1.718480 0.013600 
#    z -0.027360 0.013600 1.731750 
# 
# From -- ./inp_files/147336.got.cif
#   From: 2010.05.17/outbox.cif.g08.bks.cpg/sg2_74_cif.got.tgz:147336.got - 2010.06.03 11:33:40.
