data_PCOD9070803
_publ_section_title
;
Structure prediction by ZEFSAII (Michael W. Deem and Ramdas Pophale) SiO2 
 PCOD9070803
Probable space group: P -1
;
_chemical_formula_sum "Si O2"
_cell_formula_units_Z 16
_cell_length_a 8.726171
_cell_length_b 11.869300
_cell_length_c 17.209847
_cell_angle_alpha 147.779189
_cell_angle_beta 130.201550
_cell_angle_gamma 51.796846
_cell_volume 714.332266
_symmetry_space_group_name_H-M "P -1"
_symmetry_group_IT_number 2
_symmetry_cell_setting 'triclinic'
loop_
_space_group_symop_operation_xyz
x,y,z
-x,-y,-z
loop_
_atom_site_type_symbol
_atom_site_label
_atom_site_fract_x
_atom_site_fract_y
_atom_site_fract_z
Si Si1 0.085501 0.297453 0.359435
Si Si2 0.205340 0.008353 0.618976
Si Si3 0.832889 0.655580 0.865034
Si Si4 0.809338 0.085442 0.044267
Si Si5 0.562468 0.549212 0.849961
Si Si6 0.461412 0.143001 0.493173
Si Si7 0.736137 0.428664 0.552758
Si Si8 0.719765 0.511892 0.041175
O O1 0.252826 0.153675 0.383677
O O2 0.161141 0.412286 0.374852
O O3 0.000000 0.500000 0.500000
O O4 0.913425 0.169775 0.202325
O O5 0.376071 0.936198 0.567008
O O6 0.215018 0.830656 0.587144
O O7 0.233884 0.243928 0.795050
O O8 0.000000 0.000000 0.500000
O O9 0.720132 0.642093 0.901032
O O10 0.794094 0.473331 0.686202
O O11 0.077465 0.632428 0.940620
O O12 0.727416 0.873675 0.916809
O O13 0.623143 0.275029 0.073610
O O14 0.000000 0.000000 0.000000
O O15 0.473242 0.379758 0.668149
O O16 0.690871 0.444380 0.903835
O O17 0.500000 0.000000 0.500000
O O18 0.500000 0.500000 0.500000
O O19 0.500000 0.500000 0.000000
#
# Coordination Sequence:
#
# PCOD9070803 Si02
#       8
#     2   2   2   2   2   2   2   2
#     4  12  27  48  72 109 145 195 250 308 376 445
#     4  12  26  48  75 109 145 202 247 304 376 439
#     4  12  26  49  71 108 149 197 249 313 370 450
#     4  12  27  45  75 104 147 191 246 310 381 443
#     4  12  26  49  70 108 148 194 249 305 374 447
#     4  12  27  47  73 106 149 189 247 308 374 449
#     4  12  25  46  77 102 153 191 256 307 371 445
#     4  12  28  46  76 110 154 197 253 306 378 445
#
# _framework density 22.398540000000001
#
# number of rings (size 3 to 8) (size 9 to 14) (size 15 to 20)
#    0.000    0.000    6.250    2.250    8.750    1.000 
#    0.000    0.000    0.000    0.000    0.000    0.000 
#    0.000    0.000    0.000    0.000    0.000    0.000 
#
# Total GULP energy -89397.553196 kJ/mol
# GULP energy per Si atom -5587.347075 kJ/mol
# Density = 2.234756 g / cm^3
# Si number density = 22.398540 Si / 1000 Ang^3
#
#
#
# Elastic Constant Matrix: (Units=GPa)
#
#
# Indices 1 2 3 4 5 6 
#
# 1 63.3771 1.4635 -20.3792 -6.1824 -7.7332 0.3023
# 2 1.4635 109.7906 -4.0289 -7.1609 5.6759 -11.9377
# 3 -20.3792 -4.0289 72.9975 -1.5306 -0.5933 -8.8437
# 4 -6.1824 -7.1609 -1.5306 47.2230 2.6556 6.4635
# 5 -7.7332 5.6759 -0.5933 2.6556 36.6881 -0.8383
# 6 0.3023 -11.9377 -8.8437 6.4635 -0.8383 45.5384
#
#
#
# Elastic Compliance Matrix: (Units=1/GPa)
#
#
# Indices 1 2 3 4 5 6 
#
# 1 0.018131 -0.000030 0.005215 0.002240 0.003763 0.000636
# 2 -0.000030 0.009565 0.000832 0.001220 -0.001504 0.002468
# 3 0.005215 0.000832 0.015606 0.000818 0.001235 0.003121
# 4 0.002240 0.001220 0.000818 0.022128 -0.001367 -0.002702
# 5 0.003763 -0.001504 0.001235 -0.001367 0.028414 0.000538
# 6 0.000636 0.002468 0.003121 -0.002702 0.000538 0.023602
#
#
# Mechanical properties :
#
#
# Convention : Reuss Voigt Hill
#
# Bulk Modulus (GPa) = 18.07154 22.25289 20.16221
# Shear Modulus (GPa) = 40.36942 43.83055 42.09999
#
# Velocity S-wave (km/s) = 4.24998 4.42843 4.34012
# Velocity P-wave (km/s) = 5.67176 6.00870 5.84266
#
# Compressibility (1/GPa) = 0.05533564
#
# Stress axis : x y z
#
# Youngs Moduli (GPa) = 55.15534 104.54867 64.07745
#
# Poissons Ratio (x) = 0.00310 -0.33414
# Poissons Ratio (y) = 0.00163 -0.05331
# Poissons Ratio (z) = -0.28761 -0.08699
#
# Static dielectric constant tensor:
#      x y z
#    x 1.907830 -0.080290 -0.068210 
#    y -0.080290 1.721610 -0.092840 
#    z -0.068210 -0.092840 1.561340 
# 
# From -- ./inp_files/279134.got.cif
#   From: 2010.05.17/outbox.cif.g08.bks.cpg/sg2_140_cif.got.tgz:279134.got - 2010.06.03 11:33:40.
