data_PCOD9070053
_publ_section_title
;
Structure prediction by ZEFSAII (Michael W. Deem and Ramdas Pophale) SiO2 
 PCOD9070053
Probable space group: P -1
;
_chemical_formula_sum "Si O2"
_cell_formula_units_Z 15
_cell_length_a 20.333197
_cell_length_b 9.335518
_cell_length_c 9.293681
_cell_angle_alpha 46.226269
_cell_angle_beta 151.035421
_cell_angle_gamma 128.812845
_cell_volume 615.715109
_symmetry_space_group_name_H-M "P -1"
_symmetry_group_IT_number 2
_symmetry_cell_setting 'triclinic'
loop_
_space_group_symop_operation_xyz
x,y,z
-x,-y,-z
loop_
_atom_site_type_symbol
_atom_site_label
_atom_site_fract_x
_atom_site_fract_y
_atom_site_fract_z
Si Si1 0.284670 0.526820 0.691319
Si Si2 0.642816 0.444135 0.749744
Si Si3 0.991769 0.467906 0.678094
Si Si4 0.210238 0.157321 0.146001
Si Si5 0.774599 0.305622 0.848309
Si Si6 0.000000 0.000000 0.000000
Si Si7 0.643431 0.901831 0.827165
Si Si8 0.639373 0.133371 0.190523
O O1 0.157265 0.481109 0.586239
O O2 0.231721 0.619170 0.378986
O O3 0.372714 0.699678 0.825351
O O4 0.351939 0.317499 0.944713
O O5 0.500000 0.500000 0.500000
O O6 0.744408 0.629420 0.853286
O O7 0.676575 0.248144 0.036479
O O8 0.901609 0.397350 0.117428
O O9 0.000000 0.500000 0.500000
O O10 0.006308 0.235196 0.900659
O O11 0.313283 0.118446 0.242950
O O12 0.237595 0.002528 0.437733
O O13 0.054632 0.085229 0.880876
O O14 0.647086 0.395939 0.624772
O O15 0.500000 0.000000 0.500000
O O16 0.753305 0.068419 0.981213
O O17 0.500000 0.000000 0.000000
#
# Coordination Sequence:
#
# PCOD9070053 Si02
#       8
#     2   2   2   2   2   1   2   2
#     4  12  27  49  75 112 161 205 259 327 398 463
#     4  12  25  45  72 110 151 196 262 316 377 468
#     4  12  26  49  80 114 156 205 267 324 390 476
#     4  12  24  47  73 112 149 202 256 317 386 462
#     4  12  28  46  76 115 153 207 257 325 401 461
#     4  12  24  44  80 108 156 192 262 318 380 458
#     4  12  28  49  76 112 162 207 259 325 400 469
#     4  12  25  43  78 108 149 201 255 314 386 467
#
# _framework density 24.361917999999999
#
# number of rings (size 3 to 8) (size 9 to 14) (size 15 to 20)
#    0.000    0.000    6.667    2.800    0.000    4.267 
#    0.000    0.000    0.000    0.000    0.000    0.000 
#    0.000    0.000    0.000    0.000    0.000    0.000 
#
# Total GULP energy -83745.618565 kJ/mol
# GULP energy per Si atom -5583.041238 kJ/mol
# Density = 2.430647 g / cm^3
# Si number density = 24.361918 Si / 1000 Ang^3
#
#
#
# Elastic Constant Matrix: (Units=GPa)
#
#
# Indices 1 2 3 4 5 6 
#
# 1 130.8466 39.5633 8.6608 8.4833 -6.7491 -2.7438
# 2 39.5633 217.3107 45.7208 1.1579 -19.3481 -31.8678
# 3 8.6608 45.7208 69.5783 -14.5020 -5.9231 -20.4544
# 4 8.4833 1.1579 -14.5020 47.4518 -4.1817 1.1624
# 5 -6.7491 -19.3481 -5.9231 -4.1817 40.4395 0.6076
# 6 -2.7438 -31.8678 -20.4544 1.1624 0.6076 50.7744
#
#
#
# Elastic Compliance Matrix: (Units=1/GPa)
#
#
# Indices 1 2 3 4 5 6 
#
# 1 0.008221 -0.001424 -0.000561 -0.001550 0.000458 -0.000646
# 2 -0.001424 0.006056 -0.003036 -0.000696 0.002106 0.002492
# 3 -0.000561 -0.003036 0.019588 0.006184 0.001875 0.005791
# 4 -0.001550 -0.000696 0.006184 0.023464 0.002719 0.001401
# 5 0.000458 0.002106 0.001875 0.002719 0.026342 0.001724
# 6 -0.000646 0.002492 0.005791 0.001401 0.001724 0.023504
#
#
# Mechanical properties :
#
#
# Convention : Reuss Voigt Hill
#
# Bulk Modulus (GPa) = 41.97689 67.29169 54.63429
# Shear Modulus (GPa) = 39.94910 49.31919 44.63415
#
# Velocity S-wave (km/s) = 4.05386 4.50426 4.28498
# Velocity P-wave (km/s) = 6.25936 7.39816 6.85246
#
# Compressibility (1/GPa) = 0.02382263
#
# Stress axis : x y z
#
# Youngs Moduli (GPa) = 121.64075 165.11612 51.05130
#
# Poissons Ratio (x) = 0.23517 0.02866
# Poissons Ratio (y) = 0.17325 0.15498
# Poissons Ratio (z) = 0.06829 0.50124
#
# Static dielectric constant tensor:
#      x y z
#    x 1.938140 0.016710 0.086040 
#    y 0.016710 1.881990 -0.052980 
#    z 0.086040 -0.052980 2.083650 
# 
# From -- ./inp_files/544052.got.cif
#   From: 2010.05.17/outbox.cif.g08.bks.cpg/sg2_273_cif.got.tgz:544052.got - 2010.06.03 11:33:40.
