data_PCOD9070954
_publ_section_title
;
Structure prediction by ZEFSAII (Michael W. Deem and Ramdas Pophale) SiO2 
 PCOD9070954
Probable space group: P -1
;
_chemical_formula_sum "Si O2"
_cell_formula_units_Z 11
_cell_length_a 8.735114
_cell_length_b 12.110503
_cell_length_c 9.412880
_cell_angle_alpha 87.476758
_cell_angle_beta 30.426973
_cell_angle_gamma 102.194584
_cell_volume 438.457152
_symmetry_space_group_name_H-M "P -1"
_symmetry_group_IT_number 2
_symmetry_cell_setting 'triclinic'
loop_
_space_group_symop_operation_xyz
x,y,z
-x,-y,-z
loop_
_atom_site_type_symbol
_atom_site_label
_atom_site_fract_x
_atom_site_fract_y
_atom_site_fract_z
Si Si1 0.887367 0.531642 0.234343
Si Si2 0.500000 0.000000 0.000000
Si Si3 0.858291 0.616062 0.760099
Si Si4 0.329758 0.129400 0.675890
Si Si5 0.235836 0.819791 0.949684
Si Si6 0.464787 0.218107 0.877006
O O1 0.500000 0.500000 0.500000
O O2 0.944009 0.446690 0.310734
O O3 0.000000 0.500000 0.000000
O O4 0.162113 0.678094 0.042033
O O5 0.677826 0.917232 0.927362
O O6 0.563280 0.077193 0.096595
O O7 0.126249 0.697313 0.415527
O O8 0.500000 0.500000 0.000000
O O9 0.747287 0.709122 0.925454
O O10 0.583384 0.129405 0.351954
O O11 0.496606 0.194860 0.686356
O O12 0.152268 0.202561 0.742339
O O13 0.000000 0.000000 0.000000
#
# Coordination Sequence:
#
# PCOD9070954 Si02
#       6
#     2   1   2   2   2   2
#     4  12  25  48  80 115 153 203 271 328 385 466
#     4  12  30  48  74 118 158 202 260 316 410 464
#     4  12  27  49  75 113 158 209 257 318 402 467
#     4  12  25  48  74 109 149 202 258 312 392 461
#     4  12  27  47  77 113 155 199 257 329 387 475
#     4  12  27  48  77 110 157 206 262 324 383 477
#
# _framework density 25.087972000000001
#
# number of rings (size 3 to 8) (size 9 to 14) (size 15 to 20)
#    0.000    0.000    1.818    8.727    2.545    5.818 
#    0.000    0.000    0.000    0.000    0.000    0.000 
#    0.000    0.000    0.000    0.000    0.000    0.000 
#
# Total GULP energy -61255.858211 kJ/mol
# GULP energy per Si atom -5568.714383 kJ/mol
# Density = 2.503087 g / cm^3
# Si number density = 25.087972 Si / 1000 Ang^3
#
#
#
# Elastic Constant Matrix: (Units=GPa)
#
#
# Indices 1 2 3 4 5 6 
#
# 1 122.7159 47.3850 32.2361 24.2756 6.7336 6.6781
# 2 47.3850 196.7606 56.4201 10.1667 8.0935 0.4633
# 3 32.2361 56.4201 134.9258 29.9386 -22.6932 1.2313
# 4 24.2756 10.1667 29.9386 51.6179 2.3110 -0.0077
# 5 6.7336 8.0935 -22.6932 2.3110 33.6254 7.3295
# 6 6.6781 0.4633 1.2313 -0.0077 7.3295 28.3494
#
#
#
# Elastic Compliance Matrix: (Units=1/GPa)
#
#
# Indices 1 2 3 4 5 6 
#
# 1 0.010065 -0.001856 -0.001071 -0.003674 -0.001631 -0.001874
# 2 -0.001856 0.006558 -0.003346 0.001697 -0.003905 0.001485
# 3 -0.001071 -0.003346 0.012260 -0.006413 0.010368 -0.002908
# 4 -0.003674 0.001697 -0.006413 0.024769 -0.006303 0.002753
# 5 -0.001631 -0.003905 0.010368 -0.006303 0.040733 -0.010535
# 6 -0.001874 0.001485 -0.002908 0.002753 -0.010535 0.038542
#
#
# Mechanical properties :
#
#
# Convention : Reuss Voigt Hill
#
# Bulk Modulus (GPa) = 61.20482 80.72053 70.96268
# Shear Modulus (GPa) = 33.13085 43.94260 38.53673
#
# Velocity S-wave (km/s) = 3.63793 4.18968 3.92352
# Velocity P-wave (km/s) = 6.48807 7.45985 6.99087
#
# Compressibility (1/GPa) = 0.01633858
#
# Stress axis : x y z
#
# Youngs Moduli (GPa) = 99.35497 152.48395 81.56851
#
# Poissons Ratio (x) = 0.28294 0.08733
# Poissons Ratio (y) = 0.18436 0.27292
# Poissons Ratio (z) = 0.10637 0.51019
#
# Static dielectric constant tensor:
#      x y z
#    x 2.016260 0.110900 -0.029220 
#    y 0.110900 2.375990 0.036600 
#    z -0.029220 0.036600 1.872200 
# 
# From -- ./inp_files/177102.got.cif
#   From: 2010.05.17/outbox.cif.g08.bks.cpg/sg2_89_cif.got.tgz:177102.got - 2010.06.03 11:33:40.
