data_PCOD9070270
_publ_section_title
;
Structure prediction by ZEFSAII (Michael W. Deem and Ramdas Pophale) SiO2 
 PCOD9070270
Probable space group: P -1
;
_chemical_formula_sum "Si O2"
_cell_formula_units_Z 12
_cell_length_a 8.773975
_cell_length_b 19.946985
_cell_length_c 7.919830
_cell_angle_alpha 45.749609
_cell_angle_beta 132.372480
_cell_angle_gamma 149.204470
_cell_volume 497.702848
_symmetry_space_group_name_H-M "P -1"
_symmetry_group_IT_number 2
_symmetry_cell_setting 'triclinic'
loop_
_space_group_symop_operation_xyz
x,y,z
-x,-y,-z
loop_
_atom_site_type_symbol
_atom_site_label
_atom_site_fract_x
_atom_site_fract_y
_atom_site_fract_z
Si Si1 0.702861 0.793613 0.402084
Si Si2 0.622197 0.940681 0.636092
Si Si3 0.344774 0.502657 0.534751
Si Si4 0.285803 0.328652 0.040994
Si Si5 0.762414 0.353733 0.172425
Si Si6 0.607618 0.135288 0.779006
O O1 0.496053 0.655158 0.381900
O O2 0.781389 0.750262 0.695948
O O3 0.506749 0.816411 0.277916
O O4 0.012043 0.933563 0.298883
O O5 0.406576 0.784452 0.817518
O O6 0.549589 0.903451 0.450207
O O7 0.500000 0.000000 0.500000
O O8 0.500000 0.500000 0.500000
O O9 0.987694 0.391181 0.421725
O O10 0.411916 0.474039 0.815630
O O11 0.504885 0.331041 0.102382
O O12 0.963566 0.234223 0.877852
O O13 0.000000 0.500000 0.000000
O O14 0.500000 0.000000 0.000000
#
# Coordination Sequence:
#
# PCOD9070270 Si02
#       6
#     2   2   2   2   2   2
#     4  12  27  48  79 110 147 197 254 306 374 440
#     4  12  26  48  77 108 149 196 248 310 371 440
#     4  12  26  47  74 112 151 194 245 306 373 445
#     4  12  24  46  80 104 152 193 251 300 371 437
#     4  12  26  47  76 108 154 193 247 308 375 441
#     4  12  25  48  75 108 148 192 251 309 370 440
#
# _framework density 24.110769999999999
#
# number of rings (size 3 to 8) (size 9 to 14) (size 15 to 20)
#    0.000    0.000    6.667    3.000    0.000    5.333 
#    0.000    2.500    0.000    0.000    0.000    0.000 
#    0.000    0.000    0.000    0.000    0.000    0.000 
#
# Total GULP energy -66992.304780 kJ/mol
# GULP energy per Si atom -5582.692065 kJ/mol
# Density = 2.405589 g / cm^3
# Si number density = 24.110770 Si / 1000 Ang^3
#
#
#
# Elastic Constant Matrix: (Units=GPa)
#
#
# Indices 1 2 3 4 5 6 
#
# 1 89.5866 60.1259 15.5780 3.2676 31.5089 11.9310
# 2 60.1259 189.4987 45.3583 -24.8133 32.6022 12.7950
# 3 15.5780 45.3583 143.0787 -20.0969 7.1538 3.3612
# 4 3.2676 -24.8133 -20.0969 49.9109 9.3377 11.8085
# 5 31.5089 32.6022 7.1538 9.3377 48.4345 1.3983
# 6 11.9310 12.7950 3.3612 11.8085 1.3983 39.9535
#
#
#
# Elastic Compliance Matrix: (Units=1/GPa)
#
#
# Indices 1 2 3 4 5 6 
#
# 1 0.017180 -0.003834 -0.000272 -0.000793 -0.008305 -0.003354
# 2 -0.003834 0.008341 -0.001220 0.005309 -0.003881 -0.002857
# 3 -0.000272 -0.001220 0.007882 0.002964 -0.000707 -0.001042
# 4 -0.000793 0.005309 0.002964 0.027803 -0.008577 -0.009630
# 5 -0.008305 -0.003881 -0.000707 -0.008577 0.030268 0.005258
# 6 -0.003354 -0.002857 -0.001042 -0.009630 0.005258 0.029695
#
#
# Mechanical properties :
#
#
# Convention : Reuss Voigt Hill
#
# Bulk Modulus (GPa) = 43.95648 73.80980 58.88314
# Shear Modulus (GPa) = 35.86624 47.73323 41.79974
#
# Velocity S-wave (km/s) = 3.86108 4.45426 4.16823
# Velocity P-wave (km/s) = 6.17639 7.55865 6.90221
#
# Compressibility (1/GPa) = 0.02274978
#
# Stress axis : x y z
#
# Youngs Moduli (GPa) = 58.20747 119.88288 126.87590
#
# Poissons Ratio (x) = 0.45967 0.03455
# Poissons Ratio (y) = 0.22318 0.15480
# Poissons Ratio (z) = 0.01585 0.14627
#
# Static dielectric constant tensor:
#      x y z
#    x 1.961100 -0.165940 0.037070 
#    y -0.165940 2.179000 -0.197950 
#    z 0.037070 -0.197950 2.051680 
# 
# From -- ./inp_files/184606.got.cif
#   From: 2010.05.17/outbox.cif.g08.bks.cpg/sg2_93_cif.got.tgz:184606.got - 2010.06.03 11:33:40.
