data_PCOD9070356
_publ_section_title
;
Structure prediction by ZEFSAII (Michael W. Deem and Ramdas Pophale) SiO2 
 PCOD9070356
Probable space group: P -1
;
_chemical_formula_sum "Si O2"
_cell_formula_units_Z 16
_cell_length_a 9.074645
_cell_length_b 12.218131
_cell_length_c 8.876669
_cell_angle_alpha 86.608879
_cell_angle_beta 111.066216
_cell_angle_gamma 130.783360
_cell_volume 673.589017
_symmetry_space_group_name_H-M "P -1"
_symmetry_group_IT_number 2
_symmetry_cell_setting 'triclinic'
loop_
_space_group_symop_operation_xyz
x,y,z
-x,-y,-z
loop_
_atom_site_type_symbol
_atom_site_label
_atom_site_fract_x
_atom_site_fract_y
_atom_site_fract_z
Si Si1 0.862906 0.429612 0.608018
Si Si2 0.027627 0.135461 0.441951
Si Si3 0.363920 0.387502 0.094637
Si Si4 0.487099 0.595498 0.378476
Si Si5 0.921277 0.128728 0.051191
Si Si6 0.511257 0.791405 0.851904
Si Si7 0.298664 0.852058 0.521803
Si Si8 0.856777 0.348188 0.058801
O O1 0.626659 0.359965 0.577925
O O2 0.841802 0.288863 0.633033
O O3 0.000000 0.500000 0.500000
O O4 0.003445 0.578908 0.745350
O O5 0.008071 0.141082 0.251796
O O6 0.850438 0.130036 0.452694
O O7 0.265591 0.271706 0.579564
O O8 0.000000 0.000000 0.500000
O O9 0.356008 0.484768 0.199706
O O10 0.479105 0.329009 0.193141
O O11 0.120614 0.230726 0.000738
O O12 0.500000 0.500000 0.000000
O O13 0.500000 0.500000 0.500000
O O14 0.831239 0.210712 0.012002
O O15 0.740337 0.956377 0.953292
O O16 0.393639 0.812457 0.684516
O O17 0.378051 0.723770 0.965777
O O18 0.500000 0.000000 0.500000
O O19 0.000000 0.500000 0.000000
#
# Coordination Sequence:
#
# PCOD9070356 Si02
#       8
#     2   2   2   2   2   2   2   2
#     4  12  24  47  76 108 147 195 260 317 376 452
#     4  12  28  47  78 112 152 205 255 316 394 461
#     4  12  28  49  77 117 153 206 258 314 392 460
#     4  12  24  47  77 102 153 195 257 318 377 451
#     4  12  26  52  73 112 158 199 258 315 390 465
#     4  12  28  47  77 110 159 200 254 324 382 462
#     4  12  28  47  75 114 152 200 261 318 387 460
#     4  12  26  46  78 113 150 202 257 317 387 454
#
# _framework density 23.753357999999999
#
# number of rings (size 3 to 8) (size 9 to 14) (size 15 to 20)
#    0.000    0.000    5.000    3.750    7.000    1.000 
#    0.000    0.000    0.000    0.000    0.000    0.000 
#    0.000    0.000    0.000    0.000    0.000    0.000 
#
# Total GULP energy -89365.462507 kJ/mol
# GULP energy per Si atom -5585.341407 kJ/mol
# Density = 2.369929 g / cm^3
# Si number density = 23.753358 Si / 1000 Ang^3
#
#
#
# Elastic Constant Matrix: (Units=GPa)
#
#
# Indices 1 2 3 4 5 6 
#
# 1 166.5385 63.4849 32.9673 -14.7141 -16.7714 -1.3168
# 2 63.4849 191.0382 26.3585 -7.6487 -7.7119 14.6350
# 3 32.9673 26.3585 46.7537 -5.8690 -11.8224 -4.0160
# 4 -14.7141 -7.6487 -5.8690 37.3682 4.9691 0.9056
# 5 -16.7714 -7.7119 -11.8224 4.9691 31.9954 -1.5167
# 6 -1.3168 14.6350 -4.0160 0.9056 -1.5167 60.6682
#
#
#
# Elastic Compliance Matrix: (Units=1/GPa)
#
#
# Indices 1 2 3 4 5 6 
#
# 1 0.007851 -0.001985 -0.003636 0.001834 0.002029 0.000432
# 2 -0.001985 0.006353 -0.002436 0.000249 -0.000531 -0.001754
# 3 -0.003636 -0.002436 0.027639 0.001335 0.007631 0.002509
# 4 0.001834 0.000249 0.001335 0.028136 -0.002875 -0.000424
# 5 0.002029 -0.000531 0.007631 -0.002875 0.035532 0.001609
# 6 0.000432 -0.001754 0.002509 -0.000424 0.001609 0.017128
#
#
# Mechanical properties :
#
#
# Convention : Reuss Voigt Hill
#
# Bulk Modulus (GPa) = 38.86752 72.21686 55.54219
# Shear Modulus (GPa) = 33.93741 44.77435 39.35588
#
# Velocity S-wave (km/s) = 3.78397 4.34633 4.07486
# Velocity P-wave (km/s) = 5.95732 7.46031 6.75078
#
# Compressibility (1/GPa) = 0.02572843
#
# Stress axis : x y z
#
# Youngs Moduli (GPa) = 127.37383 157.40158 36.18109
#
# Poissons Ratio (x) = 0.31244 0.13157
# Poissons Ratio (y) = 0.25284 0.08813
# Poissons Ratio (z) = 0.46319 0.38339
#
# Static dielectric constant tensor:
#      x y z
#    x 1.868090 0.090120 0.033390 
#    y 0.090120 1.854540 -0.030250 
#    z 0.033390 -0.030250 2.166870 
# 
# From -- ./inp_files/187809.got.cif
#   From: 2010.05.17/outbox.cif.g08.bks.cpg/sg2_94_cif.got.tgz:187809.got - 2010.06.03 11:33:40.
