data_PCOD9070225
_publ_section_title
;
Structure prediction by ZEFSAII (Michael W. Deem and Ramdas Pophale) SiO2 
 PCOD9070225
Probable space group: P -1
;
_chemical_formula_sum "Si O2"
_cell_formula_units_Z 16
_cell_length_a 12.413430
_cell_length_b 8.365472
_cell_length_c 16.757382
_cell_angle_alpha 50.562151
_cell_angle_beta 33.202976
_cell_angle_gamma 46.852619
_cell_volume 686.546365
_symmetry_space_group_name_H-M "P -1"
_symmetry_group_IT_number 2
_symmetry_cell_setting 'triclinic'
loop_
_space_group_symop_operation_xyz
x,y,z
-x,-y,-z
loop_
_atom_site_type_symbol
_atom_site_label
_atom_site_fract_x
_atom_site_fract_y
_atom_site_fract_z
Si Si1 0.566853 0.917812 0.633048
Si Si2 0.015925 0.379670 0.113129
Si Si3 0.840536 0.873779 0.620850
Si Si4 0.349986 0.313829 0.051889
Si Si5 0.677872 0.593242 0.388106
Si Si6 0.208204 0.834140 0.967227
Si Si7 0.894377 0.588912 0.417015
Si Si8 0.834940 0.099344 0.854855
O O1 0.664427 0.994754 0.626309
O O2 0.404817 0.810640 0.798772
O O3 0.715090 0.743945 0.535325
O O4 0.430952 0.149222 0.604892
O O5 0.847017 0.538863 0.228655
O O6 0.248522 0.306988 0.030906
O O7 0.998128 0.136577 0.202569
O O8 0.000000 0.500000 0.000000
O O9 0.737287 0.807848 0.785536
O O10 0.962083 0.651298 0.564824
O O11 0.000000 0.000000 0.500000
O O12 0.250307 0.578783 0.045205
O O13 0.604180 0.213353 0.922366
O O14 0.500000 0.500000 0.500000
O O15 0.806387 0.511085 0.415977
O O16 0.218902 0.951525 0.006092
O O17 0.000000 0.000000 0.000000
O O18 0.044315 0.730255 0.268744
#
# Coordination Sequence:
#
# PCOD9070225 Si02
#       8
#     2   2   2   2   2   2   2   2
#     4  12  26  45  74 113 144 197 261 305 375 454
#     4  12  27  47  72 111 148 198 254 312 383 456
#     4  12  26  48  76 108 155 199 249 312 383 454
#     4  12  25  49  75 108 152 202 248 316 388 446
#     4  12  26  49  72 103 155 200 247 312 383 444
#     4  12  24  46  76 106 148 194 250 319 372 452
#     4  12  26  49  75 109 145 201 256 318 376 445
#     4  12  24  46  77 106 151 196 254 312 383 451
#
# _framework density 23.305053000000001
#
# number of rings (size 3 to 8) (size 9 to 14) (size 15 to 20)
#    0.000    0.000    3.750    6.750    1.750    2.000 
#    2.250    0.000    0.000    0.000    0.000    0.000 
#    0.000    0.000    0.000    0.000    0.000    0.000 
#
# Total GULP energy -89373.434099 kJ/mol
# GULP energy per Si atom -5585.839631 kJ/mol
# Density = 2.325201 g / cm^3
# Si number density = 23.305053 Si / 1000 Ang^3
#
#
#
# Elastic Constant Matrix: (Units=GPa)
#
#
# Indices 1 2 3 4 5 6 
#
# 1 114.2819 2.5069 34.5208 10.1476 -5.0454 -14.1225
# 2 2.5069 94.2717 22.6079 3.7140 3.1779 9.8433
# 3 34.5208 22.6079 140.6939 15.1171 -8.8754 7.0337
# 4 10.1476 3.7140 15.1171 34.8538 8.0406 -3.3814
# 5 -5.0454 3.1779 -8.8754 8.0406 29.8871 0.9096
# 6 -14.1225 9.8433 7.0337 -3.3814 0.9096 37.3221
#
#
#
# Elastic Compliance Matrix: (Units=1/GPa)
#
#
# Indices 1 2 3 4 5 6 
#
# 1 0.010218 -0.000100 -0.002414 -0.001835 0.001386 0.004148
# 2 -0.000100 0.011374 -0.001731 -0.000332 -0.001569 -0.002703
# 3 -0.002414 -0.001731 0.008754 -0.003970 0.003522 -0.002552
# 4 -0.001835 -0.000332 -0.003970 0.033774 -0.010645 0.003461
# 5 0.001386 -0.001569 0.003522 -0.010645 0.037819 -0.001612
# 6 0.004148 -0.002703 -0.002552 0.003461 -0.001612 0.029910
#
#
# Mechanical properties :
#
#
# Convention : Reuss Voigt Hill
#
# Bulk Modulus (GPa) = 45.75451 52.05762 48.90607
# Shear Modulus (GPa) = 33.86941 39.72004 36.79472
#
# Velocity S-wave (km/s) = 3.81636 4.13286 3.97776
# Velocity P-wave (km/s) = 6.25260 6.72012 6.49057
#
# Compressibility (1/GPa) = 0.02185577
#
# Stress axis : x y z
#
# Youngs Moduli (GPa) = 97.86327 87.92218 114.22842
#
# Poissons Ratio (x) = 0.00883 0.27573
# Poissons Ratio (y) = 0.00983 0.19774
# Poissons Ratio (z) = 0.23623 0.15220
#
# Static dielectric constant tensor:
#      x y z
#    x 1.983610 0.040360 0.055270 
#    y 0.040360 1.995560 -0.081580 
#    z 0.055270 -0.081580 1.966380 
# 
# From -- ./inp_files/566486.got.cif
#   From: 2010.05.17/outbox.cif.g08.bks.cpg/sg2_284_cif.got.tgz:566486.got - 2010.06.03 11:33:40.
