data_PCOD9070703
_publ_section_title
;
Structure prediction by ZEFSAII (Michael W. Deem and Ramdas Pophale) SiO2 
 PCOD9070703
Probable space group: P -1
;
_chemical_formula_sum "Si O2"
_cell_formula_units_Z 16
_cell_length_a 9.719010
_cell_length_b 18.052653
_cell_length_c 11.366397
_cell_angle_alpha 53.292682
_cell_angle_beta 43.149341
_cell_angle_gamma 88.248880
_cell_volume 735.892259
_symmetry_space_group_name_H-M "P -1"
_symmetry_group_IT_number 2
_symmetry_cell_setting 'triclinic'
loop_
_space_group_symop_operation_xyz
x,y,z
-x,-y,-z
loop_
_atom_site_type_symbol
_atom_site_label
_atom_site_fract_x
_atom_site_fract_y
_atom_site_fract_z
Si Si1 0.226444 0.118935 0.343082
Si Si2 0.401951 0.862903 0.709909
Si Si3 0.276398 0.399679 0.567795
Si Si4 0.741576 0.386207 0.614165
Si Si5 0.304398 0.614860 0.626467
Si Si6 0.194915 0.387336 0.368022
Si Si7 0.657890 0.891840 0.280180
Si Si8 0.213509 0.917138 0.176613
O O1 0.428334 0.119883 0.297839
O O2 0.028166 0.107607 0.572377
O O3 0.461402 0.256552 0.988232
O O4 0.000000 0.000000 0.500000
O O5 0.483107 0.837752 0.563241
O O6 0.500000 0.000000 0.500000
O O7 0.048163 0.742324 0.055818
O O8 0.270886 0.507866 0.476308
O O9 0.537261 0.431391 0.436922
O O10 0.294183 0.382092 0.436123
O O11 0.739633 0.361613 0.499795
O O12 0.032975 0.431896 0.437735
O O13 0.526743 0.761412 0.413502
O O14 0.000000 0.500000 0.000000
O O15 0.951356 0.233592 0.613618
O O16 0.500000 0.500000 0.000000
O O17 0.663085 0.984239 0.106436
O O18 0.000000 0.000000 0.000000
O O19 0.500000 0.000000 0.000000
#
# Coordination Sequence:
#
# PCOD9070703 Si02
#       8
#     2   2   2   2   2   2   2   2
#     4  12  27  47  73 106 149 192 241 302 365 434
#     4  12  27  46  74 107 145 191 246 300 362 432
#     4  12  27  46  75 106 145 188 246 300 362 429
#     4  12  27  48  73 108 147 190 241 302 365 430
#     4  12  27  50  74 108 148 193 242 299 365 438
#     4  12  25  45  74 106 144 190 243 296 361 432
#     4  12  25  46  75 104 146 190 244 298 360 432
#     4  12  27  45  72 108 147 192 239 298 366 431
#
# _framework density 21.742312999999999
#
# number of rings (size 3 to 8) (size 9 to 14) (size 15 to 20)
#    0.000    0.000    2.500    7.500    5.250    1.000 
#    0.000    0.000    0.000    0.000    0.000    0.000 
#    0.000    0.000    0.000    0.000    0.000    0.000 
#
# Total GULP energy -89564.366719 kJ/mol
# GULP energy per Si atom -5597.772920 kJ/mol
# Density = 2.169283 g / cm^3
# Si number density = 21.742313 Si / 1000 Ang^3
#
#
#
# Elastic Constant Matrix: (Units=GPa)
#
#
# Indices 1 2 3 4 5 6 
#
# 1 134.2881 8.4761 30.2250 -6.6477 6.8076 -3.4293
# 2 8.4761 76.3101 17.8972 -17.7276 7.3447 -7.3567
# 3 30.2250 17.8972 155.9279 -1.6329 15.2765 -11.3687
# 4 -6.6477 -17.7276 -1.6329 44.4981 -0.8302 4.8397
# 5 6.8076 7.3447 15.2765 -0.8302 40.4871 8.6850
# 6 -3.4293 -7.3567 -11.3687 4.8397 8.6850 44.6665
#
#
#
# Elastic Compliance Matrix: (Units=1/GPa)
#
#
# Indices 1 2 3 4 5 6 
#
# 1 0.007870 -0.000214 -0.001394 0.000996 -0.000794 0.000261
# 2 -0.000214 0.015190 -0.001240 0.005703 -0.002575 0.002052
# 3 -0.001394 -0.001240 0.007244 -0.000721 -0.002749 0.002145
# 4 0.000996 0.005703 -0.000721 0.025071 -0.000012 -0.001882
# 5 -0.000794 -0.002575 -0.002749 -0.000012 0.027748 -0.006579
# 6 0.000261 0.002052 0.002145 -0.001882 -0.006579 0.024775
#
#
# Mechanical properties :
#
#
# Convention : Reuss Voigt Hill
#
# Bulk Modulus (GPa) = 40.63904 53.30255 46.97079
# Shear Modulus (GPa) = 41.05183 46.59220 43.82202
#
# Velocity S-wave (km/s) = 4.34995 4.63420 4.49432
# Velocity P-wave (km/s) = 6.63033 7.29405 6.97009
#
# Compressibility (1/GPa) = 0.02460688
#
# Stress axis : x y z
#
# Youngs Moduli (GPa) = 127.06300 65.83468 138.04739
#
# Poissons Ratio (x) = 0.01411 0.19240
# Poissons Ratio (y) = 0.02724 0.17122
# Poissons Ratio (z) = 0.17709 0.08165
#
# Static dielectric constant tensor:
#      x y z
#    x 1.607950 0.013290 -0.060720 
#    y 0.013290 1.889800 -0.002690 
#    z -0.060720 -0.002690 1.664470 
# 
# From -- ./inp_files/398681.got.cif
#   From: 2010.05.17/outbox.cif.g08.bks.cpg/sg2_200_cif.got.tgz:398681.got - 2010.06.03 11:33:40.
