data_PCOD9070418
_publ_section_title
;
Structure prediction by ZEFSAII (Michael W. Deem and Ramdas Pophale) SiO2 
 PCOD9070418
Probable space group: P -1
;
_chemical_formula_sum "Si O2"
_cell_formula_units_Z 16
_cell_length_a 9.821619
_cell_length_b 31.177332
_cell_length_c 13.675834
_cell_angle_alpha 26.686111
_cell_angle_beta 148.203432
_cell_angle_gamma 155.070397
_cell_volume 775.103634
_symmetry_space_group_name_H-M "P -1"
_symmetry_group_IT_number 2
_symmetry_cell_setting 'triclinic'
loop_
_space_group_symop_operation_xyz
x,y,z
-x,-y,-z
loop_
_atom_site_type_symbol
_atom_site_label
_atom_site_fract_x
_atom_site_fract_y
_atom_site_fract_z
Si Si1 0.917286 0.370597 0.203299
Si Si2 0.322875 0.313041 0.452773
Si Si3 0.213610 0.888154 0.617580
Si Si4 0.220467 0.219204 0.980087
Si Si5 0.175185 0.705614 0.479006
Si Si6 0.462658 0.743142 0.112768
Si Si7 0.873221 0.968422 0.376184
Si Si8 0.765549 0.476224 0.228903
O O1 0.943100 0.331955 0.405313
O O2 0.160195 0.371972 0.275339
O O3 0.547586 0.277773 0.124586
O O4 0.000000 0.500000 0.000000
O O5 0.360565 0.251486 0.692534
O O6 0.664285 0.413259 0.401904
O O7 0.077865 0.213431 0.425213
O O8 0.083007 0.937002 0.511728
O O9 0.500000 0.000000 0.500000
O O10 0.349609 0.826383 0.880832
O O11 0.318056 0.216969 0.932373
O O12 0.096167 0.299841 0.738754
O O13 0.946592 0.085231 0.129462
O O14 0.498184 0.846469 0.390535
O O15 0.257203 0.619698 0.662168
O O16 0.131099 0.603189 0.184843
O O17 0.000000 0.000000 0.500000
O O18 0.500000 0.500000 0.000000
#
# Coordination Sequence:
#
# PCOD9070418 Si02
#       8
#     2   2   2   2   2   2   2   2
#     4  12  25  43  72 102 143 190 229 285 356 415
#     4  12  25  46  70 107 140 183 238 289 346 419
#     4  12  25  48  74  99 143 189 233 292 351 409
#     4  12  25  46  70 103 142 185 235 290 347 419
#     4  12  26  45  72 104 141 185 232 290 355 416
#     4  12  25  44  74 105 139 186 234 286 348 424
#     4  12  25  49  74 102 142 184 236 294 352 413
#     4  12  24  48  73 102 146 182 232 294 349 416
#
# _framework density 20.642402000000001
#
# number of rings (size 3 to 8) (size 9 to 14) (size 15 to 20)
#    0.000    0.000    7.500    2.250    1.750    2.500 
#    4.500    0.000    0.000    0.000    0.000    0.000 
#    0.000    0.000    0.000    0.000    0.000    0.000 
#
# Total GULP energy -89565.008299 kJ/mol
# GULP energy per Si atom -5597.813019 kJ/mol
# Density = 2.059542 g / cm^3
# Si number density = 20.642402 Si / 1000 Ang^3
#
#
#
# Elastic Constant Matrix: (Units=GPa)
#
#
# Indices 1 2 3 4 5 6 
#
# 1 114.0873 18.6175 23.9389 -6.8133 -12.5951 -19.0904
# 2 18.6175 17.7028 10.9441 -1.3829 -2.9946 -5.0437
# 3 23.9389 10.9441 114.6221 3.6762 -6.0786 -18.0129
# 4 -6.8133 -1.3829 3.6762 32.6815 11.6545 -5.8763
# 5 -12.5951 -2.9946 -6.0786 11.6545 33.0367 -13.7762
# 6 -19.0904 -5.0437 -18.0129 -5.8763 -13.7762 30.5126
#
#
#
# Elastic Compliance Matrix: (Units=1/GPa)
#
#
# Indices 1 2 3 4 5 6 
#
# 1 0.012992 -0.009296 0.000239 0.001302 0.008140 0.010659
# 2 -0.009296 0.071044 -0.003724 0.001008 0.004300 0.005865
# 3 0.000239 -0.003724 0.010662 -0.001908 0.005748 0.008056
# 4 0.001302 0.001008 -0.001908 0.035560 -0.011719 0.001412
# 5 0.008140 0.004300 0.005748 -0.011719 0.051554 0.030216
# 6 0.010659 0.005865 0.008056 0.001412 0.030216 0.059082
#
#
# Mechanical properties :
#
#
# Convention : Reuss Voigt Hill
#
# Bulk Modulus (GPa) = 14.46429 39.26812 26.86620
# Shear Modulus (GPa) = 17.27112 32.10694 24.68903
#
# Velocity S-wave (km/s) = 2.89568 3.94812 3.46213
# Velocity P-wave (km/s) = 4.26641 6.31252 5.38749
#
# Compressibility (1/GPa) = 0.06913580
#
# Stress axis : x y z
#
# Youngs Moduli (GPa) = 76.97090 14.07585 93.79143
#
# Poissons Ratio (x) = 0.13084 -0.02243
# Poissons Ratio (y) = 0.71549 0.34932
# Poissons Ratio (z) = -0.01841 0.05243
#
# Static dielectric constant tensor:
#      x y z
#    x 1.722470 0.040830 0.012480 
#    y 0.040830 1.758420 0.022720 
#    z 0.012480 0.022720 1.735650 
# 
# From -- ./inp_files/273102.got.cif
#   From: 2010.05.17/outbox.cif.g08.bks.cpg/sg2_137_cif.got.tgz:273102.got - 2010.06.03 11:33:40.
