data_PCOD9070307
_publ_section_title
;
Structure prediction by ZEFSAII (Michael W. Deem and Ramdas Pophale) SiO2 
 PCOD9070307
Probable space group: P -1
;
_chemical_formula_sum "Si O2"
_cell_formula_units_Z 14
_cell_length_a 12.622945
_cell_length_b 14.597349
_cell_length_c 9.522470
_cell_angle_alpha 150.736455
_cell_angle_beta 134.459934
_cell_angle_gamma 54.902271
_cell_volume 608.904562
_symmetry_space_group_name_H-M "P -1"
_symmetry_group_IT_number 2
_symmetry_cell_setting 'triclinic'
loop_
_space_group_symop_operation_xyz
x,y,z
-x,-y,-z
loop_
_atom_site_type_symbol
_atom_site_label
_atom_site_fract_x
_atom_site_fract_y
_atom_site_fract_z
Si Si1 0.163500 0.073172 0.810689
Si Si2 0.736829 0.861849 0.712732
Si Si3 0.262133 0.759451 0.934436
Si Si4 0.338599 0.467053 0.387460
Si Si5 0.434733 0.671260 0.244415
Si Si6 0.230009 0.661394 0.287818
Si Si7 0.944255 0.582534 0.413982
O O1 0.245299 0.884559 0.618342
O O2 0.149302 0.103037 0.005017
O O3 0.259280 0.257728 0.077017
O O4 0.000000 0.000000 0.500000
O O5 0.579367 0.817171 0.583900
O O6 0.802288 0.695900 0.463959
O O7 0.703762 0.029924 0.805515
O O8 0.338334 0.603610 0.705916
O O9 0.086536 0.721008 0.688961
O O10 0.310652 0.738726 0.113429
O O11 0.500000 0.500000 0.500000
O O12 0.230275 0.553696 0.289801
O O13 0.370218 0.622949 0.271109
O O14 0.500000 0.500000 0.000000
O O15 0.092472 0.576295 0.949627
O O16 0.000000 0.500000 0.500000
#
# Coordination Sequence:
#
# PCOD9070307 Si02
#       7
#     2   2   2   2   2   2   2
#     4  12  28  48  75 109 153 196 248 307 377 441
#     4  12  26  46  74 109 147 192 250 304 370 440
#     4  12  26  46  74 109 147 192 250 304 370 440
#     4  12  28  48  75 109 153 196 248 307 377 441
#     4  12  24  47  73 106 146 194 243 306 367 443
#     4  12  26  46  78 106 146 192 246 304 374 438
#     4  12  24  47  73 106 146 194 243 306 367 443
#
# _framework density 22.992108999999999
#
# number of rings (size 3 to 8) (size 9 to 14) (size 15 to 20)
#    0.000    0.000    4.286    6.000    4.000    3.429 
#    0.000    0.000    0.000    0.000    0.000    0.000 
#    0.000    0.000    0.000    0.000    0.000    0.000 
#
# Total GULP energy -78233.935457 kJ/mol
# GULP energy per Si atom -5588.138247 kJ/mol
# Density = 2.293978 g / cm^3
# Si number density = 22.992109 Si / 1000 Ang^3
#
#
#
# Elastic Constant Matrix: (Units=GPa)
#
#
# Indices 1 2 3 4 5 6 
#
# 1 65.9022 11.7276 7.8334 -2.3300 -2.5398 -4.6088
# 2 11.7276 130.4930 51.6267 11.5271 -2.6003 26.8097
# 3 7.8334 51.6267 83.4616 10.9292 -9.4626 3.1992
# 4 -2.3300 11.5271 10.9292 31.6135 -6.0122 -5.5745
# 5 -2.5398 -2.6003 -9.4626 -6.0122 41.0816 -6.2597
# 6 -4.6088 26.8097 3.1992 -5.5745 -6.2597 37.1035
#
#
#
# Elastic Compliance Matrix: (Units=1/GPa)
#
#
# Indices 1 2 3 4 5 6 
#
# 1 0.016202 -0.002561 -0.000346 0.003464 0.001990 0.004749
# 2 -0.002561 0.013369 -0.007341 -0.005048 -0.003368 -0.010672
# 3 -0.000346 -0.007341 0.017062 -0.001787 0.003817 0.004166
# 4 0.003464 -0.005048 -0.001787 0.037550 0.006654 0.010996
# 5 0.001990 -0.003368 0.003817 0.006654 0.027318 0.007960
# 6 0.004749 -0.010672 0.004166 0.010996 0.007960 0.037888
#
#
# Mechanical properties :
#
#
# Convention : Reuss Voigt Hill
#
# Bulk Modulus (GPa) = 38.26103 46.91468 42.58785
# Shear Modulus (GPa) = 27.99576 35.87101 31.93339
#
# Velocity S-wave (km/s) = 3.49323 3.95415 3.73082
# Velocity P-wave (km/s) = 5.73997 6.42620 6.09276
#
# Compressibility (1/GPa) = 0.02613626
#
# Stress axis : x y z
#
# Youngs Moduli (GPa) = 61.71986 74.79984 58.60946
#
# Poissons Ratio (x) = 0.19157 0.02030
# Poissons Ratio (y) = 0.15807 0.43025
# Poissons Ratio (z) = 0.02138 0.54911
#
# Static dielectric constant tensor:
#      x y z
#    x 2.006890 -0.033510 0.176320 
#    y -0.033510 1.910940 0.014840 
#    z 0.176320 0.014840 2.026230 
# 
# From -- ./inp_files/176908.got.cif
#   From: 2010.05.17/outbox.cif.g08.bks.cpg/sg2_89_cif.got.tgz:176908.got - 2010.06.03 11:33:40.
