data_PCOD9070412
_publ_section_title
;
Structure prediction by ZEFSAII (Michael W. Deem and Ramdas Pophale) SiO2 
 PCOD9070412
Probable space group: P -1
;
_chemical_formula_sum "Si O2"
_cell_formula_units_Z 16
_cell_length_a 21.917676
_cell_length_b 9.700713
_cell_length_c 14.602823
_cell_angle_alpha 32.273529
_cell_angle_beta 148.093810
_cell_angle_gamma 124.408773
_cell_volume 736.937562
_symmetry_space_group_name_H-M "P -1"
_symmetry_group_IT_number 2
_symmetry_cell_setting 'triclinic'
loop_
_space_group_symop_operation_xyz
x,y,z
-x,-y,-z
loop_
_atom_site_type_symbol
_atom_site_label
_atom_site_fract_x
_atom_site_fract_y
_atom_site_fract_z
Si Si1 0.556915 0.691605 0.926655
Si Si2 0.949505 0.785797 0.091644
Si Si3 0.509474 0.679004 0.683674
Si Si4 0.770111 0.833161 0.183784
Si Si5 0.777497 0.163929 0.823995
Si Si6 0.261513 0.268182 0.267286
Si Si7 0.162801 0.333191 0.314669
Si Si8 0.278375 0.792522 0.913372
O O1 0.600889 0.536534 0.969606
O O2 0.421782 0.036674 0.574256
O O3 0.500000 0.500000 0.000000
O O4 0.684107 0.681510 0.137665
O O5 0.074336 0.433744 0.446773
O O6 0.828053 0.829421 0.848106
O O7 0.896903 0.894264 0.066752
O O8 0.000000 0.000000 0.000000
O O9 0.361098 0.727855 0.470557
O O10 0.500000 0.000000 0.500000
O O11 0.581090 0.472166 0.804125
O O12 0.704647 0.045721 0.068970
O O13 0.763543 0.029020 0.977776
O O14 0.802525 0.435617 0.721520
O O15 0.233700 0.265212 0.342151
O O16 0.214154 0.606455 0.977914
O O17 0.206175 0.045976 0.598698
O O18 0.000000 0.500000 0.000000
#
# Coordination Sequence:
#
# PCOD9070412 Si02
#       8
#     2   2   2   2   2   2   2   2
#     4  12  26  46  74 108 145 192 251 302 373 440
#     4  12  26  48  72 105 148 191 250 306 368 441
#     4  12  24  48  72 106 144 189 244 308 368 443
#     4  12  27  45  75 109 145 197 244 307 373 441
#     4  12  25  47  73 105 148 192 249 304 371 441
#     4  12  25  49  75 103 149 196 240 307 370 443
#     4  12  29  48  72 110 148 197 252 304 368 450
#     4  12  27  47  76 108 151 190 247 308 375 437
#
# _framework density 21.711473999999999
#
# number of rings (size 3 to 8) (size 9 to 14) (size 15 to 20)
#    0.000    0.000    5.000    4.125    5.250    3.500 
#    0.000    0.000    0.000    0.000    0.000    0.000 
#    0.000    0.000    0.000    0.000    0.000    0.000 
#
# Total GULP energy -89377.575831 kJ/mol
# GULP energy per Si atom -5586.098489 kJ/mol
# Density = 2.166206 g / cm^3
# Si number density = 21.711474 Si / 1000 Ang^3
#
#
#
# Elastic Constant Matrix: (Units=GPa)
#
#
# Indices 1 2 3 4 5 6 
#
# 1 113.7017 37.2972 -0.0383 -12.3710 -2.9890 -27.9719
# 2 37.2972 116.6843 22.1605 -3.6183 3.6146 -7.3529
# 3 -0.0383 22.1605 30.6226 -10.8203 2.5641 -1.3887
# 4 -12.3710 -3.6183 -10.8203 33.4282 10.2118 1.3507
# 5 -2.9890 3.6146 2.5641 10.2118 44.6914 -11.4922
# 6 -27.9719 -7.3529 -1.3887 1.3507 -11.4922 48.8403
#
#
#
# Elastic Compliance Matrix: (Units=1/GPa)
#
#
# Indices 1 2 3 4 5 6 
#
# 1 0.012547 -0.004460 0.005239 0.005122 0.001497 0.006874
# 2 -0.004460 0.011672 -0.009699 -0.003436 -0.000162 -0.001016
# 3 0.005239 -0.009699 0.046328 0.017430 -0.005210 0.001150
# 4 0.005122 -0.003436 0.017430 0.040047 -0.009650 -0.000467
# 5 0.001497 -0.000162 -0.005210 -0.009650 0.026863 0.007272
# 6 0.006874 -0.001016 0.001150 -0.000467 0.007272 0.026016
#
#
# Mechanical properties :
#
#
# Convention : Reuss Voigt Hill
#
# Bulk Modulus (GPa) = 18.97222 42.20526 30.58874
# Shear Modulus (GPa) = 25.14046 38.83126 31.98586
#
# Velocity S-wave (km/s) = 3.40653 4.23367 3.84242
# Velocity P-wave (km/s) = 4.92239 6.58635 5.81420
#
# Compressibility (1/GPa) = 0.05270865
#
# Stress axis : x y z
#
# Youngs Moduli (GPa) = 79.69718 85.67335 21.58511
#
# Poissons Ratio (x) = 0.38211 -0.11309
# Poissons Ratio (y) = 0.35546 0.20935
# Poissons Ratio (z) = -0.41757 0.83094
#
# Static dielectric constant tensor:
#      x y z
#    x 1.816880 -0.019190 -0.045820 
#    y -0.019190 1.762720 -0.064530 
#    z -0.045820 -0.064530 1.982190 
# 
# From -- ./inp_files/542636.got.cif
#   From: 2010.05.17/outbox.cif.g08.bks.cpg/sg2_272_cif.got.tgz:542636.got - 2010.06.03 11:33:40.
