data_PCOD9070781
_publ_section_title
;
Structure prediction by ZEFSAII (Michael W. Deem and Ramdas Pophale) SiO2 
 PCOD9070781
Probable space group: P -1
;
_chemical_formula_sum "Si O2"
_cell_formula_units_Z 12
_cell_length_a 22.898667
_cell_length_b 23.226073
_cell_length_c 8.114068
_cell_angle_alpha 34.380315
_cell_angle_beta 35.012602
_cell_angle_gamma 11.943720
_cell_volume 501.824851
_symmetry_space_group_name_H-M "P -1"
_symmetry_group_IT_number 2
_symmetry_cell_setting 'triclinic'
loop_
_space_group_symop_operation_xyz
x,y,z
-x,-y,-z
loop_
_atom_site_type_symbol
_atom_site_label
_atom_site_fract_x
_atom_site_fract_y
_atom_site_fract_z
Si Si1 0.995746 0.091403 0.156670
Si Si2 0.861071 0.739599 0.730539
Si Si3 0.554127 0.361021 0.073432
Si Si4 0.669903 0.028482 0.183552
Si Si5 0.600075 0.711636 0.300823
Si Si6 0.092623 0.529659 0.180880
O O1 0.183549 0.009454 0.988253
O O2 0.000000 0.000000 0.500000
O O3 0.681911 0.413125 0.060210
O O4 0.151040 0.906358 0.071009
O O5 0.731507 0.879778 0.520656
O O6 0.138937 0.548793 0.560545
O O7 0.620730 0.998481 0.804218
O O8 0.000000 0.500000 0.000000
O O9 0.548295 0.258901 0.425094
O O10 0.500000 0.500000 0.000000
O O11 0.822904 0.853361 0.073608
O O12 0.335690 0.342258 0.186086
O O13 0.764529 0.590849 0.042047
O O14 0.000000 0.500000 0.500000
#
# Coordination Sequence:
#
# PCOD9070781 Si02
#       6
#     2   2   2   2   2   2
#     4  12  27  48  77 112 146 192 246 302 375 440
#     4  12  25  46  75 102 140 195 244 301 363 429
#     4  12  26  48  77 110 149 191 243 305 374 441
#     4  12  25  48  73 104 151 187 247 305 357 438
#     4  12  25  48  70 108 149 187 247 302 359 442
#     4  12  28  46  72 106 148 197 245 295 365 430
#
# _framework density 23.912725999999999
#
# number of rings (size 3 to 8) (size 9 to 14) (size 15 to 20)
#    0.000    0.000    3.333    6.000    4.667    2.667 
#    0.000    0.000    0.000    0.000    0.000    0.000 
#    0.000    0.000    0.000    0.000    0.000    0.000 
#
# Total GULP energy -67226.856188 kJ/mol
# GULP energy per Si atom -5602.238016 kJ/mol
# Density = 2.385830 g / cm^3
# Si number density = 23.912726 Si / 1000 Ang^3
#
#
#
# Elastic Constant Matrix: (Units=GPa)
#
#
# Indices 1 2 3 4 5 6 
#
# 1 85.9991 15.7853 29.1735 4.9847 -2.5784 21.3711
# 2 15.7853 124.5827 16.4648 6.6026 7.7475 19.9124
# 3 29.1735 16.4648 149.8095 7.1234 11.4061 22.7209
# 4 4.9847 6.6026 7.1234 26.2528 1.4036 8.3592
# 5 -2.5784 7.7475 11.4061 1.4036 30.8361 4.7369
# 6 21.3711 19.9124 22.7209 8.3592 4.7369 69.5277
#
#
#
# Elastic Compliance Matrix: (Units=1/GPa)
#
#
# Indices 1 2 3 4 5 6 
#
# 1 0.013492 -0.001031 -0.002194 -0.000827 0.002731 -0.003221
# 2 -0.001031 0.008661 -0.000281 -0.001236 -0.001826 -0.001799
# 3 -0.002194 -0.000281 0.007599 -0.000977 -0.002660 -0.001430
# 4 -0.000827 -0.001236 -0.000977 0.040084 -0.000630 -0.003849
# 5 0.002731 -0.001826 -0.002660 -0.000630 0.034393 -0.001715
# 6 -0.003221 -0.001799 -0.001430 -0.003849 -0.001715 0.016935
#
#
# Mechanical properties :
#
#
# Convention : Reuss Voigt Hill
#
# Bulk Modulus (GPa) = 43.97257 53.69316 48.83287
# Shear Modulus (GPa) = 36.83126 45.25448 41.04287
#
# Velocity S-wave (km/s) = 3.92884 4.35499 4.14739
# Velocity P-wave (km/s) = 6.24578 6.91306 6.58788
#
# Compressibility (1/GPa) = 0.02274145
#
# Stress axis : x y z
#
# Youngs Moduli (GPa) = 74.11842 115.45942 131.59478
#
# Poissons Ratio (x) = 0.11900 0.28874
# Poissons Ratio (y) = 0.07639 0.03692
# Poissons Ratio (z) = 0.16263 0.03239
#
# Static dielectric constant tensor:
#      x y z
#    x 1.972390 -0.025210 -0.009150 
#    y -0.025210 1.867610 0.021490 
#    z -0.009150 0.021490 1.901790 
# 
# From -- ./inp_files/355402.got.cif
#   From: 2010.05.17/outbox.cif.g08.bks.cpg/sg2_178_cif.got.tgz:355402.got - 2010.06.03 11:33:40.
