data_PCOD9070900
_publ_section_title
;
Structure prediction by ZEFSAII (Michael W. Deem and Ramdas Pophale) SiO2 
 PCOD9070900
Probable space group: P -1
;
_chemical_formula_sum "Si O2"
_cell_formula_units_Z 10
_cell_length_a 8.408008
_cell_length_b 14.151347
_cell_length_c 7.438242
_cell_angle_alpha 66.356178
_cell_angle_beta 143.383403
_cell_angle_gamma 130.061081
_cell_volume 390.869007
_symmetry_space_group_name_H-M "P -1"
_symmetry_group_IT_number 2
_symmetry_cell_setting 'triclinic'
loop_
_space_group_symop_operation_xyz
x,y,z
-x,-y,-z
loop_
_atom_site_type_symbol
_atom_site_label
_atom_site_fract_x
_atom_site_fract_y
_atom_site_fract_z
Si Si1 0.382819 0.356960 0.975312
Si Si2 0.886739 0.093353 0.331683
Si Si3 0.467890 0.371065 0.613629
Si Si4 0.764195 0.995192 0.644647
Si Si5 0.268549 0.711491 0.373876
O O1 0.469158 0.358786 0.840220
O O2 0.033283 0.290599 0.817797
O O3 0.500000 0.500000 0.000000
O O4 0.597898 0.325915 0.309663
O O5 0.111213 0.234628 0.343277
O O6 0.922146 0.112338 0.563615
O O7 0.000000 0.000000 0.500000
O O8 0.500000 0.000000 0.000000
O O9 0.500000 0.500000 0.500000
O O10 0.737699 0.368259 0.742342
O O11 0.556362 0.856815 0.472186
O O12 0.500000 0.000000 0.500000
O O13 0.000000 0.000000 0.000000
#
# Coordination Sequence:
#
# PCOD9070900 Si02
#       5
#     2   2   2   2   2
#     4  12  28  50  76 116 158 204 266 324 392 479
#     4  12  27  49  75 114 156 198 263 321 386 475
#     4  12  28  51  84 115 159 215 260 328 401 465
#     4  12  25  47  78 108 155 203 256 325 395 461
#     4  12  27  50  78 114 157 202 267 325 391 470
#
# _framework density 25.584016999999999
#
# number of rings (size 3 to 8) (size 9 to 14) (size 15 to 20)
#    0.000    0.000    4.000    5.400    2.800    4.000 
#    0.000    0.000    0.000    0.000    0.000    0.000 
#    0.000    0.000    0.000    0.000    0.000    0.000 
#
# Total GULP energy -55810.051990 kJ/mol
# GULP energy per Si atom -5581.005199 kJ/mol
# Density = 2.552579 g / cm^3
# Si number density = 25.584017 Si / 1000 Ang^3
#
#
#
# Elastic Constant Matrix: (Units=GPa)
#
#
# Indices 1 2 3 4 5 6 
#
# 1 208.7657 19.6742 34.5638 -10.0003 -15.7128 -4.2900
# 2 19.6742 144.4597 0.3555 1.4196 -3.1259 15.9204
# 3 34.5638 0.3555 126.4064 -17.7751 5.3414 8.8631
# 4 -10.0003 1.4196 -17.7751 36.1333 4.1265 0.7484
# 5 -15.7128 -3.1259 5.3414 4.1265 36.8110 -13.0778
# 6 -4.2900 15.9204 8.8631 0.7484 -13.0778 59.6195
#
#
#
# Elastic Compliance Matrix: (Units=1/GPa)
#
#
# Indices 1 2 3 4 5 6 
#
# 1 0.005416 -0.000839 -0.001662 0.000343 0.002980 0.001510
# 2 -0.000839 0.007265 0.000350 -0.000240 -0.000535 -0.002167
# 3 -0.001662 0.000350 0.009315 0.004546 -0.003393 -0.002399
# 4 0.000343 -0.000240 0.004546 0.030591 -0.004672 -0.001996
# 5 0.002980 -0.000535 -0.003393 -0.004672 0.032249 0.007994
# 6 0.001510 -0.002167 -0.002399 -0.001996 0.007994 0.019596
#
#
# Mechanical properties :
#
#
# Convention : Reuss Voigt Hill
#
# Bulk Modulus (GPa) = 56.51579 65.42430 60.97005
# Shear Modulus (GPa) = 43.61772 54.84864 49.23318
#
# Velocity S-wave (km/s) = 4.13350 4.63521 4.39153
# Velocity P-wave (km/s) = 6.70219 7.36714 7.04252
#
# Compressibility (1/GPa) = 0.01769417
#
# Stress axis : x y z
#
# Youngs Moduli (GPa) = 184.63681 137.64064 107.34931
#
# Poissons Ratio (x) = 0.11546 0.17844
# Poissons Ratio (y) = 0.15488 -0.03755
# Poissons Ratio (z) = 0.30690 -0.04814
#
# Static dielectric constant tensor:
#      x y z
#    x 2.420230 -0.205820 0.014850 
#    y -0.205820 2.180720 0.004180 
#    z 0.014850 0.004180 2.252520 
# 
# From -- ./inp_files/26580.got.cif
#   From: 2010.05.17/outbox.cif.g08.bks.cpg/sg2_14_cif.got.tgz:26580.got - 2010.06.03 11:33:40.
