data_PCOD9070611
_publ_section_title
;
Structure prediction by ZEFSAII (Michael W. Deem and Ramdas Pophale) SiO2 
 PCOD9070611
Probable space group: P -1
;
_chemical_formula_sum "Si O2"
_cell_formula_units_Z 12
_cell_length_a 9.466649
_cell_length_b 18.388028
_cell_length_c 11.120602
_cell_angle_alpha 154.994183
_cell_angle_beta 35.710393
_cell_angle_gamma 142.929905
_cell_volume 462.279838
_symmetry_space_group_name_H-M "P -1"
_symmetry_group_IT_number 2
_symmetry_cell_setting 'triclinic'
loop_
_space_group_symop_operation_xyz
x,y,z
-x,-y,-z
loop_
_atom_site_type_symbol
_atom_site_label
_atom_site_fract_x
_atom_site_fract_y
_atom_site_fract_z
Si Si1 0.280779 0.626549 0.005128
Si Si2 0.077578 0.823179 0.069546
Si Si3 0.288916 0.484194 0.022726
Si Si4 0.916203 0.052833 0.344624
Si Si5 0.115808 0.781673 0.709790
Si Si6 0.539349 0.853529 0.958637
O O1 0.401557 0.535198 0.890066
O O2 0.264242 0.822193 0.354870
O O3 0.414703 0.686297 0.876810
O O4 0.000000 0.500000 0.000000
O O5 0.112159 0.731624 0.779143
O O6 0.347390 0.872537 0.016229
O O7 0.895411 0.705982 0.116185
O O8 0.942910 0.971219 0.335043
O O9 0.123158 0.621242 0.379617
O O10 0.500000 0.500000 0.000000
O O11 0.197214 0.172314 0.308492
O O12 0.894473 0.886042 0.018556
O O13 0.359635 0.943524 0.757108
#
# Coordination Sequence:
#
# PCOD9070611 Si02
#       6
#     2   2   2   2   2   2
#     4  12  25  43  66 101 135 171 222 273 329 389
#     4   9  19  43  67  93 133 172 220 261 329 392
#     4  12  26  42  63 101 137 173 218 274 329 389
#     4   8  22  41  69  95 126 176 215 272 324 382
#     4   8  21  42  65  97 127 175 217 266 331 387
#     4   9  20  43  66 100 128 171 220 268 324 397
#
# _framework density 25.958302
#
# number of rings (size 3 to 8) (size 9 to 14) (size 15 to 20)
#    2.000    0.000    1.667    2.500    2.333    5.333 
#    6.000    0.000    0.000    0.000    0.000    0.000 
#    0.000    0.000    0.000    0.000    0.000    0.000 
#
# Total GULP energy -66980.698597 kJ/mol
# GULP energy per Si atom -5581.724883 kJ/mol
# Density = 2.589922 g / cm^3
# Si number density = 25.958302 Si / 1000 Ang^3
#
#
#
# Elastic Constant Matrix: (Units=GPa)
#
#
# Indices 1 2 3 4 5 6 
#
# 1 93.8744 22.4221 -4.1622 11.6472 -17.8156 -31.3652
# 2 22.4221 151.1709 1.6550 18.6854 -12.6914 -39.1739
# 3 -4.1622 1.6550 63.3061 6.8232 5.0927 -8.8341
# 4 11.6472 18.6854 6.8232 24.5839 4.0542 -9.2290
# 5 -17.8156 -12.6914 5.0927 4.0542 25.9959 7.1132
# 6 -31.3652 -39.1739 -8.8341 -9.2290 7.1132 47.6842
#
#
#
# Elastic Compliance Matrix: (Units=1/GPa)
#
#
# Indices 1 2 3 4 5 6 
#
# 1 0.016539 0.001922 0.002436 -0.007995 0.010356 0.009816
# 2 0.001922 0.009384 0.001210 -0.006426 0.004678 0.007256
# 3 0.002436 0.001210 0.017293 -0.004630 -0.001822 0.005175
# 4 -0.007995 -0.006426 -0.004630 0.053926 -0.016532 0.001507
# 5 0.010356 0.004678 -0.001822 -0.016532 0.050915 -0.000477
# 6 0.009816 0.007256 0.005175 0.001507 -0.000477 0.034711
#
#
# Mechanical properties :
#
#
# Convention : Reuss Voigt Hill
#
# Bulk Modulus (GPa) = 18.39944 38.68680 28.54312
# Shear Modulus (GPa) = 26.35054 38.88191 32.61623
#
# Velocity S-wave (km/s) = 3.18954 3.87442 3.54854
# Velocity P-wave (km/s) = 4.54617 5.91191 5.27344
#
# Compressibility (1/GPa) = 0.05434949
#
# Stress axis : x y z
#
# Youngs Moduli (GPa) = 60.46426 106.56340 57.82851
#
# Poissons Ratio (x) = -0.20478 -0.14084
# Poissons Ratio (y) = -0.11619 -0.06996
# Poissons Ratio (z) = -0.14726 -0.12892
#
# Static dielectric constant tensor:
#      x y z
#    x 2.079430 -0.013360 0.032000 
#    y -0.013360 2.054200 -0.017760 
#    z 0.032000 -0.017760 2.077060 
# 
# From -- ./inp_files/210185.got.cif
#   From: 2010.05.17/outbox.cif.g08.bks.cpg/sg2_106_cif.got.tgz:210185.got - 2010.06.03 11:33:40.
