data_PCOD9070480
_publ_section_title
;
Structure prediction by ZEFSAII (Michael W. Deem and Ramdas Pophale) SiO2 
 PCOD9070480
Probable space group: P -1
;
_chemical_formula_sum "Si O2"
_cell_formula_units_Z 15
_cell_length_a 17.630646
_cell_length_b 9.702639
_cell_length_c 12.209165
_cell_angle_alpha 41.234219
_cell_angle_beta 150.239549
_cell_angle_gamma 126.942943
_cell_volume 674.706157
_symmetry_space_group_name_H-M "P -1"
_symmetry_group_IT_number 2
_symmetry_cell_setting 'triclinic'
loop_
_space_group_symop_operation_xyz
x,y,z
-x,-y,-z
loop_
_atom_site_type_symbol
_atom_site_label
_atom_site_fract_x
_atom_site_fract_y
_atom_site_fract_z
Si Si1 0.500000 0.000000 0.500000
Si Si2 0.182616 0.280677 0.899389
Si Si3 0.859173 0.649221 0.791801
Si Si4 0.674361 0.966424 0.198260
Si Si5 0.192301 0.328739 0.629059
Si Si6 0.374531 0.663624 0.680246
Si Si7 0.091666 0.940228 0.261967
Si Si8 0.830544 0.385806 0.119782
O O1 0.472911 0.779956 0.651942
O O2 0.691324 0.922751 0.792771
O O3 0.206101 0.346820 0.765444
O O4 0.194350 0.450337 0.908167
O O5 0.010103 0.219339 0.716405
O O6 0.756892 0.776374 0.492479
O O7 0.912910 0.842983 0.808873
O O8 0.783611 0.510791 0.871537
O O9 0.000000 0.500000 0.000000
O O10 0.698506 0.874638 0.160618
O O11 0.749024 0.182042 0.164213
O O12 0.500000 0.000000 0.000000
O O13 0.255588 0.537390 0.543177
O O14 0.016304 0.317551 0.384035
O O15 0.267062 0.829047 0.525613
O O16 0.500000 0.500000 0.000000
O O17 0.000000 0.000000 0.000000
#
# Coordination Sequence:
#
# PCOD9070480 Si02
#       8
#     1   2   2   2   2   2   2   2
#     4  12  26  42  68 112 154 196 240 318 384 438
#     4  12  26  45  79 112 149 200 254 322 383 453
#     4  12  27  49  79 109 153 205 252 311 373 462
#     4  12  32  51  77 111 158 202 253 317 386 461
#     4  12  26  48  77 111 148 201 256 309 382 458
#     4  12  26  45  74 112 155 193 255 324 379 442
#     4  12  24  48  78 113 151 195 261 316 379 456
#     4  12  26  53  77 110 147 203 260 311 384 457
#
# _framework density 22.2319
#
# number of rings (size 3 to 8) (size 9 to 14) (size 15 to 20)
#    0.000    0.000    6.667    1.600    7.467    1.600 
#    0.000    0.000    0.000    0.000    0.000    0.000 
#    0.000    0.000    0.000    0.000    0.000    0.000 
#
# Total GULP energy -83670.733374 kJ/mol
# GULP energy per Si atom -5578.048892 kJ/mol
# Density = 2.218130 g / cm^3
# Si number density = 22.231900 Si / 1000 Ang^3
#
#
#
# Elastic Constant Matrix: (Units=GPa)
#
#
# Indices 1 2 3 4 5 6 
#
# 1 112.7865 62.4371 39.5707 -3.0683 1.1500 13.3410
# 2 62.4371 126.1982 27.0469 -17.8531 11.0346 20.6457
# 3 39.5707 27.0469 122.2885 -19.0578 11.5753 6.0230
# 4 -3.0683 -17.8531 -19.0578 26.1633 8.8181 5.2182
# 5 1.1500 11.0346 11.5753 8.8181 41.5498 -9.8005
# 6 13.3410 20.6457 6.0230 5.2182 -9.8005 55.6252
#
#
#
# Elastic Compliance Matrix: (Units=1/GPa)
#
#
# Indices 1 2 3 4 5 6 
#
# 1 0.014842 -0.008595 -0.005207 -0.010405 0.006059 0.002238
# 2 -0.008595 0.016139 0.003324 0.017529 -0.010531 -0.007788
# 3 -0.005207 0.003324 0.012309 0.014181 -0.008140 -0.004082
# 4 -0.010405 0.017529 0.014181 0.072040 -0.027658 -0.017177
# 5 0.006059 -0.010531 -0.008140 -0.027658 0.037805 0.012592
# 6 0.002238 -0.007788 -0.004082 -0.017177 0.012592 0.024603
#
#
# Mechanical properties :
#
#
# Convention : Reuss Voigt Hill
#
# Bulk Modulus (GPa) = 44.77615 68.82030 56.79823
# Shear Modulus (GPa) = 24.25571 40.14891 32.20231
#
# Velocity S-wave (km/s) = 3.30666 4.25422 3.81001
# Velocity P-wave (km/s) = 5.89601 7.42657 6.70511
#
# Compressibility (1/GPa) = 0.02233332
#
# Stress axis : x y z
#
# Youngs Moduli (GPa) = 67.37827 61.96244 81.24353
#
# Poissons Ratio (x) = 0.53256 0.42302
# Poissons Ratio (y) = 0.57911 -0.27004
# Poissons Ratio (z) = 0.35083 -0.20596
#
# Static dielectric constant tensor:
#      x y z
#    x 1.944760 0.057730 -0.040120 
#    y 0.057730 1.859830 -0.013400 
#    z -0.040120 -0.013400 1.865670 
# 
# From -- ./inp_files/461843.got.cif
#   From: 2010.05.17/outbox.cif.g08.bks.cpg/sg2_231_cif.got.tgz:461843.got - 2010.06.03 11:33:40.
