data_PCOD9070697
_publ_section_title
;
Structure prediction by ZEFSAII (Michael W. Deem and Ramdas Pophale) SiO2 
 PCOD9070697
Probable space group: P -1
;
_chemical_formula_sum "Si O2"
_cell_formula_units_Z 12
_cell_length_a 8.707202
_cell_length_b 17.484631
_cell_length_c 11.284409
_cell_angle_alpha 25.137519
_cell_angle_beta 57.919492
_cell_angle_gamma 58.373393
_cell_volume 613.794936
_symmetry_space_group_name_H-M "P -1"
_symmetry_group_IT_number 2
_symmetry_cell_setting 'triclinic'
loop_
_space_group_symop_operation_xyz
x,y,z
-x,-y,-z
loop_
_atom_site_type_symbol
_atom_site_label
_atom_site_fract_x
_atom_site_fract_y
_atom_site_fract_z
Si Si1 0.957268 0.481811 0.181595
Si Si2 0.329985 0.157617 0.854777
Si Si3 0.529339 0.498790 0.350465
Si Si4 0.848045 0.878596 0.272152
Si Si5 0.354783 0.879322 0.784081
Si Si6 0.001090 0.160573 0.177766
O O1 0.744649 0.457486 0.303733
O O2 0.071616 0.302578 0.438714
O O3 0.991333 0.654434 0.008157
O O4 0.000000 0.500000 0.000000
O O5 0.415354 0.342997 0.573698
O O6 0.240316 0.167948 0.748739
O O7 0.177607 0.136104 0.050181
O O8 0.500000 0.000000 0.000000
O O9 0.500000 0.500000 0.500000
O O10 0.456130 0.687090 0.054201
O O11 0.718713 0.005869 0.232916
O O12 0.000000 0.000000 0.000000
O O13 0.182980 0.846065 0.816522
O O14 0.500000 0.000000 0.500000
O O15 0.000000 0.000000 0.500000
#
# Coordination Sequence:
#
# PCOD9070697 Si02
#       6
#     2   2   2   2   2   2
#     4  12  27  47  72 106 144 188 233 292 356 423
#     4  12  27  45  74 108 142 186 242 296 348 422
#     4  12  25  45  73 104 141 184 240 288 350 418
#     4  12  25  45  73 104 141 184 240 288 350 418
#     4  12  27  47  72 106 144 188 233 292 356 423
#     4  12  27  47  72 104 148 188 234 296 360 416
#
# _framework density 19.550502999999999
#
# number of rings (size 3 to 8) (size 9 to 14) (size 15 to 20)
#    0.000    0.000    3.333    7.000    4.667    1.333 
#    0.000    3.333    0.000    0.000    0.000    0.000 
#    0.000    0.000    0.000    0.000    0.000    0.000 
#
# Total GULP energy -67105.275198 kJ/mol
# GULP energy per Si atom -5592.106267 kJ/mol
# Density = 1.950600 g / cm^3
# Si number density = 19.550503 Si / 1000 Ang^3
#
#
#
# Elastic Constant Matrix: (Units=GPa)
#
#
# Indices 1 2 3 4 5 6 
#
# 1 133.5791 27.3681 42.3346 4.3274 -17.3756 26.7614
# 2 27.3681 107.0007 18.8737 24.6705 -18.8355 17.0150
# 3 42.3346 18.8737 126.1981 1.6719 -4.2583 11.4934
# 4 4.3274 24.6705 1.6719 44.4977 -3.6711 -5.0501
# 5 -17.3756 -18.8355 -4.2583 -3.6711 53.3843 -2.0792
# 6 26.7614 17.0150 11.4934 -5.0501 -2.0792 42.0308
#
#
#
# Elastic Compliance Matrix: (Units=1/GPa)
#
#
# Indices 1 2 3 4 5 6 
#
# 1 0.009863 -0.000543 -0.002644 -0.000954 0.002535 -0.005326
# 2 -0.000543 0.012818 -0.001039 -0.007319 0.003555 -0.005263
# 3 -0.002644 -0.001039 0.008974 0.000418 -0.000495 -0.000324
# 4 -0.000954 -0.007319 0.000418 0.027309 -0.000720 0.006701
# 5 0.002535 0.003555 -0.000495 -0.000720 0.020645 -0.001983
# 6 -0.005326 -0.005263 -0.000324 0.006701 -0.001983 0.030109
#
#
# Mechanical properties :
#
#
# Convention : Reuss Voigt Hill
#
# Bulk Modulus (GPa) = 43.09852 60.43674 51.76763
# Shear Modulus (GPa) = 39.71270 46.52934 43.12102
#
# Velocity S-wave (km/s) = 4.51187 4.88377 4.70150
# Velocity P-wave (km/s) = 7.01678 7.92350 7.48389
#
# Compressibility (1/GPa) = 0.02320266
#
# Stress axis : x y z
#
# Youngs Moduli (GPa) = 101.38708 78.01622 111.43702
#
# Poissons Ratio (x) = 0.04238 0.29466
# Poissons Ratio (y) = 0.05508 0.11573
# Poissons Ratio (z) = 0.26809 0.08103
#
# Static dielectric constant tensor:
#      x y z
#    x 1.653120 -0.008360 0.004540 
#    y -0.008360 1.638750 -0.026630 
#    z 0.004540 -0.026630 1.631420 
# 
# From -- ./inp_files/149058.got.cif
#   From: 2010.05.17/outbox.cif.g08.bks.cpg/sg2_75_cif.got.tgz:149058.got - 2010.06.03 11:33:40.
