data_PCOD9070663
_publ_section_title
;
Structure prediction by ZEFSAII (Michael W. Deem and Ramdas Pophale) SiO2 
 PCOD9070663
Probable space group: P -1
;
_chemical_formula_sum "Si O2"
_cell_formula_units_Z 16
_cell_length_a 9.081104
_cell_length_b 15.342011
_cell_length_c 15.707328
_cell_angle_alpha 153.853992
_cell_angle_beta 48.327984
_cell_angle_gamma 135.211488
_cell_volume 676.640136
_symmetry_space_group_name_H-M "P -1"
_symmetry_group_IT_number 2
_symmetry_cell_setting 'triclinic'
loop_
_space_group_symop_operation_xyz
x,y,z
-x,-y,-z
loop_
_atom_site_type_symbol
_atom_site_label
_atom_site_fract_x
_atom_site_fract_y
_atom_site_fract_z
Si Si1 0.428258 0.285571 0.068454
Si Si2 0.215481 0.240692 0.471585
Si Si3 0.430030 0.910863 0.853565
Si Si4 0.856171 0.848438 0.213331
Si Si5 0.022379 0.375993 0.297599
Si Si6 0.457595 0.862564 0.283219
Si Si7 0.691798 0.765261 0.385746
Si Si8 0.075811 0.535795 0.242197
O O1 0.546185 0.529338 0.257671
O O2 0.182940 0.252026 0.143285
O O3 0.492478 0.121765 0.957017
O O4 0.487766 0.252228 0.919899
O O5 0.177974 0.163622 0.515909
O O6 0.152791 0.446864 0.667764
O O7 0.438181 0.237774 0.354165
O O8 0.045972 0.065808 0.327208
O O9 0.192281 0.778001 0.798306
O O10 0.500000 0.000000 0.000000
O O11 0.645464 0.883438 0.294083
O O12 0.818997 0.763575 0.249713
O O13 0.905659 0.678241 0.987442
O O14 0.000000 0.500000 0.500000
O O15 0.123903 0.544433 0.331204
O O16 0.242648 0.719393 0.284905
O O17 0.432819 0.076828 0.447954
#
# Coordination Sequence:
#
# PCOD9070663 Si02
#       8
#     2   2   2   2   2   2   2   2
#     4  12  27  51  85 110 154 201 262 325 393 457
#     4  12  29  45  73 110 159 201 254 310 390 467
#     4  12  30  55  76 113 159 211 269 327 382 459
#     4  12  25  44  75 113 160 198 246 312 395 465
#     4  12  29  53  83 113 151 213 274 321 381 457
#     4  12  25  48  79 119 156 190 256 328 387 470
#     4  12  26  46  75 117 156 200 244 317 399 471
#     4  12  27  47  80 118 152 204 255 318 398 464
#
# _framework density 23.646248
#
# number of rings (size 3 to 8) (size 9 to 14) (size 15 to 20)
#    0.000    0.000    5.000    3.750    7.000    1.000 
#    0.000    0.000    0.000    0.000    0.000    0.000 
#    0.000    0.000    0.000    0.000    0.000    0.000 
#
# Total GULP energy -89629.826614 kJ/mol
# GULP energy per Si atom -5601.864163 kJ/mol
# Density = 2.359243 g / cm^3
# Si number density = 23.646248 Si / 1000 Ang^3
#
#
#
# Elastic Constant Matrix: (Units=GPa)
#
#
# Indices 1 2 3 4 5 6 
#
# 1 96.1493 16.1690 47.6653 -6.1763 3.8783 -9.1022
# 2 16.1690 55.5964 34.6286 -1.3497 10.6590 -1.5525
# 3 47.6653 34.6286 146.3798 -17.8604 -5.3484 -6.3031
# 4 -6.1763 -1.3497 -17.8604 50.0398 -2.9538 8.0563
# 5 3.8783 10.6590 -5.3484 -2.9538 51.1197 -4.6527
# 6 -9.1022 -1.5525 -6.3031 8.0563 -4.6527 44.6754
#
#
#
# Elastic Compliance Matrix: (Units=1/GPa)
#
#
# Indices 1 2 3 4 5 6 
#
# 1 0.012704 -0.001048 -0.003867 -0.000211 -0.000985 0.001942
# 2 -0.001048 0.022652 -0.005440 -0.001705 -0.005352 -0.000444
# 3 -0.003867 -0.005440 0.009850 0.003025 0.002646 0.000143
# 4 -0.000211 -0.001705 0.003025 0.021636 0.001628 -0.003408
# 5 -0.000985 -0.005352 0.002646 0.001628 0.021297 0.001911
# 6 0.001942 -0.000444 0.000143 -0.003408 0.001911 0.023598
#
#
# Mechanical properties :
#
#
# Convention : Reuss Voigt Hill
#
# Bulk Modulus (GPa) = 40.82408 55.00569 47.91488
# Shear Modulus (GPa) = 35.55879 42.47783 39.01831
#
# Velocity S-wave (km/s) = 3.88207 4.24298 4.06653
# Velocity P-wave (km/s) = 6.11522 6.87868 6.50816
#
# Compressibility (1/GPa) = 0.02449535
#
# Stress axis : x y z
#
# Youngs Moduli (GPa) = 78.71708 44.14566 101.52745
#
# Poissons Ratio (x) = 0.04627 0.39260
# Poissons Ratio (y) = 0.08250 0.55232
# Poissons Ratio (z) = 0.30439 0.24016
#
# Static dielectric constant tensor:
#      x y z
#    x 1.899620 0.020750 0.024190 
#    y 0.020750 1.908290 -0.002290 
#    z 0.024190 -0.002290 1.876190 
# 
# From -- ./inp_files/505699.got.cif
#   From: 2010.05.17/outbox.cif.g08.bks.cpg/sg2_253_cif.got.tgz:505699.got - 2010.06.03 11:33:40.
