data_PCOD9070033
_publ_section_title
;
Structure prediction by ZEFSAII (Michael W. Deem and Ramdas Pophale) SiO2 
 PCOD9070033
Probable space group: P -1
;
_chemical_formula_sum "Si O2"
_cell_formula_units_Z 16
_cell_length_a 9.254520
_cell_length_b 9.901270
_cell_length_c 16.499604
_cell_angle_alpha 64.574842
_cell_angle_beta 31.242009
_cell_angle_gamma 66.033206
_cell_volume 705.721609
_symmetry_space_group_name_H-M "P -1"
_symmetry_group_IT_number 2
_symmetry_cell_setting 'triclinic'
loop_
_space_group_symop_operation_xyz
x,y,z
-x,-y,-z
loop_
_atom_site_type_symbol
_atom_site_label
_atom_site_fract_x
_atom_site_fract_y
_atom_site_fract_z
Si Si1 0.492131 0.680567 0.440674
Si Si2 0.422170 0.113107 0.112930
Si Si3 0.114463 0.653815 0.932687
Si Si4 0.516807 0.780846 0.221403
Si Si5 0.129280 0.604789 0.347968
Si Si6 0.053334 0.154716 0.738344
Si Si7 0.422576 0.399564 0.138145
Si Si8 0.850169 0.166157 0.285336
O O1 0.500000 0.500000 0.500000
O O2 0.420283 0.728216 0.370064
O O3 0.789447 0.749306 0.296831
O O4 0.295521 0.769786 0.579211
O O5 0.352054 0.239853 0.181027
O O6 0.184313 0.144863 0.150490
O O7 0.416412 0.949060 0.197637
O O8 0.732866 0.136904 0.923870
O O9 0.333498 0.627233 0.906160
O O10 0.229114 0.719571 0.778364
O O11 0.000000 0.500000 0.000000
O O12 0.852146 0.763366 0.060541
O O13 0.401993 0.667524 0.240115
O O14 0.944916 0.750535 0.369600
O O15 0.182250 0.501261 0.271377
O O16 0.000000 0.500000 0.500000
O O17 0.204961 0.994225 0.684845
O O18 0.500000 0.500000 0.000000
#
# Coordination Sequence:
#
# PCOD9070033 Si02
#       8
#     2   2   2   2   2   2   2   2
#     4  12  30  49  73 111 159 198 250 316 375 446
#     4  12  26  47  79 114 148 195 258 317 367 446
#     4  12  24  44  76 106 144 194 252 300 369 448
#     4  12  26  49  74 108 151 196 249 311 375 442
#     4  12  27  47  73 106 151 199 246 304 378 452
#     4  12  25  50  77 108 153 199 251 312 378 445
#     4  12  27  45  73 111 149 192 249 309 369 444
#     4  12  27  48  78 109 153 202 248 308 386 444
#
# _framework density 22.67183
#
# number of rings (size 3 to 8) (size 9 to 14) (size 15 to 20)
#    0.000    0.000    5.000    4.500    7.000    2.500 
#    0.000    0.000    0.000    0.000    0.000    0.000 
#    0.000    0.000    0.000    0.000    0.000    0.000 
#
# Total GULP energy -89552.836954 kJ/mol
# GULP energy per Si atom -5597.052310 kJ/mol
# Density = 2.262023 g / cm^3
# Si number density = 22.671830 Si / 1000 Ang^3
#
#
#
# Elastic Constant Matrix: (Units=GPa)
#
#
# Indices 1 2 3 4 5 6 
#
# 1 105.0728 27.3847 2.7356 -13.8195 8.9592 -0.4283
# 2 27.3847 140.3753 27.5373 -16.9277 13.0350 13.4058
# 3 2.7356 27.5373 93.3394 -4.5650 25.8332 -1.8426
# 4 -13.8195 -16.9277 -4.5650 34.7045 0.2588 7.4000
# 5 8.9592 13.0350 25.8332 0.2588 47.5904 -6.2536
# 6 -0.4283 13.4058 -1.8426 7.4000 -6.2536 43.5562
#
#
#
# Elastic Compliance Matrix: (Units=1/GPa)
#
#
# Indices 1 2 3 4 5 6 
#
# 1 0.010561 -0.001577 0.000911 0.003634 -0.002109 -0.000292
# 2 -0.001577 0.008838 -0.001997 0.004234 -0.001557 -0.003763
# 3 0.000911 -0.001997 0.013217 0.001177 -0.006805 0.000006
# 4 0.003634 0.004234 0.001177 0.034117 -0.003659 -0.007539
# 5 -0.002109 -0.001557 -0.006805 -0.003659 0.026147 0.004546
# 6 -0.000292 -0.003763 0.000006 -0.007539 0.004546 0.026048
#
#
# Mechanical properties :
#
#
# Convention : Reuss Voigt Hill
#
# Bulk Modulus (GPa) = 36.64337 50.45587 43.54962
# Shear Modulus (GPa) = 37.49511 43.91221 40.70366
#
# Velocity S-wave (km/s) = 4.07113 4.40575 4.24174
# Velocity P-wave (km/s) = 6.18841 6.94148 6.57573
#
# Compressibility (1/GPa) = 0.02729006
#
# Stress axis : x y z
#
# Youngs Moduli (GPa) = 94.68669 113.15072 75.65938
#
# Poissons Ratio (x) = 0.17844 -0.06896
# Poissons Ratio (y) = 0.14933 0.15112
# Poissons Ratio (z) = -0.08630 0.22601
#
# Static dielectric constant tensor:
#      x y z
#    x 1.888700 -0.034370 -0.027790 
#    y -0.034370 1.917010 0.005860 
#    z -0.027790 0.005860 1.895550 
# 
# From -- ./inp_files/494569.got.cif
#   From: 2010.05.17/outbox.cif.g08.bks.cpg/sg2_248_cif.got.tgz:494569.got - 2010.06.03 11:33:40.
