data_PCOD9070962
_publ_section_title
;
Structure prediction by ZEFSAII (Michael W. Deem and Ramdas Pophale) SiO2 
 PCOD9070962
Probable space group: P -1
;
_chemical_formula_sum "Si O2"
_cell_formula_units_Z 15
_cell_length_a 8.815702
_cell_length_b 15.711012
_cell_length_c 8.960563
_cell_angle_alpha 116.021557
_cell_angle_beta 133.672691
_cell_angle_gamma 97.382803
_cell_volume 603.324016
_symmetry_space_group_name_H-M "P -1"
_symmetry_group_IT_number 2
_symmetry_cell_setting 'triclinic'
loop_
_space_group_symop_operation_xyz
x,y,z
-x,-y,-z
loop_
_atom_site_type_symbol
_atom_site_label
_atom_site_fract_x
_atom_site_fract_y
_atom_site_fract_z
Si Si1 0.434958 0.967798 0.759810
Si Si2 0.785099 0.304533 0.553218
Si Si3 0.313924 0.173010 0.578059
Si Si4 0.570063 0.539759 0.903277
Si Si5 0.000000 0.000000 0.500000
Si Si6 0.789687 0.052996 0.809081
Si Si7 0.714829 0.353937 0.215693
Si Si8 0.645459 0.690231 0.572781
O O1 0.316625 0.826302 0.551812
O O2 0.227723 0.989015 0.584017
O O3 0.728856 0.058621 0.943299
O O4 0.500000 0.000000 0.000000
O O5 0.720453 0.294200 0.323966
O O6 0.616238 0.337705 0.545588
O O7 0.118521 0.405220 0.870325
O O8 0.341262 0.268008 0.556466
O O9 0.218718 0.060014 0.317879
O O10 0.617526 0.262901 0.937897
O O11 0.095776 0.102117 0.510888
O O12 0.523446 0.636858 0.922313
O O13 0.381841 0.429082 0.567311
O O14 0.500000 0.500000 0.000000
O O15 0.500000 0.000000 0.500000
O O16 0.074826 0.189844 0.062278
O O17 0.000000 0.500000 0.500000
#
# Coordination Sequence:
#
# PCOD9070962 Si02
#       8
#     2   2   2   2   1   2   2   2
#     4  12  27  45  75 108 155 197 254 307 382 454
#     4  12  28  50  77 114 152 204 258 320 384 457
#     4  12  25  48  75 106 154 198 254 308 378 459
#     4  12  26  50  80 113 151 205 258 319 387 453
#     4  12  26  42  74 108 148 196 250 304 370 448
#     4  12  28  47  74 114 153 202 251 317 387 457
#     4  12  27  47  81 113 149 199 259 317 380 453
#     4  12  28  50  77 108 158 203 256 318 388 454
#
# _framework density 24.862261
#
# number of rings (size 3 to 8) (size 9 to 14) (size 15 to 20)
#    0.000    0.000    5.333    3.200    7.467    1.600 
#    0.000    0.000    0.000    0.000    0.000    0.000 
#    0.000    0.000    0.000    0.000    0.000    0.000 
#
# Total GULP energy -83721.594890 kJ/mol
# GULP energy per Si atom -5581.439659 kJ/mol
# Density = 2.480567 g / cm^3
# Si number density = 24.862261 Si / 1000 Ang^3
#
#
#
# Elastic Constant Matrix: (Units=GPa)
#
#
# Indices 1 2 3 4 5 6 
#
# 1 130.9635 6.9797 42.2665 18.3081 17.2256 -4.1875
# 2 6.9797 61.7609 9.7802 -11.3137 4.1466 -11.8022
# 3 42.2665 9.7802 125.6863 3.0501 -3.2906 -8.3469
# 4 18.3081 -11.3137 3.0501 32.0184 -3.2882 -6.4572
# 5 17.2256 4.1466 -3.2906 -3.2882 41.7096 8.8100
# 6 -4.1875 -11.8022 -8.3469 -6.4572 8.8100 51.6686
#
#
#
# Elastic Compliance Matrix: (Units=1/GPa)
#
#
# Indices 1 2 3 4 5 6 
#
# 1 0.010372 -0.001546 -0.003338 -0.006673 -0.004909 -0.000049
# 2 -0.001546 0.019281 -0.000872 0.008709 -0.001831 0.005539
# 3 -0.003338 -0.000872 0.009228 0.001099 0.002111 0.000799
# 4 -0.006673 0.008709 0.001099 0.039609 0.003849 0.005920
# 5 -0.004909 -0.001831 0.002111 0.003849 0.027649 -0.004708
# 6 -0.000049 0.005539 0.000799 0.005920 -0.004708 0.022287
#
#
# Mechanical properties :
#
#
# Convention : Reuss Voigt Hill
#
# Bulk Modulus (GPa) = 36.53539 48.49594 42.51567
# Shear Modulus (GPa) = 33.54337 42.37161 37.95749
#
# Velocity S-wave (km/s) = 3.67709 4.13274 3.91155
# Velocity P-wave (km/s) = 5.72320 6.50545 6.12682
#
# Compressibility (1/GPa) = 0.02737072
#
# Stress axis : x y z
#
# Youngs Moduli (GPa) = 96.41122 51.86493 108.36379
#
# Poissons Ratio (x) = 0.08017 0.36167
# Poissons Ratio (y) = 0.14903 0.09449
# Poissons Ratio (z) = 0.32178 0.04522
#
# Static dielectric constant tensor:
#      x y z
#    x 1.985290 -0.027150 -0.026120 
#    y -0.027150 1.995150 -0.039890 
#    z -0.026120 -0.039890 2.068650 
# 
# From -- ./inp_files/218426.got.cif
#   From: 2010.05.17/outbox.cif.g08.bks.cpg/sg2_110_cif.got.tgz:218426.got - 2010.06.03 11:33:40.
