data_PCOD9070634
_publ_section_title
;
Structure prediction by ZEFSAII (Michael W. Deem and Ramdas Pophale) SiO2 
 PCOD9070634
Probable space group: P -1
;
_chemical_formula_sum "Si O2"
_cell_formula_units_Z 12
_cell_length_a 27.295949
_cell_length_b 27.021152
_cell_length_c 11.673943
_cell_angle_alpha 159.014113
_cell_angle_beta 20.470394
_cell_angle_gamma 169.546037
_cell_volume 535.898354
_symmetry_space_group_name_H-M "P -1"
_symmetry_group_IT_number 2
_symmetry_cell_setting 'triclinic'
loop_
_space_group_symop_operation_xyz
x,y,z
-x,-y,-z
loop_
_atom_site_type_symbol
_atom_site_label
_atom_site_fract_x
_atom_site_fract_y
_atom_site_fract_z
Si Si1 0.734265 0.726599 0.069354
Si Si2 0.803148 0.205045 0.253448
Si Si3 0.183321 0.034225 0.119344
Si Si4 0.624408 0.932150 0.812437
Si Si5 0.011214 0.467328 0.037085
Si Si6 0.759170 0.537389 0.811318
O O1 0.642519 0.783871 0.466311
O O2 0.500000 0.500000 0.000000
O O3 0.728056 0.589434 0.871011
O O4 0.000000 0.000000 0.000000
O O5 0.000000 0.500000 0.500000
O O6 0.500000 0.000000 0.500000
O O7 0.843001 0.107086 0.033745
O O8 0.765061 0.122508 0.028192
O O9 0.499092 0.336509 0.035818
O O10 0.000000 0.000000 0.500000
O O11 0.031037 0.843352 0.929566
O O12 0.313264 0.710583 0.967791
O O13 0.850221 0.183293 0.771067
O O14 0.827755 0.433301 0.424316
O O15 0.000000 0.500000 0.000000
#
# Coordination Sequence:
#
# PCOD9070634 Si02
#       6
#     2   2   2   2   2   2
#     4  12  26  46  70 102 140 183 231 286 348 418
#     4  12  25  44  69  99 135 178 229 285 342 407
#     4  12  26  45  68  99 136 181 230 283 343 410
#     4  12  25  44  69 100 136 181 229 284 345 411
#     4  12  25  44  70 101 136 179 229 286 347 413
#     4  12  25  45  69  99 137 180 227 284 345 409
#
# _framework density 22.392306999999999
#
# number of rings (size 3 to 8) (size 9 to 14) (size 15 to 20)
#    0.000    0.000    0.000   12.000    0.000    2.667 
#    0.000    0.000    0.000    0.000    0.000    0.000 
#    0.000    0.000    0.000    0.000    0.000    0.000 
#
# Total GULP energy -66989.745023 kJ/mol
# GULP energy per Si atom -5582.478752 kJ/mol
# Density = 2.234134 g / cm^3
# Si number density = 22.392307 Si / 1000 Ang^3
#
#
#
# Elastic Constant Matrix: (Units=GPa)
#
#
# Indices 1 2 3 4 5 6 
#
# 1 123.0051 29.2152 31.2732 0.0796 -32.7354 7.1905
# 2 29.2152 146.0857 26.7413 6.7194 -15.6682 9.8306
# 3 31.2732 26.7413 132.4097 6.9290 -14.8619 5.7013
# 4 0.0796 6.7194 6.9290 32.5079 -5.7846 1.2894
# 5 -32.7354 -15.6682 -14.8619 -5.7846 41.2340 -0.4114
# 6 7.1905 9.8306 5.7013 1.2894 -0.4114 39.9855
#
#
#
# Elastic Compliance Matrix: (Units=1/GPa)
#
#
# Indices 1 2 3 4 5 6 
#
# 1 0.010993 -0.001049 -0.001522 0.002005 0.008046 -0.001484
# 2 -0.001049 0.007545 -0.000989 -0.001017 0.001520 -0.001477
# 3 -0.001522 -0.000989 0.008346 -0.001327 0.001231 -0.000618
# 4 0.002005 -0.001017 -0.001327 0.032218 0.005238 -0.000906
# 5 0.008046 0.001520 0.001231 0.005238 0.032378 -0.001832
# 6 -0.001484 -0.001477 -0.000618 -0.000906 -0.001832 0.025737
#
#
# Mechanical properties :
#
#
# Convention : Reuss Voigt Hill
#
# Bulk Modulus (GPa) = 50.59773 63.99554 57.29664
# Shear Modulus (GPa) = 38.18977 43.69684 40.94331
#
# Velocity S-wave (km/s) = 4.13423 4.42228 4.28068
# Velocity P-wave (km/s) = 6.74049 7.39708 7.07640
#
# Compressibility (1/GPa) = 0.01976373
#
# Stress axis : x y z
#
# Youngs Moduli (GPa) = 90.96910 132.53242 119.82076
#
# Poissons Ratio (x) = 0.13904 0.18241
# Poissons Ratio (y) = 0.09544 0.11845
# Poissons Ratio (z) = 0.13849 0.13102
#
# Static dielectric constant tensor:
#      x y z
#    x 1.567560 0.090150 0.089810 
#    y 0.090150 1.695550 -0.028530 
#    z 0.089810 -0.028530 1.818700 
# 
# From -- ./inp_files/175645.got.cif
#   From: 2010.05.17/outbox.cif.g08.bks.cpg/sg2_88_cif.got.tgz:175645.got - 2010.06.03 11:33:40.
