data_PCOD9070411
_publ_section_title
;
Structure prediction by ZEFSAII (Michael W. Deem and Ramdas Pophale) SiO2 
 PCOD9070411
Probable space group: P -1
;
_chemical_formula_sum "Si O2"
_cell_formula_units_Z 16
_cell_length_a 16.912771
_cell_length_b 8.193583
_cell_length_c 4.880052
_cell_angle_alpha 93.602977
_cell_angle_beta 62.756057
_cell_angle_gamma 83.328302
_cell_volume 591.989757
_symmetry_space_group_name_H-M "P -1"
_symmetry_group_IT_number 2
_symmetry_cell_setting 'triclinic'
loop_
_space_group_symop_operation_xyz
x,y,z
-x,-y,-z
loop_
_atom_site_type_symbol
_atom_site_label
_atom_site_fract_x
_atom_site_fract_y
_atom_site_fract_z
Si Si1 0.915952 0.902603 0.052869
Si Si2 0.320469 0.644433 0.596179
Si Si3 0.125565 0.628324 0.710662
Si Si4 0.872554 0.707014 0.617633
Si Si5 0.329893 0.190337 0.889115
Si Si6 0.365701 0.826912 0.045697
Si Si7 0.082484 0.849409 0.284715
Si Si8 0.424167 0.301086 0.249527
O O1 0.874306 0.841668 0.385906
O O2 0.067488 0.705702 0.075446
O O3 0.930111 0.749869 0.795929
O O4 0.855331 0.046215 0.983452
O O5 0.226439 0.587355 0.663081
O O6 0.324933 0.696719 0.906780
O O7 0.399862 0.493349 0.387314
O O8 0.122322 0.763985 0.487480
O O9 0.099694 0.468111 0.590799
O O10 0.333509 0.797982 0.399139
O O11 0.771893 0.719844 0.893799
O O12 0.396461 0.279825 0.978372
O O13 0.360861 0.205775 0.530717
O O14 0.339662 0.006850 0.976230
O O15 0.473580 0.777595 0.867390
O O16 0.000000 0.000000 0.500000
O O17 0.000000 0.000000 0.000000
#
# Coordination Sequence:
#
# PCOD9070411 Si02
#       8
#     2   2   2   2   2   2   2   2
#     4  12  27  52  80 113 150 192 247 316 394 467
#     4  12  26  45  71 114 152 200 269 309 383 447
#     4  12  27  49  78 113 156 198 253 324 381 463
#     4  12  27  49  79 115 154 199 254 319 390 460
#     4  12  26  45  73 112 153 201 266 311 380 448
#     4  12  26  44  73 112 152 215 255 322 377 448
#     4  12  27  52  80 113 149 193 244 313 395 466
#     4  12  24  48  72 105 167 201 262 319 380 446
#
# _framework density 27.027495999999999
#
# number of rings (size 3 to 8) (size 9 to 14) (size 15 to 20)
#    0.000    0.000    1.250    9.000    7.000    0.000 
#    0.000   12.500    0.000    0.000    0.000    0.000 
#    0.000    0.000    0.000    0.000    0.000    0.000 
#
# Total GULP energy -89714.071009 kJ/mol
# GULP energy per Si atom -5607.129438 kJ/mol
# Density = 2.696598 g / cm^3
# Si number density = 27.027496 Si / 1000 Ang^3
#
#
#
# Elastic Constant Matrix: (Units=GPa)
#
#
# Indices 1 2 3 4 5 6 
#
# 1 119.5176 27.1590 51.4431 22.4047 3.6857 6.1151
# 2 27.1590 104.6739 27.1190 6.0899 4.7125 0.8700
# 3 51.4431 27.1190 143.3911 3.5663 23.1898 6.0667
# 4 22.4047 6.0899 3.5663 61.1452 1.8808 14.6692
# 5 3.6857 4.7125 23.1898 1.8808 56.7903 6.5031
# 6 6.1151 0.8700 6.0667 14.6692 6.5031 36.1878
#
#
#
# Elastic Compliance Matrix: (Units=1/GPa)
#
#
# Indices 1 2 3 4 5 6 
#
# 1 0.011012 -0.001730 -0.003706 -0.003707 0.001052 0.000116
# 2 -0.001730 0.010374 -0.001310 -0.000431 -0.000255 0.000483
# 3 -0.003706 -0.001310 0.009089 0.001246 -0.003315 -0.000776
# 4 -0.003707 -0.000431 0.001246 0.019474 -0.000023 -0.007462
# 5 0.001052 -0.000255 -0.003315 -0.000023 0.019267 -0.003069
# 6 0.000116 0.000483 -0.000776 -0.007462 -0.003069 0.031309
#
#
# Mechanical properties :
#
#
# Convention : Reuss Voigt Hill
#
# Bulk Modulus (GPa) = 58.88112 64.33607 61.60860
# Shear Modulus (GPa) = 41.77874 48.28209 45.03042
#
# Velocity S-wave (km/s) = 3.93591 4.23118 4.08621
# Velocity P-wave (km/s) = 6.51829 6.90841 6.71618
#
# Compressibility (1/GPa) = 0.01698337
#
# Stress axis : x y z
#
# Youngs Moduli (GPa) = 90.81213 96.39315 110.02001
#
# Poissons Ratio (x) = 0.16672 0.40777
# Poissons Ratio (y) = 0.15707 0.14413
# Poissons Ratio (z) = 0.33658 0.12628
#
# Static dielectric constant tensor:
#      x y z
#    x 2.155090 -0.013720 0.033890 
#    y -0.013720 2.175100 -0.049890 
#    z 0.033890 -0.049890 2.204430 
# 
# From -- ./inp_files/105108.got.cif
#   From: 2010.05.17/outbox.cif.g08.bks.cpg/sg2_53_cif.got.tgz:105108.got - 2010.06.03 11:33:40.
