data_PCOD9070098
_publ_section_title
;
Structure prediction by ZEFSAII (Michael W. Deem and Ramdas Pophale) SiO2 
 PCOD9070098
Probable space group: P -1
;
_chemical_formula_sum "Si O2"
_cell_formula_units_Z 16
_cell_length_a 9.067772
_cell_length_b 14.699113
_cell_length_c 8.927372
_cell_angle_alpha 138.634276
_cell_angle_beta 112.822795
_cell_angle_gamma 83.217371
_cell_volume 694.954637
_symmetry_space_group_name_H-M "P -1"
_symmetry_group_IT_number 2
_symmetry_cell_setting 'triclinic'
loop_
_space_group_symop_operation_xyz
x,y,z
-x,-y,-z
loop_
_atom_site_type_symbol
_atom_site_label
_atom_site_fract_x
_atom_site_fract_y
_atom_site_fract_z
Si Si1 0.522917 0.442563 0.100590
Si Si2 0.822900 0.753747 0.314399
Si Si3 0.960953 0.690958 0.010227
Si Si4 0.394607 0.052537 0.394461
Si Si5 0.375779 0.363157 0.361922
Si Si6 0.233522 0.737882 0.927132
Si Si7 0.913778 0.360666 0.568687
Si Si8 0.566479 0.157684 0.288692
O O1 0.623755 0.580758 0.401222
O O2 0.621687 0.326946 0.034081
O O3 0.500000 0.500000 0.000000
O O4 0.330586 0.366882 0.972092
O O5 0.734172 0.867176 0.487583
O O6 0.921414 0.689097 0.396918
O O7 0.952479 0.789871 0.271609
O O8 0.804134 0.686791 0.839164
O O9 0.943310 0.524108 0.837881
O O10 0.120638 0.741034 0.030235
O O11 0.510528 0.147508 0.428723
O O12 0.500000 0.000000 0.500000
O O13 0.296531 0.900577 0.094379
O O14 0.500000 0.500000 0.500000
O O15 0.466290 0.241801 0.252715
O O16 0.136390 0.645582 0.634941
O O17 0.758246 0.249661 0.454704
O O18 0.500000 0.000000 0.000000
#
# Coordination Sequence:
#
# PCOD9070098 Si02
#       8
#     2   2   2   2   2   2   2   2
#     4  12  24  45  74 109 146 202 259 312 381 447
#     4  12  28  45  74 108 152 199 252 313 382 455
#     4  12  27  45  78 113 157 193 256 318 386 441
#     4  12  29  51  74 107 157 205 257 306 382 464
#     4  12  24  46  77 113 150 200 258 313 377 461
#     4  12  27  49  76 110 156 202 251 320 382 454
#     4  12  26  51  76 117 150 192 259 328 381 447
#     4  12  27  48  80 108 151 204 256 313 383 457
#
# _framework density 23.023085999999999
#
# number of rings (size 3 to 8) (size 9 to 14) (size 15 to 20)
#    0.000    0.000    6.250    2.250    7.000    2.000 
#    0.000    0.000    0.000    0.000    0.000    0.000 
#    0.000    0.000    0.000    0.000    0.000    0.000 
#
# Total GULP energy -89486.144992 kJ/mol
# GULP energy per Si atom -5592.884062 kJ/mol
# Density = 2.297068 g / cm^3
# Si number density = 23.023086 Si / 1000 Ang^3
#
#
#
# Elastic Constant Matrix: (Units=GPa)
#
#
# Indices 1 2 3 4 5 6 
#
# 1 139.6822 67.3407 11.2294 -0.6048 -9.6383 -11.0400
# 2 67.3407 139.1180 32.0760 -4.4707 -9.3808 -25.7589
# 3 11.2294 32.0760 49.4741 1.1244 -17.7444 -10.4559
# 4 -0.6048 -4.4707 1.1244 49.9784 -1.0868 -1.5612
# 5 -9.6383 -9.3808 -17.7444 -1.0868 38.6761 -5.0249
# 6 -11.0400 -25.7589 -10.4559 -1.5612 -5.0249 63.7928
#
#
#
# Elastic Compliance Matrix: (Units=1/GPa)
#
#
# Indices 1 2 3 4 5 6 
#
# 1 0.009506 -0.004856 0.001738 -0.000311 0.001995 0.000119
# 2 -0.004856 0.011423 -0.006046 0.001167 -0.000824 0.002745
# 3 0.001738 -0.006046 0.029097 -0.000784 0.012764 0.003615
# 4 -0.000311 0.001167 -0.000784 0.020164 0.000519 0.000823
# 5 0.001995 -0.000824 0.012764 0.000519 0.032633 0.004688
# 6 0.000119 0.002745 0.003615 0.000823 0.004688 0.017787
#
#
# Mechanical properties :
#
#
# Convention : Reuss Voigt Hill
#
# Bulk Modulus (GPa) = 31.54518 61.06294 46.30406
# Shear Modulus (GPa) = 33.44433 44.99802 39.22118
#
# Velocity S-wave (km/s) = 3.81549 4.42574 4.13190
# Velocity P-wave (km/s) = 5.75690 7.25922 6.55127
#
# Compressibility (1/GPa) = 0.03170057
#
# Stress axis : x y z
#
# Youngs Moduli (GPa) = 105.19655 87.54555 34.36724
#
# Poissons Ratio (x) = 0.42509 -0.05974
# Poissons Ratio (y) = 0.51080 0.20777
# Poissons Ratio (z) = -0.18287 0.52926
#
# Static dielectric constant tensor:
#      x y z
#    x 1.929190 0.066540 -0.049370 
#    y 0.066540 1.888430 0.006240 
#    z -0.049370 0.006240 1.896510 
# 
# From -- ./inp_files/209561.got.cif
#   From: 2010.05.17/outbox.cif.g08.bks.cpg/sg2_105_cif.got.tgz:209561.got - 2010.06.03 11:33:40.
