data_PCOD9070382
_publ_section_title
;
Structure prediction by ZEFSAII (Michael W. Deem and Ramdas Pophale) SiO2 
 PCOD9070382
Probable space group: P -1
;
_chemical_formula_sum "Si O2"
_cell_formula_units_Z 14
_cell_length_a 10.427958
_cell_length_b 7.812893
_cell_length_c 10.898437
_cell_angle_alpha 118.853656
_cell_angle_beta 82.463245
_cell_angle_gamma 132.872962
_cell_volume 542.387869
_symmetry_space_group_name_H-M "P -1"
_symmetry_group_IT_number 2
_symmetry_cell_setting 'triclinic'
loop_
_space_group_symop_operation_xyz
x,y,z
-x,-y,-z
loop_
_atom_site_type_symbol
_atom_site_label
_atom_site_fract_x
_atom_site_fract_y
_atom_site_fract_z
Si Si1 0.968380 0.887042 0.286967
Si Si2 0.656832 0.856813 0.395974
Si Si3 0.500196 0.731605 0.105224
Si Si4 0.671535 0.536291 0.531824
Si Si5 0.764825 0.330611 0.265437
Si Si6 0.090437 0.410289 0.022324
Si Si7 0.118385 0.534692 0.344477
O O1 0.821180 0.897582 0.338013
O O2 0.876494 0.593993 0.254089
O O3 0.993204 0.866740 0.133024
O O4 0.166376 0.137457 0.409580
O O5 0.543381 0.798589 0.268219
O O6 0.510683 0.597820 0.417881
O O7 0.739480 0.133599 0.549238
O O8 0.308166 0.616202 0.048991
O O9 0.653282 0.028774 0.122212
O O10 0.500000 0.500000 0.000000
O O11 0.636177 0.338569 0.362008
O O12 0.792761 0.542285 0.617058
O O13 0.917897 0.401716 0.360382
O O14 0.075596 0.415789 0.171292
O O15 0.000000 0.500000 0.000000
#
# Coordination Sequence:
#
# PCOD9070382 Si02
#       7
#     2   2   2   2   2   2   2
#     4  12  28  48  72 115 159 204 256 318 393 468
#     4  12  25  49  79 116 149 203 269 324 382 464
#     4  12  26  49  81 113 153 204 268 324 387 467
#     4  12  25  45  80 112 151 202 262 318 389 464
#     4  12  26  47  77 111 160 203 250 329 394 462
#     4  12  27  49  74 113 159 203 258 320 397 460
#     4  12  24  47  79 110 153 202 263 324 388 459
#
# _framework density 25.811789000000001
#
# number of rings (size 3 to 8) (size 9 to 14) (size 15 to 20)
#    0.000    0.000    7.143    3.000    0.000    4.000 
#    0.000    0.000    0.000    0.000    0.000    0.000 
#    0.000    0.000    0.000    0.000    0.000    0.000 
#
# Total GULP energy -78434.141151 kJ/mol
# GULP energy per Si atom -5602.438654 kJ/mol
# Density = 2.575304 g / cm^3
# Si number density = 25.811789 Si / 1000 Ang^3
#
#
#
# Elastic Constant Matrix: (Units=GPa)
#
#
# Indices 1 2 3 4 5 6 
#
# 1 142.8112 28.0292 35.4028 22.9234 -3.0271 27.0431
# 2 28.0292 107.7388 29.6767 32.8260 -19.2640 -4.5376
# 3 35.4028 29.6767 149.7130 10.1313 -22.0321 -0.1678
# 4 22.9234 32.8260 10.1313 48.7976 2.4592 2.5078
# 5 -3.0271 -19.2640 -22.0321 2.4592 41.0286 0.8968
# 6 27.0431 -4.5376 -0.1678 2.5078 0.8968 42.7740
#
#
#
# Elastic Compliance Matrix: (Units=1/GPa)
#
#
# Indices 1 2 3 4 5 6 
#
# 1 0.009262 -0.001472 -0.001830 -0.002645 -0.000704 -0.005849
# 2 -0.001472 0.013892 -0.000851 -0.008944 0.006432 0.002791
# 3 -0.001830 -0.000851 0.007854 -0.000439 0.003687 0.001046
# 4 -0.002645 -0.008944 -0.000439 0.028202 -0.006303 -0.000800
# 5 -0.000704 0.006432 0.003687 -0.006303 0.029680 0.000889
# 6 -0.005849 0.002791 0.001046 -0.000800 0.000889 0.027405
#
#
# Mechanical properties :
#
#
# Convention : Reuss Voigt Hill
#
# Bulk Modulus (GPa) = 44.04608 65.16450 54.60529
# Shear Modulus (GPa) = 37.83105 46.99699 42.41402
#
# Velocity S-wave (km/s) = 3.83253 4.27166 4.05804
# Velocity P-wave (km/s) = 6.05688 7.04488 6.56948
#
# Compressibility (1/GPa) = 0.02270349
#
# Stress axis : x y z
#
# Youngs Moduli (GPa) = 107.96877 71.98484 127.32239
#
# Poissons Ratio (x) = 0.10596 0.23294
# Poissons Ratio (y) = 0.15893 0.10830
# Poissons Ratio (z) = 0.19754 0.06123
#
# Static dielectric constant tensor:
#      x y z
#    x 2.064760 -0.069440 0.024040 
#    y -0.069440 2.177610 -0.084970 
#    z 0.024040 -0.084970 2.069350 
# 
# From -- ./inp_files/418412.got.cif
#   From: 2010.05.17/outbox.cif.g08.bks.cpg/sg2_210_cif.got.tgz:418412.got - 2010.06.03 11:33:40.
