data_PCOD9070946
_publ_section_title
;
Structure prediction by ZEFSAII (Michael W. Deem and Ramdas Pophale) SiO2 
 PCOD9070946
Probable space group: P -1
;
_chemical_formula_sum "Si O2"
_cell_formula_units_Z 16
_cell_length_a 9.216899
_cell_length_b 12.452479
_cell_length_c 9.098354
_cell_angle_alpha 128.599589
_cell_angle_beta 80.093787
_cell_angle_gamma 104.713355
_cell_volume 789.216838
_symmetry_space_group_name_H-M "P -1"
_symmetry_group_IT_number 2
_symmetry_cell_setting 'triclinic'
loop_
_space_group_symop_operation_xyz
x,y,z
-x,-y,-z
loop_
_atom_site_type_symbol
_atom_site_label
_atom_site_fract_x
_atom_site_fract_y
_atom_site_fract_z
Si Si1 0.560363 0.887243 0.485453
Si Si2 0.120231 0.924217 0.341454
Si Si3 0.895048 0.568171 0.685178
Si Si4 0.921640 0.120078 0.036142
Si Si5 0.577126 0.625313 0.697729
Si Si6 0.127027 0.608766 0.159315
Si Si7 0.420154 0.867552 0.806429
Si Si8 0.529200 0.358157 0.937338
O O1 0.453249 0.863377 0.624532
O O2 0.547286 0.757740 0.265660
O O3 0.500000 0.000000 0.500000
O O4 0.723679 0.967285 0.572157
O O5 0.102110 0.769541 0.288096
O O6 0.097659 0.911804 0.160282
O O7 0.000000 0.000000 0.500000
O O8 0.745765 0.596846 0.655447
O O9 0.864643 0.464091 0.743753
O O10 0.000000 0.500000 0.500000
O O11 0.977934 0.724943 0.843577
O O12 0.757643 0.136770 0.141676
O O13 0.000000 0.000000 0.000000
O O14 0.500000 0.500000 0.500000
O O15 0.512831 0.752057 0.746258
O O16 0.535065 0.647327 0.893200
O O17 0.292141 0.629789 0.077138
O O18 0.000000 0.500000 0.000000
O O19 0.500000 0.000000 0.000000
O O20 0.500000 0.500000 0.000000
#
# Coordination Sequence:
#
# PCOD9070946 Si02
#       8
#     2   2   2   2   2   2   2   2
#     4  12  27  47  76 107 148 199 252 308 372 445
#     4  12  29  48  75 114 150 201 250 307 383 449
#     4  12  29  47  76 111 150 202 246 309 384 447
#     4  12  28  50  74 113 154 198 251 313 379 450
#     4  12  27  48  74 108 145 195 251 307 372 448
#     4  12  27  51  74 107 155 197 247 313 374 450
#     4  12  25  48  74 105 149 195 246 307 369 442
#     4  12  26  47  75 108 147 194 253 303 374 447
#
# _framework density 20.273263
#
# number of rings (size 3 to 8) (size 9 to 14) (size 15 to 20)
#    0.000    0.000    5.000    3.750   10.500    0.000 
#    0.000    0.000    0.000    0.000    0.000    0.000 
#    0.000    0.000    0.000    0.000    0.000    0.000 
#
# Total GULP energy -89235.356205 kJ/mol
# GULP energy per Si atom -5577.209763 kJ/mol
# Density = 2.022712 g / cm^3
# Si number density = 20.273263 Si / 1000 Ang^3
#
#
#
# Elastic Constant Matrix: (Units=GPa)
#
#
# Indices 1 2 3 4 5 6 
#
# 1 188.9478 52.8650 87.1170 8.0098 -6.4664 -4.9859
# 2 52.8650 135.9353 75.8021 9.2494 -12.6065 -30.3876
# 3 87.1170 75.8021 198.7539 13.6326 6.0148 -1.1995
# 4 8.0098 9.2494 13.6326 56.0582 2.8584 -3.2820
# 5 -6.4664 -12.6065 6.0148 2.8584 51.4518 10.3434
# 6 -4.9859 -30.3876 -1.1995 -3.2820 10.3434 41.4400
#
#
#
# Elastic Compliance Matrix: (Units=1/GPa)
#
#
# Indices 1 2 3 4 5 6 
#
# 1 0.006841 -0.001228 -0.002546 -0.000228 0.000951 -0.000407
# 2 -0.001228 0.012099 -0.004047 -0.000444 0.001668 0.008155
# 3 -0.002546 -0.004047 0.007788 -0.000939 -0.001623 -0.002718
# 4 -0.000228 -0.000444 -0.000939 0.018323 -0.001328 0.001402
# 5 0.000951 0.001668 -0.001623 -0.001328 0.021045 -0.004067
# 6 -0.000407 0.008155 -0.002718 0.001402 -0.004067 0.031110
#
#
# Mechanical properties :
#
#
# Convention : Reuss Voigt Hill
#
# Bulk Modulus (GPa) = 90.20155 106.13391 98.16773
# Shear Modulus (GPa) = 42.90277 50.31354 46.60816
#
# Velocity S-wave (km/s) = 4.60523 4.98714 4.79999
# Velocity P-wave (km/s) = 8.53622 9.25351 8.90209
#
# Compressibility (1/GPa) = 0.01108628
#
# Stress axis : x y z
#
# Youngs Moduli (GPa) = 146.16949 82.65355 128.40666
#
# Poissons Ratio (x) = 0.10151 0.32691
# Poissons Ratio (y) = 0.17951 0.51963
# Poissons Ratio (z) = 0.37213 0.33448
#
# Static dielectric constant tensor:
#      x y z
#    x 0.822000 0.430630 -0.131510 
#    y 0.430630 1.504860 0.062240 
#    z -0.131510 0.062240 1.645770 
# 
# From -- ./inp_files/190698.got.cif
#   From: 2010.05.17/outbox.cif.g08.bks.cpg/sg2_96_cif.got.tgz:190698.got - 2010.06.03 11:33:40.
