data_PCOD9070971
_publ_section_title
;
Structure prediction by ZEFSAII (Michael W. Deem and Ramdas Pophale) SiO2 
 PCOD9070971
Probable space group: P -1
;
_chemical_formula_sum "Si O2"
_cell_formula_units_Z 16
_cell_length_a 9.206025
_cell_length_b 14.073610
_cell_length_c 8.637939
_cell_angle_alpha 81.885575
_cell_angle_beta 92.772792
_cell_angle_gamma 43.448548
_cell_volume 742.997737
_symmetry_space_group_name_H-M "P -1"
_symmetry_group_IT_number 2
_symmetry_cell_setting 'triclinic'
loop_
_space_group_symop_operation_xyz
x,y,z
-x,-y,-z
loop_
_atom_site_type_symbol
_atom_site_label
_atom_site_fract_x
_atom_site_fract_y
_atom_site_fract_z
Si Si1 0.960364 0.421725 0.933245
Si Si2 0.764124 0.099113 0.047511
Si Si3 0.406966 0.138303 0.883055
Si Si4 0.719284 0.851449 0.477649
Si Si5 0.555355 0.571985 0.060238
Si Si6 0.458267 0.627657 0.402682
Si Si7 0.974889 0.917031 0.406552
Si Si8 0.203192 0.400195 0.417319
O O1 0.841949 0.506587 0.748403
O O2 0.189760 0.266839 0.937114
O O3 0.800629 0.455436 0.040805
O O4 0.000000 0.500000 0.000000
O O5 0.817632 0.019663 0.230241
O O6 0.598296 0.122525 0.921058
O O7 0.619235 0.263273 0.043590
O O8 0.000000 0.000000 0.000000
O O9 0.331024 0.156801 0.699709
O O10 0.500000 0.000000 0.000000
O O11 0.886136 0.859986 0.488945
O O12 0.771686 0.724673 0.594519
O O13 0.500000 0.000000 0.500000
O O14 0.530205 0.587722 0.238260
O O15 0.500000 0.500000 0.000000
O O16 0.500000 0.500000 0.500000
O O17 0.593346 0.649012 0.479483
O O18 0.208207 0.776699 0.379829
O O19 0.000000 0.000000 0.500000
O O20 0.000000 0.500000 0.500000
#
# Coordination Sequence:
#
# PCOD9070971 Si02
#       8
#     2   2   2   2   2   2   2   2
#     4  12  27  48  76 108 151 195 254 309 373 445
#     4  12  27  51  76 106 155 197 248 314 377 448
#     4  12  27  50  77 107 150 199 252 314 374 448
#     4  12  28  48  75 111 146 199 254 308 380 447
#     4  12  28  47  75 112 147 199 249 305 378 448
#     4  12  27  50  75 111 153 198 249 312 382 449
#     4  12  29  50  74 109 153 199 249 313 383 453
#     4  12  25  48  76 105 152 196 252 312 371 445
#
# _framework density 21.534386999999999
#
# number of rings (size 3 to 8) (size 9 to 14) (size 15 to 20)
#    0.000    0.000    5.000    3.750   12.250    0.000 
#    0.000    0.000    0.000    0.000    0.000    0.000 
#    0.000    0.000    0.000    0.000    0.000    0.000 
#
# Total GULP energy -89357.092212 kJ/mol
# GULP energy per Si atom -5584.818263 kJ/mol
# Density = 2.148537 g / cm^3
# Si number density = 21.534387 Si / 1000 Ang^3
#
#
#
# Elastic Constant Matrix: (Units=GPa)
#
#
# Indices 1 2 3 4 5 6 
#
# 1 162.7015 46.6108 12.9230 10.1650 14.1301 -9.4367
# 2 46.6108 170.7275 32.8587 11.3849 -1.5413 -12.3614
# 3 12.9230 32.8587 70.8158 1.4360 2.3865 -8.5285
# 4 10.1650 11.3849 1.4360 41.4688 2.5668 -11.2667
# 5 14.1301 -1.5413 2.3865 2.5668 32.8001 3.1955
# 6 -9.4367 -12.3614 -8.5285 -11.2667 3.1955 50.3870
#
#
#
# Elastic Compliance Matrix: (Units=1/GPa)
#
#
# Indices 1 2 3 4 5 6 
#
# 1 0.007049 -0.001793 -0.000229 -0.000800 -0.003126 0.000861
# 2 -0.001793 0.007043 -0.002898 -0.001339 0.001369 0.000516
# 3 -0.000229 -0.002898 0.015807 0.001005 -0.001484 0.002240
# 4 -0.000800 -0.001339 0.001005 0.026351 -0.002412 0.005737
# 5 -0.003126 0.001369 -0.001484 -0.002412 0.032497 -0.003101
# 6 0.000861 0.000516 0.002240 0.005737 -0.003101 0.021993
#
#
# Mechanical properties :
#
#
# Convention : Reuss Voigt Hill
#
# Bulk Modulus (GPa) = 49.85096 65.44774 57.64935
# Shear Modulus (GPa) = 39.28699 45.72134 42.50417
#
# Velocity S-wave (km/s) = 4.27591 4.61279 4.44755
# Velocity P-wave (km/s) = 6.89766 7.66999 7.29405
#
# Compressibility (1/GPa) = 0.02005980
#
# Stress axis : x y z
#
# Youngs Moduli (GPa) = 141.85430 141.97538 63.26276
#
# Poissons Ratio (x) = 0.25456 0.01450
# Poissons Ratio (y) = 0.25434 0.18333
# Poissons Ratio (z) = 0.03252 0.41143
#
# Static dielectric constant tensor:
#      x y z
#    x 1.785240 0.041380 -0.010770 
#    y 0.041380 1.711070 -0.000690 
#    z -0.010770 -0.000690 1.770000 
# 
# From -- ./inp_files/206916.got.cif
#   From: 2010.05.17/outbox.cif.g08.bks.cpg/sg2_104_cif.got.tgz:206916.got - 2010.06.03 11:33:40.
