data_PCOD9070163
_publ_section_title
;
Structure prediction by ZEFSAII (Michael W. Deem and Ramdas Pophale) SiO2 
 PCOD9070163
Probable space group: P -1
;
_chemical_formula_sum "Si O2"
_cell_formula_units_Z 16
_cell_length_a 8.667597
_cell_length_b 20.928235
_cell_length_c 11.612477
_cell_angle_alpha 158.172727
_cell_angle_beta 70.441752
_cell_angle_gamma 105.092105
_cell_volume 730.343701
_symmetry_space_group_name_H-M "P -1"
_symmetry_group_IT_number 2
_symmetry_cell_setting 'triclinic'
loop_
_space_group_symop_operation_xyz
x,y,z
-x,-y,-z
loop_
_atom_site_type_symbol
_atom_site_label
_atom_site_fract_x
_atom_site_fract_y
_atom_site_fract_z
Si Si1 0.265926 0.246270 0.376497
Si Si2 0.891100 0.375656 0.386004
Si Si3 0.848041 0.056969 0.714909
Si Si4 0.902244 0.397439 0.690563
Si Si5 0.290018 0.892234 0.636313
Si Si6 0.510502 0.486903 0.613014
Si Si7 0.672188 0.768856 0.401177
Si Si8 0.631183 0.133073 0.677903
O O1 0.399440 0.346386 0.448313
O O2 0.330543 0.194077 0.400147
O O3 0.092158 0.375611 0.650404
O O4 0.249958 0.074166 0.018713
O O5 0.926663 0.369595 0.501421
O O6 0.698855 0.443833 0.530729
O O7 0.000000 0.500000 0.500000
O O8 0.906637 0.187957 0.010531
O O9 0.714403 0.139990 0.793649
O O10 0.775902 0.900825 0.532557
O O11 0.000000 0.000000 0.500000
O O12 0.820278 0.244414 0.514513
O O13 0.775185 0.576011 0.036422
O O14 0.483493 0.810517 0.472264
O O15 0.263332 0.920257 0.552617
O O16 0.500000 0.500000 0.500000
O O17 0.447015 0.669914 0.993415
O O18 0.500000 0.000000 0.500000
#
# Coordination Sequence:
#
# PCOD9070163 Si02
#       8
#     2   2   2   2   2   2   2   2
#     4  12  27  46  75 105 144 186 238 297 356 420
#     4  12  26  47  71 106 143 185 238 290 354 422
#     4  12  28  44  72 104 146 188 231 294 351 420
#     4  12  27  45  73 108 143 186 237 298 353 421
#     4  12  25  47  74 103 146 186 237 294 353 427
#     4  12  24  46  72 102 140 185 236 288 355 418
#     4  12  25  49  71 104 145 188 238 290 360 420
#     4  12  26  46  72 106 141 186 239 287 354 421
#
# _framework density 21.907492999999999
#
# number of rings (size 3 to 8) (size 9 to 14) (size 15 to 20)
#    0.000    0.000    2.500    7.500    7.000    0.000 
#    0.000    0.000    0.000    0.000    0.000    0.000 
#    0.000    0.000    0.000    0.000    0.000    0.000 
#
# Total GULP energy -89585.078865 kJ/mol
# GULP energy per Si atom -5599.067429 kJ/mol
# Density = 2.185763 g / cm^3
# Si number density = 21.907493 Si / 1000 Ang^3
#
#
#
# Elastic Constant Matrix: (Units=GPa)
#
#
# Indices 1 2 3 4 5 6 
#
# 1 82.9696 18.2602 0.0743 20.7946 -3.2286 16.4367
# 2 18.2602 178.1022 24.6698 16.5277 19.6545 15.2513
# 3 0.0743 24.6698 106.2285 -0.9695 -4.3420 8.1349
# 4 20.7946 16.5277 -0.9695 42.2837 -0.7340 17.7978
# 5 -3.2286 19.6545 -4.3420 -0.7340 29.0795 2.7628
# 6 16.4367 15.2513 8.1349 17.7978 2.7628 47.0650
#
#
#
# Elastic Compliance Matrix: (Units=1/GPa)
#
#
# Indices 1 2 3 4 5 6 
#
# 1 0.014294 -0.001074 0.000513 -0.005352 0.002526 -0.002857
# 2 -0.001074 0.006741 -0.001752 -0.002047 -0.004947 -0.000442
# 3 0.000513 -0.001752 0.010122 0.001622 0.002998 -0.002150
# 4 -0.005352 -0.002047 0.001622 0.031262 0.002745 -0.009731
# 5 0.002526 -0.004947 0.002998 0.002745 0.038825 -0.003114
# 6 -0.002857 -0.000442 -0.002150 -0.009731 -0.003114 0.026623
#
#
# Mechanical properties :
#
#
# Convention : Reuss Voigt Hill
#
# Bulk Modulus (GPa) = 37.69163 50.36766 44.02965
# Shear Modulus (GPa) = 35.37627 45.30538 40.34082
#
# Velocity S-wave (km/s) = 4.02282 4.55249 4.29583
# Velocity P-wave (km/s) = 6.23055 7.11861 6.68933
#
# Compressibility (1/GPa) = 0.02653109
#
# Stress axis : x y z
#
# Youngs Moduli (GPa) = 69.95907 148.34120 98.79358
#
# Poissons Ratio (x) = 0.15932 -0.05064
# Poissons Ratio (y) = 0.07513 0.17307
# Poissons Ratio (z) = -0.03586 0.25986
#
# Static dielectric constant tensor:
#      x y z
#    x 1.779750 -0.042620 -0.033080 
#    y -0.042620 1.738710 -0.017890 
#    z -0.033080 -0.017890 1.794350 
# 
# From -- ./inp_files/405763.got.cif
#   From: 2010.05.17/outbox.cif.g08.bks.cpg/sg2_203_cif.got.tgz:405763.got - 2010.06.03 11:33:40.
