data_PCOD9070543
_publ_section_title
;
Structure prediction by ZEFSAII (Michael W. Deem and Ramdas Pophale) SiO2 
 PCOD9070543
Probable space group: P -1
;
_chemical_formula_sum "Si O2"
_cell_formula_units_Z 15
_cell_length_a 9.064488
_cell_length_b 20.087618
_cell_length_c 9.273027
_cell_angle_alpha 41.463599
_cell_angle_beta 147.894288
_cell_angle_gamma 131.561797
_cell_volume 592.230508
_symmetry_space_group_name_H-M "P -1"
_symmetry_group_IT_number 2
_symmetry_cell_setting 'triclinic'
loop_
_space_group_symop_operation_xyz
x,y,z
-x,-y,-z
loop_
_atom_site_type_symbol
_atom_site_label
_atom_site_fract_x
_atom_site_fract_y
_atom_site_fract_z
Si Si1 0.796233 0.531519 0.408965
Si Si2 0.238934 0.066006 0.175231
Si Si3 0.588651 0.261470 0.098484
Si Si4 0.224131 0.330203 0.466765
Si Si5 0.500000 0.500000 0.500000
Si Si6 0.900296 0.897263 0.665846
Si Si7 0.426550 0.774522 0.306168
Si Si8 0.329397 0.646678 0.699006
O O1 0.724616 0.471532 0.591808
O O2 0.000000 0.500000 0.500000
O O3 0.001086 0.627325 0.476467
O O4 0.519750 0.562933 0.050312
O O5 0.367035 0.167224 0.035467
O O6 0.135114 0.086871 0.217594
O O7 0.500000 0.000000 0.500000
O O8 0.000000 0.000000 0.000000
O O9 0.584176 0.263760 0.263517
O O10 0.914378 0.276032 0.306996
O O11 0.450596 0.354076 0.754311
O O12 0.242187 0.448046 0.263387
O O13 0.400304 0.259837 0.629123
O O14 0.612624 0.857484 0.416997
O O15 0.000000 0.000000 0.500000
O O16 0.130251 0.816732 0.961051
O O17 0.391692 0.678473 0.537427
#
# Coordination Sequence:
#
# PCOD9070543 Si02
#       8
#     2   2   2   2   1   2   2   2
#     4  12  27  46  76 111 155 199 258 323 385 461
#     4  12  28  47  79 110 145 197 252 313 384 468
#     4  12  25  49  73 106 149 196 246 314 379 456
#     4  12  28  46  77 108 154 202 256 320 383 465
#     4  12  26  50  72 120 154 202 264 328 392 450
#     4  12  28  49  73 110 153 193 252 319 382 469
#     4  12  27  49  76 106 151 206 253 311 395 464
#     4  12  24  50  74 104 145 204 251 308 384 451
#
# _framework density 25.327978000000002
#
# number of rings (size 3 to 8) (size 9 to 14) (size 15 to 20)
#    0.000    0.000    4.000    4.800    7.467    3.200 
#    0.000    0.000    0.000    0.000    0.000    0.000 
#    0.000    0.000    0.000    0.000    0.000    0.000 
#
# Total GULP energy -83622.516543 kJ/mol
# GULP energy per Si atom -5574.834436 kJ/mol
# Density = 2.527033 g / cm^3
# Si number density = 25.327978 Si / 1000 Ang^3
#
#
#
# Elastic Constant Matrix: (Units=GPa)
#
#
# Indices 1 2 3 4 5 6 
#
# 1 200.6968 41.2910 42.2743 -1.8147 9.5437 10.5575
# 2 41.2910 105.2224 7.1993 26.7787 -6.2593 19.9318
# 3 42.2743 7.1993 117.9361 4.6160 11.8010 9.2338
# 4 -1.8147 26.7787 4.6160 42.7118 -3.0473 -2.1947
# 5 9.5437 -6.2593 11.8010 -3.0473 39.5040 -5.5741
# 6 10.5575 19.9318 9.2338 -2.1947 -5.5741 47.7376
#
#
#
# Elastic Compliance Matrix: (Units=1/GPa)
#
#
# Indices 1 2 3 4 5 6 
#
# 1 0.006065 -0.002925 -0.001989 0.002238 -0.001129 0.000236
# 2 -0.002925 0.014099 0.000881 -0.009270 0.001158 -0.005701
# 3 -0.001989 0.000881 0.009662 -0.001990 -0.002731 -0.002207
# 4 0.002238 -0.009270 -0.001990 0.029926 0.001645 0.005328
# 5 -0.001129 0.001158 -0.002731 0.001645 0.027213 0.003548
# 6 0.000236 -0.005701 -0.002207 0.005328 0.003548 0.024362
#
#
# Mechanical properties :
#
#
# Convention : Reuss Voigt Hill
#
# Bulk Modulus (GPa) = 45.95363 67.26494 56.60929
# Shear Modulus (GPa) = 39.47991 48.19672 43.83832
#
# Velocity S-wave (km/s) = 3.95238 4.36696 4.16483
# Velocity P-wave (km/s) = 6.24590 7.21404 6.74735
#
# Compressibility (1/GPa) = 0.02176107
#
# Stress axis : x y z
#
# Youngs Moduli (GPa) = 164.88423 70.92568 103.49644
#
# Poissons Ratio (x) = 0.20748 0.20580
# Poissons Ratio (y) = 0.48234 -0.09121
# Poissons Ratio (z) = 0.32787 -0.06250
#
# Static dielectric constant tensor:
#      x y z
#    x 3.801720 2.959460 -2.540210 
#    y 2.959460 7.326220 -4.290940 
#    z -2.540210 -4.290940 5.604970 
# 
# From -- ./inp_files/223326.got.cif
#   From: 2010.05.17/outbox.cif.g08.bks.cpg/sg2_112_cif.got.tgz:223326.got - 2010.06.03 11:33:40.
