data_PCOD9070516
_publ_section_title
;
Structure prediction by ZEFSAII (Michael W. Deem and Ramdas Pophale) SiO2 
 PCOD9070516
Probable space group: P -1
;
_chemical_formula_sum "Si O2"
_cell_formula_units_Z 12
_cell_length_a 9.155498
_cell_length_b 9.276233
_cell_length_c 8.681858
_cell_angle_alpha 72.565289
_cell_angle_beta 112.729571
_cell_angle_gamma 130.883251
_cell_volume 513.011655
_symmetry_space_group_name_H-M "P -1"
_symmetry_group_IT_number 2
_symmetry_cell_setting 'triclinic'
loop_
_space_group_symop_operation_xyz
x,y,z
-x,-y,-z
loop_
_atom_site_type_symbol
_atom_site_label
_atom_site_fract_x
_atom_site_fract_y
_atom_site_fract_z
Si Si1 0.571430 0.236827 0.270360
Si Si2 0.958316 0.835689 0.645392
Si Si3 0.937834 0.545656 0.119542
Si Si4 0.420629 0.043663 0.803231
Si Si5 0.809663 0.807145 0.913361
Si Si6 0.701681 0.383649 0.619291
O O1 0.770203 0.367424 0.208116
O O2 0.397661 0.233527 0.119388
O O3 0.612313 0.315230 0.434693
O O4 0.530639 0.035790 0.297746
O O5 0.828965 0.827942 0.732271
O O6 0.832426 0.615712 0.607933
O O7 0.182905 0.925048 0.764590
O O8 0.000000 0.000000 0.500000
O O9 0.137197 0.654501 0.267913
O O10 0.844013 0.653288 0.016028
O O11 0.000000 0.500000 0.000000
O O12 0.536950 0.264982 0.727542
O O13 0.500000 0.000000 0.000000
O O14 0.000000 0.000000 0.000000
#
# Coordination Sequence:
#
# PCOD9070516 Si02
#       6
#     2   2   2   2   2   2
#     4  12  26  46  75 113 149 197 250 316 380 449
#     4  12  28  49  72 108 153 201 250 311 379 450
#     4  12  24  49  76 107 148 199 250 305 381 452
#     4  12  26  48  78 108 149 204 253 306 383 452
#     4  12  27  47  73 110 152 193 259 312 370 451
#     4  12  26  48  78 108 154 195 258 309 381 447
#
# _framework density 23.391280999999999
#
# number of rings (size 3 to 8) (size 9 to 14) (size 15 to 20)
#    0.000    0.000    3.333    6.500    2.333    2.667 
#    0.000    0.000    0.000    0.000    0.000    0.000 
#    0.000    0.000    0.000    0.000    0.000    0.000 
#
# Total GULP energy -67108.673433 kJ/mol
# GULP energy per Si atom -5592.389453 kJ/mol
# Density = 2.333804 g / cm^3
# Si number density = 23.391281 Si / 1000 Ang^3
#
#
#
# Elastic Constant Matrix: (Units=GPa)
#
#
# Indices 1 2 3 4 5 6 
#
# 1 100.0746 15.0379 10.9552 15.8003 8.3296 29.1650
# 2 15.0379 123.3909 35.6703 -7.7482 -12.9390 30.8264
# 3 10.9552 35.6703 104.2144 7.6685 1.8785 12.3453
# 4 15.8003 -7.7482 7.6685 45.2767 9.2006 4.1945
# 5 8.3296 -12.9390 1.8785 9.2006 27.0532 6.3602
# 6 29.1650 30.8264 12.3453 4.1945 6.3602 34.6543
#
#
#
# Elastic Compliance Matrix: (Units=1/GPa)
#
#
# Indices 1 2 3 4 5 6 
#
# 1 0.013990 0.001303 -0.000179 -0.003567 0.000487 -0.012527
# 2 0.001303 0.013371 -0.003397 0.001884 0.008791 -0.013622
# 3 -0.000179 -0.003397 0.010979 -0.002036 -0.001592 -0.000200
# 4 -0.003567 0.001884 -0.002036 0.025304 -0.006508 0.000183
# 5 0.000487 0.008791 -0.001592 -0.006508 0.046987 -0.015498
# 6 -0.012527 -0.013622 -0.000200 0.000183 -0.015498 0.054410
#
#
# Mechanical properties :
#
#
# Convention : Reuss Voigt Hill
#
# Bulk Modulus (GPa) = 29.59039 50.11186 39.85112
# Shear Modulus (GPa) = 27.64700 39.13127 33.38913
#
# Velocity S-wave (km/s) = 3.44166 4.09455 3.78222
# Velocity P-wave (km/s) = 5.33582 6.61994 6.01226
#
# Compressibility (1/GPa) = 0.03379476
#
# Stress axis : x y z
#
# Youngs Moduli (GPa) = 71.48094 74.78915 91.07972
#
# Poissons Ratio (x) = -0.09748 0.01631
# Poissons Ratio (y) = -0.09317 0.30940
# Poissons Ratio (z) = 0.01280 0.25406
#
# Static dielectric constant tensor:
#      x y z
#    x 1.836040 -0.047390 0.009890 
#    y -0.047390 2.066420 -0.019340 
#    z 0.009890 -0.019340 1.894890 
# 
# From -- ./inp_files/157742.got.cif
#   From: 2010.05.17/outbox.cif.g08.bks.cpg/sg2_79_cif.got.tgz:157742.got - 2010.06.03 11:33:40.
