data_PCOD9070378
_publ_section_title
;
Structure prediction by ZEFSAII (Michael W. Deem and Ramdas Pophale) SiO2 
 PCOD9070378
Probable space group: P -1
;
_chemical_formula_sum "Si O2"
_cell_formula_units_Z 14
_cell_length_a 11.902475
_cell_length_b 15.680246
_cell_length_c 8.994886
_cell_angle_alpha 132.350602
_cell_angle_beta 57.244468
_cell_angle_gamma 152.080557
_cell_volume 573.742434
_symmetry_space_group_name_H-M "P -1"
_symmetry_group_IT_number 2
_symmetry_cell_setting 'triclinic'
loop_
_space_group_symop_operation_xyz
x,y,z
-x,-y,-z
loop_
_atom_site_type_symbol
_atom_site_label
_atom_site_fract_x
_atom_site_fract_y
_atom_site_fract_z
Si Si1 0.317911 0.279539 0.947717
Si Si2 0.911674 0.170857 0.162361
Si Si3 0.716428 0.534444 0.206806
Si Si4 0.232388 0.830340 0.440170
Si Si5 0.027797 0.598738 0.843368
Si Si6 0.826701 0.011591 0.539772
Si Si7 0.507628 0.208248 0.195104
O O1 0.256616 0.135444 0.703567
O O2 0.500000 0.500000 0.000000
O O3 0.466527 0.357294 0.082967
O O4 0.077529 0.179447 0.031079
O O5 0.892478 0.180410 0.359804
O O6 0.007477 0.357539 0.234227
O O7 0.657971 0.962457 0.018372
O O8 0.653710 0.422334 0.272249
O O9 0.879031 0.767981 0.387926
O O10 0.902486 0.594047 0.044051
O O11 0.110683 0.619254 0.284166
O O12 0.500000 0.000000 0.500000
O O13 0.237539 0.907044 0.378120
O O14 0.304096 0.755288 0.847284
O O15 0.671444 0.884294 0.651541
#
# Coordination Sequence:
#
# PCOD9070378 Si02
#       7
#     2   2   2   2   2   2   2
#     4  12  28  53  81 110 163 207 268 317 384 471
#     4  12  27  48  78 115 151 215 255 324 394 460
#     4  12  27  52  80 115 160 208 259 326 388 465
#     4  12  27  46  78 117 160 198 261 326 394 469
#     4  12  24  47  78 117 155 200 260 325 398 463
#     4  12  28  52  77 119 154 209 262 325 388 462
#     4  12  26  47  81 113 156 200 263 324 399 459
#
# _framework density 24.401192999999999
#
# number of rings (size 3 to 8) (size 9 to 14) (size 15 to 20)
#    0.000    0.000    4.286    4.714    4.000    4.571 
#    0.000    2.143    0.000    0.000    0.000    0.000 
#    0.000    0.000    0.000    0.000    0.000    0.000 
#
# Total GULP energy -78409.236088 kJ/mol
# GULP energy per Si atom -5600.659721 kJ/mol
# Density = 2.434565 g / cm^3
# Si number density = 24.401193 Si / 1000 Ang^3
#
#
#
# Elastic Constant Matrix: (Units=GPa)
#
#
# Indices 1 2 3 4 5 6 
#
# 1 112.5091 31.4040 25.9968 -3.2996 9.6703 4.7750
# 2 31.4040 82.1722 5.6791 2.7142 -4.2474 -28.6344
# 3 25.9968 5.6791 61.4578 25.6613 2.7339 -3.0604
# 4 -3.2996 2.7142 25.6613 40.1384 -1.4456 14.5387
# 5 9.6703 -4.2474 2.7339 -1.4456 31.1935 -1.7120
# 6 4.7750 -28.6344 -3.0604 14.5387 -1.7120 46.8389
#
#
#
# Elastic Compliance Matrix: (Units=1/GPa)
#
#
# Indices 1 2 3 4 5 6 
#
# 1 0.016509 -0.011209 -0.012790 0.015276 -0.005601 -0.014317
# 2 -0.011209 0.024380 0.010452 -0.017090 0.006308 0.022265
# 3 -0.012790 0.010452 0.034468 -0.030815 0.002014 0.019584
# 4 0.015276 -0.017090 -0.030815 0.058616 -0.003420 -0.032338
# 5 -0.005601 0.006308 0.002014 -0.003420 0.034696 0.006889
# 6 -0.014317 0.022265 0.019584 -0.032338 0.006889 0.047990
#
#
# Mechanical properties :
#
#
# Convention : Reuss Voigt Hill
#
# Bulk Modulus (GPa) = 20.71895 42.47765 31.59830
# Shear Modulus (GPa) = 19.24259 36.50478 27.87369
#
# Velocity S-wave (km/s) = 2.81123 3.87204 3.38347
# Velocity P-wave (km/s) = 4.36426 6.11851 5.31427
#
# Compressibility (1/GPa) = 0.04826499
#
# Stress axis : x y z
#
# Youngs Moduli (GPa) = 60.57270 41.01700 29.01238
#
# Poissons Ratio (x) = 0.45974 0.37106
# Poissons Ratio (y) = 0.67894 -0.30325
# Poissons Ratio (z) = 0.77472 -0.42872
#
# Static dielectric constant tensor:
#      x y z
#    x 1.736180 0.073060 -0.012760 
#    y 0.073060 1.916880 0.125100 
#    z -0.012760 0.125100 1.863910 
# 
# From -- ./inp_files/274316.got.cif
#   From: 2010.05.17/outbox.cif.g08.bks.cpg/sg2_138_cif.got.tgz:274316.got - 2010.06.03 11:33:40.
