data_PCOD9070238
_publ_section_title
;
Structure prediction by ZEFSAII (Michael W. Deem and Ramdas Pophale) SiO2 
 PCOD9070238
Probable space group: P -1
;
_chemical_formula_sum "Si O2"
_cell_formula_units_Z 15
_cell_length_a 12.288516
_cell_length_b 8.355857
_cell_length_c 7.834992
_cell_angle_alpha 125.558698
_cell_angle_beta 81.877299
_cell_angle_gamma 104.524307
_cell_volume 633.554492
_symmetry_space_group_name_H-M "P -1"
_symmetry_group_IT_number 2
_symmetry_cell_setting 'triclinic'
loop_
_space_group_symop_operation_xyz
x,y,z
-x,-y,-z
loop_
_atom_site_type_symbol
_atom_site_label
_atom_site_fract_x
_atom_site_fract_y
_atom_site_fract_z
Si Si1 0.559067 0.327504 0.445670
Si Si2 0.644275 0.983273 0.538011
Si Si3 0.500000 0.000000 0.000000
Si Si4 0.343391 0.160789 0.911485
Si Si5 0.322952 0.586559 0.177382
Si Si6 0.879674 0.009678 0.956002
Si Si7 0.877261 0.863001 0.496213
Si Si8 0.125935 0.557966 0.942295
O O1 0.500000 0.500000 0.500000
O O2 0.451227 0.186290 0.471039
O O3 0.586839 0.195279 0.198863
O O4 0.655401 0.403093 0.615474
O O5 0.630938 0.973067 0.332822
O O6 0.771275 0.957369 0.521280
O O7 0.620661 0.187485 0.752806
O O8 0.581771 0.855176 0.952285
O O9 0.365325 0.391406 0.987050
O O10 0.214822 0.086185 0.947730
O O11 0.203103 0.569663 0.102006
O O12 0.869619 0.870577 0.705414
O O13 0.863455 0.230480 0.031433
O O14 0.000000 0.000000 0.000000
O O15 0.857615 0.635407 0.290539
O O16 0.000000 0.000000 0.500000
O O17 0.000000 0.500000 0.000000
#
# Coordination Sequence:
#
# PCOD9070238 Si02
#       8
#     2   2   1   2   2   2   2   2
#     4  12  28  47  74 109 151 197 250 308 370 448
#     4  12  26  48  74 107 147 196 250 305 370 449
#     4  12  26  46  70 108 156 186 248 304 374 440
#     4  12  27  45  74 109 147 198 247 306 376 445
#     4  12  25  46  76 106 147 195 252 301 375 445
#     4  12  27  46  74 108 151 187 251 315 373 447
#     4  12  24  46  77 104 144 193 244 307 375 442
#     4  12  25  46  76 110 143 196 252 307 376 447
#
# _framework density 23.675944000000001
#
# number of rings (size 3 to 8) (size 9 to 14) (size 15 to 20)
#    0.000    0.000    6.667    2.800    0.000    4.267 
#    0.000    0.000    0.000    0.000    0.000    0.000 
#    0.000    0.000    0.000    0.000    0.000    0.000 
#
# Total GULP energy -83623.138535 kJ/mol
# GULP energy per Si atom -5574.875902 kJ/mol
# Density = 2.362206 g / cm^3
# Si number density = 23.675944 Si / 1000 Ang^3
#
#
#
# Elastic Constant Matrix: (Units=GPa)
#
#
# Indices 1 2 3 4 5 6 
#
# 1 166.0748 56.4010 27.8903 2.4498 29.9308 -22.0878
# 2 56.4010 97.4265 41.0122 18.1433 -1.4644 -10.5012
# 3 27.8903 41.0122 145.7055 24.0897 12.8507 -13.5312
# 4 2.4498 18.1433 24.0897 34.0585 -9.2750 -7.2096
# 5 29.9308 -1.4644 12.8507 -9.2750 48.7928 -11.2960
# 6 -22.0878 -10.5012 -13.5312 -7.2096 -11.2960 52.9434
#
#
#
# Elastic Compliance Matrix: (Units=1/GPa)
#
#
# Indices 1 2 3 4 5 6 
#
# 1 0.008940 -0.005352 0.000241 0.001026 -0.005101 0.001781
# 2 -0.005352 0.015544 -0.002849 -0.004840 0.003635 0.000239
# 3 0.000241 -0.002849 0.008908 -0.005727 -0.003608 0.000263
# 4 0.001026 -0.004840 -0.005727 0.039664 0.009533 0.005439
# 5 -0.005101 0.003635 -0.003608 0.009533 0.027621 0.004862
# 6 0.001781 0.000239 0.000263 0.005439 0.004862 0.021524
#
#
# Mechanical properties :
#
#
# Convention : Reuss Voigt Hill
#
# Bulk Modulus (GPa) = 57.23737 73.31265 65.27501
# Shear Modulus (GPa) = 34.73556 46.08580 40.41068
#
# Velocity S-wave (km/s) = 3.83446 4.41673 4.13586
# Velocity P-wave (km/s) = 6.62057 7.55263 7.10191
#
# Compressibility (1/GPa) = 0.01747110
#
# Stress axis : x y z
#
# Youngs Moduli (GPa) = 111.86112 64.33517 112.25353
#
# Poissons Ratio (x) = 0.34435 -0.02706
# Poissons Ratio (y) = 0.59873 0.31980
# Poissons Ratio (z) = -0.02696 0.18328
#
# Static dielectric constant tensor:
#      x y z
#    x 1.850310 -0.042370 0.063390 
#    y -0.042370 1.912980 -0.017390 
#    z 0.063390 -0.017390 1.958090 
# 
# From -- ./inp_files/241452.got.cif
#   From: 2010.05.17/outbox.cif.g08.bks.cpg/sg2_121_cif.got.tgz:241452.got - 2010.06.03 11:33:40.
