data_PCOD9070823
_publ_section_title
;
Structure prediction by ZEFSAII (Michael W. Deem and Ramdas Pophale) SiO2 
 PCOD9070823
Probable space group: P -1
;
_chemical_formula_sum "Si O2"
_cell_formula_units_Z 14
_cell_length_a 14.085077
_cell_length_b 6.178529
_cell_length_c 16.370563
_cell_angle_alpha 130.226722
_cell_angle_beta 150.242437
_cell_angle_gamma 59.189100
_cell_volume 535.435468
_symmetry_space_group_name_H-M "P -1"
_symmetry_group_IT_number 2
_symmetry_cell_setting 'triclinic'
loop_
_space_group_symop_operation_xyz
x,y,z
-x,-y,-z
loop_
_atom_site_type_symbol
_atom_site_label
_atom_site_fract_x
_atom_site_fract_y
_atom_site_fract_z
Si Si1 0.854779 0.214666 0.836298
Si Si2 0.982348 0.620487 0.765555
Si Si3 0.404886 0.888845 0.990051
Si Si4 0.655142 0.794104 0.310079
Si Si5 0.054120 0.343875 0.597468
Si Si6 0.327206 0.484958 0.082388
Si Si7 0.656924 0.296122 0.549569
O O1 0.731408 0.289659 0.840586
O O2 0.709050 0.152527 0.637037
O O3 0.976177 0.950714 0.859881
O O4 0.000000 0.500000 0.000000
O O5 0.847711 0.476171 0.700914
O O6 0.924698 0.492380 0.602198
O O7 0.188497 0.517887 0.910331
O O8 0.570495 0.826195 0.162800
O O9 0.306599 0.158744 0.015813
O O10 0.240098 0.613659 0.798410
O O11 0.500000 0.000000 0.000000
O O12 0.881282 0.751124 0.468724
O O13 0.538632 0.557044 0.221469
O O14 0.603446 0.074433 0.384463
O O15 0.000000 0.000000 0.500000
O O16 0.500000 0.500000 0.500000
#
# Coordination Sequence:
#
# PCOD9070823 Si02
#       7
#     2   2   2   2   2   2   2
#     4  12  27  47  78 112 148 208 265 313 392 470
#     4  12  26  48  76 108 155 202 257 325 387 465
#     4  12  25  47  81 116 154 207 263 315 395 473
#     4  12  26  48  76 111 161 202 255 329 394 462
#     4  12  25  50  75 111 156 203 257 322 391 463
#     4  12  25  46  81 113 153 205 261 318 389 468
#     4  12  28  48  74 113 157 201 259 328 390 462
#
# _framework density 26.146941999999999
#
# number of rings (size 3 to 8) (size 9 to 14) (size 15 to 20)
#    0.000    0.000    5.714    4.286    2.000    3.429 
#    0.000    3.571    0.000    0.000    0.000    0.000 
#    0.000    0.000    0.000    0.000    0.000    0.000 
#
# Total GULP energy -78029.851911 kJ/mol
# GULP energy per Si atom -5573.560851 kJ/mol
# Density = 2.608743 g / cm^3
# Si number density = 26.146942 Si / 1000 Ang^3
#
#
#
# Elastic Constant Matrix: (Units=GPa)
#
#
# Indices 1 2 3 4 5 6 
#
# 1 175.1789 23.6985 28.1875 2.9786 -0.2340 -7.6260
# 2 23.6985 133.2129 36.5749 24.9128 -25.7232 -30.6004
# 3 28.1875 36.5749 75.5569 11.8635 -6.8494 13.1723
# 4 2.9786 24.9128 11.8635 58.6069 2.4572 -6.8679
# 5 -0.2340 -25.7232 -6.8494 2.4572 42.3602 2.0085
# 6 -7.6260 -30.6004 13.1723 -6.8679 2.0085 51.4256
#
#
#
# Elastic Compliance Matrix: (Units=1/GPa)
#
#
# Indices 1 2 3 4 5 6 
#
# 1 0.006219 -0.000267 -0.002599 0.000530 -0.000651 0.001525
# 2 -0.000267 0.013480 -0.006808 -0.003574 0.006865 0.008980
# 3 -0.002599 -0.006808 0.019468 -0.002031 -0.000424 -0.009677
# 4 0.000530 -0.003574 -0.002031 0.019259 -0.003669 0.001187
# 5 -0.000651 0.006865 -0.000424 -0.003669 0.027797 0.002521
# 6 0.001525 0.008980 -0.009677 0.001187 0.002521 0.027554
#
#
# Mechanical properties :
#
#
# Convention : Reuss Voigt Hill
#
# Bulk Modulus (GPa) = 50.45550 62.31895 56.38722
# Shear Modulus (GPa) = 35.78277 50.17775 42.98026
#
# Velocity S-wave (km/s) = 3.70337 4.38547 4.05877
# Velocity P-wave (km/s) = 6.13396 7.03768 6.60130
#
# Compressibility (1/GPa) = 0.01981944
#
# Stress axis : x y z
#
# Youngs Moduli (GPa) = 160.78972 74.18213 51.36741
#
# Poissons Ratio (x) = 0.01983 0.13350
# Poissons Ratio (y) = 0.04299 0.34969
# Poissons Ratio (z) = 0.41787 0.50501
#
# Static dielectric constant tensor:
#      x y z
#    x 2.210490 0.006720 -0.143970 
#    y 0.006720 2.481590 -0.144420 
#    z -0.143970 -0.144420 2.335850 
# 
# From -- ./inp_files/48322.got.cif
#   From: 2010.05.17/outbox.cif.g08.bks.cpg/sg2_25_cif.got.tgz:48322.got - 2010.06.03 11:33:40.
