data_PCOD9070472
_publ_section_title
;
Structure prediction by ZEFSAII (Michael W. Deem and Ramdas Pophale) SiO2 
 PCOD9070472
Probable space group: P -1
;
_chemical_formula_sum "Si O2"
_cell_formula_units_Z 14
_cell_length_a 11.437531
_cell_length_b 5.310958
_cell_length_c 20.387643
_cell_angle_alpha 61.903445
_cell_angle_beta 29.813228
_cell_angle_gamma 67.428435
_cell_volume 542.289171
_symmetry_space_group_name_H-M "P -1"
_symmetry_group_IT_number 2
_symmetry_cell_setting 'triclinic'
loop_
_space_group_symop_operation_xyz
x,y,z
-x,-y,-z
loop_
_atom_site_type_symbol
_atom_site_label
_atom_site_fract_x
_atom_site_fract_y
_atom_site_fract_z
Si Si1 0.831238 0.102045 0.629484
Si Si2 0.795755 0.089247 0.423334
Si Si3 0.615716 0.309973 0.911635
Si Si4 0.091616 0.222320 0.870695
Si Si5 0.512370 0.583172 0.688567
Si Si6 0.849765 0.753716 0.308305
Si Si7 0.404598 0.667470 0.874323
O O1 0.751038 0.419616 0.610593
O O2 0.966380 0.995768 0.642219
O O3 0.565422 0.950605 0.778014
O O4 0.000000 0.000000 0.500000
O O5 0.601881 0.882615 0.578112
O O6 0.787457 0.980629 0.365811
O O7 0.744294 0.424641 0.409409
O O8 0.577701 0.437046 0.843248
O O9 0.881925 0.297955 0.800694
O O10 0.500000 0.500000 0.000000
O O11 0.500000 0.000000 0.000000
O O12 0.324492 0.401422 0.758648
O O13 0.147651 0.128738 0.781328
O O14 0.848543 0.386312 0.962437
O O15 0.000000 0.000000 0.000000
O O16 0.377979 0.641281 0.813702
#
# Coordination Sequence:
#
# PCOD9070472 Si02
#       7
#     2   2   2   2   2   2   2
#     4  12  24  48  77 120 154 199 257 328 395 461
#     4  12  27  49  79 115 153 202 263 327 392 455
#     4  12  26  45  75 113 155 197 254 326 396 456
#     4  12  29  52  76 112 158 215 263 321 394 481
#     4  12  28  47  78 112 159 208 262 318 392 478
#     4  12  28  49  77 114 154 204 264 326 391 464
#     4  12  26  47  80 114 158 203 261 328 395 471
#
# _framework density 25.816488
#
# number of rings (size 3 to 8) (size 9 to 14) (size 15 to 20)
#    0.000    0.000    5.714    3.429    4.000    2.286 
#    0.000    0.000    0.000    0.000    0.000    0.000 
#    0.000    0.000    0.000    0.000    0.000    0.000 
#
# Total GULP energy -78386.861848 kJ/mol
# GULP energy per Si atom -5599.061561 kJ/mol
# Density = 2.575773 g / cm^3
# Si number density = 25.816488 Si / 1000 Ang^3
#
#
#
# Elastic Constant Matrix: (Units=GPa)
#
#
# Indices 1 2 3 4 5 6 
#
# 1 176.0415 31.6339 40.6664 7.2837 3.4643 2.2565
# 2 31.6339 66.4733 28.9308 -5.3668 -17.3069 6.1564
# 3 40.6664 28.9308 86.8081 4.3234 -16.9924 -2.4514
# 4 7.2837 -5.3668 4.3234 58.9010 -8.2940 0.6568
# 5 3.4643 -17.3069 -16.9924 -8.2940 55.5017 9.5640
# 6 2.2565 6.1564 -2.4514 0.6568 9.5640 44.7233
#
#
#
# Elastic Compliance Matrix: (Units=1/GPa)
#
#
# Indices 1 2 3 4 5 6 
#
# 1 0.006913 -0.002901 -0.002669 -0.001269 -0.002419 0.000440
# 2 -0.002901 0.020835 -0.004602 0.003569 0.006566 -0.004430
# 3 -0.002669 -0.004602 0.014963 -0.000771 0.003033 0.000951
# 4 -0.001269 0.003569 -0.000771 0.018087 0.003930 -0.001576
# 5 -0.002419 0.006566 0.003033 0.003930 0.022684 -0.005524
# 6 0.000440 -0.004430 0.000951 -0.001576 -0.005524 0.024204
#
#
# Mechanical properties :
#
#
# Convention : Reuss Voigt Hill
#
# Bulk Modulus (GPa) = 44.71181 59.08723 51.89952
# Shear Modulus (GPa) = 36.90391 47.03133 41.96762
#
# Velocity S-wave (km/s) = 3.78494 4.27283 4.03626
# Velocity P-wave (km/s) = 6.03802 6.87604 6.47061
#
# Compressibility (1/GPa) = 0.02236546
#
# Stress axis : x y z
#
# Youngs Moduli (GPa) = 144.65775 47.99589 66.83082
#
# Poissons Ratio (x) = 0.13923 0.17840
# Poissons Ratio (y) = 0.41963 0.30759
# Poissons Ratio (z) = 0.38616 0.22090
#
# Static dielectric constant tensor:
#      x y z
#    x 2.121060 0.016120 -0.044810 
#    y 0.016120 2.183820 -0.044040 
#    z -0.044810 -0.044040 2.046610 
# 
# From -- ./inp_files/409953.got.cif
#   From: 2010.05.17/outbox.cif.g08.bks.cpg/sg2_205_cif.got.tgz:409953.got - 2010.06.03 11:33:40.
