data_PCOD9070628
_publ_section_title
;
Structure prediction by ZEFSAII (Michael W. Deem and Ramdas Pophale) SiO2 
 PCOD9070628
Probable space group: P -1
;
_chemical_formula_sum "Si O2"
_cell_formula_units_Z 14
_cell_length_a 9.318396
_cell_length_b 9.235240
_cell_length_c 12.763339
_cell_angle_alpha 121.510432
_cell_angle_beta 53.428283
_cell_angle_gamma 132.632204
_cell_volume 635.670814
_symmetry_space_group_name_H-M "P -1"
_symmetry_group_IT_number 2
_symmetry_cell_setting 'triclinic'
loop_
_space_group_symop_operation_xyz
x,y,z
-x,-y,-z
loop_
_atom_site_type_symbol
_atom_site_label
_atom_site_fract_x
_atom_site_fract_y
_atom_site_fract_z
Si Si1 0.078735 0.340823 0.394890
Si Si2 0.003062 0.826498 0.864466
Si Si3 0.546971 0.015185 0.213044
Si Si4 0.756664 0.364755 0.095311
Si Si5 0.350204 0.575987 0.055215
Si Si6 0.464156 0.464768 0.624923
Si Si7 0.348610 0.038107 0.505408
O O1 0.305161 0.422636 0.379026
O O2 0.000000 0.500000 0.500000
O O3 0.089425 0.260138 0.243446
O O4 0.888065 0.147609 0.459962
O O5 0.249800 0.923459 0.782647
O O6 0.883727 0.619465 0.903404
O O7 0.000000 0.000000 0.000000
O O8 0.652346 0.142786 0.108715
O O9 0.407649 0.776249 0.167458
O O10 0.419774 0.074981 0.366518
O O11 0.702066 0.476505 0.247632
O O12 0.621063 0.355756 0.050928
O O13 0.000000 0.500000 0.000000
O O14 0.500000 0.500000 0.000000
O O15 0.500000 0.500000 0.500000
O O16 0.362922 0.235092 0.614472
O O17 0.500000 0.000000 0.500000
#
# Coordination Sequence:
#
# PCOD9070628 Si02
#       7
#     2   2   2   2   2   2   2
#     4  12  26  47  82 113 150 203 259 321 389 459
#     4  12  25  43  73 114 151 193 257 319 381 454
#     4  12  25  48  71 109 153 196 252 318 382 457
#     4  12  28  50  75 109 159 204 247 321 390 457
#     4  12  26  45  76 106 145 201 258 311 381 459
#     4  12  28  52  76 114 158 199 263 321 385 463
#     4  12  25  46  81 109 149 201 256 320 383 460
#
# _framework density 22.023979000000001
#
# number of rings (size 3 to 8) (size 9 to 14) (size 15 to 20)
#    0.000    0.000    7.143    2.143    4.000    1.714 
#    2.571    0.000    0.000    0.000    0.000    0.000 
#    0.000    0.000    0.000    0.000    0.000    0.000 
#
# Total GULP energy -78102.649506 kJ/mol
# GULP energy per Si atom -5578.760679 kJ/mol
# Density = 2.197385 g / cm^3
# Si number density = 22.023979 Si / 1000 Ang^3
#
#
#
# Elastic Constant Matrix: (Units=GPa)
#
#
# Indices 1 2 3 4 5 6 
#
# 1 70.4579 31.7932 43.1225 1.9491 9.6548 -1.9927
# 2 31.7932 171.7671 46.7135 11.8756 -10.4647 16.2504
# 3 43.1225 46.7135 124.9490 -3.8076 0.0964 7.5772
# 4 1.9491 11.8756 -3.8076 41.7960 0.4417 -2.9130
# 5 9.6548 -10.4647 0.0964 0.4417 43.0515 -4.3104
# 6 -1.9927 16.2504 7.5772 -2.9130 -4.3104 30.4518
#
#
#
# Elastic Compliance Matrix: (Units=1/GPa)
#
#
# Indices 1 2 3 4 5 6 
#
# 1 0.019861 -0.002604 -0.006103 -0.000449 -0.004719 0.003497
# 2 -0.002604 0.007409 -0.001726 -0.002416 0.002049 -0.003636
# 3 -0.006103 -0.001726 0.010922 0.001627 0.000714 -0.001939
# 4 -0.000449 -0.002416 0.001627 0.025008 -0.000428 0.003187
# 5 -0.004719 0.002049 0.000714 -0.000428 0.024979 0.001915
# 6 0.003497 -0.003636 -0.001939 0.003187 0.001915 0.036066
#
#
# Mechanical properties :
#
#
# Convention : Reuss Voigt Hill
#
# Bulk Modulus (GPa) = 57.71743 67.82581 62.77162
# Shear Modulus (GPa) = 33.13771 39.42952 36.28361
#
# Velocity S-wave (km/s) = 3.88315 4.23578 4.06329
# Velocity P-wave (km/s) = 6.80945 7.40174 7.11176
#
# Compressibility (1/GPa) = 0.01732579
#
# Stress axis : x y z
#
# Youngs Moduli (GPa) = 50.35010 134.97008 91.56224
#
# Poissons Ratio (x) = 0.35141 0.55882
# Poissons Ratio (y) = 0.13109 0.15805
# Poissons Ratio (z) = 0.30729 0.23297
#
# Static dielectric constant tensor:
#      x y z
#    x 1.919050 0.011410 0.031760 
#    y 0.011410 1.698140 -0.009320 
#    z 0.031760 -0.009320 1.924360 
# 
# From -- ./inp_files/245800.got.cif
#   From: 2010.05.17/outbox.cif.g08.bks.cpg/sg2_123_cif.got.tgz:245800.got - 2010.06.03 11:33:40.
