data_PCOD9070437
_publ_section_title
;
Structure prediction by ZEFSAII (Michael W. Deem and Ramdas Pophale) SiO2 
 PCOD9070437
Probable space group: P -1
;
_chemical_formula_sum "Si O2"
_cell_formula_units_Z 14
_cell_length_a 8.472368
_cell_length_b 11.847921
_cell_length_c 11.667141
_cell_angle_alpha 102.450274
_cell_angle_beta 142.182525
_cell_angle_gamma 67.077275
_cell_volume 652.526674
_symmetry_space_group_name_H-M "P -1"
_symmetry_group_IT_number 2
_symmetry_cell_setting 'triclinic'
loop_
_space_group_symop_operation_xyz
x,y,z
-x,-y,-z
loop_
_atom_site_type_symbol
_atom_site_label
_atom_site_fract_x
_atom_site_fract_y
_atom_site_fract_z
Si Si1 0.292380 0.384662 0.135287
Si Si2 0.890384 0.816042 0.138674
Si Si3 0.199705 0.546596 0.547068
Si Si4 0.236045 0.116105 0.416598
Si Si5 0.448377 0.317250 0.476457
Si Si6 0.188917 0.943862 0.988658
Si Si7 0.216779 0.180713 0.670569
O O1 0.534872 0.431337 0.241120
O O2 0.386406 0.330153 0.306836
O O3 0.242593 0.282461 0.002254
O O4 0.000000 0.500000 0.000000
O O5 0.810919 0.869562 0.232236
O O6 0.225444 0.748305 0.319896
O O7 0.777955 0.934654 0.018471
O O8 0.324568 0.452178 0.493564
O O9 0.000000 0.500000 0.500000
O O10 0.998097 0.680534 0.419665
O O11 0.295980 0.235777 0.434441
O O12 0.182686 0.114579 0.520896
O O13 0.970990 0.109265 0.202209
O O14 0.500000 0.000000 0.500000
O O15 0.465651 0.834307 0.160124
O O16 0.000000 0.000000 0.000000
#
# Coordination Sequence:
#
# PCOD9070437 Si02
#       7
#     2   2   2   2   2   2   2
#     4  12  26  46  76 106 143 197 244 291 376 436
#     4  12  26  46  74 108 146 190 246 302 366 439
#     4  12  26  48  73 108 150 188 243 307 363 435
#     4  12  25  46  74 104 141 195 241 298 372 427
#     4  12  24  48  75 105 147 192 239 306 365 438
#     4  12  26  47  72 105 149 191 246 296 367 440
#     4  12  27  47  70 107 150 185 246 306 360 441
#
# _framework density 21.455062999999999
#
# number of rings (size 3 to 8) (size 9 to 14) (size 15 to 20)
#    0.000    0.000    7.143    2.571    2.000    1.714 
#    0.000    2.143    0.000    0.000    0.000    0.000 
#    0.000    0.000    0.000    0.000    0.000    0.000 
#
# Total GULP energy -78266.970671 kJ/mol
# GULP energy per Si atom -5590.497905 kJ/mol
# Density = 2.140623 g / cm^3
# Si number density = 21.455063 Si / 1000 Ang^3
#
#
#
# Elastic Constant Matrix: (Units=GPa)
#
#
# Indices 1 2 3 4 5 6 
#
# 1 103.4448 30.0584 23.9052 16.3098 -7.0385 -6.7496
# 2 30.0584 93.5431 40.1916 2.9758 10.1036 -16.8777
# 3 23.9052 40.1916 136.9800 20.5389 17.1909 -12.6240
# 4 16.3098 2.9758 20.5389 48.3189 -9.5056 6.5247
# 5 -7.0385 10.1036 17.1909 -9.5056 49.7613 2.1399
# 6 -6.7496 -16.8777 -12.6240 6.5247 2.1399 41.8578
#
#
#
# Elastic Compliance Matrix: (Units=1/GPa)
#
#
# Indices 1 2 3 4 5 6 
#
# 1 0.011473 -0.003365 -0.000743 -0.003053 0.001951 0.000645
# 2 -0.003365 0.014040 -0.002899 0.000446 -0.002425 0.004299
# 3 -0.000743 -0.002899 0.009736 -0.004830 -0.003914 0.002601
# 4 -0.003053 0.000446 -0.004830 0.025826 0.006343 -0.006119
# 5 0.001951 -0.002425 -0.003914 0.006343 0.023602 -0.004039
# 6 0.000645 0.004299 0.002601 -0.006119 -0.004039 0.027673
#
#
# Mechanical properties :
#
#
# Convention : Reuss Voigt Hill
#
# Bulk Modulus (GPa) = 47.08847 58.03090 52.55969
# Shear Modulus (GPa) = 37.46999 43.97511 40.72255
#
# Velocity S-wave (km/s) = 4.18358 4.53220 4.36138
# Velocity P-wave (km/s) = 6.73287 7.38202 7.06490
#
# Compressibility (1/GPa) = 0.02123662
#
# Stress axis : x y z
#
# Youngs Moduli (GPa) = 87.16491 71.22372 102.71529
#
# Poissons Ratio (x) = 0.23964 0.07628
# Poissons Ratio (y) = 0.29328 0.29774
# Poissons Ratio (z) = 0.06473 0.20645
#
# Static dielectric constant tensor:
#      x y z
#    x 1.818600 0.010230 -0.001570 
#    y 0.010230 1.777700 -0.015730 
#    z -0.001570 -0.015730 1.741460 
# 
# From -- ./inp_files/122889.got.cif
#   From: 2010.05.17/outbox.cif.g08.bks.cpg/sg2_62_cif.got.tgz:122889.got - 2010.06.03 11:33:40.
