data_PCOD9070778
_publ_section_title
;
Structure prediction by ZEFSAII (Michael W. Deem and Ramdas Pophale) SiO2 
 PCOD9070778
Probable space group: P -1
;
_chemical_formula_sum "Si O2"
_cell_formula_units_Z 13
_cell_length_a 9.310200
_cell_length_b 8.386477
_cell_length_c 13.517547
_cell_angle_alpha 67.688094
_cell_angle_beta 142.447725
_cell_angle_gamma 95.688849
_cell_volume 555.674471
_symmetry_space_group_name_H-M "P -1"
_symmetry_group_IT_number 2
_symmetry_cell_setting 'triclinic'
loop_
_space_group_symop_operation_xyz
x,y,z
-x,-y,-z
loop_
_atom_site_type_symbol
_atom_site_label
_atom_site_fract_x
_atom_site_fract_y
_atom_site_fract_z
Si Si1 0.276849 0.991392 0.675582
Si Si2 0.869533 0.219176 0.856231
Si Si3 0.469281 0.857506 0.599488
Si Si4 0.934693 0.292032 0.647514
Si Si5 0.478576 0.330379 0.964337
Si Si6 0.000000 0.500000 0.000000
Si Si7 0.588981 0.668731 0.286084
O O1 0.446882 0.930023 0.683877
O O2 0.277738 0.182098 0.674993
O O3 0.377173 0.845658 0.851631
O O4 0.000000 0.000000 0.500000
O O5 0.871281 0.275597 0.731347
O O6 0.983703 0.345385 0.952082
O O7 0.589837 0.275501 0.730866
O O8 0.000000 0.000000 0.000000
O O9 0.187305 0.850889 0.429644
O O10 0.700712 0.658027 0.763854
O O11 0.500000 0.000000 0.500000
O O12 0.783736 0.469023 0.458774
O O13 0.207227 0.312934 0.802104
O O14 0.571117 0.328548 0.901953
O O15 0.500000 0.500000 0.000000
#
# Coordination Sequence:
#
# PCOD9070778 Si02
#       7
#     2   2   2   2   2   1   2
#     4  12  27  49  74 114 155 200 266 324 400 481
#     4  12  27  47  75 115 155 204 262 329 393 477
#     4  12  27  49  80 116 158 209 265 332 400 486
#     4  12  25  48  74 111 155 196 261 320 392 466
#     4  12  27  48  76 107 151 205 257 319 389 473
#     4  12  26  46  78 112 162 202 268 314 412 460
#     4  12  25  46  74 108 150 204 252 320 390 462
#
# _framework density 23.394992999999999
#
# number of rings (size 3 to 8) (size 9 to 14) (size 15 to 20)
#    0.000    0.000    1.538    8.769    4.308    2.462 
#    0.000    0.000    0.000    0.000    0.000    0.000 
#    0.000    0.000    0.000    0.000    0.000    0.000 
#
# Total GULP energy -72374.301285 kJ/mol
# GULP energy per Si atom -5567.253945 kJ/mol
# Density = 2.334175 g / cm^3
# Si number density = 23.394993 Si / 1000 Ang^3
#
#
#
# Elastic Constant Matrix: (Units=GPa)
#
#
# Indices 1 2 3 4 5 6 
#
# 1 85.2369 19.6677 25.9705 -15.8672 -21.2755 -15.8138
# 2 19.6677 156.9897 38.1856 11.6219 -20.1914 -10.5002
# 3 25.9705 38.1856 109.2502 -2.9890 -18.2756 2.1714
# 4 -15.8672 11.6219 -2.9890 48.2646 9.5549 -5.6702
# 5 -21.2755 -20.1914 -18.2756 9.5549 46.3776 4.2016
# 6 -15.8138 -10.5002 2.1714 -5.6702 4.2016 30.1759
#
#
#
# Elastic Compliance Matrix: (Units=1/GPa)
#
#
# Indices 1 2 3 4 5 6 
#
# 1 0.016605 -0.000606 -0.003070 0.005676 0.004141 0.009202
# 2 -0.000606 0.007597 -0.002190 -0.002468 0.002524 0.001669
# 3 -0.003070 -0.002190 0.011120 -0.000717 0.002499 -0.003654
# 4 0.005676 -0.002468 -0.000717 0.024918 -0.004565 0.007485
# 5 0.004141 0.002524 0.002499 -0.004565 0.026640 -0.001699
# 6 0.009202 0.001669 -0.003654 0.007485 -0.001699 0.040448
#
#
# Mechanical properties :
#
#
# Convention : Reuss Voigt Hill
#
# Bulk Modulus (GPa) = 42.39152 57.68049 50.03601
# Shear Modulus (GPa) = 34.03162 42.80715 38.41939
#
# Velocity S-wave (km/s) = 3.81813 4.28221 4.05681
# Velocity P-wave (km/s) = 6.13162 7.01130 6.58616
#
# Compressibility (1/GPa) = 0.02358962
#
# Stress axis : x y z
#
# Youngs Moduli (GPa) = 60.22428 131.62538 89.93113
#
# Poissons Ratio (x) = 0.07970 0.27613
# Poissons Ratio (y) = 0.03647 0.19694
# Poissons Ratio (z) = 0.18492 0.28825
#
# Static dielectric constant tensor:
#      x y z
#    x 1.725580 -0.160720 0.239810 
#    y -0.160720 1.744390 0.108040 
#    z 0.239810 0.108040 1.771400 
# 
# From -- ./inp_files/175863.got.cif
#   From: 2010.05.17/outbox.cif.g08.bks.cpg/sg2_88_cif.got.tgz:175863.got - 2010.06.03 11:33:40.
