data_PCOD9070012
_publ_section_title
;
Structure prediction by ZEFSAII (Michael W. Deem and Ramdas Pophale) SiO2 
 PCOD9070012
Probable space group: P -1
;
_chemical_formula_sum "Si O2"
_cell_formula_units_Z 15
_cell_length_a 15.747109
_cell_length_b 18.832328
_cell_length_c 9.385286
_cell_angle_alpha 132.840283
_cell_angle_beta 130.507804
_cell_angle_gamma 19.436705
_cell_volume 678.718170
_symmetry_space_group_name_H-M "P -1"
_symmetry_group_IT_number 2
_symmetry_cell_setting 'triclinic'
loop_
_space_group_symop_operation_xyz
x,y,z
-x,-y,-z
loop_
_atom_site_type_symbol
_atom_site_label
_atom_site_fract_x
_atom_site_fract_y
_atom_site_fract_z
Si Si1 0.738918 0.779114 0.866316
Si Si2 0.000000 0.000000 0.000000
Si Si3 0.296865 0.102758 0.324724
Si Si4 0.091496 0.822772 0.311569
Si Si5 0.592255 0.469951 0.211272
Si Si6 0.809777 0.496319 0.528259
Si Si7 0.862988 0.403948 0.782640
Si Si8 0.323019 0.867632 0.958056
O O1 0.723216 0.836382 0.770599
O O2 0.733248 0.667579 0.696227
O O3 0.985984 0.631619 0.012972
O O4 0.500000 0.000000 0.000000
O O5 0.875172 0.206297 0.175449
O O6 0.762118 0.138710 0.020278
O O7 0.027552 0.319836 0.406606
O O8 0.500000 0.000000 0.500000
O O9 0.384356 0.924200 0.163894
O O10 0.385926 0.600399 0.282156
O O11 0.051701 0.769096 0.309122
O O12 0.000000 0.000000 0.500000
O O13 0.922698 0.929227 0.134775
O O14 0.598098 0.582204 0.370419
O O15 0.500000 0.500000 0.000000
O O16 0.903622 0.388998 0.639917
O O17 0.563574 0.645462 0.824632
#
# Coordination Sequence:
#
# PCOD9070012 Si02
#       8
#     2   1   2   2   2   2   2   2
#     4  12  27  51  77 107 151 199 249 313 381 447
#     4  12  24  44  74 104 148 196 246 306 370 438
#     4  12  25  47  75 109 146 191 248 309 371 450
#     4  12  27  44  75 108 150 198 250 304 380 451
#     4  12  26  47  73 108 153 193 247 308 379 446
#     4  12  27  46  74 114 143 194 257 305 374 445
#     4  12  27  48  78 106 153 198 245 319 372 454
#     4  12  25  48  72 110 148 197 248 305 379 446
#
# _framework density 22.100483000000001
#
# number of rings (size 3 to 8) (size 9 to 14) (size 15 to 20)
#    0.000    0.000    5.333    4.000    3.733    2.133 
#    0.000    0.000    0.000    0.000    0.000    0.000 
#    0.000    0.000    0.000    0.000    0.000    0.000 
#
# Total GULP energy -83748.648302 kJ/mol
# GULP energy per Si atom -5583.243220 kJ/mol
# Density = 2.205018 g / cm^3
# Si number density = 22.100483 Si / 1000 Ang^3
#
#
#
# Elastic Constant Matrix: (Units=GPa)
#
#
# Indices 1 2 3 4 5 6 
#
# 1 148.9461 20.7613 78.8126 5.3211 14.1232 0.6645
# 2 20.7613 67.9807 13.9205 23.6008 -3.0524 -17.4338
# 3 78.8126 13.9205 118.2213 6.2471 -0.7195 15.1102
# 4 5.3211 23.6008 6.2471 46.5917 2.5388 8.3860
# 5 14.1232 -3.0524 -0.7195 2.5388 39.3129 16.1837
# 6 0.6645 -17.4338 15.1102 8.3860 16.1837 30.2230
#
#
#
# Elastic Compliance Matrix: (Units=1/GPa)
#
#
# Indices 1 2 3 4 5 6 
#
# 1 0.012659 0.001340 -0.009923 -0.002264 -0.008959 0.010881
# 2 0.001340 0.030723 -0.007690 -0.019995 -0.010385 0.032646
# 3 -0.009923 -0.007690 0.018472 0.005751 0.011711 -0.021319
# 4 -0.002264 -0.019995 0.005751 0.035832 0.009052 -0.029149
# 5 -0.008959 -0.010385 0.011711 0.009052 0.042726 -0.037039
# 6 0.010881 0.032646 -0.021319 -0.029149 -0.037039 0.090260
#
#
# Mechanical properties :
#
#
# Convention : Reuss Voigt Hill
#
# Bulk Modulus (GPa) = 34.12035 62.45967 48.29001
# Shear Modulus (GPa) = 18.31589 38.00242 28.15916
#
# Velocity S-wave (km/s) = 2.88193 4.15122 3.57339
# Velocity P-wave (km/s) = 5.15231 7.16239 6.23884
#
# Compressibility (1/GPa) = 0.02930802
#
# Stress axis : x y z
#
# Youngs Moduli (GPa) = 78.99294 32.54894 54.13728
#
# Poissons Ratio (x) = -0.04362 0.53719
# Poissons Ratio (y) = -0.10586 0.41633
# Poissons Ratio (z) = 0.78383 0.25031
#
# Static dielectric constant tensor:
#      x y z
#    x 1.788800 -0.005660 -0.007150 
#    y -0.005660 1.841460 -0.051570 
#    z -0.007150 -0.051570 1.772230 
# 
# From -- ./inp_files/223521.got.cif
#   From: 2010.05.17/outbox.cif.g08.bks.cpg/sg2_112_cif.got.tgz:223521.got - 2010.06.03 11:33:40.
