data_PCOD9070074
_publ_section_title
;
Structure prediction by ZEFSAII (Michael W. Deem and Ramdas Pophale) SiO2 
 PCOD9070074
Probable space group: P -1
;
_chemical_formula_sum "Si O2"
_cell_formula_units_Z 14
_cell_length_a 12.118569
_cell_length_b 14.668517
_cell_length_c 8.230109
_cell_angle_alpha 127.608256
_cell_angle_beta 115.864373
_cell_angle_gamma 32.592463
_cell_volume 613.805593
_symmetry_space_group_name_H-M "P -1"
_symmetry_group_IT_number 2
_symmetry_cell_setting 'triclinic'
loop_
_space_group_symop_operation_xyz
x,y,z
-x,-y,-z
loop_
_atom_site_type_symbol
_atom_site_label
_atom_site_fract_x
_atom_site_fract_y
_atom_site_fract_z
Si Si1 0.702175 0.892999 0.604088
Si Si2 0.722217 0.784107 0.852105
Si Si3 0.319252 0.656930 0.687498
Si Si4 0.934970 0.070912 0.718812
Si Si5 0.574085 0.243088 0.865439
Si Si6 0.139972 0.571076 0.375802
Si Si7 0.121514 0.623372 0.040332
O O1 0.740297 0.791934 0.680523
O O2 0.900034 0.733483 0.441068
O O3 0.500000 0.000000 0.500000
O O4 0.663113 0.057713 0.796770
O O5 0.738959 0.639085 0.755069
O O6 0.915544 0.705245 0.969286
O O7 0.500000 0.000000 0.000000
O O8 0.500000 0.500000 0.500000
O O9 0.227329 0.599500 0.587840
O O10 0.405757 0.661709 0.899944
O O11 0.123254 0.879895 0.740401
O O12 0.723441 0.162984 0.725125
O O13 0.905859 0.228988 0.889845
O O14 0.000000 0.000000 0.500000
O O15 0.329011 0.412135 0.864607
O O16 0.156441 0.602676 0.235486
#
# Coordination Sequence:
#
# PCOD9070074 Si02
#       7
#     2   2   2   2   2   2   2
#     4  12  26  50  74 105 143 191 248 311 363 438
#     4  12  28  48  76 104 141 197 250 301 373 435
#     4  12  25  46  74 106 151 191 244 302 366 438
#     4  12  24  45  71 109 144 190 242 298 369 434
#     4  12  25  47  73 108 150 193 240 306 369 435
#     4  12  25  48  70 107 151 189 244 303 363 437
#     4  12  25  46  72 108 146 192 244 301 363 435
#
# _framework density 22.808523999999998
#
# number of rings (size 3 to 8) (size 9 to 14) (size 15 to 20)
#    0.000    0.000    4.286    5.143    4.000    0.000 
#    2.571    0.000    0.000    0.000    0.000    0.000 
#    0.000    0.000    0.000    0.000    0.000    0.000 
#
# Total GULP energy -78469.376200 kJ/mol
# GULP energy per Si atom -5604.955443 kJ/mol
# Density = 2.275661 g / cm^3
# Si number density = 22.808524 Si / 1000 Ang^3
#
#
#
# Elastic Constant Matrix: (Units=GPa)
#
#
# Indices 1 2 3 4 5 6 
#
# 1 103.5757 51.8453 23.1652 9.1420 -1.4583 -15.3704
# 2 51.8453 116.4227 36.2878 32.0903 10.0021 -16.7636
# 3 23.1652 36.2878 63.9442 4.3103 1.6901 -10.6760
# 4 9.1420 32.0903 4.3103 50.8215 -3.9728 5.3747
# 5 -1.4583 10.0021 1.6901 -3.9728 52.6052 22.0557
# 6 -15.3704 -16.7636 -10.6760 5.3747 22.0557 43.0737
#
#
#
# Elastic Compliance Matrix: (Units=1/GPa)
#
#
# Indices 1 2 3 4 5 6 
#
# 1 0.012834 -0.005462 -0.001402 0.001171 0.000899 0.001500
# 2 -0.005462 0.018005 -0.005703 -0.011517 -0.008139 0.009249
# 3 -0.001402 -0.005703 0.019601 0.001952 -0.000294 0.002046
# 4 0.001171 -0.011517 0.001952 0.028560 0.009311 -0.011912
# 5 0.000899 -0.008139 -0.000294 0.009311 0.029295 -0.019082
# 6 0.001500 0.009249 0.002046 -0.011912 -0.019082 0.039115
#
#
# Mechanical properties :
#
#
# Convention : Reuss Voigt Hill
#
# Bulk Modulus (GPa) = 39.51741 56.28214 47.89977
# Shear Modulus (GPa) = 27.62712 40.80972 34.21842
#
# Velocity S-wave (km/s) = 3.48410 4.23452 3.87750
# Velocity P-wave (km/s) = 5.79211 6.97407 6.41039
#
# Compressibility (1/GPa) = 0.02530530
#
# Stress axis : x y z
#
# Youngs Moduli (GPa) = 77.91500 55.53961 51.01850
#
# Poissons Ratio (x) = 0.30338 0.07152
# Poissons Ratio (y) = 0.42561 0.29097
# Poissons Ratio (z) = 0.10923 0.31675
#
# Static dielectric constant tensor:
#      x y z
#    x 1.843820 -0.035500 0.004090 
#    y -0.035500 1.301460 0.168060 
#    z 0.004090 0.168060 1.804570 
# 
# From -- ./inp_files/271789.got.cif
#   From: 2010.05.17/outbox.cif.g08.bks.cpg/sg2_136_cif.got.tgz:271789.got - 2010.06.03 11:33:40.
