data_PCOD9070258
_publ_section_title
;
Structure prediction by ZEFSAII (Michael W. Deem and Ramdas Pophale) SiO2 
 PCOD9070258
Probable space group: P -1
;
_chemical_formula_sum "Si O2"
_cell_formula_units_Z 15
_cell_length_a 9.367087
_cell_length_b 11.442249
_cell_length_c 11.670812
_cell_angle_alpha 53.338908
_cell_angle_beta 117.216869
_cell_angle_gamma 142.213526
_cell_volume 614.557558
_symmetry_space_group_name_H-M "P -1"
_symmetry_group_IT_number 2
_symmetry_cell_setting 'triclinic'
loop_
_space_group_symop_operation_xyz
x,y,z
-x,-y,-z
loop_
_atom_site_type_symbol
_atom_site_label
_atom_site_fract_x
_atom_site_fract_y
_atom_site_fract_z
Si Si1 0.518744 0.851584 0.045823
Si Si2 0.674921 0.800567 0.755069
Si Si3 0.418765 0.309972 0.654894
Si Si4 0.939220 0.745592 0.007003
Si Si5 0.277158 0.679714 0.813190
Si Si6 0.918087 0.768829 0.238570
Si Si7 0.418591 0.098063 0.570425
Si Si8 0.000000 0.500000 0.500000
O O1 0.420773 0.667908 0.206699
O O2 0.395990 0.764070 0.930691
O O3 0.500000 0.000000 0.000000
O O4 0.799772 0.021167 0.042490
O O5 0.424889 0.673468 0.787431
O O6 0.679578 0.866703 0.590044
O O7 0.774612 0.704878 0.871096
O O8 0.831771 0.001541 0.778078
O O9 0.500000 0.500000 0.500000
O O10 0.233179 0.262817 0.697481
O O11 0.356908 0.142043 0.639932
O O12 0.946982 0.573774 0.107790
O O13 0.848801 0.746984 0.095154
O O14 0.293418 0.855106 0.666226
O O15 0.932941 0.608174 0.359942
O O16 0.701225 0.272911 0.557382
#
# Coordination Sequence:
#
# PCOD9070258 Si02
#       8
#     2   2   2   2   2   2   2   1
#     4  12  26  52  76 111 155 201 259 316 387 456
#     4  12  25  46  76 112 154 196 261 320 372 462
#     4  12  27  48  75 110 158 201 251 318 389 454
#     4  12  27  49  81 113 151 206 259 318 388 451
#     4  12  26  46  78 113 149 198 260 324 374 464
#     4  12  25  47  82 110 150 205 256 316 385 450
#     4  12  27  48  75 119 153 202 259 316 386 460
#     4  12  24  46  78 108 152 202 252 312 384 446
#
# _framework density 24.407803999999999
#
# number of rings (size 3 to 8) (size 9 to 14) (size 15 to 20)
#    0.000    0.000    6.667    2.800    3.733    1.067 
#    0.000    0.000    0.000    0.000    0.000    0.000 
#    0.000    0.000    0.000    0.000    0.000    0.000 
#
# Total GULP energy -83525.429665 kJ/mol
# GULP energy per Si atom -5568.361978 kJ/mol
# Density = 2.435225 g / cm^3
# Si number density = 24.407804 Si / 1000 Ang^3
#
#
#
# Elastic Constant Matrix: (Units=GPa)
#
#
# Indices 1 2 3 4 5 6 
#
# 1 70.8553 66.3604 -2.1439 -2.8919 -20.4693 -14.0579
# 2 66.3604 -14.1156 215.3538 38.5472 62.8053 4.9404
# 3 -2.1439 215.3538 -131.4249 -91.6361 -111.8948 -46.4010
# 4 -2.8919 38.5472 -91.6361 20.8228 -45.3510 -15.2344
# 5 -20.4693 62.8053 -111.8948 -45.3510 -9.6921 -9.4942
# 6 -14.0579 4.9404 -46.4010 -15.2344 -9.4942 11.4314
#
#
#
# Elastic Compliance Matrix: (Units=1/GPa)
#
#
# Indices 1 2 3 4 5 6 
#
# 1 0.019945 -0.008290 -0.004198 -0.008862 -0.002858 -0.003114
# 2 -0.008290 0.016581 0.002609 0.014162 0.009216 0.019757
# 3 -0.004198 0.002609 0.003758 -0.002480 -0.006371 0.000368
# 4 -0.008862 0.014162 -0.002480 0.026503 0.003883 0.011459
# 5 -0.002858 0.009216 -0.006371 0.003883 0.025128 -0.007313
# 6 -0.003114 0.019757 0.000368 0.011459 -0.007313 0.085801
#
#
# Mechanical properties :
#
#
# Convention : Reuss Voigt Hill
#
# Bulk Modulus (GPa) = 48.71962 53.82839 51.27400
# Shear Modulus (GPa) = 24.47166 -19.10462 2.68352
#
# Velocity S-wave (km/s) = 3.16985 -2.80076 1.04969
# Velocity P-wave (km/s) = 5.77938 3.41213 4.74573
#
# Compressibility (1/GPa) = 0.02052561
#
# Stress axis : x y z
#
# Youngs Moduli (GPa) = 50.13682 60.30910 266.08143
#
# Poissons Ratio (x) = 0.49997 1.11714
# Poissons Ratio (y) = 0.41564 -0.69420
# Poissons Ratio (z) = 0.21050 -0.15734
#
# Static dielectric constant tensor:
#      x y z
#    x 1.412510 -0.237880 0.298300 
#    y -0.237880 1.799930 0.102400 
#    z 0.298300 0.102400 1.794700 
# 
# From -- ./inp_files/392208.got.cif
#   From: 2010.05.17/outbox.cif.g08.bks.cpg/sg2_197_cif.got.tgz:392208.got - 2010.06.03 11:33:40.
