data_PCOD9070897
_publ_section_title
;
Structure prediction by ZEFSAII (Michael W. Deem and Ramdas Pophale) SiO2 
 PCOD9070897
Probable space group: P -1
;
_chemical_formula_sum "Si O2"
_cell_formula_units_Z 16
_cell_length_a 17.877708
_cell_length_b 5.650294
_cell_length_c 18.549017
_cell_angle_alpha 48.703736
_cell_angle_beta 150.515524
_cell_angle_gamma 120.214910
_cell_volume 679.892157
_symmetry_space_group_name_H-M "P -1"
_symmetry_group_IT_number 2
_symmetry_cell_setting 'triclinic'
loop_
_space_group_symop_operation_xyz
x,y,z
-x,-y,-z
loop_
_atom_site_type_symbol
_atom_site_label
_atom_site_fract_x
_atom_site_fract_y
_atom_site_fract_z
Si Si1 0.099412 0.257235 0.005032
Si Si2 0.339483 0.234761 0.338241
Si Si3 0.727696 0.831709 0.359858
Si Si4 0.720898 0.061569 0.149629
Si Si5 0.376422 0.922519 0.208413
Si Si6 0.581499 0.774206 0.955139
Si Si7 0.684901 0.160711 0.466911
Si Si8 0.035206 0.156181 0.323057
O O1 0.206630 0.313514 0.150693
O O2 0.224794 0.123240 0.076787
O O3 0.994776 0.559854 0.817996
O O4 0.000000 0.000000 0.000000
O O5 0.388274 0.573864 0.322378
O O6 0.500000 0.000000 0.500000
O O7 0.273776 0.053861 0.384377
O O8 0.643623 0.538830 0.368274
O O9 0.881594 0.766415 0.549402
O O10 0.756604 0.862917 0.293373
O O11 0.605625 0.150588 0.216571
O O12 0.647138 0.425013 0.043944
O O13 0.874928 0.072110 0.230888
O O14 0.622453 0.880208 0.048948
O O15 0.533457 0.046756 0.332936
O O16 0.358115 0.972352 0.097835
O O17 0.834373 0.109200 0.551605
#
# Coordination Sequence:
#
# PCOD9070897 Si02
#       8
#     2   2   2   2   2   2   2   2
#     4  12  27  46  74 111 151 198 253 315 392 457
#     4  12  26  44  77 109 149 200 258 318 387 464
#     4  12  28  49  78 110 155 204 260 320 389 465
#     4  12  29  50  81 116 155 205 263 329 390 457
#     4  12  25  47  78 105 153 199 257 319 384 467
#     4  12  26  50  82 115 150 202 267 322 386 464
#     4  12  27  46  76 113 152 206 262 315 389 467
#     4  12  28  47  73 111 160 202 254 320 393 467
#
# _framework density 23.533142999999999
#
# number of rings (size 3 to 8) (size 9 to 14) (size 15 to 20)
#    0.000    0.000    3.750    5.250    5.250    4.500 
#    0.000    0.000    0.000    0.000    0.000    0.000 
#    0.000    0.000    0.000    0.000    0.000    0.000 
#
# Total GULP energy -89502.821073 kJ/mol
# GULP energy per Si atom -5593.926317 kJ/mol
# Density = 2.347958 g / cm^3
# Si number density = 23.533143 Si / 1000 Ang^3
#
#
#
# Elastic Constant Matrix: (Units=GPa)
#
#
# Indices 1 2 3 4 5 6 
#
# 1 124.8789 11.2557 39.6140 -8.9524 -8.2284 13.2840
# 2 11.2557 90.4124 44.7347 -11.2101 7.3519 8.2443
# 3 39.6140 44.7347 139.5515 6.6071 -13.0112 -2.9982
# 4 -8.9524 -11.2101 6.6071 37.6135 -0.3520 0.5936
# 5 -8.2284 7.3519 -13.0112 -0.3520 62.2677 -4.6569
# 6 13.2840 8.2443 -2.9982 0.5936 -4.6569 41.0693
#
#
#
# Elastic Compliance Matrix: (Units=1/GPa)
#
#
# Indices 1 2 3 4 5 6 
#
# 1 0.009581 0.001161 -0.003307 0.003266 0.000187 -0.003600
# 2 0.001161 0.015194 -0.005865 0.005873 -0.003154 -0.004296
# 3 -0.003307 -0.005865 0.010516 -0.004410 0.002681 0.003382
# 4 0.003266 0.005873 -0.004410 0.029926 -0.001248 -0.003131
# 5 0.000187 -0.003154 0.002681 -0.001248 0.017215 0.002738
# 6 -0.003600 -0.004296 0.003382 -0.003131 0.002738 0.026978
#
#
# Mechanical properties :
#
#
# Convention : Reuss Voigt Hill
#
# Bulk Modulus (GPa) = 51.89108 60.67241 56.28175
# Shear Modulus (GPa) = 37.92051 45.47266 41.69658
#
# Velocity S-wave (km/s) = 4.01854 4.40054 4.21387
# Velocity P-wave (km/s) = 6.60527 7.18730 6.90243
#
# Compressibility (1/GPa) = 0.01927113
#
# Stress axis : x y z
#
# Youngs Moduli (GPa) = 104.36915 65.81515 95.09463
#
# Poissons Ratio (x) = -0.07642 0.31443
# Poissons Ratio (y) = -0.12119 0.55770
# Poissons Ratio (z) = 0.34510 0.38598
#
# Static dielectric constant tensor:
#      x y z
#    x 1.890010 -0.091770 0.076490 
#    y -0.091770 3.591520 -2.537990 
#    z 0.076490 -2.537990 5.750150 
# 
# From -- ./inp_files/106632.got.cif
#   From: 2010.05.17/outbox.cif.g08.bks.cpg/sg2_54_cif.got.tgz:106632.got - 2010.06.03 11:33:40.
