data_PCOD9070092
_publ_section_title
;
Structure prediction by ZEFSAII (Michael W. Deem and Ramdas Pophale) SiO2 
 PCOD9070092
Probable space group: P -1
;
_chemical_formula_sum "Si O2"
_cell_formula_units_Z 14
_cell_length_a 8.199246
_cell_length_b 18.757614
_cell_length_c 9.264537
_cell_angle_alpha 126.227481
_cell_angle_beta 80.334061
_cell_angle_gamma 54.326339
_cell_volume 581.787405
_symmetry_space_group_name_H-M "P -1"
_symmetry_group_IT_number 2
_symmetry_cell_setting 'triclinic'
loop_
_space_group_symop_operation_xyz
x,y,z
-x,-y,-z
loop_
_atom_site_type_symbol
_atom_site_label
_atom_site_fract_x
_atom_site_fract_y
_atom_site_fract_z
Si Si1 0.822976 0.829628 0.393160
Si Si2 0.106878 0.709227 0.498877
Si Si3 0.698728 0.689299 0.199891
Si Si4 0.487809 0.261997 0.035695
Si Si5 0.203626 0.210563 0.082135
Si Si6 0.075427 0.932621 0.747672
Si Si7 0.297774 0.649890 0.879468
O O1 0.755634 0.766982 0.251480
O O2 0.045882 0.700079 0.338907
O O3 0.510839 0.020934 0.735368
O O4 0.017951 0.801588 0.219257
O O5 0.077480 0.826835 0.629365
O O6 0.457339 0.525945 0.286225
O O7 0.841514 0.793037 0.748455
O O8 0.570296 0.706149 0.089623
O O9 0.416467 0.814221 0.507889
O O10 0.000000 0.500000 0.000000
O O11 0.242438 0.298084 0.165721
O O12 0.496738 0.358648 0.204569
O O13 0.822866 0.074573 0.830435
O O14 0.889826 0.312129 0.174840
O O15 0.000000 0.000000 0.000000
#
# Coordination Sequence:
#
# PCOD9070092 Si02
#       7
#     2   2   2   2   2   2   2
#     4  12  24  45  74 103 143 189 243 296 359 433
#     4  12  26  48  70 105 150 189 234 307 366 424
#     4  12  26  47  75 112 146 190 249 302 363 432
#     4  12  27  48  76 108 148 195 243 300 361 437
#     4  12  27  46  74 106 145 188 248 294 365 434
#     4  12  27  47  76 108 147 193 246 297 364 437
#     4  12  26  48  73 105 143 191 242 299 365 428
#
# _framework density 24.063773000000001
#
# number of rings (size 3 to 8) (size 9 to 14) (size 15 to 20)
#    0.000    0.000    2.857    7.286    4.000    0.571 
#    0.000    0.000    0.000    0.000    0.000    0.000 
#    0.000    0.000    0.000    0.000    0.000    0.000 
#
# Total GULP energy -78435.218358 kJ/mol
# GULP energy per Si atom -5602.515597 kJ/mol
# Density = 2.400900 g / cm^3
# Si number density = 24.063773 Si / 1000 Ang^3
#
#
#
# Elastic Constant Matrix: (Units=GPa)
#
#
# Indices 1 2 3 4 5 6 
#
# 1 124.8150 50.5642 39.1883 -2.7647 6.2777 -14.6784
# 2 50.5642 83.9869 -0.2241 37.0736 1.8921 13.2902
# 3 39.1883 -0.2241 50.0500 18.9285 -12.0101 13.0398
# 4 -2.7647 37.0736 18.9285 25.4495 2.6333 -16.0866
# 5 6.2777 1.8921 -12.0101 2.6333 30.0320 0.3109
# 6 -14.6784 13.2902 13.0398 -16.0866 0.3109 35.8942
#
#
#
# Elastic Compliance Matrix: (Units=1/GPa)
#
#
# Indices 1 2 3 4 5 6 
#
# 1 0.004137 0.004016 0.003556 -0.012406 0.001461 -0.006659
# 2 0.004016 0.003189 -0.011440 0.011086 -0.006687 0.009644
# 3 0.003556 -0.011440 0.008290 0.017297 0.001668 0.010416
# 4 -0.012406 0.011086 0.017297 -0.002575 0.009211 -0.016696
# 5 0.001461 -0.006687 0.001668 0.009211 0.033208 0.006308
# 6 -0.006659 0.009644 0.010416 -0.016696 0.006308 0.010245
#
#
# Mechanical properties :
#
#
# Convention : Reuss Voigt Hill
#
# Bulk Modulus (GPa) = 126.90824 48.65651 87.78238
# Shear Modulus (GPa) = 74.78710 29.56339 52.17525
#
# Velocity S-wave (km/s) = 5.58088 3.50886 4.66145
# Velocity P-wave (km/s) = 9.71499 6.05639 8.09509
#
# Compressibility (1/GPa) = 0.00787971
#
# Stress axis : x y z
#
# Youngs Moduli (GPa) = 241.70922 313.53889 120.63415
#
# Poissons Ratio (x) = -1.25907 -0.42896
# Poissons Ratio (y) = -0.97063 1.38003
# Poissons Ratio (z) = -0.85949 3.58682
#
# Static dielectric constant tensor:
#      x y z
#    x 1.990520 -0.085280 0.026790 
#    y -0.085280 2.178730 -0.125950 
#    z 0.026790 -0.125950 1.989820 
# 
# From -- ./inp_files/218229.got.cif
#   From: 2010.05.17/outbox.cif.g08.bks.cpg/sg2_110_cif.got.tgz:218229.got - 2010.06.03 11:33:40.
