data_PCOD9070302
_publ_section_title
;
Structure prediction by ZEFSAII (Michael W. Deem and Ramdas Pophale) SiO2 
 PCOD9070302
Probable space group: P -1
;
_chemical_formula_sum "Si O2"
_cell_formula_units_Z 13
_cell_length_a 11.992099
_cell_length_b 9.396642
_cell_length_c 14.605858
_cell_angle_alpha 29.335290
_cell_angle_beta 133.835387
_cell_angle_gamma 127.891642
_cell_volume 581.389700
_symmetry_space_group_name_H-M "P -1"
_symmetry_group_IT_number 2
_symmetry_cell_setting 'triclinic'
loop_
_space_group_symop_operation_xyz
x,y,z
-x,-y,-z
loop_
_atom_site_type_symbol
_atom_site_label
_atom_site_fract_x
_atom_site_fract_y
_atom_site_fract_z
Si Si1 0.534978 0.045442 0.198709
Si Si2 0.000000 0.500000 0.000000
Si Si3 0.714815 0.643929 0.407031
Si Si4 0.779073 0.008167 0.062079
Si Si5 0.031313 0.311492 0.793472
Si Si6 0.230141 0.469245 0.980662
Si Si7 0.572461 0.045859 0.613724
O O1 0.611002 0.341098 0.035558
O O2 0.652974 0.798459 0.375498
O O3 0.518061 0.073353 0.282116
O O4 0.367916 0.964931 0.104352
O O5 0.118503 0.553598 0.951220
O O6 0.118222 0.703503 0.020606
O O7 0.720136 0.874845 0.198819
O O8 0.599348 0.383012 0.459372
O O9 0.879090 0.496624 0.594529
O O10 0.888749 0.772583 0.208833
O O11 0.149060 0.494965 0.822061
O O12 0.000000 0.000000 0.000000
O O13 0.270858 0.132019 0.202398
O O14 0.500000 0.000000 0.500000
#
# Coordination Sequence:
#
# PCOD9070302 Si02
#       7
#     2   1   2   2   2   2   2
#     4  12  27  50  77 109 156 195 250 316 379 434
#     4  12  26  44  78 108 148 194 254 300 378 444
#     4  12  26  46  73 115 144 201 251 312 366 451
#     4  12  25  49  76 110 152 201 246 312 376 451
#     4  12  24  47  73 101 159 200 245 302 385 441
#     4  12  26  49  74 108 146 209 243 308 378 449
#     4  12  27  45  74 109 147 196 257 307 372 448
#
# _framework density 22.360216999999999
#
# number of rings (size 3 to 8) (size 9 to 14) (size 15 to 20)
#    0.000    0.000    6.154    2.769    4.308    1.846 
#    0.000    0.000    0.000    0.000    0.000    0.000 
#    0.000    0.000    0.000    0.000    0.000    0.000 
#
# Total GULP energy -72491.040575 kJ/mol
# GULP energy per Si atom -5576.233890 kJ/mol
# Density = 2.230932 g / cm^3
# Si number density = 22.360217 Si / 1000 Ang^3
#
#
#
# Elastic Constant Matrix: (Units=GPa)
#
#
# Indices 1 2 3 4 5 6 
#
# 1 87.9814 65.3443 24.0376 18.7539 -3.8491 0.3973
# 2 65.3443 122.5839 20.7829 2.1899 8.2489 -15.0863
# 3 24.0376 20.7829 54.9386 10.6623 4.6236 -4.2947
# 4 18.7539 2.1899 10.6623 32.0157 1.7415 -8.6527
# 5 -3.8491 8.2489 4.6236 1.7415 32.3070 -4.9247
# 6 0.3973 -15.0863 -4.2947 -8.6527 -4.9247 38.6830
#
#
#
# Elastic Compliance Matrix: (Units=1/GPa)
#
#
# Indices 1 2 3 4 5 6 
#
# 1 0.028254 -0.015696 -0.004512 -0.017020 0.007448 -0.009771
# 2 -0.015696 0.017936 -0.000885 0.010942 -0.005572 0.008796
# 3 -0.004512 -0.000885 0.021630 -0.004120 -0.003065 0.000791
# 4 -0.017020 0.010942 -0.004120 0.045764 -0.004621 0.013633
# 5 0.007448 -0.005572 -0.003065 -0.004621 0.034059 0.000713
# 6 -0.009771 0.008796 0.000791 0.013633 0.000713 0.032610
#
#
# Mechanical properties :
#
#
# Convention : Reuss Voigt Hill
#
# Bulk Modulus (GPa) = 39.00820 53.98150 46.49485
# Shear Modulus (GPa) = 21.64646 30.95707 26.30177
#
# Velocity S-wave (km/s) = 3.11477 3.72488 3.43341
# Velocity P-wave (km/s) = 5.51534 6.53405 6.04619
#
# Compressibility (1/GPa) = 0.02563563
#
# Stress axis : x y z
#
# Youngs Moduli (GPa) = 35.39326 55.75234 46.23139
#
# Poissons Ratio (x) = 0.87507 0.20859
# Poissons Ratio (y) = 0.55552 0.04091
# Poissons Ratio (z) = 0.15969 0.04934
#
# Static dielectric constant tensor:
#      x y z
#    x 1.816410 0.019850 0.011130 
#    y 0.019850 1.872540 0.016870 
#    z 0.011130 0.016870 1.824550 
# 
# From -- ./inp_files/156418.got.cif
#   From: 2010.05.17/outbox.cif.g08.bks.cpg/sg2_79_cif.got.tgz:156418.got - 2010.06.03 11:33:40.
