data_PCOD9070763
_publ_section_title
;
Structure prediction by ZEFSAII (Michael W. Deem and Ramdas Pophale) SiO2 
 PCOD9070763
Probable space group: P -1
;
_chemical_formula_sum "Si O2"
_cell_formula_units_Z 14
_cell_length_a 11.125873
_cell_length_b 9.697792
_cell_length_c 17.128935
_cell_angle_alpha 129.378492
_cell_angle_beta 34.210658
_cell_angle_gamma 106.925818
_cell_volume 677.375616
_symmetry_space_group_name_H-M "P -1"
_symmetry_group_IT_number 2
_symmetry_cell_setting 'triclinic'
loop_
_space_group_symop_operation_xyz
x,y,z
-x,-y,-z
loop_
_atom_site_type_symbol
_atom_site_label
_atom_site_fract_x
_atom_site_fract_y
_atom_site_fract_z
Si Si1 0.998176 0.180706 0.014558
Si Si2 0.373539 0.031317 0.163332
Si Si3 0.834907 0.573913 0.352592
Si Si4 0.457042 0.373421 0.321587
Si Si5 0.474256 0.992343 0.418083
Si Si6 0.335544 0.452010 0.127504
Si Si7 0.227523 0.716713 0.436722
O O1 0.955497 0.364703 0.161263
O O2 0.754591 0.280957 0.124968
O O3 0.254934 0.094188 0.798300
O O4 0.000000 0.000000 0.000000
O O5 0.406294 0.198826 0.253562
O O6 0.075274 0.124197 0.349184
O O7 0.500000 0.000000 0.000000
O O8 0.526981 0.800193 0.035345
O O9 0.629620 0.586416 0.527579
O O10 0.054712 0.558924 0.282522
O O11 0.711836 0.776734 0.435866
O O12 0.300138 0.584133 0.430284
O O13 0.366904 0.843989 0.403541
O O14 0.500000 0.000000 0.500000
O O15 0.317089 0.548400 0.257570
O O16 0.500000 0.500000 0.000000
#
# Coordination Sequence:
#
# PCOD9070763 Si02
#       7
#     2   2   2   2   2   2   2
#     4  12  27  48  76 105 143 191 246 292 358 430
#     4  12  25  46  72 107 144 189 239 291 361 425
#     4  12  26  48  73 107 143 188 245 292 359 431
#     4  12  25  46  77 105 144 191 243 297 355 432
#     4  12  30  49  74 108 146 191 239 303 363 424
#     4  12  26  43  73 104 147 188 236 298 360 428
#     4  12  27  47  70 110 148 185 241 300 361 423
#
# _framework density 20.668002000000001
#
# number of rings (size 3 to 8) (size 9 to 14) (size 15 to 20)
#    0.000    0.000    4.286    5.143    6.000    4.571 
#    0.000    0.000    0.000    0.000    0.000    0.000 
#    0.000    0.000    0.000    0.000    0.000    0.000 
#
# Total GULP energy -78448.946862 kJ/mol
# GULP energy per Si atom -5603.496204 kJ/mol
# Density = 2.062096 g / cm^3
# Si number density = 20.668002 Si / 1000 Ang^3
#
#
#
# Elastic Constant Matrix: (Units=GPa)
#
#
# Indices 1 2 3 4 5 6 
#
# 1 105.9738 46.1597 34.5462 6.5872 -0.6942 3.4901
# 2 46.1597 128.4950 49.3080 4.3718 17.0036 -9.7579
# 3 34.5462 49.3080 107.0335 -3.3956 9.4125 3.7085
# 4 6.5872 4.3718 -3.3956 38.2378 1.8365 -11.8373
# 5 -0.6942 17.0036 9.4125 1.8365 31.6007 -1.5381
# 6 3.4901 -9.7579 3.7085 -11.8373 -1.5381 43.1468
#
#
#
# Elastic Compliance Matrix: (Units=1/GPa)
#
#
# Indices 1 2 3 4 5 6 
#
# 1 0.012214 -0.003969 -0.002398 -0.002732 0.003164 -0.002316
# 2 -0.003969 0.011519 -0.003682 0.000252 -0.005051 0.003131
# 3 -0.002398 -0.003682 0.012069 0.001589 -0.001822 -0.001305
# 4 -0.002732 0.000252 0.001589 0.029344 -0.001979 0.008121
# 5 0.003164 -0.005051 -0.001822 -0.001979 0.035064 -0.000534
# 6 -0.002316 0.003131 -0.001305 0.008121 -0.000534 0.026393
#
#
# Mechanical properties :
#
#
# Convention : Reuss Voigt Hill
#
# Bulk Modulus (GPa) = 63.68126 66.83668 65.25897
# Shear Modulus (GPa) = 32.90876 36.69629 34.80253
#
# Velocity S-wave (km/s) = 3.99464 4.21825 4.10797
# Velocity P-wave (km/s) = 7.22181 7.49222 7.35826
#
# Compressibility (1/GPa) = 0.01570321
#
# Stress axis : x y z
#
# Youngs Moduli (GPa) = 81.87496 86.81663 82.85721
#
# Poissons Ratio (x) = 0.34456 0.19873
# Poissons Ratio (y) = 0.32495 0.30506
# Poissons Ratio (z) = 0.19637 0.31963
#
# Static dielectric constant tensor:
#      x y z
#    x 1.735350 0.038190 0.002440 
#    y 0.038190 1.695180 -0.063970 
#    z 0.002440 -0.063970 1.686070 
# 
# From -- ./inp_files/566870.got.cif
#   From: 2010.05.17/outbox.cif.g08.bks.cpg/sg2_284_cif.got.tgz:566870.got - 2010.06.03 11:33:40.
