data_PCOD9070996
_publ_section_title
;
Structure prediction by ZEFSAII (Michael W. Deem and Ramdas Pophale) SiO2 
 PCOD9070996
Probable space group: P -1
;
_chemical_formula_sum "Si O2"
_cell_formula_units_Z 11
_cell_length_a 9.302463
_cell_length_b 11.907575
_cell_length_c 9.139536
_cell_angle_alpha 107.262202
_cell_angle_beta 46.942627
_cell_angle_gamma 135.389885
_cell_volume 482.850319
_symmetry_space_group_name_H-M "P -1"
_symmetry_group_IT_number 2
_symmetry_cell_setting 'triclinic'
loop_
_space_group_symop_operation_xyz
x,y,z
-x,-y,-z
loop_
_atom_site_type_symbol
_atom_site_label
_atom_site_fract_x
_atom_site_fract_y
_atom_site_fract_z
Si Si1 0.563738 0.913435 0.018766
Si Si2 0.826502 0.682584 0.826638
Si Si3 0.798194 0.790181 0.187186
Si Si4 0.748797 0.803972 0.654250
Si Si5 0.386981 0.829050 0.440500
Si Si6 0.500000 0.500000 0.500000
O O1 0.517469 0.781539 0.895089
O O2 0.400667 0.839647 0.258169
O O3 0.899718 0.059054 0.884669
O O4 0.500000 0.000000 0.000000
O O5 0.871824 0.767949 0.674829
O O6 0.057610 0.678481 0.665748
O O7 0.500000 0.500000 0.000000
O O8 0.878267 0.796079 0.965879
O O9 0.582557 0.805998 0.345877
O O10 0.639426 0.606227 0.289149
O O11 0.618284 0.673439 0.562304
O O12 0.000000 0.000000 0.500000
O O13 0.500000 0.000000 0.500000
#
# Coordination Sequence:
#
# PCOD9070996 Si02
#       6
#     2   2   2   2   2   1
#     4  12  26  46  79 120 156 208 271 333 405 479
#     4  12  26  50  77 115 159 206 268 335 402 483
#     4  12  26  51  75 115 161 207 271 332 399 489
#     4  12  25  48  78 112 164 211 262 336 398 482
#     4  12  26  46  83 113 153 215 267 327 409 482
#     4  12  28  46  78 112 162 208 266 334 406 464
#
# _framework density 22.781389000000001
#
# number of rings (size 3 to 8) (size 9 to 14) (size 15 to 20)
#    0.000    0.000    7.273    2.727    2.545    0.727 
#    3.273    1.818    0.000    0.000    0.000    0.000 
#    0.000    0.000    0.000    0.000    0.000    0.000 
#
# Total GULP energy -61351.942234 kJ/mol
# GULP energy per Si atom -5577.449294 kJ/mol
# Density = 2.272954 g / cm^3
# Si number density = 22.781389 Si / 1000 Ang^3
#
#
#
# Elastic Constant Matrix: (Units=GPa)
#
#
# Indices 1 2 3 4 5 6 
#
# 1 118.2685 26.3288 52.4229 1.3221 -17.3042 0.7938
# 2 26.3288 124.5767 56.0634 13.6105 -0.1802 11.8944
# 3 52.4229 56.0634 145.3112 4.1151 -20.6579 6.2206
# 4 1.3221 13.6105 4.1151 59.4799 0.0783 17.0113
# 5 -17.3042 -0.1802 -20.6579 0.0783 52.4892 6.5079
# 6 0.7938 11.8944 6.2206 17.0113 6.5079 29.9212
#
#
#
# Elastic Compliance Matrix: (Units=1/GPa)
#
#
# Indices 1 2 3 4 5 6 
#
# 1 0.010330 -0.000804 -0.003120 0.000123 0.002155 0.000156
# 2 -0.000804 0.010236 -0.003730 -0.001454 -0.001431 -0.002134
# 3 -0.003120 -0.003730 0.009928 0.000674 0.003057 -0.001547
# 4 0.000123 -0.001454 0.000674 0.020391 0.001700 -0.011528
# 5 0.002155 -0.001431 0.003057 0.001700 0.021677 -0.005805
# 6 0.000156 -0.002134 -0.001547 -0.011528 -0.005805 0.042404
#
#
# Mechanical properties :
#
#
# Convention : Reuss Voigt Hill
#
# Bulk Modulus (GPa) = 65.85120 73.08741 69.46931
# Shear Modulus (GPa) = 36.94453 45.26748 41.10601
#
# Velocity S-wave (km/s) = 4.03140 4.46246 4.25239
# Velocity P-wave (km/s) = 7.11604 7.66179 7.39395
#
# Compressibility (1/GPa) = 0.01518575
#
# Stress axis : x y z
#
# Youngs Moduli (GPa) = 96.80183 97.69033 100.72240
#
# Poissons Ratio (x) = 0.07857 0.31428
# Poissons Ratio (y) = 0.07785 0.37571
# Poissons Ratio (z) = 0.30205 0.36440
#
# Static dielectric constant tensor:
#      x y z
#    x 1.872130 0.015270 0.002290 
#    y 0.015270 1.872350 -0.015490 
#    z 0.002290 -0.015490 1.892090 
# 
# From -- ./inp_files/171074.got.cif
#   From: 2010.05.17/outbox.cif.g08.bks.cpg/sg2_86_cif.got.tgz:171074.got - 2010.06.03 11:33:40.
