data_PCOD9070565
_publ_section_title
;
Structure prediction by ZEFSAII (Michael W. Deem and Ramdas Pophale) SiO2 
 PCOD9070565
Probable space group: P -1
;
_chemical_formula_sum "Si O2"
_cell_formula_units_Z 12
_cell_length_a 9.722893
_cell_length_b 8.545871
_cell_length_c 8.566423
_cell_angle_alpha 53.160533
_cell_angle_beta 108.741137
_cell_angle_gamma 92.457572
_cell_volume 528.817907
_symmetry_space_group_name_H-M "P -1"
_symmetry_group_IT_number 2
_symmetry_cell_setting 'triclinic'
loop_
_space_group_symop_operation_xyz
x,y,z
-x,-y,-z
loop_
_atom_site_type_symbol
_atom_site_label
_atom_site_fract_x
_atom_site_fract_y
_atom_site_fract_z
Si Si1 0.633716 0.337958 0.200113
Si Si2 0.444891 0.709992 0.438871
Si Si3 0.968623 0.846063 0.442397
Si Si4 0.146113 0.994746 0.154278
Si Si5 0.369059 0.032638 0.799784
Si Si6 0.085143 0.469266 0.884656
O O1 0.597936 0.307110 0.386604
O O2 0.777010 0.423943 0.153677
O O3 0.627610 0.155693 0.194796
O O4 0.500000 0.500000 0.000000
O O5 0.500000 0.500000 0.500000
O O6 0.583509 0.811986 0.396806
O O7 0.297586 0.858103 0.229093
O O8 0.806945 0.904236 0.264891
O O9 0.977358 0.615959 0.637374
O O10 0.000000 0.000000 0.500000
O O11 0.100605 0.879713 0.357993
O O12 0.145635 0.230844 0.032731
O O13 0.000000 0.000000 0.000000
O O14 0.500000 0.000000 0.000000
O O15 0.000000 0.500000 0.000000
#
# Coordination Sequence:
#
# PCOD9070565 Si02
#       6
#     2   2   2   2   2   2
#     4  12  26  47  76 111 155 204 266 321 398 475
#     4  12  28  49  74 112 162 212 265 329 392 463
#     4  12  24  50  80 114 151 202 264 323 396 482
#     4  12  27  48  76 117 157 199 262 327 394 472
#     4  12  26  48  77 114 159 205 261 331 404 479
#     4  12  26  47  84 115 150 203 261 327 402 475
#
# _framework density 22.692119999999999
#
# number of rings (size 3 to 8) (size 9 to 14) (size 15 to 20)
#    0.000    0.000    5.000    3.500    4.667    2.000 
#    0.000    0.000    0.000    0.000    0.000    0.000 
#    0.000    0.000    0.000    0.000    0.000    0.000 
#
# Total GULP energy -66888.185727 kJ/mol
# GULP energy per Si atom -5574.015477 kJ/mol
# Density = 2.264047 g / cm^3
# Si number density = 22.692120 Si / 1000 Ang^3
#
#
#
# Elastic Constant Matrix: (Units=GPa)
#
#
# Indices 1 2 3 4 5 6 
#
# 1 155.5706 72.5947 47.2945 -5.7364 -3.7557 4.7838
# 2 72.5947 123.7639 53.8456 -30.3578 3.8232 3.2065
# 3 47.2945 53.8456 129.4763 -16.7663 1.9411 -2.3000
# 4 -5.7364 -30.3578 -16.7663 50.1484 0.0252 3.6751
# 5 -3.7557 3.8232 1.9411 0.0252 58.3619 -11.4961
# 6 4.7838 3.2065 -2.3000 3.6751 -11.4961 39.1556
#
#
#
# Elastic Compliance Matrix: (Units=1/GPa)
#
#
# Indices 1 2 3 4 5 6 
#
# 1 0.009414 -0.005577 -0.001499 -0.002783 0.000976 -0.000234
# 2 -0.005577 0.014581 -0.003092 0.007291 -0.001577 -0.001842
# 3 -0.001499 -0.003092 0.009721 0.001142 -0.000043 0.000888
# 4 -0.002783 0.007291 0.001142 0.024629 -0.001272 -0.002875
# 5 0.000976 -0.001577 -0.000043 -0.001272 0.018391 0.005526
# 6 -0.000234 -0.001842 0.000888 -0.002875 0.005526 0.027663
#
#
# Mechanical properties :
#
#
# Convention : Reuss Voigt Hill
#
# Bulk Modulus (GPa) = 74.72993 84.03113 79.38053
# Shear Modulus (GPa) = 38.70164 45.20492 41.95328
#
# Velocity S-wave (km/s) = 4.13426 4.46813 4.30444
# Velocity P-wave (km/s) = 7.46948 7.98313 7.73057
#
# Compressibility (1/GPa) = 0.01338152
#
# Stress axis : x y z
#
# Youngs Moduli (GPa) = 106.22558 68.58345 102.87098
#
# Poissons Ratio (x) = 0.38246 0.15418
# Poissons Ratio (y) = 0.59238 0.31805
# Poissons Ratio (z) = 0.15920 0.21204
#
# Static dielectric constant tensor:
#      x y z
#    x 1.765510 -0.070360 0.066700 
#    y -0.070360 1.802590 0.045920 
#    z 0.066700 0.045920 1.985070 
# 
# From -- ./inp_files/148771.got.cif
#   From: 2010.05.17/outbox.cif.g08.bks.cpg/sg2_75_cif.got.tgz:148771.got - 2010.06.03 11:33:40.
