data_PCOD9070942
_publ_section_title
;
Structure prediction by ZEFSAII (Michael W. Deem and Ramdas Pophale) SiO2 
 PCOD9070942
Probable space group: P -1
;
_chemical_formula_sum "Si O2"
_cell_formula_units_Z 16
_cell_length_a 16.346162
_cell_length_b 9.117254
_cell_length_c 9.225664
_cell_angle_alpha 69.317948
_cell_angle_beta 61.695631
_cell_angle_gamma 38.607426
_cell_volume 754.975128
_symmetry_space_group_name_H-M "P -1"
_symmetry_group_IT_number 2
_symmetry_cell_setting 'triclinic'
loop_
_space_group_symop_operation_xyz
x,y,z
-x,-y,-z
loop_
_atom_site_type_symbol
_atom_site_label
_atom_site_fract_x
_atom_site_fract_y
_atom_site_fract_z
Si Si1 0.632812 0.648737 0.300661
Si Si2 0.899045 0.760638 0.436772
Si Si3 0.629450 0.521576 0.671620
Si Si4 0.366198 0.981674 0.907138
Si Si5 0.628892 0.151284 0.727037
Si Si6 0.914441 0.709527 0.114262
Si Si7 0.063341 0.869585 0.340389
Si Si8 0.930402 0.204716 0.096082
O O1 0.627810 0.618763 0.486970
O O2 0.502343 0.738094 0.296704
O O3 0.772441 0.390488 0.211762
O O4 0.641004 0.824277 0.196849
O O5 0.863529 0.746591 0.308653
O O6 0.000000 0.500000 0.500000
O O7 0.978845 0.827725 0.361661
O O8 0.764683 0.946452 0.587301
O O9 0.501707 0.736916 0.803101
O O10 0.621696 0.345995 0.701524
O O11 0.774465 0.367509 0.688605
O O12 0.228779 0.073258 0.923974
O O13 0.368954 0.946132 0.089136
O O14 0.000000 0.500000 0.000000
O O15 0.039563 0.672429 0.050044
O O16 0.000000 0.000000 0.500000
O O17 0.028240 0.063244 0.203031
O O18 0.000000 0.000000 0.000000
#
# Coordination Sequence:
#
# PCOD9070942 Si02
#       8
#     2   2   2   2   2   2   2   2
#     4  12  27  47  73 105 149 189 245 298 364 432
#     4  12  28  44  74 106 144 193 236 302 361 429
#     4  12  27  47  76 104 148 195 240 297 361 437
#     4  12  28  46  74 107 147 195 239 302 363 429
#     4  12  27  49  71 109 148 190 245 298 363 434
#     4  12  26  48  72 104 145 185 245 295 364 429
#     4  12  25  48  73 107 144 188 246 297 361 431
#     4  12  26  45  75 106 140 191 243 302 361 427
#
# _framework density 21.19275
#
# number of rings (size 3 to 8) (size 9 to 14) (size 15 to 20)
#    0.000    0.000    5.000    3.750    8.750    0.000 
#    0.000    0.000    0.000    0.000    0.000    0.000 
#    0.000    0.000    0.000    0.000    0.000    0.000 
#
# Total GULP energy -89324.016319 kJ/mol
# GULP energy per Si atom -5582.751020 kJ/mol
# Density = 2.114451 g / cm^3
# Si number density = 21.192750 Si / 1000 Ang^3
#
#
#
# Elastic Constant Matrix: (Units=GPa)
#
#
# Indices 1 2 3 4 5 6 
#
# 1 81.8141 44.5965 36.8430 18.5164 -5.2417 -17.2901
# 2 44.5965 129.2886 69.7428 34.6128 1.4895 -21.1401
# 3 36.8430 69.7428 159.3478 26.0950 11.4362 -14.9186
# 4 18.5164 34.6128 26.0950 55.4206 3.3590 -2.2437
# 5 -5.2417 1.4895 11.4362 3.3590 36.8822 0.4656
# 6 -17.2901 -21.1401 -14.9186 -2.2437 0.4656 60.8059
#
#
#
# Elastic Compliance Matrix: (Units=1/GPa)
#
#
# Indices 1 2 3 4 5 6 
#
# 1 0.016343 -0.003598 -0.001764 -0.002461 0.003203 0.002848
# 2 -0.003598 0.012668 -0.003738 -0.004891 0.000553 0.002279
# 3 -0.001764 -0.003738 0.008708 -0.000999 -0.002713 0.000319
# 4 -0.002461 -0.004891 -0.000999 0.022431 -0.001863 -0.001803
# 5 0.003203 0.000553 -0.002713 -0.001863 0.028555 0.000150
# 6 0.002848 0.002279 0.000319 -0.001803 0.000150 0.018059
#
#
# Mechanical properties :
#
#
# Convention : Reuss Voigt Hill
#
# Bulk Modulus (GPa) = 51.23402 74.75722 62.99562
# Shear Modulus (GPa) = 38.03208 45.23963 41.63586
#
# Velocity S-wave (km/s) = 4.24084 4.62527 4.43722
# Velocity P-wave (km/s) = 6.94316 7.99222 7.48609
#
# Compressibility (1/GPa) = 0.01951828
#
# Stress axis : x y z
#
# Youngs Moduli (GPa) = 61.18993 78.94132 114.84281
#
# Poissons Ratio (x) = 0.28402 0.20259
# Poissons Ratio (y) = 0.22015 0.42926
# Poissons Ratio (z) = 0.10794 0.29507
#
# Static dielectric constant tensor:
#      x y z
#    x 1.748140 0.091900 -0.083680 
#    y 0.091900 1.792100 -0.505220 
#    z -0.083680 -0.505220 3.526200 
# 
# From -- ./inp_files/298205.got.cif
#   From: 2010.05.17/outbox.cif.g08.bks.cpg/sg2_150_cif.got.tgz:298205.got - 2010.06.03 11:33:40.
