data_PCOD9070671
_publ_section_title
;
Structure prediction by ZEFSAII (Michael W. Deem and Ramdas Pophale) SiO2 
 PCOD9070671
Probable space group: P -1
;
_chemical_formula_sum "Si O2"
_cell_formula_units_Z 12
_cell_length_a 9.730688
_cell_length_b 8.707984
_cell_length_c 11.575928
_cell_angle_alpha 104.913097
_cell_angle_beta 36.498808
_cell_angle_gamma 118.463448
_cell_volume 497.853316
_symmetry_space_group_name_H-M "P -1"
_symmetry_group_IT_number 2
_symmetry_cell_setting 'triclinic'
loop_
_space_group_symop_operation_xyz
x,y,z
-x,-y,-z
loop_
_atom_site_type_symbol
_atom_site_label
_atom_site_fract_x
_atom_site_fract_y
_atom_site_fract_z
Si Si1 0.512109 0.906716 0.183532
Si Si2 0.138502 0.672231 0.211405
Si Si3 0.693814 0.743201 0.421458
Si Si4 0.741566 0.305001 0.457008
Si Si5 0.274349 0.673313 0.884829
Si Si6 0.002295 0.905695 0.857386
O O1 0.298727 0.844330 0.214925
O O2 0.375248 0.827760 0.382503
O O3 0.688010 0.122084 0.107347
O O4 0.697261 0.814628 0.015214
O O5 0.913975 0.686707 0.290735
O O6 0.985169 0.495481 0.357782
O O7 0.311395 0.646862 0.990085
O O8 0.491089 0.666176 0.436677
O O9 0.508873 0.695709 0.648072
O O10 0.850707 0.948469 0.313323
O O11 0.853243 0.216686 0.268577
O O12 0.000000 0.500000 0.000000
O O13 0.000000 0.000000 0.000000
#
# Coordination Sequence:
#
# PCOD9070671 Si02
#       6
#     2   2   2   2   2   2
#     4  12  27  50  74 110 152 194 245 305 372 433
#     4  12  29  46  76 112 153 192 242 308 371 432
#     4  12  25  45  75 108 147 194 248 301 361 432
#     4  12  26  47  76 109 147 199 248 299 363 447
#     4  12  26  45  74 108 146 192 249 301 361 438
#     4  12  25  44  79 106 148 197 248 302 365 436
#
# _framework density 24.103484000000002
#
# number of rings (size 3 to 8) (size 9 to 14) (size 15 to 20)
#    0.000    0.000    6.667    3.000    0.000    4.000 
#    0.000    0.000    0.000    0.000    0.000    0.000 
#    0.000    0.000    0.000    0.000    0.000    0.000 
#
# Total GULP energy -67032.290200 kJ/mol
# GULP energy per Si atom -5586.024183 kJ/mol
# Density = 2.404862 g / cm^3
# Si number density = 24.103484 Si / 1000 Ang^3
#
#
#
# Elastic Constant Matrix: (Units=GPa)
#
#
# Indices 1 2 3 4 5 6 
#
# 1 83.7637 42.0359 34.8004 -0.5398 13.9003 14.4215
# 2 42.0359 103.5967 53.7926 -17.3745 -3.0469 8.2525
# 3 34.8004 53.7926 165.8052 -19.0432 29.9219 4.9722
# 4 -0.5398 -17.3745 -19.0432 36.9313 -8.6924 2.3097
# 5 13.9003 -3.0469 29.9219 -8.6924 29.2991 1.0742
# 6 14.4215 8.2525 4.9722 2.3097 1.0742 27.7859
#
#
#
# Elastic Compliance Matrix: (Units=1/GPa)
#
#
# Indices 1 2 3 4 5 6 
#
# 1 0.019344 -0.009024 0.000573 -0.006155 -0.012289 -0.006475
# 2 -0.009024 0.018256 -0.005594 0.009081 0.014625 -0.001058
# 3 0.000573 -0.005594 0.009644 -0.000187 -0.010761 0.000070
# 4 -0.006155 0.009081 -0.000187 0.034752 0.014473 -0.002917
# 5 -0.012289 0.014625 -0.010761 0.014473 0.056745 0.000563
# 6 -0.006475 -0.001058 0.000070 -0.002917 0.000563 0.039873
#
#
# Mechanical properties :
#
#
# Convention : Reuss Voigt Hill
#
# Bulk Modulus (GPa) = 52.20826 68.26925 60.23875
# Shear Modulus (GPa) = 23.46449 33.63902 28.55176
#
# Velocity S-wave (km/s) = 3.12346 3.73984 3.44546
# Velocity P-wave (km/s) = 5.89195 6.85809 6.39330
#
# Compressibility (1/GPa) = 0.01915406
#
# Stress axis : x y z
#
# Youngs Moduli (GPa) = 51.69650 54.77520 103.69203
#
# Poissons Ratio (x) = 0.49431 -0.05940
# Poissons Ratio (y) = 0.46653 0.58000
# Poissons Ratio (z) = -0.02961 0.30639
#
# Static dielectric constant tensor:
#      x y z
#    x 1.957910 -0.028690 -0.024880 
#    y -0.028690 1.962930 0.018370 
#    z -0.024880 0.018370 1.929900 
# 
# From -- ./inp_files/245076.got.cif
#   From: 2010.05.17/outbox.cif.g08.bks.cpg/sg2_123_cif.got.tgz:245076.got - 2010.06.03 11:33:40.
