data_PCOD9070668
_publ_section_title
;
Structure prediction by ZEFSAII (Michael W. Deem and Ramdas Pophale) SiO2 
 PCOD9070668
Probable space group: P -1
;
_chemical_formula_sum "Si O2"
_cell_formula_units_Z 14
_cell_length_a 10.818281
_cell_length_b 17.317301
_cell_length_c 13.053938
_cell_angle_alpha 37.098334
_cell_angle_beta 22.996149
_cell_angle_gamma 37.728748
_cell_volume 559.357262
_symmetry_space_group_name_H-M "P -1"
_symmetry_group_IT_number 2
_symmetry_cell_setting 'triclinic'
loop_
_space_group_symop_operation_xyz
x,y,z
-x,-y,-z
loop_
_atom_site_type_symbol
_atom_site_label
_atom_site_fract_x
_atom_site_fract_y
_atom_site_fract_z
Si Si1 0.680581 0.296629 0.857449
Si Si2 0.501170 0.876224 0.058055
Si Si3 0.249816 0.311313 0.748535
Si Si4 0.251111 0.106613 0.376882
Si Si5 0.457156 0.558067 0.859619
Si Si6 0.299265 0.181719 0.631816
Si Si7 0.618640 0.511856 0.282614
O O1 0.685489 0.437200 0.753823
O O2 0.576980 0.351736 0.764228
O O3 0.005597 0.198482 0.756255
O O4 0.395111 0.226210 0.183479
O O5 0.664494 0.760065 0.133539
O O6 0.120660 0.882628 0.322180
O O7 0.697084 0.884499 0.795347
O O8 0.500000 0.000000 0.000000
O O9 0.202921 0.218304 0.786818
O O10 0.533790 0.384610 0.427475
O O11 0.921471 0.423090 0.896924
O O12 0.470094 0.964022 0.393625
O O13 0.530313 0.700646 0.649812
O O14 0.500000 0.500000 0.000000
O O15 0.500000 0.500000 0.500000
O O16 0.000000 0.500000 0.000000
#
# Coordination Sequence:
#
# PCOD9070668 Si02
#       7
#     2   2   2   2   2   2   2
#     4  12  26  50  74 116 153 197 257 318 385 454
#     4  12  26  49  78 110 155 203 258 313 376 462
#     4  12  25  44  77 108 148 200 262 307 381 453
#     4  12  29  50  78 113 155 202 253 318 386 446
#     4  12  25  46  78 110 152 201 253 315 381 455
#     4  12  26  48  75 111 149 203 253 314 377 462
#     4  12  26  46  71 106 151 192 245 313 378 439
#
# _framework density 25.028727
#
# number of rings (size 3 to 8) (size 9 to 14) (size 15 to 20)
#    0.000    0.000    4.286    5.571    2.000    2.286 
#    0.000    2.143    0.000    0.000    0.000    0.000 
#    0.000    0.000    0.000    0.000    0.000    0.000 
#
# Total GULP energy -78399.122027 kJ/mol
# GULP energy per Si atom -5599.937288 kJ/mol
# Density = 2.497176 g / cm^3
# Si number density = 25.028727 Si / 1000 Ang^3
#
#
#
# Elastic Constant Matrix: (Units=GPa)
#
#
# Indices 1 2 3 4 5 6 
#
# 1 102.3005 44.1521 21.5391 7.6117 -0.7989 -41.5236
# 2 44.1521 158.1126 28.2318 -8.1355 0.1592 -48.0582
# 3 21.5391 28.2318 99.5551 -0.0132 -16.1389 -11.9007
# 4 7.6117 -8.1355 -0.0132 49.3417 -0.5622 -5.6416
# 5 -0.7989 0.1592 -16.1389 -0.5622 45.9722 -2.7370
# 6 -41.5236 -48.0582 -11.9007 -5.6416 -2.7370 52.6045
#
#
#
# Elastic Compliance Matrix: (Units=1/GPa)
#
#
# Indices 1 2 3 4 5 6 
#
# 1 0.014807 -0.000679 -0.001703 -0.001185 0.000277 0.010570
# 2 -0.000679 0.009325 -0.001568 0.002544 -0.000093 0.007896
# 3 -0.001703 -0.001568 0.011515 0.000058 0.004022 0.000044
# 4 -0.001185 0.002544 0.000058 0.021299 0.000472 0.003710
# 5 0.000277 -0.000093 0.004022 0.000472 0.023312 0.002306
# 6 0.010570 0.007896 0.000044 0.003710 0.002306 0.035095
#
#
# Mechanical properties :
#
#
# Convention : Reuss Voigt Hill
#
# Bulk Modulus (GPa) = 36.04050 60.86823 48.45436
# Shear Modulus (GPa) = 37.73480 47.32002 42.52741
#
# Velocity S-wave (km/s) = 3.88707 4.35285 4.12654
# Velocity P-wave (km/s) = 5.88019 7.04523 6.48891
#
# Compressibility (1/GPa) = 0.02774656
#
# Stress axis : x y z
#
# Youngs Moduli (GPa) = 67.53364 107.23348 86.84319
#
# Poissons Ratio (x) = 0.07286 0.14787
# Poissons Ratio (y) = 0.04589 0.13621
# Poissons Ratio (z) = 0.11499 0.16819
#
# Static dielectric constant tensor:
#      x y z
#    x 2.149250 0.060230 -0.005290 
#    y 0.060230 2.013650 -0.012400 
#    z -0.005290 -0.012400 1.969850 
# 
# From -- ./inp_files/370236.got.cif
#   From: 2010.05.17/outbox.cif.g08.bks.cpg/sg2_186_cif.got.tgz:370236.got - 2010.06.03 11:33:40.
