data_PCOD9070227
_publ_section_title
;
Structure prediction by ZEFSAII (Michael W. Deem and Ramdas Pophale) SiO2 
 PCOD9070227
Probable space group: P -1
;
_chemical_formula_sum "Si O2"
_cell_formula_units_Z 15
_cell_length_a 8.279263
_cell_length_b 20.299252
_cell_length_c 12.676232
_cell_angle_alpha 148.125088
_cell_angle_beta 144.189642
_cell_angle_gamma 46.804123
_cell_volume 658.179286
_symmetry_space_group_name_H-M "P -1"
_symmetry_group_IT_number 2
_symmetry_cell_setting 'triclinic'
loop_
_space_group_symop_operation_xyz
x,y,z
-x,-y,-z
loop_
_atom_site_type_symbol
_atom_site_label
_atom_site_fract_x
_atom_site_fract_y
_atom_site_fract_z
Si Si1 0.502438 0.230336 0.931646
Si Si2 0.500000 0.000000 0.000000
Si Si3 0.417508 0.230526 0.647822
Si Si4 0.920433 0.407591 0.144682
Si Si5 0.094895 0.322182 0.413644
Si Si6 0.429663 0.287594 0.344005
Si Si7 0.195605 0.478437 0.172267
Si Si8 0.330379 0.994354 0.657499
O O1 0.374726 0.201831 0.709552
O O2 0.432585 0.120512 0.825963
O O3 0.384035 0.359994 0.087481
O O4 0.832242 0.251176 0.127948
O O5 0.540732 0.150461 0.204676
O O6 0.546670 0.021982 0.183206
O O7 0.159600 0.262916 0.481356
O O8 0.575202 0.118524 0.521435
O O9 0.614781 0.352822 0.916530
O O10 0.960598 0.531647 0.403654
O O11 0.134876 0.302827 0.151401
O O12 0.004336 0.447674 0.127479
O O13 0.357341 0.311210 0.460782
O O14 0.620586 0.397177 0.547560
O O15 0.000000 0.500000 0.000000
O O16 0.000000 0.000000 0.500000
#
# Coordination Sequence:
#
# PCOD9070227 Si02
#       8
#     2   1   2   2   2   2   2   2
#     4  12  27  48  75 112 147 192 245 306 365 441
#     4  12  28  48  76 106 144 198 248 294 368 432
#     4  12  25  48  74 110 150 196 242 301 370 443
#     4  12  24  46  76 108 148 191 248 304 368 430
#     4  12  25  46  73 110 147 192 241 302 372 431
#     4  12  24  47  73 103 149 193 241 304 361 435
#     4  12  26  44  72 111 143 191 249 302 368 430
#     4  12  29  50  76 104 148 198 247 303 365 438
#
# _framework density 22.790143
#
# number of rings (size 3 to 8) (size 9 to 14) (size 15 to 20)
#    0.000    0.000    4.000    6.400    3.733    1.600 
#    0.000    0.000    0.000    0.000    0.000    0.000 
#    0.000    0.000    0.000    0.000    0.000    0.000 
#
# Total GULP energy -83802.575857 kJ/mol
# GULP energy per Si atom -5586.838390 kJ/mol
# Density = 2.273827 g / cm^3
# Si number density = 22.790143 Si / 1000 Ang^3
#
#
#
# Elastic Constant Matrix: (Units=GPa)
#
#
# Indices 1 2 3 4 5 6 
#
# 1 64.2878 19.9653 14.4966 10.6311 -3.5140 24.8800
# 2 19.9653 100.1530 29.4903 15.3145 -3.8448 30.7973
# 3 14.4966 29.4903 68.4679 20.5174 -9.2178 10.3090
# 4 10.6311 15.3145 20.5174 46.2893 3.5630 -6.6455
# 5 -3.5140 -3.8448 -9.2178 3.5630 37.1492 -4.9970
# 6 24.8800 30.7973 10.3090 -6.6455 -4.9970 38.2367
#
#
#
# Elastic Compliance Matrix: (Units=1/GPa)
#
#
# Indices 1 2 3 4 5 6 
#
# 1 0.023617 0.002588 -0.000576 -0.008766 0.000680 -0.018731
# 2 0.002588 0.015991 -0.003276 -0.006544 -0.000284 -0.014855
# 3 -0.000576 -0.003276 0.019781 -0.008378 0.004896 -0.003135
# 4 -0.008766 -0.006544 -0.008378 0.032451 -0.004233 0.018320
# 5 0.000680 -0.000284 0.004896 -0.004233 0.028775 0.001491
# 6 -0.018731 -0.014855 -0.003135 0.018320 0.001491 0.054530
#
#
# Mechanical properties :
#
#
# Convention : Reuss Voigt Hill
#
# Bulk Modulus (GPa) = 17.58714 40.09036 28.83875
# Shear Modulus (GPa) = 25.42887 35.59881 30.51384
#
# Velocity S-wave (km/s) = 3.34396 3.95654 3.66307
# Velocity P-wave (km/s) = 4.75848 6.20496 5.52923
#
# Compressibility (1/GPa) = 0.05685972
#
# Stress axis : x y z
#
# Youngs Moduli (GPa) = 42.34196 62.53470 50.55483
#
# Poissons Ratio (x) = -0.16185 0.02914
# Poissons Ratio (y) = -0.10959 0.16563
# Poissons Ratio (z) = 0.02441 0.20488
#
# Static dielectric constant tensor:
#      x y z
#    x 1.921200 -0.042740 0.021990 
#    y -0.042740 1.855400 -0.048240 
#    z 0.021990 -0.048240 1.836900 
# 
# From -- ./inp_files/306477.got.cif
#   From: 2010.05.17/outbox.cif.g08.bks.cpg/sg2_154_cif.got.tgz:306477.got - 2010.06.03 11:33:40.
