data_PCOD9070782
_publ_section_title
;
Structure prediction by ZEFSAII (Michael W. Deem and Ramdas Pophale) SiO2 
 PCOD9070782
Probable space group: P -1
;
_chemical_formula_sum "Si O2"
_cell_formula_units_Z 16
_cell_length_a 9.270010
_cell_length_b 12.846363
_cell_length_c 27.552155
_cell_angle_alpha 27.949758
_cell_angle_beta 154.021257
_cell_angle_gamma 143.459758
_cell_volume 672.930294
_symmetry_space_group_name_H-M "P -1"
_symmetry_group_IT_number 2
_symmetry_cell_setting 'triclinic'
loop_
_space_group_symop_operation_xyz
x,y,z
-x,-y,-z
loop_
_atom_site_type_symbol
_atom_site_label
_atom_site_fract_x
_atom_site_fract_y
_atom_site_fract_z
Si Si1 0.397151 0.766023 0.432765
Si Si2 0.634839 0.608186 0.082441
Si Si3 0.390646 0.892378 0.812161
Si Si4 0.385552 0.639082 0.277045
Si Si5 0.657842 0.226889 0.974827
Si Si6 0.625595 0.868273 0.795105
Si Si7 0.737034 0.033037 0.512588
Si Si8 0.307511 0.468916 0.687719
O O1 0.546153 0.531589 0.588261
O O2 0.004522 0.707030 0.338052
O O3 0.482503 0.897285 0.355006
O O4 0.540848 0.937845 0.446052
O O5 0.511054 0.722994 0.046136
O O6 0.616675 0.346580 0.195421
O O7 0.999339 0.677686 0.146253
O O8 0.400557 0.684810 0.936434
O O9 0.678570 0.891503 0.859234
O O10 0.428303 0.121944 0.758448
O O11 0.060152 0.901982 0.676802
O O12 0.518522 0.529935 0.312839
O O13 0.565472 0.404990 0.833095
O O14 0.046943 0.200115 0.105569
O O15 0.500000 0.000000 0.000000
O O16 0.822690 0.295956 0.431107
O O17 0.500000 0.000000 0.500000
#
# Coordination Sequence:
#
# PCOD9070782 Si02
#       8
#     2   2   2   2   2   2   2   2
#     4  12  26  48  75 110 153 190 251 300 366 447
#     4  12  28  48  75 108 146 193 249 307 366 440
#     4  12  27  48  74 108 150 194 249 302 367 438
#     4  12  25  47  76 108 147 194 247 304 364 438
#     4  12  25  46  75 103 144 191 243 298 372 436
#     4  12  28  47  73 109 149 194 241 309 369 433
#     4  12  26  43  77 111 143 196 243 300 369 428
#     4  12  25  48  76 109 151 195 245 304 366 439
#
# _framework density 23.776608
#
# number of rings (size 3 to 8) (size 9 to 14) (size 15 to 20)
#    0.000    0.000    3.750    6.000    3.500    3.500 
#    0.000    0.000    0.000    0.000    0.000    0.000 
#    0.000    0.000    0.000    0.000    0.000    0.000 
#
# Total GULP energy -89590.063930 kJ/mol
# GULP energy per Si atom -5599.378996 kJ/mol
# Density = 2.372249 g / cm^3
# Si number density = 23.776608 Si / 1000 Ang^3
#
#
#
# Elastic Constant Matrix: (Units=GPa)
#
#
# Indices 1 2 3 4 5 6 
#
# 1 90.9995 23.4179 30.4058 -6.3481 -4.3068 -5.9476
# 2 23.4179 98.7987 1.3820 -2.3389 4.8126 1.6808
# 3 30.4058 1.3820 89.5678 -3.1266 -14.5626 3.3722
# 4 -6.3481 -2.3389 -3.1266 30.4678 1.6979 0.3952
# 5 -4.3068 4.8126 -14.5626 1.6979 43.1755 -9.3597
# 6 -5.9476 1.6808 3.3722 0.3952 -9.3597 30.6783
#
#
#
# Elastic Compliance Matrix: (Units=1/GPa)
#
#
# Indices 1 2 3 4 5 6 
#
# 1 0.013765 -0.003256 -0.004539 0.002055 0.000903 0.003595
# 2 -0.003256 0.011006 0.000738 0.000362 -0.001716 -0.001844
# 3 -0.004539 0.000738 0.013351 0.000292 0.003681 -0.001269
# 4 0.002055 0.000362 0.000292 0.033377 -0.001143 -0.000432
# 5 0.000903 -0.001716 0.003681 -0.001143 0.026453 0.007950
# 6 0.003595 -0.001844 -0.001269 -0.000432 0.007950 0.035965
#
#
# Mechanical properties :
#
#
# Convention : Reuss Voigt Hill
#
# Bulk Modulus (GPa) = 41.65113 43.30862 42.47987
# Shear Modulus (GPa) = 32.04465 35.80833 33.92649
#
# Velocity S-wave (km/s) = 3.67514 3.88497 3.78151
# Velocity P-wave (km/s) = 5.96360 6.19503 6.08042
#
# Compressibility (1/GPa) = 0.02400895
#
# Stress axis : x y z
#
# Youngs Moduli (GPa) = 72.64980 90.85559 74.90185
#
# Poissons Ratio (x) = 0.29579 0.34000
# Poissons Ratio (y) = 0.23652 -0.05530
# Poissons Ratio (z) = 0.32977 -0.06708
#
# Static dielectric constant tensor:
#      x y z
#    x 1.947010 0.033920 0.072720 
#    y 0.033920 1.919710 0.006730 
#    z 0.072720 0.006730 2.020610 
# 
# From -- ./inp_files/617047.got.cif
#   From: 2010.05.17/outbox.cif.g08.bks.cpg/sg2_309_cif.got.tgz:617047.got - 2010.06.03 11:33:40.
