data_PCOD9070201
_publ_section_title
;
Structure prediction by ZEFSAII (Michael W. Deem and Ramdas Pophale) SiO2 
 PCOD9070201
Probable space group: P -1
;
_chemical_formula_sum "Si O2"
_cell_formula_units_Z 14
_cell_length_a 11.009055
_cell_length_b 8.534072
_cell_length_c 9.180202
_cell_angle_alpha 118.966102
_cell_angle_beta 101.547347
_cell_angle_gamma 56.042082
_cell_volume 622.959170
_symmetry_space_group_name_H-M "P -1"
_symmetry_group_IT_number 2
_symmetry_cell_setting 'triclinic'
loop_
_space_group_symop_operation_xyz
x,y,z
-x,-y,-z
loop_
_atom_site_type_symbol
_atom_site_label
_atom_site_fract_x
_atom_site_fract_y
_atom_site_fract_z
Si Si1 0.424199 0.077314 0.357958
Si Si2 0.155609 0.936295 0.571555
Si Si3 0.870909 0.676125 0.441002
Si Si4 0.674608 0.540481 0.692537
Si Si5 0.535645 0.297320 0.006805
Si Si6 0.140059 0.967519 0.929516
Si Si7 0.947339 0.574025 0.858060
O O1 0.255103 0.202135 0.418251
O O2 0.424175 0.268841 0.360632
O O3 0.500000 0.000000 0.500000
O O4 0.467507 0.881425 0.172645
O O5 0.282184 0.694732 0.450720
O O6 0.133534 0.949563 0.745989
O O7 0.165677 0.121211 0.579391
O O8 0.000000 0.000000 0.500000
O O9 0.000000 0.500000 0.500000
O O10 0.906172 0.514093 0.244061
O O11 0.581176 0.624838 0.855542
O O12 0.836022 0.507091 0.743748
O O13 0.699502 0.214636 0.064461
O O14 0.500000 0.500000 0.000000
O O15 0.142517 0.176155 0.053384
O O16 0.000000 0.000000 0.000000
O O17 0.000000 0.500000 0.000000
#
# Coordination Sequence:
#
# PCOD9070201 Si02
#       7
#     2   2   2   2   2   2   2
#     4  12  29  47  76 108 150 198 246 312 375 451
#     4  12  26  46  75 112 148 194 250 315 366 449
#     4  12  24  46  74 108 148 188 250 302 376 435
#     4  12  27  49  76 108 154 196 254 310 381 444
#     4  12  30  51  74 110 154 200 251 312 378 451
#     4  12  30  48  78 109 154 200 254 308 378 442
#     4  12  25  46  76 109 144 198 247 312 367 447
#
# _framework density 22.473382000000001
#
# number of rings (size 3 to 8) (size 9 to 14) (size 15 to 20)
#    0.000    0.000    5.714    1.286   16.000    0.571 
#    0.000    0.000    0.000    0.000    0.000    0.000 
#    0.000    0.000    0.000    0.000    0.000    0.000 
#
# Total GULP energy -78028.148363 kJ/mol
# GULP energy per Si atom -5573.439169 kJ/mol
# Density = 2.242223 g / cm^3
# Si number density = 22.473382 Si / 1000 Ang^3
#
#
#
# Elastic Constant Matrix: (Units=GPa)
#
#
# Indices 1 2 3 4 5 6 
#
# 1 43.0462 37.2346 39.1669 -3.2986 -14.8543 -1.3173
# 2 37.2346 216.7994 83.7195 -3.2207 -6.8498 11.2410
# 3 39.1669 83.7195 184.8413 0.3506 -36.1627 0.2625
# 4 -3.2986 -3.2207 0.3506 49.8366 -4.5416 -11.7432
# 5 -14.8543 -6.8498 -36.1627 -4.5416 41.7489 -7.8133
# 6 -1.3173 11.2410 0.2625 -11.7432 -7.8133 20.0167
#
#
#
# Elastic Compliance Matrix: (Units=1/GPa)
#
#
# Indices 1 2 3 4 5 6 
#
# 1 0.035644 -0.005335 -0.002645 0.006570 0.012900 0.014266
# 2 -0.005335 0.006844 -0.002909 -0.002045 -0.004876 -0.007260
# 3 -0.002645 -0.002909 0.008685 0.001403 0.007188 0.004975
# 4 0.006570 -0.002045 0.001403 0.026167 0.009957 0.020801
# 5 0.012900 -0.004876 0.007188 0.009957 0.039699 0.024830
# 6 0.014266 -0.007260 0.004975 0.020801 0.024830 0.076804
#
#
# Mechanical properties :
#
#
# Convention : Reuss Voigt Hill
#
# Bulk Modulus (GPa) = 34.02057 84.99211 59.50634
# Shear Modulus (GPa) = 22.18079 41.29150 31.73614
#
# Velocity S-wave (km/s) = 3.14503 4.29108 3.76196
# Velocity P-wave (km/s) = 5.32535 7.90268 6.73838
#
# Compressibility (1/GPa) = 0.02939398
#
# Stress axis : x y z
#
# Youngs Moduli (GPa) = 28.05523 146.10838 115.14299
#
# Poissons Ratio (x) = 0.77944 0.30461
# Poissons Ratio (y) = 0.14967 0.33500
# Poissons Ratio (z) = 0.07422 0.42509
#
# Static dielectric constant tensor:
#      x y z
#    x 1.995060 -0.000580 -0.086860 
#    y -0.000580 1.728860 -0.010460 
#    z -0.086860 -0.010460 1.895830 
# 
# From -- ./inp_files/245541.got.cif
#   From: 2010.05.17/outbox.cif.g08.bks.cpg/sg2_123_cif.got.tgz:245541.got - 2010.06.03 11:33:40.
