data_PCOD9070729
_publ_section_title
;
Structure prediction by ZEFSAII (Michael W. Deem and Ramdas Pophale) SiO2 
 PCOD9070729
Probable space group: P -1
;
_chemical_formula_sum "Si O2"
_cell_formula_units_Z 16
_cell_length_a 11.683126
_cell_length_b 8.294072
_cell_length_c 9.416649
_cell_angle_alpha 88.802082
_cell_angle_beta 98.780168
_cell_angle_gamma 53.263304
_cell_volume 715.395526
_symmetry_space_group_name_H-M "P -1"
_symmetry_group_IT_number 2
_symmetry_cell_setting 'triclinic'
loop_
_space_group_symop_operation_xyz
x,y,z
-x,-y,-z
loop_
_atom_site_type_symbol
_atom_site_label
_atom_site_fract_x
_atom_site_fract_y
_atom_site_fract_z
Si Si1 0.360540 0.464868 0.083533
Si Si2 0.193280 0.709757 0.766251
Si Si3 0.883370 0.860840 0.283501
Si Si4 0.600360 0.547851 0.442155
Si Si5 0.197126 0.441914 0.294977
Si Si6 0.335845 0.830052 0.222413
Si Si7 0.379966 0.966390 0.946764
Si Si8 0.885836 0.843509 0.624446
O O1 0.269479 0.411600 0.156745
O O2 0.357047 0.632782 0.169047
O O3 0.524000 0.262936 0.093789
O O4 0.283763 0.564620 0.917722
O O5 0.293468 0.624317 0.647684
O O6 0.052737 0.720781 0.705111
O O7 0.137334 0.938455 0.777829
O O8 0.876172 0.867439 0.452824
O O9 0.038514 0.659068 0.270237
O O10 0.747495 0.880008 0.189076
O O11 0.500000 0.500000 0.500000
O O12 0.695192 0.566146 0.571206
O O13 0.485970 0.753414 0.328812
O O14 0.176830 0.274182 0.335714
O O15 0.208728 0.944824 0.312210
O O16 0.309051 0.966604 0.080269
O O17 0.500000 0.000000 0.000000
#
# Coordination Sequence:
#
# PCOD9070729 Si02
#       8
#     2   2   2   2   2   2   2   2
#     4  12  26  49  74 108 147 195 251 296 366 444
#     4  12  26  48  78 105 146 197 247 304 361 443
#     4  12  27  48  75 107 146 193 251 298 366 444
#     4  12  25  45  76 106 145 189 243 304 364 437
#     4  12  29  47  73 111 149 196 242 307 371 434
#     4  12  25  47  72 104 145 196 246 298 366 436
#     4  12  28  47  74 111 150 192 241 307 373 433
#     4  12  29  47  74 110 151 192 246 308 371 430
#
# _framework density 22.365252000000002
#
# number of rings (size 3 to 8) (size 9 to 14) (size 15 to 20)
#    0.000    0.000    5.000    4.125    7.000    2.000 
#    0.000    0.000    0.000    0.000    0.000    0.000 
#    0.000    0.000    0.000    0.000    0.000    0.000 
#
# Total GULP energy -89697.738141 kJ/mol
# GULP energy per Si atom -5606.108634 kJ/mol
# Density = 2.231435 g / cm^3
# Si number density = 22.365252 Si / 1000 Ang^3
#
#
#
# Elastic Constant Matrix: (Units=GPa)
#
#
# Indices 1 2 3 4 5 6 
#
# 1 112.3814 14.7914 51.3950 -7.5877 28.5679 -11.2025
# 2 14.7914 69.8351 29.2277 0.7526 9.4438 -25.3161
# 3 51.3950 29.2277 111.8625 -0.7103 7.2852 -15.8486
# 4 -7.5877 0.7526 -0.7103 23.3232 -1.6798 -3.6800
# 5 28.5679 9.4438 7.2852 -1.6798 38.4760 -1.7736
# 6 -11.2025 -25.3161 -15.8486 -3.6800 -1.7736 42.1159
#
#
#
# Elastic Compliance Matrix: (Units=1/GPa)
#
#
# Indices 1 2 3 4 5 6 
#
# 1 0.014443 0.001650 -0.006054 0.004160 -0.009685 0.002511
# 2 0.001650 0.020356 -0.004195 0.001135 -0.004871 0.010991
# 3 -0.006054 -0.004195 0.012705 -0.001116 0.003102 0.000682
# 4 0.004160 0.001135 -0.001116 0.044919 -0.000953 0.005254
# 5 -0.009685 -0.004871 0.003102 -0.000953 0.033609 -0.003005
# 6 0.002511 0.010991 0.000682 0.005254 -0.003005 0.031607
#
#
# Mechanical properties :
#
#
# Convention : Reuss Voigt Hill
#
# Bulk Modulus (GPa) = 32.99762 53.87858 43.43810
# Shear Modulus (GPa) = 27.03583 34.02737 30.53160
#
# Velocity S-wave (km/s) = 3.48060 3.90479 3.69878
# Velocity P-wave (km/s) = 5.56226 6.66877 6.14049
#
# Compressibility (1/GPa) = 0.03030522
#
# Stress axis : x y z
#
# Youngs Moduli (GPa) = 69.23857 49.12436 78.71148
#
# Poissons Ratio (x) = -0.08104 0.47651
# Poissons Ratio (y) = -0.11422 0.33021
# Poissons Ratio (z) = 0.41916 0.20608
#
# Static dielectric constant tensor:
#      x y z
#    x 1.819000 0.032530 0.012440 
#    y 0.032530 1.830200 0.005410 
#    z 0.012440 0.005410 1.814110 
# 
# From -- ./inp_files/184384.got.cif
#   From: 2010.05.17/outbox.cif.g08.bks.cpg/sg2_93_cif.got.tgz:184384.got - 2010.06.03 11:33:40.
