data_PCOD9070631
_publ_section_title
;
Structure prediction by ZEFSAII (Michael W. Deem and Ramdas Pophale) SiO2 
 PCOD9070631
Probable space group: P -1
;
_chemical_formula_sum "Si O2"
_cell_formula_units_Z 13
_cell_length_a 14.375960
_cell_length_b 7.983536
_cell_length_c 6.742947
_cell_angle_alpha 78.295173
_cell_angle_beta 59.893663
_cell_angle_gamma 112.271213
_cell_volume 539.770116
_symmetry_space_group_name_H-M "P -1"
_symmetry_group_IT_number 2
_symmetry_cell_setting 'triclinic'
loop_
_space_group_symop_operation_xyz
x,y,z
-x,-y,-z
loop_
_atom_site_type_symbol
_atom_site_label
_atom_site_fract_x
_atom_site_fract_y
_atom_site_fract_z
Si Si1 0.713471 0.977369 0.915865
Si Si2 0.000000 0.500000 0.000000
Si Si3 0.199012 0.569299 0.412601
Si Si4 0.237116 0.213773 0.760275
Si Si5 0.088697 0.999749 0.586169
Si Si6 0.551439 0.443929 0.767111
Si Si7 0.141241 0.426734 0.077320
O O1 0.741621 0.197175 0.781015
O O2 0.778897 0.932311 0.676295
O O3 0.783353 0.970620 0.039821
O O4 0.564857 0.780599 0.130520
O O5 0.142116 0.614466 0.943466
O O6 0.917005 0.506181 0.289993
O O7 0.322672 0.565550 0.341746
O O8 0.147306 0.430975 0.302320
O O9 0.384100 0.354008 0.489466
O O10 0.131681 0.127125 0.714564
O O11 0.223292 0.358290 0.895855
O O12 0.008693 0.753177 0.792357
O O13 0.000000 0.000000 0.500000
O O14 0.500000 0.500000 0.000000
#
# Coordination Sequence:
#
# PCOD9070631 Si02
#       7
#     2   1   2   2   2   2   2
#     4  12  27  45  75 111 150 195 254 316 371 452
#     4  12  26  44  76 108 154 194 244 302 386 436
#     4  12  28  49  76 114 154 197 251 315 378 450
#     4  12  26  48  79 109 149 203 253 312 381 442
#     4  12  25  43  75 112 148 192 252 314 369 453
#     4  12  25  53  76 104 151 203 260 307 371 453
#     4  12  26  44  76 109 152 195 250 310 381 449
#
# _framework density 24.084327999999999
#
# number of rings (size 3 to 8) (size 9 to 14) (size 15 to 20)
#    0.000    0.000    6.154    3.692    2.154    0.000 
#    0.000    1.538    0.000    0.000    0.000    0.000 
#    0.000    0.000    0.000    0.000    0.000    0.000 
#
# Total GULP energy -72410.643673 kJ/mol
# GULP energy per Si atom -5570.049513 kJ/mol
# Density = 2.402951 g / cm^3
# Si number density = 24.084328 Si / 1000 Ang^3
#
#
#
# Elastic Constant Matrix: (Units=GPa)
#
#
# Indices 1 2 3 4 5 6 
#
# 1 82.1428 38.7275 32.0675 15.3554 10.9694 -2.5520
# 2 38.7275 125.1915 63.6919 13.0008 1.7273 7.5798
# 3 32.0675 63.6919 172.3155 26.0585 -1.9406 4.2900
# 4 15.3554 13.0008 26.0585 40.7549 1.3677 -1.1270
# 5 10.9694 1.7273 -1.9406 1.3677 46.1296 3.0287
# 6 -2.5520 7.5798 4.2900 -1.1270 3.0287 41.3557
#
#
#
# Elastic Compliance Matrix: (Units=1/GPa)
#
#
# Indices 1 2 3 4 5 6 
#
# 1 0.015719 -0.004057 -0.000933 -0.003855 -0.003640 0.001972
# 2 -0.004057 0.011012 -0.003265 0.000030 0.000543 -0.001969
# 3 -0.000933 -0.003265 0.007748 -0.003599 0.000804 -0.000420
# 4 -0.003855 0.000030 -0.003599 0.028311 -0.000135 0.000911
# 5 -0.003640 0.000543 0.000804 -0.000135 0.022697 -0.002074
# 6 0.001972 -0.001969 -0.000420 0.000911 -0.002074 0.024883
#
#
# Mechanical properties :
#
#
# Convention : Reuss Voigt Hill
#
# Bulk Modulus (GPa) = 55.64968 72.06929 63.85949
# Shear Modulus (GPa) = 37.63106 41.99223 39.81164
#
# Velocity S-wave (km/s) = 3.95710 4.18011 4.07013
# Velocity P-wave (km/s) = 6.63585 7.29976 6.97571
#
# Compressibility (1/GPa) = 0.01796955
#
# Stress axis : x y z
#
# Youngs Moduli (GPa) = 63.61824 90.80755 129.07346
#
# Poissons Ratio (x) = 0.36838 0.12041
# Poissons Ratio (y) = 0.25808 0.42141
# Poissons Ratio (z) = 0.05935 0.29648
#
# Static dielectric constant tensor:
#      x y z
#    x 1.693580 0.239220 -0.093870 
#    y 0.239220 1.691070 0.135380 
#    z -0.093870 0.135380 1.777280 
# 
# From -- ./inp_files/88896.got.cif
#   From: 2010.05.17/outbox.cif.g08.bks.cpg/sg2_45_cif.got.tgz:88896.got - 2010.06.03 11:33:40.
