data_PCOD9070263
_publ_section_title
;
Structure prediction by ZEFSAII (Michael W. Deem and Ramdas Pophale) SiO2 
 PCOD9070263
Probable space group: P -1
;
_chemical_formula_sum "Si O2"
_cell_formula_units_Z 14
_cell_length_a 12.341780
_cell_length_b 5.250054
_cell_length_c 11.777108
_cell_angle_alpha 107.518821
_cell_angle_beta 50.797284
_cell_angle_gamma 110.397237
_cell_volume 550.824122
_symmetry_space_group_name_H-M "P -1"
_symmetry_group_IT_number 2
_symmetry_cell_setting 'triclinic'
loop_
_space_group_symop_operation_xyz
x,y,z
-x,-y,-z
loop_
_atom_site_type_symbol
_atom_site_label
_atom_site_fract_x
_atom_site_fract_y
_atom_site_fract_z
Si Si1 0.186832 0.913686 0.704520
Si Si2 0.719552 0.511271 0.555912
Si Si3 0.215059 0.861933 0.332450
Si Si4 0.911036 0.997025 0.768404
Si Si5 0.378794 0.389100 0.753096
Si Si6 0.852767 0.281860 0.063510
Si Si7 0.658531 0.509953 0.941976
O O1 0.216182 0.620323 0.611652
O O2 0.133341 0.916341 0.869386
O O3 0.063592 0.966590 0.710350
O O4 0.326018 0.153523 0.661147
O O5 0.775968 0.345908 0.599733
O O6 0.548225 0.432939 0.649873
O O7 0.748363 0.833662 0.601341
O O8 0.320142 0.788491 0.154524
O O9 0.077841 0.861368 0.343051
O O10 0.792442 0.713397 0.818288
O O11 0.851410 0.177016 0.924027
O O12 0.294999 0.622725 0.803628
O O13 0.337480 0.382201 0.915823
O O14 0.000000 0.500000 0.000000
O O15 0.500000 0.500000 0.000000
#
# Coordination Sequence:
#
# PCOD9070263 Si02
#       7
#     2   2   2   2   2   2   2
#     4  12  29  49  72 112 158 206 250 312 384 469
#     4  12  31  50  76 111 161 207 255 302 382 470
#     4  12  27  51  74 114 148 205 260 312 379 446
#     4  12  25  46  77 111 152 194 264 324 383 438
#     4  12  25  46  78 113 152 200 254 320 383 456
#     4  12  25  43  78 116 150 192 255 323 393 439
#     4  12  24  46  78 112 152 194 258 329 378 437
#
# _framework density 25.416459
#
# number of rings (size 3 to 8) (size 9 to 14) (size 15 to 20)
#    0.000    0.000    7.143    1.714    6.000    2.857 
#    0.000    0.000    0.000    0.000    0.000    0.000 
#    0.000    0.000    0.000    0.000    0.000    0.000 
#
# Total GULP energy -78189.059753 kJ/mol
# GULP energy per Si atom -5584.932839 kJ/mol
# Density = 2.535861 g / cm^3
# Si number density = 25.416459 Si / 1000 Ang^3
#
#
#
# Elastic Constant Matrix: (Units=GPa)
#
#
# Indices 1 2 3 4 5 6 
#
# 1 156.6273 36.2674 51.9482 -2.4104 36.2999 -3.6922
# 2 36.2674 91.6585 14.6858 36.2520 15.0533 10.6605
# 3 51.9482 14.6858 77.6310 36.8061 3.3765 3.3432
# 4 -2.4104 36.2520 36.8061 53.9564 2.5061 9.0556
# 5 36.2999 15.0533 3.3765 2.5061 13.9599 11.1288
# 6 -3.6922 10.6605 3.3432 9.0556 11.1288 35.9233
#
#
#
# Elastic Compliance Matrix: (Units=1/GPa)
#
#
# Indices 1 2 3 4 5 6 
#
# 1 -0.063044 0.008231 0.055981 -0.044945 0.201612 -0.065260
# 2 0.008231 0.018900 -0.002452 -0.010625 -0.050203 0.013696
# 3 0.055981 -0.002452 -0.029175 0.022403 -0.189523 0.062262
# 4 -0.044945 -0.010625 0.022403 0.010343 0.167274 -0.057979
# 5 0.201612 -0.050203 -0.189523 0.167274 -0.519918 0.172158
# 6 -0.065260 0.013696 0.062262 -0.057979 0.172158 -0.027447
#
#
# Mechanical properties :
#
#
# Convention : Reuss Voigt Hill
#
# Bulk Modulus (GPa) = 19.92019 59.07995 39.50007
# Shear Modulus (GPa) = -6.97227 35.63560 14.33167
#
# Velocity S-wave (km/s) = -1.65806 3.74848 2.37718
# Velocity P-wave (km/s) = 2.04670 6.48306 4.80724
#
# Compressibility (1/GPa) = 0.05020033
#
# Stress axis : x y z
#
# Youngs Moduli (GPa) = -15.86192 52.90938 -34.27574
#
# Poissons Ratio (x) = -0.43552 1.91878
# Poissons Ratio (y) = 0.13057 -0.08406
# Poissons Ratio (z) = 0.88796 0.12976
#
# Static dielectric constant tensor:
#      x y z
#    x 2.009300 -0.087470 0.156150 
#    y -0.087470 2.097240 -0.026230 
#    z 0.156150 -0.026230 2.187550 
# 
# From -- ./inp_files/71609.got.cif
#   From: 2010.05.17/outbox.cif.g08.bks.cpg/sg2_36_cif.got.tgz:71609.got - 2010.06.03 11:33:40.
