data_PCOD9070940
_publ_section_title
;
Structure prediction by ZEFSAII (Michael W. Deem and Ramdas Pophale) SiO2 
 PCOD9070940
Probable space group: P -1
;
_chemical_formula_sum "Si O2"
_cell_formula_units_Z 14
_cell_length_a 26.326099
_cell_length_b 9.677073
_cell_length_c 9.739976
_cell_angle_alpha 136.735812
_cell_angle_beta 26.940505
_cell_angle_gamma 143.429661
_cell_volume 669.128918
_symmetry_space_group_name_H-M "P -1"
_symmetry_group_IT_number 2
_symmetry_cell_setting 'triclinic'
loop_
_space_group_symop_operation_xyz
x,y,z
-x,-y,-z
loop_
_atom_site_type_symbol
_atom_site_label
_atom_site_fract_x
_atom_site_fract_y
_atom_site_fract_z
Si Si1 0.541436 0.982338 0.539943
Si Si2 0.220979 0.581105 0.374492
Si Si3 0.187100 0.559911 0.743254
Si Si4 0.120547 0.067877 0.656678
Si Si5 0.652854 0.963129 0.755288
Si Si6 0.994400 0.364256 0.555614
Si Si7 0.546488 0.520642 0.247231
O O1 0.670634 0.218498 0.436134
O O2 0.500000 0.000000 0.500000
O O3 0.563792 0.763379 0.330676
O O4 0.429470 0.956917 0.894493
O O5 0.145483 0.523375 0.658087
O O6 0.131243 0.467220 0.375869
O O7 0.294934 0.857417 0.367361
O O8 0.323729 0.494127 0.079410
O O9 0.183606 0.332038 0.647621
O O10 0.096827 0.608153 0.095301
O O11 0.226653 0.023843 0.444101
O O12 0.064008 0.899769 0.540860
O O13 0.000000 0.000000 0.000000
O O14 0.560473 0.700591 0.738867
O O15 0.000000 0.500000 0.500000
O O16 0.500000 0.500000 0.500000
#
# Coordination Sequence:
#
# PCOD9070940 Si02
#       7
#     2   2   2   2   2   2   2
#     4  12  27  45  74 108 150 191 242 299 360 441
#     4  12  26  48  74 109 151 190 244 307 363 431
#     4  12  27  48  71 112 147 185 252 303 363 428
#     4  12  27  47  77 107 140 196 247 298 365 438
#     4  12  25  48  73 105 152 190 240 297 365 440
#     4  12  26  50  75 102 146 195 246 300 367 435
#     4  12  26  45  72 107 143 195 239 292 372 428
#
# _framework density 20.922725
#
# number of rings (size 3 to 8) (size 9 to 14) (size 15 to 20)
#    0.000    0.000    5.714    3.429    6.000    1.714 
#    2.571    0.000    0.000    0.000    0.000    0.000 
#    0.000    0.000    0.000    0.000    0.000    0.000 
#
# Total GULP energy -78408.905971 kJ/mol
# GULP energy per Si atom -5600.636141 kJ/mol
# Density = 2.087510 g / cm^3
# Si number density = 20.922725 Si / 1000 Ang^3
#
#
#
# Elastic Constant Matrix: (Units=GPa)
#
#
# Indices 1 2 3 4 5 6 
#
# 1 131.0236 64.8604 46.6013 -3.0207 -4.6811 1.2810
# 2 64.8604 151.7874 53.7950 24.8208 -22.7239 -19.9375
# 3 46.6013 53.7950 121.2471 1.2656 -3.5111 -0.1582
# 4 -3.0207 24.8208 1.2656 26.8274 4.5694 5.6905
# 5 -4.6811 -22.7239 -3.5111 4.5694 42.8770 -5.5213
# 6 1.2810 -19.9375 -0.1582 5.6905 -5.5213 45.2607
#
#
#
# Elastic Compliance Matrix: (Units=1/GPa)
#
#
# Indices 1 2 3 4 5 6 
#
# 1 0.012251 -0.008055 -0.001402 0.010995 -0.004976 -0.005889
# 2 -0.008055 0.019335 -0.004836 -0.023641 0.013205 0.013312
# 3 -0.001402 -0.004836 0.010797 0.004912 -0.002742 -0.003005
# 4 0.010995 -0.023641 0.004912 0.068375 -0.021029 -0.021870
# 5 -0.004976 0.013205 -0.002742 -0.021029 0.033426 0.012670
# 6 -0.005889 0.013312 -0.003005 -0.021870 0.012670 0.032409
#
#
# Mechanical properties :
#
#
# Convention : Reuss Voigt Hill
#
# Bulk Modulus (GPa) = 72.47018 81.61905 77.04461
# Shear Modulus (GPa) = 23.83458 38.91311 31.37384
#
# Velocity S-wave (km/s) = 3.37882 4.31728 3.87655
# Velocity P-wave (km/s) = 7.06641 7.99664 7.54587
#
# Compressibility (1/GPa) = 0.01379878
#
# Stress axis : x y z
#
# Youngs Moduli (GPa) = 81.62359 51.71865 92.61411
#
# Poissons Ratio (x) = 0.41658 0.12981
# Poissons Ratio (y) = 0.65746 0.44791
# Poissons Ratio (z) = 0.11440 0.25013
#
# Static dielectric constant tensor:
#      x y z
#    x 1.750290 -0.045520 -0.025360 
#    y -0.045520 2.025060 0.099240 
#    z -0.025360 0.099240 1.793650 
# 
# From -- ./inp_files/189683.got.cif
#   From: 2010.05.17/outbox.cif.g08.bks.cpg/sg2_95_cif.got.tgz:189683.got - 2010.06.03 11:33:40.
