data_PCOD9070202
_publ_section_title
;
Structure prediction by ZEFSAII (Michael W. Deem and Ramdas Pophale) SiO2 
 PCOD9070202
Probable space group: P -1
;
_chemical_formula_sum "Si O2"
_cell_formula_units_Z 16
_cell_length_a 18.243839
_cell_length_b 14.680308
_cell_length_c 11.108132
_cell_angle_alpha 33.064063
_cell_angle_beta 127.599330
_cell_angle_gamma 150.500708
_cell_volume 716.140166
_symmetry_space_group_name_H-M "P -1"
_symmetry_group_IT_number 2
_symmetry_cell_setting 'triclinic'
loop_
_space_group_symop_operation_xyz
x,y,z
-x,-y,-z
loop_
_atom_site_type_symbol
_atom_site_label
_atom_site_fract_x
_atom_site_fract_y
_atom_site_fract_z
Si Si1 0.102159 0.599757 0.875240
Si Si2 0.385700 0.787784 0.500324
Si Si3 0.050853 0.939570 0.827435
Si Si4 0.842915 0.959603 0.585834
Si Si5 0.990314 0.682567 0.306311
Si Si6 0.670992 0.660230 0.976191
Si Si7 0.335259 0.360485 0.475001
Si Si8 0.420026 0.861746 0.941566
O O1 0.285256 0.807207 0.858041
O O2 0.102744 0.774713 0.609095
O O3 0.000000 0.500000 0.000000
O O4 0.027069 0.326343 0.035903
O O5 0.197428 0.574817 0.549119
O O6 0.500000 0.000000 0.500000
O O7 0.472435 0.965454 0.264518
O O8 0.354721 0.544915 0.747429
O O9 0.979792 0.019345 0.648140
O O10 0.240707 0.227274 0.655234
O O11 0.004878 0.813094 0.054442
O O12 0.701910 0.677910 0.845666
O O13 0.772464 0.886214 0.464121
O O14 0.000000 0.500000 0.500000
O O15 0.156368 0.994992 0.193595
O O16 0.500000 0.500000 0.000000
O O17 0.500000 0.500000 0.500000
O O18 0.351244 0.570707 0.205110
O O19 0.500000 0.000000 0.000000
#
# Coordination Sequence:
#
# PCOD9070202 Si02
#       8
#     2   2   2   2   2   2   2   2
#     4  12  24  46  74 110 148 199 249 312 388 458
#     4  12  26  51  76 108 158 203 257 317 386 468
#     4  12  26  49  76 110 152 195 257 314 384 468
#     4  12  24  48  77 106 151 198 250 310 390 459
#     4  12  28  48  78 114 151 205 261 319 386 467
#     4  12  27  48  78 111 152 201 256 321 390 464
#     4  12  27  45  72 109 149 199 247 314 388 457
#     4  12  28  45  72 113 151 194 256 316 383 460
#
# _framework density 22.341995000000001
#
# number of rings (size 3 to 8) (size 9 to 14) (size 15 to 20)
#    0.000    0.000    3.750    6.000    5.250    1.000 
#    0.000    0.000    0.000    0.000    0.000    0.000 
#    0.000    0.000    0.000    0.000    0.000    0.000 
#
# Total GULP energy -89377.638470 kJ/mol
# GULP energy per Si atom -5586.102404 kJ/mol
# Density = 2.229114 g / cm^3
# Si number density = 22.341995 Si / 1000 Ang^3
#
#
#
# Elastic Constant Matrix: (Units=GPa)
#
#
# Indices 1 2 3 4 5 6 
#
# 1 151.1821 69.3296 55.4318 -0.6769 -10.6583 43.0786
# 2 69.3296 113.7361 39.0587 -8.6672 -0.7650 15.4433
# 3 55.4318 39.0587 150.4679 1.4239 4.9022 9.9471
# 4 -0.6769 -8.6672 1.4239 30.8434 1.2772 3.5301
# 5 -10.6583 -0.7650 4.9022 1.2772 69.4262 7.7183
# 6 43.0786 15.4433 9.9471 3.5301 7.7183 55.9079
#
#
#
# Elastic Compliance Matrix: (Units=1/GPa)
#
#
# Indices 1 2 3 4 5 6 
#
# 1 0.012816 -0.005756 -0.002781 -0.000396 0.003017 -0.008182
# 2 -0.005756 0.012867 -0.001292 0.003468 -0.000826 0.001006
# 3 -0.002781 -0.001292 0.007965 -0.000893 -0.001131 0.001295
# 4 -0.000396 0.003468 -0.000893 0.033737 -0.000293 -0.002583
# 5 0.003017 -0.000826 -0.001131 -0.000293 0.015388 -0.004001
# 6 -0.008182 0.001006 0.001295 -0.002583 -0.004001 0.024398
#
#
# Mechanical properties :
#
#
# Convention : Reuss Voigt Hill
#
# Bulk Modulus (GPa) = 71.47679 82.55848 77.01764
# Shear Modulus (GPa) = 38.02480 48.00657 43.01569
#
# Velocity S-wave (km/s) = 4.12994 4.64045 4.39262
# Velocity P-wave (km/s) = 7.40293 8.10827 7.76362
#
# Compressibility (1/GPa) = 0.01399056
#
# Stress axis : x y z
#
# Youngs Moduli (GPa) = 78.02564 77.71900 125.54239
#
# Poissons Ratio (x) = 0.44737 0.34912
# Poissons Ratio (y) = 0.44914 0.16218
# Poissons Ratio (z) = 0.21698 0.10040
#
# Static dielectric constant tensor:
#      x y z
#    x 1.821250 -0.047510 0.006830 
#    y -0.047510 1.393510 0.021440 
#    z 0.006830 0.021440 2.005560 
# 
# From -- ./inp_files/466031.got.cif
#   From: 2010.05.17/outbox.cif.g08.bks.cpg/sg2_234_cif.got.tgz:466031.got - 2010.06.03 11:33:40.
