data_PCOD9070121
_publ_section_title
;
Structure prediction by ZEFSAII (Michael W. Deem and Ramdas Pophale) SiO2 
 PCOD9070121
Probable space group: P -1
;
_chemical_formula_sum "Si O2"
_cell_formula_units_Z 14
_cell_length_a 9.506114
_cell_length_b 11.594267
_cell_length_c 9.979376
_cell_angle_alpha 123.350275
_cell_angle_beta 44.302203
_cell_angle_gamma 104.372412
_cell_volume 621.510212
_symmetry_space_group_name_H-M "P -1"
_symmetry_group_IT_number 2
_symmetry_cell_setting 'triclinic'
loop_
_space_group_symop_operation_xyz
x,y,z
-x,-y,-z
loop_
_atom_site_type_symbol
_atom_site_label
_atom_site_fract_x
_atom_site_fract_y
_atom_site_fract_z
Si Si1 0.485699 0.633044 0.494271
Si Si2 0.065615 0.368828 0.769119
Si Si3 0.568114 0.361502 0.773033
Si Si4 0.854910 0.110911 0.767896
Si Si5 0.188851 0.931017 0.925183
Si Si6 0.422382 0.159652 0.940481
Si Si7 0.974233 0.639980 0.518866
O O1 0.500000 0.500000 0.500000
O O2 0.688188 0.692225 0.419254
O O3 0.491721 0.591890 0.307976
O O4 0.282582 0.762124 0.733425
O O5 0.040002 0.406633 0.654335
O O6 0.931478 0.255426 0.812019
O O7 0.000000 0.500000 0.000000
O O8 0.461160 0.246954 0.838720
O O9 0.817307 0.305121 0.574575
O O10 0.500000 0.500000 0.000000
O O11 0.873982 0.050280 0.865180
O O12 0.622935 0.137685 0.884894
O O13 0.000000 0.000000 0.500000
O O14 0.367964 0.014961 0.839231
O O15 0.000000 0.000000 0.000000
O O16 0.227620 0.248637 0.216481
O O17 0.000000 0.500000 0.500000
#
# Coordination Sequence:
#
# PCOD9070121 Si02
#       7
#     2   2   2   2   2   2   2
#     4  12  28  50  77 112 160 203 256 328 402 459
#     4  12  26  44  75 113 153 200 263 325 387 460
#     4  12  26  47  79 115 156 207 262 314 388 475
#     4  12  27  51  75 107 154 209 263 313 393 477
#     4  12  29  50  79 116 155 202 260 331 395 460
#     4  12  27  49  81 111 157 208 263 317 395 471
#     4  12  24  45  76 111 155 203 259 316 383 472
#
# _framework density 22.525779
#
# number of rings (size 3 to 8) (size 9 to 14) (size 15 to 20)
#    0.000    0.000    2.857    6.429    6.000    0.571 
#    0.000    0.000    0.000    0.000    0.000    0.000 
#    0.000    0.000    0.000    0.000    0.000    0.000 
#
# Total GULP energy -78477.520683 kJ/mol
# GULP energy per Si atom -5605.537192 kJ/mol
# Density = 2.247451 g / cm^3
# Si number density = 22.525779 Si / 1000 Ang^3
#
#
#
# Elastic Constant Matrix: (Units=GPa)
#
#
# Indices 1 2 3 4 5 6 
#
# 1 173.4878 75.0158 57.8334 -12.0059 1.4043 -16.8035
# 2 75.0158 159.5551 88.3746 -0.1383 15.4054 -8.9172
# 3 57.8334 88.3746 114.4469 -11.3156 -0.1457 -17.3161
# 4 -12.0059 -0.1383 -11.3156 40.2028 -9.0769 4.2414
# 5 1.4043 15.4054 -0.1457 -9.0769 54.9369 -10.9620
# 6 -16.8035 -8.9172 -17.3161 4.2414 -10.9620 47.9590
#
#
#
# Elastic Compliance Matrix: (Units=1/GPa)
#
#
# Indices 1 2 3 4 5 6 
#
# 1 0.007773 -0.003118 -0.001018 0.002141 0.001408 0.001909
# 2 -0.003118 0.013393 -0.009639 -0.004428 -0.004998 -0.002833
# 3 -0.001018 -0.009639 0.017966 0.005244 0.004627 0.004932
# 4 0.002141 -0.004428 0.005244 0.028257 0.006008 0.000694
# 5 0.001408 -0.004998 0.004627 0.006008 0.021703 0.005664
# 6 0.001909 -0.002833 0.004932 0.000694 0.005664 0.024007
#
#
# Mechanical properties :
#
#
# Convention : Reuss Voigt Hill
#
# Bulk Modulus (GPa) = 86.34419 98.88193 92.61306
# Shear Modulus (GPa) = 34.59982 43.70415 39.15198
#
# Velocity S-wave (km/s) = 3.92345 4.40953 4.17357
# Velocity P-wave (km/s) = 7.67718 8.36169 8.02673
#
# Compressibility (1/GPa) = 0.01158155
#
# Stress axis : x y z
#
# Youngs Moduli (GPa) = 128.64425 74.66819 55.66193
#
# Poissons Ratio (x) = 0.23283 0.05667
# Poissons Ratio (y) = 0.40113 0.53651
# Poissons Ratio (z) = 0.13097 0.71971
#
# Static dielectric constant tensor:
#      x y z
#    x 1.841450 0.061450 -0.060590 
#    y 0.061450 2.032830 -0.162960 
#    z -0.060590 -0.162960 1.996410 
# 
# From -- ./inp_files/189640.got.cif
#   From: 2010.05.17/outbox.cif.g08.bks.cpg/sg2_95_cif.got.tgz:189640.got - 2010.06.03 11:33:40.
