data_PCOD9070087
_publ_section_title
;
Structure prediction by ZEFSAII (Michael W. Deem and Ramdas Pophale) SiO2 
 PCOD9070087
Probable space group: P -1
;
_chemical_formula_sum "Si O2"
_cell_formula_units_Z 12
_cell_length_a 10.721768
_cell_length_b 11.441343
_cell_length_c 12.459368
_cell_angle_alpha 35.295479
_cell_angle_beta 145.156225
_cell_angle_gamma 145.624405
_cell_volume 445.069428
_symmetry_space_group_name_H-M "P -1"
_symmetry_group_IT_number 2
_symmetry_cell_setting 'triclinic'
loop_
_space_group_symop_operation_xyz
x,y,z
-x,-y,-z
loop_
_atom_site_type_symbol
_atom_site_label
_atom_site_fract_x
_atom_site_fract_y
_atom_site_fract_z
Si Si1 0.010716 0.269861 0.220577
Si Si2 0.807132 0.991197 0.622200
Si Si3 0.438944 0.760537 0.994979
Si Si4 0.755554 0.617748 0.469380
Si Si5 0.702972 0.142787 0.736929
Si Si6 0.757580 0.631686 0.022837
O O1 0.102750 0.148626 0.290740
O O2 0.160854 0.300496 0.412671
O O3 0.722806 0.126014 0.158981
O O4 0.000000 0.500000 0.000000
O O5 0.539649 0.967906 0.424621
O O6 0.775634 0.857547 0.810158
O O7 0.015044 0.248453 0.551647
O O8 0.268375 0.552552 0.949523
O O9 0.661631 0.951260 0.939889
O O10 0.542211 0.661669 0.234496
O O11 0.677863 0.352315 0.614630
O O12 0.987734 0.270699 0.804267
O O13 0.500000 0.500000 0.000000
#
# Coordination Sequence:
#
# PCOD9070087 Si02
#       6
#     2   2   2   2   2   2
#     4  12  24  45  73 109 154 187 234 290 358 438
#     4  12  25  47  70 111 144 190 242 289 363 431
#     4  12  26  47  73 110 145 190 239 293 365 424
#     4  12  25  45  73 108 150 185 235 294 354 436
#     4  12  24  48  76 102 149 185 242 298 355 425
#     4  12  27  51  76 103 142 191 248 303 355 421
#
# _framework density 26.962087
#
# number of rings (size 3 to 8) (size 9 to 14) (size 15 to 20)
#    0.000    0.000    8.333    0.500    0.000    6.000 
#    0.000    1.667    0.000    0.000    0.000    0.000 
#    0.000    0.000    0.000    0.000    0.000    0.000 
#
# Total GULP energy -67291.079115 kJ/mol
# GULP energy per Si atom -5607.589926 kJ/mol
# Density = 2.690072 g / cm^3
# Si number density = 26.962087 Si / 1000 Ang^3
#
#
#
# Elastic Constant Matrix: (Units=GPa)
#
#
# Indices 1 2 3 4 5 6 
#
# 1 100.3913 28.6941 31.2898 12.3707 20.3836 17.8413
# 2 28.6941 128.7721 38.1044 0.7199 8.1307 22.5177
# 3 31.2898 38.1044 157.2409 10.3343 3.7802 -1.9191
# 4 12.3707 0.7199 10.3343 68.5354 15.7671 10.4267
# 5 20.3836 8.1307 3.7802 15.7671 35.8555 0.5067
# 6 17.8413 22.5177 -1.9191 10.4267 0.5067 47.8994
#
#
#
# Elastic Compliance Matrix: (Units=1/GPa)
#
#
# Indices 1 2 3 4 5 6 
#
# 1 0.013164 -0.001029 -0.002274 0.000290 -0.007074 -0.004499
# 2 -0.001029 0.009558 -0.002222 0.001561 -0.001971 -0.004518
# 3 -0.002274 -0.002222 0.007437 -0.001436 0.001609 0.002485
# 4 0.000290 0.001561 -0.001436 0.017249 -0.007888 -0.004571
# 5 -0.007074 -0.001971 0.001609 -0.007888 0.035587 0.004967
# 6 -0.004499 -0.004518 0.002485 -0.004571 0.004967 0.025719
#
#
# Mechanical properties :
#
#
# Convention : Reuss Voigt Hill
#
# Bulk Modulus (GPa) = 52.32984 64.73120 58.53052
# Shear Modulus (GPa) = 39.64072 49.67913 44.65993
#
# Velocity S-wave (km/s) = 3.83853 4.29716 4.07430
# Velocity P-wave (km/s) = 6.25272 6.97718 6.62486
#
# Compressibility (1/GPa) = 0.01910956
#
# Stress axis : x y z
#
# Youngs Moduli (GPa) = 75.96402 104.62290 134.46894
#
# Poissons Ratio (x) = 0.10762 0.30580
# Poissons Ratio (y) = 0.07814 0.29878
# Poissons Ratio (z) = 0.17275 0.23246
#
# Static dielectric constant tensor:
#      x y z
#    x 2.220950 0.048950 -0.014010 
#    y 0.048950 2.150550 0.005710 
#    z -0.014010 0.005710 2.038550 
# 
# From -- ./inp_files/396870.got.cif
#   From: 2010.05.17/outbox.cif.g08.bks.cpg/sg2_199_cif.got.tgz:396870.got - 2010.06.03 11:33:40.
