data_PCOD9070567
_publ_section_title
;
Structure prediction by ZEFSAII (Michael W. Deem and Ramdas Pophale) SiO2 
 PCOD9070567
Probable space group: P -1
;
_chemical_formula_sum "Si O2"
_cell_formula_units_Z 12
_cell_length_a 15.681605
_cell_length_b 14.364789
_cell_length_c 11.503177
_cell_angle_alpha 37.057895
_cell_angle_beta 144.034933
_cell_angle_gamma 162.196808
_cell_volume 459.838840
_symmetry_space_group_name_H-M "P -1"
_symmetry_group_IT_number 2
_symmetry_cell_setting 'triclinic'
loop_
_space_group_symop_operation_xyz
x,y,z
-x,-y,-z
loop_
_atom_site_type_symbol
_atom_site_label
_atom_site_fract_x
_atom_site_fract_y
_atom_site_fract_z
Si Si1 0.084152 0.462807 0.287756
Si Si2 0.506569 0.094251 0.054812
Si Si3 0.747888 0.598258 0.667195
Si Si4 0.748992 0.349923 0.447596
Si Si5 0.203732 0.306560 0.988006
Si Si6 0.245881 0.097889 0.903330
O O1 0.154533 0.376273 0.376469
O O2 0.215583 0.592502 0.432599
O O3 0.749404 0.187857 0.219111
O O4 0.211193 0.726454 0.093619
O O5 0.600850 0.314953 0.850865
O O6 0.458315 0.148618 0.063499
O O7 0.500000 0.500000 0.500000
O O8 0.964568 0.083316 0.261121
O O9 0.713702 0.486333 0.218733
O O10 0.000000 0.500000 0.500000
O O11 0.500000 0.000000 0.500000
O O12 0.516312 0.553615 0.146060
O O13 0.000000 0.000000 0.000000
O O14 0.984292 0.152354 0.002024
#
# Coordination Sequence:
#
# PCOD9070567 Si02
#       6
#     2   2   2   2   2   2
#     4  12  27  49  82 118 158 217 273 334 418 491
#     4  12  24  50  80 115 157 210 269 336 415 488
#     4  12  30  51  81 117 168 214 274 346 413 486
#     4  12  26  48  80 118 161 206 278 338 399 486
#     4  12  27  51  82 117 166 224 270 339 417 499
#     4  12  25  50  82 116 163 214 278 333 421 484
#
# _framework density 26.0961
#
# number of rings (size 3 to 8) (size 9 to 14) (size 15 to 20)
#    0.000    0.000    3.333    6.500    2.333    2.000 
#    9.000    0.000    0.000    0.000    0.000    0.000 
#    0.000    0.000    0.000    0.000    0.000    0.000 
#
# Total GULP energy -67166.309915 kJ/mol
# GULP energy per Si atom -5597.192493 kJ/mol
# Density = 2.603670 g / cm^3
# Si number density = 26.096100 Si / 1000 Ang^3
#
#
#
# Elastic Constant Matrix: (Units=GPa)
#
#
# Indices 1 2 3 4 5 6 
#
# 1 241.4293 98.8954 77.5727 19.1758 -13.5861 -1.8190
# 2 98.8954 247.9736 61.5888 9.4741 -14.7513 -13.5088
# 3 77.5727 61.5888 102.6223 7.2640 -7.7013 -19.8288
# 4 19.1758 9.4741 7.2640 37.8974 0.9472 0.8293
# 5 -13.5861 -14.7513 -7.7013 0.9472 37.1386 4.1981
# 6 -1.8190 -13.5088 -19.8288 0.8293 4.1981 67.8587
#
#
#
# Elastic Compliance Matrix: (Units=1/GPa)
#
#
# Indices 1 2 3 4 5 6 
#
# 1 0.006174 -0.001440 -0.003825 -0.002030 0.001090 -0.001281
# 2 -0.001440 0.005158 -0.001832 -0.000246 0.001105 0.000388
# 3 -0.003825 -0.001832 0.014531 -0.000486 0.000474 0.003755
# 4 -0.002030 -0.000246 -0.000486 0.027619 -0.001591 -0.000485
# 5 0.001090 0.001105 0.000474 -0.001591 0.028053 -0.001328
# 6 -0.001281 0.000388 0.003755 -0.000485 -0.001328 0.015965
#
#
# Mechanical properties :
#
#
# Convention : Reuss Voigt Hill
#
# Bulk Modulus (GPa) = 85.69476 118.68211 102.18844
# Shear Modulus (GPa) = 43.25931 52.17682 47.71806
#
# Velocity S-wave (km/s) = 4.07589 4.47633 4.28080
# Velocity P-wave (km/s) = 7.42024 8.50260 7.97980
#
# Compressibility (1/GPa) = 0.01166932
#
# Stress axis : x y z
#
# Youngs Moduli (GPa) = 161.98264 193.86985 68.81918
#
# Poissons Ratio (x) = 0.27908 0.26321
# Poissons Ratio (y) = 0.23318 0.12610
# Poissons Ratio (z) = 0.61954 0.35523
#
# Static dielectric constant tensor:
#      x y z
#    x 2.085650 -0.082720 -0.008400 
#    y -0.082720 2.011700 0.068750 
#    z -0.008400 0.068750 2.184230 
# 
# From -- ./inp_files/342333.got.cif
#   From: 2010.05.17/outbox.cif.g08.bks.cpg/sg2_172_cif.got.tgz:342333.got - 2010.06.03 11:33:40.
