data_PCOD9070799
_publ_section_title
;
Structure prediction by ZEFSAII (Michael W. Deem and Ramdas Pophale) SiO2 
 PCOD9070799
Probable space group: P -1
;
_chemical_formula_sum "Si O2"
_cell_formula_units_Z 16
_cell_length_a 11.698040
_cell_length_b 20.944853
_cell_length_c 10.043426
_cell_angle_alpha 35.354494
_cell_angle_beta 48.146925
_cell_angle_gamma 28.108395
_cell_volume 658.452798
_symmetry_space_group_name_H-M "P -1"
_symmetry_group_IT_number 2
_symmetry_cell_setting 'triclinic'
loop_
_space_group_symop_operation_xyz
x,y,z
-x,-y,-z
loop_
_atom_site_type_symbol
_atom_site_label
_atom_site_fract_x
_atom_site_fract_y
_atom_site_fract_z
Si Si1 0.572039 0.939270 0.896160
Si Si2 0.361462 0.852402 0.840779
Si Si3 0.905178 0.856584 0.253093
Si Si4 0.531275 0.445450 0.719029
Si Si5 0.503590 0.594870 0.722218
Si Si6 0.778417 0.065111 0.482022
Si Si7 0.135796 0.337158 0.267077
Si Si8 0.873829 0.548532 0.376044
O O1 0.318768 0.063019 0.800585
O O2 0.729550 0.961603 0.706327
O O3 0.723020 0.739647 0.115631
O O4 0.500000 0.000000 0.000000
O O5 0.206904 0.925202 0.702799
O O6 0.571368 0.826730 0.704919
O O7 0.198960 0.974723 0.885067
O O8 0.526229 0.650768 0.068853
O O9 0.947102 0.743579 0.531125
O O10 0.167488 0.726016 0.200416
O O11 0.500000 0.500000 0.500000
O O12 0.378910 0.597906 0.690237
O O13 0.436746 0.740802 0.612910
O O14 0.707938 0.537033 0.564380
O O15 0.500000 0.500000 0.000000
O O16 0.000000 0.000000 0.500000
O O17 0.066760 0.412415 0.342383
O O18 0.000000 0.500000 0.000000
O O19 0.000000 0.500000 0.500000
#
# Coordination Sequence:
#
# PCOD9070799 Si02
#       8
#     2   2   2   2   2   2   2   2
#     4  12  27  47  78 110 154 205 264 322 397 467
#     4  12  27  48  74 114 157 203 263 328 395 474
#     4  12  27  50  76 113 159 204 266 327 392 470
#     4  12  29  48  78 114 157 211 262 326 403 471
#     4  12  27  51  74 108 158 205 267 323 396 473
#     4  12  29  47  75 115 154 207 263 322 403 475
#     4  12  25  46  76 113 150 203 261 322 391 464
#     4  12  27  47  78 110 153 205 264 326 386 467
#
# _framework density 24.299389000000001
#
# number of rings (size 3 to 8) (size 9 to 14) (size 15 to 20)
#    0.000    0.000    5.000    3.750    8.750    0.000 
#    0.000    0.000    0.000    0.000    0.000    0.000 
#    0.000    0.000    0.000    0.000    0.000    0.000 
#
# Total GULP energy -89263.553501 kJ/mol
# GULP energy per Si atom -5578.972094 kJ/mol
# Density = 2.424408 g / cm^3
# Si number density = 24.299389 Si / 1000 Ang^3
#
#
#
# Elastic Constant Matrix: (Units=GPa)
#
#
# Indices 1 2 3 4 5 6 
#
# 1 122.2978 32.9819 44.5908 1.6073 6.5086 3.3678
# 2 32.9819 77.1162 6.5886 -7.2361 -7.0154 10.2099
# 3 44.5908 6.5886 127.4032 9.2911 1.5415 -13.2108
# 4 1.6073 -7.2361 9.2911 29.5364 -3.6002 1.1270
# 5 6.5086 -7.0154 1.5415 -3.6002 46.8252 11.0567
# 6 3.3678 10.2099 -13.2108 1.1270 11.0567 51.2287
#
#
#
# Elastic Compliance Matrix: (Units=1/GPa)
#
#
# Indices 1 2 3 4 5 6 
#
# 1 0.010805 -0.004563 -0.003482 -0.000856 -0.002082 -0.000231
# 2 -0.004563 0.016329 -0.000082 0.004967 0.004419 -0.004038
# 3 -0.003482 -0.000082 0.009612 -0.003062 -0.000779 0.002959
# 4 -0.000856 0.004967 -0.003062 0.036782 0.004626 -0.003531
# 5 -0.002082 0.004419 -0.000779 0.004626 0.024167 -0.006262
# 6 -0.000231 -0.004038 0.002959 -0.003531 -0.006262 0.022533
#
#
# Mechanical properties :
#
#
# Convention : Reuss Voigt Hill
#
# Bulk Modulus (GPa) = 48.80041 55.01555 51.90798
# Shear Modulus (GPa) = 34.88882 41.69514 38.29198
#
# Velocity S-wave (km/s) = 3.79329 4.14683 3.97399
# Velocity P-wave (km/s) = 6.26993 6.75412 6.51652
#
# Compressibility (1/GPa) = 0.02049163
#
# Stress axis : x y z
#
# Youngs Moduli (GPa) = 92.54636 61.24176 104.04016
#
# Poissons Ratio (x) = 0.27945 0.36229
# Poissons Ratio (y) = 0.42229 0.00852
# Poissons Ratio (z) = 0.32227 0.00501
#
# Static dielectric constant tensor:
#      x y z
#    x 2.039430 0.053000 -0.164880 
#    y 0.053000 2.472110 -0.319430 
#    z -0.164880 -0.319430 2.159220 
# 
# From -- ./inp_files/282694.got.cif
#   From: 2010.05.17/outbox.cif.g08.bks.cpg/sg2_142_cif.got.tgz:282694.got - 2010.06.03 11:33:40.
