data_PCOD9070052
_publ_section_title
;
Structure prediction by ZEFSAII (Michael W. Deem and Ramdas Pophale) SiO2 
 PCOD9070052
Probable space group: P -1
;
_chemical_formula_sum "Si O2"
_cell_formula_units_Z 15
_cell_length_a 12.295587
_cell_length_b 8.877684
_cell_length_c 13.242000
_cell_angle_alpha 135.143045
_cell_angle_beta 141.887016
_cell_angle_gamma 61.479016
_cell_volume 618.484210
_symmetry_space_group_name_H-M "P -1"
_symmetry_group_IT_number 2
_symmetry_cell_setting 'triclinic'
loop_
_space_group_symop_operation_xyz
x,y,z
-x,-y,-z
loop_
_atom_site_type_symbol
_atom_site_label
_atom_site_fract_x
_atom_site_fract_y
_atom_site_fract_z
Si Si1 0.641473 0.113587 0.374745
Si Si2 0.945994 0.517162 0.280068
Si Si3 0.319191 0.238337 0.919157
Si Si4 0.000000 0.500000 0.500000
Si Si5 0.960092 0.190136 0.989690
Si Si6 0.013302 0.981456 0.296560
Si Si7 0.610913 0.951076 0.651136
Si Si8 0.661486 0.479343 0.404128
O O1 0.497882 0.085311 0.344318
O O2 0.630035 0.331759 0.410157
O O3 0.605074 0.931569 0.175850
O O4 0.833240 0.095263 0.557433
O O5 0.855225 0.389657 0.248941
O O6 0.141899 0.561311 0.514449
O O7 0.816701 0.659502 0.203970
O O8 0.033121 0.419984 0.200747
O O9 0.487025 0.399642 0.168565
O O10 0.180935 0.104743 0.836150
O O11 0.059642 0.242308 0.443680
O O12 0.985280 0.135724 0.867214
O O13 0.754572 0.171504 0.861914
O O14 0.000000 0.000000 0.000000
O O15 0.678387 0.731465 0.563785
O O16 0.500000 0.000000 0.500000
#
# Coordination Sequence:
#
# PCOD9070052 Si02
#       8
#     2   2   2   1   2   2   2   2
#     4  12  26  49  74 107 153 195 246 314 373 446
#     4  12  26  49  76 112 149 199 251 306 376 445
#     4  12  28  49  76 113 149 197 252 308 377 445
#     4  12  24  44  80 104 148 200 242 306 376 438
#     4  12  25  45  74 106 148 195 246 308 374 433
#     4  12  25  48  78 108 149 199 250 309 374 446
#     4  12  26  48  72 107 147 193 251 305 371 444
#     4  12  27  48  75 109 151 196 249 309 373 444
#
# _framework density 24.252842999999999
#
# number of rings (size 3 to 8) (size 9 to 14) (size 15 to 20)
#    0.000    0.000    6.667    2.800    1.867    2.667 
#    0.000    2.000    0.000    0.000    0.000    0.000 
#    0.000    0.000    0.000    0.000    0.000    0.000 
#
# Total GULP energy -83511.852376 kJ/mol
# GULP energy per Si atom -5567.456825 kJ/mol
# Density = 2.419764 g / cm^3
# Si number density = 24.252843 Si / 1000 Ang^3
#
#
#
# Elastic Constant Matrix: (Units=GPa)
#
#
# Indices 1 2 3 4 5 6 
#
# 1 145.0101 25.3557 54.7468 -2.1036 -21.3787 0.7864
# 2 25.3557 114.4881 24.3587 -15.9784 -16.7533 9.5737
# 3 54.7468 24.3587 121.7024 -7.6249 -11.6604 4.7960
# 4 -2.1036 -15.9784 -7.6249 33.7378 -5.2423 -13.7454
# 5 -21.3787 -16.7533 -11.6604 -5.2423 44.2446 -1.3818
# 6 0.7864 9.5737 4.7960 -13.7454 -1.3818 40.2738
#
#
#
# Elastic Compliance Matrix: (Units=1/GPa)
#
#
# Indices 1 2 3 4 5 6 
#
# 1 0.008817 -0.000789 -0.003532 0.000085 0.003058 0.000570
# 2 -0.000789 0.010445 -0.001026 0.005075 0.003890 -0.000480
# 3 -0.003532 -0.001026 0.010197 0.001581 0.000769 -0.000335
# 4 0.000085 0.005075 0.001581 0.038416 0.007305 0.011966
# 5 0.003058 0.003890 0.000769 0.007305 0.026693 0.002333
# 6 0.000570 -0.000480 -0.000335 0.011966 0.002333 0.029137
#
#
# Mechanical properties :
#
#
# Convention : Reuss Voigt Hill
#
# Bulk Modulus (GPa) = 53.29458 65.56922 59.43190
# Shear Modulus (GPa) = 35.54793 42.10056 38.82424
#
# Velocity S-wave (km/s) = 3.83263 4.17094 4.00536
# Velocity P-wave (km/s) = 6.45040 7.09154 6.77856
#
# Compressibility (1/GPa) = 0.01876364
#
# Stress axis : x y z
#
# Youngs Moduli (GPa) = 113.42154 95.73797 98.06784
#
# Poissons Ratio (x) = 0.07557 0.34640
# Poissons Ratio (y) = 0.08953 0.10062
# Poissons Ratio (z) = 0.40063 0.09823
#
# Static dielectric constant tensor:
#      x y z
#    x 2.083400 -0.084390 -0.256380 
#    y -0.084390 2.006810 0.172460 
#    z -0.256380 0.172460 2.547860 
# 
# From -- ./inp_files/420148.got.cif
#   From: 2010.05.17/outbox.cif.g08.bks.cpg/sg2_211_cif.got.tgz:420148.got - 2010.06.03 11:33:40.
