data_PCOD9070866
_publ_section_title
;
Structure prediction by ZEFSAII (Michael W. Deem and Ramdas Pophale) SiO2 
 PCOD9070866
Probable space group: P -1
;
_chemical_formula_sum "Si O2"
_cell_formula_units_Z 12
_cell_length_a 9.812804
_cell_length_b 11.330755
_cell_length_c 8.615996
_cell_angle_alpha 125.537458
_cell_angle_beta 44.276959
_cell_angle_gamma 126.665766
_cell_volume 515.860485
_symmetry_space_group_name_H-M "P -1"
_symmetry_group_IT_number 2
_symmetry_cell_setting 'triclinic'
loop_
_space_group_symop_operation_xyz
x,y,z
-x,-y,-z
loop_
_atom_site_type_symbol
_atom_site_label
_atom_site_fract_x
_atom_site_fract_y
_atom_site_fract_z
Si Si1 0.131068 0.680088 0.236531
Si Si2 0.564039 0.162978 0.660123
Si Si3 0.862759 0.374341 0.343354
Si Si4 0.857089 0.837955 0.055038
Si Si5 0.576011 0.358978 0.279096
Si Si6 0.851743 0.842181 0.432198
O O1 0.279302 0.826302 0.318727
O O2 0.985893 0.553716 0.372779
O O3 0.977118 0.724763 0.280257
O O4 0.292879 0.614949 0.965588
O O5 0.352962 0.194286 0.893815
O O6 0.500000 0.000000 0.500000
O O7 0.026204 0.284408 0.155228
O O8 0.736139 0.337247 0.258139
O O9 0.689069 0.302706 0.556229
O O10 0.817413 0.845430 0.277898
O O11 0.000000 0.000000 0.000000
O O12 0.500000 0.500000 0.500000
O O13 0.367957 0.214986 0.345255
O O14 0.000000 0.000000 0.500000
#
# Coordination Sequence:
#
# PCOD9070866 Si02
#       6
#     2   2   2   2   2   2
#     4  12  28  46  75 112 142 192 256 300 364 443
#     4  12  27  48  72 107 150 195 241 302 369 435
#     4  12  25  47  75 105 150 192 243 308 364 434
#     4  12  26  46  72 104 150 191 239 301 371 431
#     4  12  25  48  76 106 148 190 247 307 369 429
#     4  12  27  45  75 107 144 192 250 307 363 434
#
# _framework density 23.262104000000001
#
# number of rings (size 3 to 8) (size 9 to 14) (size 15 to 20)
#    0.000    0.000    6.667    3.000    2.333    1.333 
#    0.000    0.000    0.000    0.000    0.000    0.000 
#    0.000    0.000    0.000    0.000    0.000    0.000 
#
# Total GULP energy -67171.945813 kJ/mol
# GULP energy per Si atom -5597.662151 kJ/mol
# Density = 2.320916 g / cm^3
# Si number density = 23.262104 Si / 1000 Ang^3
#
#
#
# Elastic Constant Matrix: (Units=GPa)
#
#
# Indices 1 2 3 4 5 6 
#
# 1 109.8486 26.2993 8.0909 -8.3102 -27.1737 13.6026
# 2 26.2993 114.7956 28.7630 -19.9135 -14.6232 11.9001
# 3 8.0909 28.7630 79.3450 -17.0074 -24.2825 3.5934
# 4 -8.3102 -19.9135 -17.0074 43.5241 -2.9247 -8.3239
# 5 -27.1737 -14.6232 -24.2825 -2.9247 43.0913 -3.7378
# 6 13.6026 11.9001 3.5934 -8.3239 -3.7378 48.5307
#
#
#
# Elastic Compliance Matrix: (Units=1/GPa)
#
#
# Indices 1 2 3 4 5 6 
#
# 1 0.011830 -0.001618 0.002627 0.002728 0.008403 -0.001999
# 2 -0.001618 0.010594 -0.002492 0.003407 0.001291 -0.001276
# 3 0.002627 -0.002492 0.018406 0.007477 0.011751 0.000699
# 4 0.002728 0.003407 0.007477 0.029295 0.009390 0.003594
# 5 0.008403 0.001291 0.011751 0.009390 0.036278 0.000863
# 6 -0.001999 -0.001276 0.000699 0.003594 0.000863 0.022110
#
#
# Mechanical properties :
#
#
# Convention : Reuss Voigt Hill
#
# Bulk Modulus (GPa) = 26.41037 47.81061 37.11049
# Shear Modulus (GPa) = 34.69822 43.08496 38.89159
#
# Velocity S-wave (km/s) = 3.86634 4.30833 4.09331
# Velocity P-wave (km/s) = 5.59549 6.73399 6.19096
#
# Compressibility (1/GPa) = 0.03786391
#
# Stress axis : x y z
#
# Youngs Moduli (GPa) = 84.53263 94.39367 54.33012
#
# Poissons Ratio (x) = 0.15269 -0.14272
# Poissons Ratio (y) = 0.13674 0.13540
# Poissons Ratio (z) = -0.22206 0.23525
#
# Static dielectric constant tensor:
#      x y z
#    x 1.912270 0.003460 0.070550 
#    y 0.003460 1.882040 0.008150 
#    z 0.070550 0.008150 1.890690 
# 
# From -- ./inp_files/172582.got.cif
#   From: 2010.05.17/outbox.cif.g08.bks.cpg/sg2_87_cif.got.tgz:172582.got - 2010.06.03 11:33:40.
