data_PCOD9070059
_publ_section_title
;
Structure prediction by ZEFSAII (Michael W. Deem and Ramdas Pophale) SiO2 
 PCOD9070059
Probable space group: P -1
;
_chemical_formula_sum "Si O2"
_cell_formula_units_Z 14
_cell_length_a 7.576456
_cell_length_b 12.795058
_cell_length_c 11.183450
_cell_angle_alpha 51.796590
_cell_angle_beta 39.875495
_cell_angle_gamma 60.483093
_cell_volume 545.844062
_symmetry_space_group_name_H-M "P -1"
_symmetry_group_IT_number 2
_symmetry_cell_setting 'triclinic'
loop_
_space_group_symop_operation_xyz
x,y,z
-x,-y,-z
loop_
_atom_site_type_symbol
_atom_site_label
_atom_site_fract_x
_atom_site_fract_y
_atom_site_fract_z
Si Si1 0.977116 0.072094 0.285844
Si Si2 0.778108 0.872609 0.131840
Si Si3 0.466223 0.841514 0.941805
Si Si4 0.215399 0.781350 0.359831
Si Si5 0.500057 0.724195 0.547612
Si Si6 0.874046 0.512373 0.419625
Si Si7 0.649727 0.362391 0.049520
O O1 0.242595 0.115432 0.190588
O O2 0.726190 0.151447 0.423566
O O3 0.005551 0.910569 0.386520
O O4 0.016228 0.122862 0.092112
O O5 0.492912 0.814297 0.265930
O O6 0.778686 0.798230 0.312256
O O7 0.713022 0.026138 0.085111
O O8 0.472063 0.749046 0.891656
O O9 0.326232 0.770418 0.175365
O O10 0.111164 0.634981 0.541669
O O11 0.569801 0.582875 0.543058
O O12 0.425894 0.671458 0.753380
O O13 0.000000 0.500000 0.500000
O O14 0.040949 0.607942 0.175693
O O15 0.500000 0.500000 0.000000
#
# Coordination Sequence:
#
# PCOD9070059 Si02
#       7
#     2   2   2   2   2   2   2
#     4   9  21  44  72 101 125 163 227 278 318 378
#     4   9  21  42  68  99 130 166 217 277 329 374
#     4   9  19  42  71  96 131 172 216 271 327 386
#     4   9  19  43  73  94 129 178 215 265 329 388
#     4  12  25  43  65 103 133 168 221 273 326 383
#     4  12  24  45  65  91 135 178 216 259 329 395
#     4  12  25  43  65  94 132 181 220 256 327 402
#
# _framework density 25.648350000000001
#
# number of rings (size 3 to 8) (size 9 to 14) (size 15 to 20)
#    0.000    1.714    2.857    2.571    0.000    5.714 
#    2.571   10.714    0.000    0.000    0.000    0.000 
#    0.000    0.000    0.000    0.000    0.000    0.000 
#
# Total GULP energy -78194.781204 kJ/mol
# GULP energy per Si atom -5585.341515 kJ/mol
# Density = 2.558997 g / cm^3
# Si number density = 25.648350 Si / 1000 Ang^3
#
#
#
# Elastic Constant Matrix: (Units=GPa)
#
#
# Indices 1 2 3 4 5 6 
#
# 1 60.9111 39.2340 32.3572 9.5933 -1.6691 0.6066
# 2 39.2340 190.1265 66.7555 19.3500 -21.2033 -9.6653
# 3 32.3572 66.7555 170.1447 12.9060 27.6284 9.0550
# 4 9.5933 19.3500 12.9060 55.3422 1.1872 -10.2783
# 5 -1.6691 -21.2033 27.6284 1.1872 33.1528 -5.2404
# 6 0.6066 -9.6653 9.0550 -10.2783 -5.2404 33.6866
#
#
#
# Elastic Compliance Matrix: (Units=1/GPa)
#
#
# Indices 1 2 3 4 5 6 
#
# 1 0.020076 -0.002875 -0.002712 -0.002032 0.001368 -0.000865
# 2 -0.002875 0.009196 -0.005060 -0.000746 0.010851 0.005511
# 3 -0.002712 -0.005060 0.011060 -0.001330 -0.013633 -0.006902
# 4 -0.002032 -0.000746 -0.001330 0.020175 0.000828 0.006465
# 5 0.001368 0.010851 -0.013633 0.000828 0.050862 0.014918
# 6 -0.000865 0.005511 -0.006902 0.006465 0.014918 0.037431
#
#
# Mechanical properties :
#
#
# Convention : Reuss Voigt Hill
#
# Bulk Modulus (GPa) = 52.52541 77.54177 65.03359
# Shear Modulus (GPa) = 28.33827 43.29201 35.81514
#
# Velocity S-wave (km/s) = 3.32758 4.11287 3.74089
# Velocity P-wave (km/s) = 5.94030 7.26998 6.63851
#
# Compressibility (1/GPa) = 0.01903840
#
# Stress axis : x y z
#
# Youngs Moduli (GPa) = 49.81036 108.74636 90.41433
#
# Poissons Ratio (x) = 0.31268 0.24518
# Poissons Ratio (y) = 0.14322 0.45747
# Poissons Ratio (z) = 0.13507 0.55023
#
# Static dielectric constant tensor:
#      x y z
#    x 2.298810 -0.062210 -0.058060 
#    y -0.062210 2.043050 -0.008220 
#    z -0.058060 -0.008220 2.131690 
# 
# From -- ./inp_files/391915.got.cif
#   From: 2010.05.17/outbox.cif.g08.bks.cpg/sg2_196_cif.got.tgz:391915.got - 2010.06.03 11:33:40.
