data_PCOD9070254
_publ_section_title
;
Structure prediction by ZEFSAII (Michael W. Deem and Ramdas Pophale) SiO2 
 PCOD9070254
Probable space group: P -1
;
_chemical_formula_sum "Si O2"
_cell_formula_units_Z 15
_cell_length_a 18.455176
_cell_length_b 11.906286
_cell_length_c 10.413443
_cell_angle_alpha 133.116060
_cell_angle_beta 143.196740
_cell_angle_gamma 28.357303
_cell_volume 649.275517
_symmetry_space_group_name_H-M "P -1"
_symmetry_group_IT_number 2
_symmetry_cell_setting 'triclinic'
loop_
_space_group_symop_operation_xyz
x,y,z
-x,-y,-z
loop_
_atom_site_type_symbol
_atom_site_label
_atom_site_fract_x
_atom_site_fract_y
_atom_site_fract_z
Si Si1 0.812727 0.056382 0.548386
Si Si2 0.518767 0.024434 0.892353
Si Si3 0.164449 0.234509 0.471687
Si Si4 0.521712 0.595948 0.822855
Si Si5 0.088445 0.739278 0.034276
Si Si6 0.500000 0.500000 0.000000
Si Si7 0.114780 0.755958 0.546845
Si Si8 0.845662 0.521141 0.828591
O O1 0.636968 0.307888 0.426870
O O2 0.926765 0.064367 0.805738
O O3 0.741841 0.981834 0.470141
O O4 0.961360 0.841773 0.494309
O O5 0.674309 0.773026 0.848393
O O6 0.336930 0.182783 0.666371
O O7 0.500000 0.000000 0.000000
O O8 0.565808 0.159034 0.059976
O O9 0.000000 0.500000 0.500000
O O10 0.067366 0.216628 0.217823
O O11 0.715164 0.455218 0.917528
O O12 0.544367 0.468153 0.878610
O O13 0.095154 0.659455 0.122359
O O14 0.285167 0.666358 0.792258
O O15 0.187877 0.547467 0.399002
O O16 0.000000 0.000000 0.500000
O O17 0.000000 0.500000 0.000000
#
# Coordination Sequence:
#
# PCOD9070254 Si02
#       8
#     2   2   2   2   2   1   2   2
#     4  12  25  46  74 104 151 202 248 311 382 444
#     4  12  24  47  75 107 144 197 253 307 380 449
#     4  12  25  44  76 109 151 191 256 316 375 452
#     4  12  24  46  78 105 149 197 254 314 373 459
#     4  12  25  45  72 114 142 196 254 307 377 451
#     4  12  28  46  76 108 152 196 254 304 390 444
#     4  12  26  49  73 105 153 200 248 310 380 446
#     4  12  27  47  77 110 152 199 252 312 383 451
#
# _framework density 23.102671999999998
#
# number of rings (size 3 to 8) (size 9 to 14) (size 15 to 20)
#    0.000    0.000    6.667    2.400    1.867    2.133 
#    0.000    1.333    0.000    0.000    0.000    0.000 
#    0.000    0.000    0.000    0.000    0.000    0.000 
#
# Total GULP energy -83543.574155 kJ/mol
# GULP energy per Si atom -5569.571610 kJ/mol
# Density = 2.305009 g / cm^3
# Si number density = 23.102672 Si / 1000 Ang^3
#
#
#
# Elastic Constant Matrix: (Units=GPa)
#
#
# Indices 1 2 3 4 5 6 
#
# 1 48.6419 -3.3974 12.4206 -6.1277 -2.5994 -16.9153
# 2 -3.3974 70.2459 39.0797 15.7438 -6.2283 -22.3470
# 3 12.4206 39.0797 170.2489 -16.6733 3.0171 -14.8848
# 4 -6.1277 15.7438 -16.6733 49.5888 -5.2412 6.6078
# 5 -2.5994 -6.2283 3.0171 -5.2412 34.8724 2.9946
# 6 -16.9153 -22.3470 -14.8848 6.6078 2.9946 35.0470
#
#
#
# Elastic Compliance Matrix: (Units=1/GPa)
#
#
# Indices 1 2 3 4 5 6 
#
# 1 0.028460 0.010057 -0.003036 -0.003044 0.002069 0.019256
# 2 0.010057 0.028694 -0.006654 -0.012832 0.002587 0.022523
# 3 -0.003036 -0.006654 0.007823 0.004672 -0.001117 -0.003171
# 4 -0.003044 -0.012832 0.004672 0.027416 0.002317 -0.013034
# 5 0.002069 0.002587 -0.001117 0.002317 0.029807 -0.000810
# 6 0.019256 0.022523 -0.003171 -0.013034 -0.000810 0.053368
#
#
# Mechanical properties :
#
#
# Convention : Reuss Voigt Hill
#
# Bulk Modulus (GPa) = 15.21809 42.81584 29.01696
# Shear Modulus (GPa) = 25.41469 39.97058 32.69263
#
# Velocity S-wave (km/s) = 3.32034 4.16399 3.76587
# Velocity P-wave (km/s) = 4.61530 6.45690 5.61215
#
# Compressibility (1/GPa) = 0.06571127
#
# Stress axis : x y z
#
# Youngs Moduli (GPa) = 35.13750 34.85023 127.83331
#
# Poissons Ratio (x) = -0.35050 0.38812
# Poissons Ratio (y) = -0.35339 0.85057
# Poissons Ratio (z) = 0.10668 0.23188
#
# Static dielectric constant tensor:
#      x y z
#    x 1.954940 0.059920 -0.030140 
#    y 0.059920 1.911870 -0.001690 
#    z -0.030140 -0.001690 1.872600 
# 
# From -- ./inp_files/333840.got.cif
#   From: 2010.05.17/outbox.cif.g08.bks.cpg/sg2_167_cif.got.tgz:333840.got - 2010.06.03 11:33:40.
