data_PCOD9070925
_publ_section_title
;
Structure prediction by ZEFSAII (Michael W. Deem and Ramdas Pophale) SiO2 
 PCOD9070925
Probable space group: P -1
;
_chemical_formula_sum "Si O2"
_cell_formula_units_Z 10
_cell_length_a 11.861490
_cell_length_b 8.496386
_cell_length_c 14.086387
_cell_angle_alpha 32.311920
_cell_angle_beta 31.434163
_cell_angle_gamma 41.324666
_cell_volume 393.465756
_symmetry_space_group_name_H-M "P -1"
_symmetry_group_IT_number 2
_symmetry_cell_setting 'triclinic'
loop_
_space_group_symop_operation_xyz
x,y,z
-x,-y,-z
loop_
_atom_site_type_symbol
_atom_site_label
_atom_site_fract_x
_atom_site_fract_y
_atom_site_fract_z
Si Si1 0.205966 0.632601 0.738082
Si Si2 0.587467 0.179472 0.759377
Si Si3 0.192443 0.270201 0.522424
Si Si4 0.424150 0.420039 0.993671
Si Si5 0.919879 0.525595 0.303430
O O1 0.427496 0.465811 0.705156
O O2 0.190714 0.527735 0.692068
O O3 0.199284 0.970307 0.608403
O O4 0.000000 0.500000 0.000000
O O5 0.835705 0.240632 0.562414
O O6 0.500000 0.000000 0.000000
O O7 0.564773 0.933959 0.822754
O O8 0.413450 0.428283 0.269803
O O9 0.147451 0.233122 0.687492
O O10 0.000000 0.500000 0.500000
O O11 0.500000 0.500000 0.000000
O O12 0.172762 0.522285 0.103865
#
# Coordination Sequence:
#
# PCOD9070925 Si02
#       5
#     2   2   2   2   2
#     4  12  30  53  79 122 162 206 276 331 397 486
#     4  12  26  53  80 112 163 214 259 332 404 472
#     4  12  27  52  82 119 162 211 271 331 397 479
#     4  12  25  47  84 115 157 212 270 324 400 475
#     4  12  28  51  86 112 164 214 263 333 408 461
#
# _framework density 25.415172999999999
#
# number of rings (size 3 to 8) (size 9 to 14) (size 15 to 20)
#    0.000    0.000    4.000    4.800    2.800    1.600 
#    3.600    0.000    0.000    0.000    0.000    0.000 
#    0.000    0.000    0.000    0.000    0.000    0.000 
#
# Total GULP energy -55884.067200 kJ/mol
# GULP energy per Si atom -5588.406720 kJ/mol
# Density = 2.535733 g / cm^3
# Si number density = 25.415173 Si / 1000 Ang^3
#
#
#
# Elastic Constant Matrix: (Units=GPa)
#
#
# Indices 1 2 3 4 5 6 
#
# 1 194.2459 81.7746 39.1754 1.0847 -12.1202 22.6999
# 2 81.7746 167.9457 71.2238 -5.3980 -11.3809 7.2943
# 3 39.1754 71.2238 166.3256 33.0055 -30.4464 -12.2157
# 4 1.0847 -5.3980 33.0055 53.5075 8.2565 -5.6656
# 5 -12.1202 -11.3809 -30.4464 8.2565 49.2120 8.0676
# 6 22.6999 7.2943 -12.2157 -5.6656 8.0676 37.8543
#
#
#
# Elastic Compliance Matrix: (Units=1/GPa)
#
#
# Indices 1 2 3 4 5 6 
#
# 1 0.007112 -0.003165 -0.000057 -0.001168 0.001877 -0.004248
# 2 -0.003165 0.009401 -0.004472 0.004045 -0.001998 -0.000326
# 3 -0.000057 -0.004472 0.010900 -0.008028 0.006751 0.001773
# 4 -0.001168 0.004045 -0.008028 0.025820 -0.009167 0.003149
# 5 0.001877 -0.001998 0.006751 -0.009167 0.026967 -0.005681
# 6 -0.004248 -0.000326 0.001773 0.003149 -0.005681 0.031281
#
#
# Mechanical properties :
#
#
# Convention : Reuss Voigt Hill
#
# Bulk Modulus (GPa) = 83.15949 101.42943 92.29446
# Shear Modulus (GPa) = 38.20384 50.53765 44.37075
#
# Velocity S-wave (km/s) = 3.88131 4.46408 4.18285
# Velocity P-wave (km/s) = 7.27169 8.15882 7.72799
#
# Compressibility (1/GPa) = 0.01202509
#
# Stress axis : x y z
#
# Youngs Moduli (GPa) = 140.60964 106.37424 91.74407
#
# Poissons Ratio (x) = 0.33665 0.00518
# Poissons Ratio (y) = 0.44499 0.41033
# Poissons Ratio (z) = 0.00794 0.47576
#
# Static dielectric constant tensor:
#      x y z
#    x 2.045440 0.091800 0.301170 
#    y 0.091800 2.522850 0.856660 
#    z 0.301170 0.856660 2.636670 
# 
# From -- ./inp_files/144025.got.cif
#   From: 2010.05.17/outbox.cif.g08.bks.cpg/sg2_73_cif.got.tgz:144025.got - 2010.06.03 11:33:40.
