data_PCOD9070180
_publ_section_title
;
Structure prediction by ZEFSAII (Michael W. Deem and Ramdas Pophale) SiO2 
 PCOD9070180
Probable space group: P -1
;
_chemical_formula_sum "Si O2"
_cell_formula_units_Z 14
_cell_length_a 12.452180
_cell_length_b 8.808877
_cell_length_c 8.970799
_cell_angle_alpha 68.090097
_cell_angle_beta 126.233045
_cell_angle_gamma 129.959115
_cell_volume 608.353349
_symmetry_space_group_name_H-M "P -1"
_symmetry_group_IT_number 2
_symmetry_cell_setting 'triclinic'
loop_
_space_group_symop_operation_xyz
x,y,z
-x,-y,-z
loop_
_atom_site_type_symbol
_atom_site_label
_atom_site_fract_x
_atom_site_fract_y
_atom_site_fract_z
Si Si1 0.194877 0.799964 0.560486
Si Si2 0.672592 0.190391 0.021762
Si Si3 0.090736 0.159053 0.650088
Si Si4 0.273316 0.553501 0.503821
Si Si5 0.642875 0.827637 0.616388
Si Si6 0.793596 0.578282 0.823559
Si Si7 0.849063 0.081211 0.974487
O O1 0.214481 0.754897 0.761623
O O2 0.215586 0.663607 0.516544
O O3 0.030152 0.784575 0.413702
O O4 0.331120 0.029532 0.550142
O O5 0.745752 0.137238 0.965356
O O6 0.684865 0.386059 0.906722
O O7 0.500000 0.000000 0.000000
O O8 0.240993 0.360731 0.632311
O O9 0.131304 0.063088 0.849766
O O10 0.000000 0.000000 0.500000
O O11 0.460086 0.701825 0.564565
O O12 0.181779 0.482940 0.297061
O O13 0.704848 0.689070 0.683063
O O14 0.754921 0.971209 0.788870
O O15 0.970794 0.730882 0.978836
#
# Coordination Sequence:
#
# PCOD9070180 Si02
#       7
#     2   2   2   2   2   2   2
#     4  12  25  47  71 106 143 186 235 291 353 423
#     4  12  27  45  73 108 147 181 235 299 355 414
#     4  12  24  46  73 107 140 188 237 293 346 423
#     4  12  26  45  75 105 143 188 235 291 359 415
#     4  12  27  47  75 104 144 185 240 292 353 419
#     4  12  26  48  73 106 141 192 236 286 355 425
#     4  12  26  48  72 104 147 184 238 291 353 422
#
# _framework density 23.012941999999999
#
# number of rings (size 3 to 8) (size 9 to 14) (size 15 to 20)
#    0.000    0.000    4.286    4.714    4.000    1.714 
#    0.000    0.000    0.000    0.000    0.000    0.000 
#    0.000    0.000    0.000    0.000    0.000    0.000 
#
# Total GULP energy -78538.741462 kJ/mol
# GULP energy per Si atom -5609.910104 kJ/mol
# Density = 2.296056 g / cm^3
# Si number density = 23.012942 Si / 1000 Ang^3
#
#
#
# Elastic Constant Matrix: (Units=GPa)
#
#
# Indices 1 2 3 4 5 6 
#
# 1 92.0442 25.2307 -7.5503 -3.9993 -3.5405 -13.2638
# 2 25.2307 141.1509 23.8689 -26.2118 -2.3834 14.7449
# 3 -7.5503 23.8689 67.3844 -11.8999 -14.1018 -10.6755
# 4 -3.9993 -26.2118 -11.8999 31.5881 11.7445 8.3992
# 5 -3.5405 -2.3834 -14.1018 11.7445 25.2853 -1.4000
# 6 -13.2638 14.7449 -10.6755 8.3992 -1.4000 48.5893
#
#
#
# Elastic Compliance Matrix: (Units=1/GPa)
#
#
# Indices 1 2 3 4 5 6 
#
# 1 0.013734 -0.004886 0.005024 -0.004990 0.006992 0.007400
# 2 -0.004886 0.012156 -0.005913 0.013093 -0.009408 -0.008856
# 3 0.005024 -0.005913 0.021205 -0.003977 0.014313 0.008924
# 4 -0.004990 0.013093 -0.003977 0.055324 -0.028298 -0.016588
# 5 0.006992 -0.009408 0.014313 -0.028298 0.061574 0.014574
# 6 0.007400 -0.008856 0.008924 -0.016588 0.014574 0.030536
#
#
# Mechanical properties :
#
#
# Convention : Reuss Voigt Hill
#
# Bulk Modulus (GPa) = 28.13391 42.63091 35.38241
# Shear Modulus (GPa) = 22.94348 38.36123 30.65236
#
# Velocity S-wave (km/s) = 3.16093 4.08725 3.65356
# Velocity P-wave (km/s) = 5.05705 6.39055 5.76250
#
# Compressibility (1/GPa) = 0.03554429
#
# Stress axis : x y z
#
# Youngs Moduli (GPa) = 72.81033 82.26682 47.15968
#
# Poissons Ratio (x) = 0.40197 -0.23693
# Poissons Ratio (y) = 0.35577 0.27885
# Poissons Ratio (z) = -0.36580 0.48643
#
# Static dielectric constant tensor:
#      x y z
#    x 1.822070 0.005050 -0.002050 
#    y 0.005050 1.887460 -0.009900 
#    z -0.002050 -0.009900 1.819940 
# 
# From -- ./inp_files/158892.got.cif
#   From: 2010.05.17/outbox.cif.g08.bks.cpg/sg2_80_cif.got.tgz:158892.got - 2010.06.03 11:33:40.
