data_PCOD9070374
_publ_section_title
;
Structure prediction by ZEFSAII (Michael W. Deem and Ramdas Pophale) SiO2 
 PCOD9070374
Probable space group: P -1
;
_chemical_formula_sum "Si O2"
_cell_formula_units_Z 12
_cell_length_a 9.593984
_cell_length_b 5.167388
_cell_length_c 11.857844
_cell_angle_alpha 71.912953
_cell_angle_beta 125.339614
_cell_angle_gamma 111.420265
_cell_volume 442.591470
_symmetry_space_group_name_H-M "P -1"
_symmetry_group_IT_number 2
_symmetry_cell_setting 'triclinic'
loop_
_space_group_symop_operation_xyz
x,y,z
-x,-y,-z
loop_
_atom_site_type_symbol
_atom_site_label
_atom_site_fract_x
_atom_site_fract_y
_atom_site_fract_z
Si Si1 0.481212 0.116202 0.161915
Si Si2 0.195816 0.622021 0.031867
Si Si3 0.277559 0.126122 0.265586
Si Si4 0.700187 0.635556 0.536162
Si Si5 0.699513 0.699232 0.259073
Si Si6 0.020190 0.340663 0.778847
O O1 0.295968 0.948539 0.043061
O O2 0.619168 0.968850 0.188705
O O3 0.432042 0.035588 0.282000
O O4 0.565939 0.445447 0.165454
O O5 0.293840 0.440051 0.183521
O O6 0.170542 0.517328 0.906368
O O7 0.000000 0.500000 0.000000
O O8 0.271396 0.100375 0.400793
O O9 0.087039 0.937838 0.170337
O O10 0.500000 0.500000 0.500000
O O11 0.711055 0.646012 0.405453
O O12 0.863288 0.499495 0.664502
O O13 0.884776 0.727112 0.280336
#
# Coordination Sequence:
#
# PCOD9070374 Si02
#       6
#     2   2   2   2   2   2
#     4  12  26  52  77 111 153 205 250 312 374 459
#     4  12  24  47  78 115 150 197 265 308 373 454
#     4  12  24  47  80 111 145 207 257 308 375 448
#     4  12  25  49  79 111 150 205 256 314 371 461
#     4  12  30  50  76 115 161 195 253 311 393 447
#     4  12  29  46  77 117 154 200 249 325 380 446
#
# _framework density 27.113039000000001
#
# number of rings (size 3 to 8) (size 9 to 14) (size 15 to 20)
#    0.000    0.000    6.667    2.000    4.667    3.333 
#    0.000    0.000    0.000    0.000    0.000    0.000 
#    0.000    0.000    0.000    0.000    0.000    0.000 
#
# Total GULP energy -67069.184250 kJ/mol
# GULP energy per Si atom -5589.098687 kJ/mol
# Density = 2.705133 g / cm^3
# Si number density = 27.113039 Si / 1000 Ang^3
#
#
#
# Elastic Constant Matrix: (Units=GPa)
#
#
# Indices 1 2 3 4 5 6 
#
# 1 245.1194 20.9668 41.3878 4.3921 -40.8211 -7.4729
# 2 20.9668 129.0034 23.7467 26.5364 -7.6806 -6.5404
# 3 41.3878 23.7467 131.0323 16.3103 -18.5476 -7.8080
# 4 4.3921 26.5364 16.3103 36.3701 -5.3798 -2.7392
# 5 -40.8211 -7.6806 -18.5476 -5.3798 47.9433 6.6980
# 6 -7.4729 -6.5404 -7.8080 -2.7392 6.6980 42.3750
#
#
#
# Elastic Compliance Matrix: (Units=1/GPa)
#
#
# Indices 1 2 3 4 5 6 
#
# 1 0.004917 -0.000555 -0.001016 0.000831 0.003791 0.000049
# 2 -0.000555 0.009315 -0.000681 -0.006374 -0.000073 0.000814
# 3 -0.001016 -0.000681 0.008773 -0.002960 0.001971 0.000829
# 4 0.000831 -0.006374 -0.002960 0.033741 0.002266 0.000440
# 5 0.003791 -0.000073 0.001971 0.002266 0.025491 -0.002862
# 6 0.000049 0.000814 0.000829 0.000440 -0.002862 0.024367
#
#
# Mechanical properties :
#
#
# Convention : Reuss Voigt Hill
#
# Bulk Modulus (GPa) = 54.05444 75.26198 64.65821
# Shear Modulus (GPa) = 42.63476 53.27461 47.95468
#
# Velocity S-wave (km/s) = 3.96976 4.43754 4.21015
# Velocity P-wave (km/s) = 6.40249 7.35354 6.89443
#
# Compressibility (1/GPa) = 0.01849987
#
# Stress axis : x y z
#
# Youngs Moduli (GPa) = 203.39361 107.34990 113.98348
#
# Poissons Ratio (x) = 0.05956 0.11585
# Poissons Ratio (y) = 0.11285 0.07767
# Poissons Ratio (z) = 0.20673 0.07315
#
# Static dielectric constant tensor:
#      x y z
#    x 2.111050 -0.075900 0.001180 
#    y -0.075900 2.234040 0.029390 
#    z 0.001180 0.029390 2.253580 
# 
# From -- ./inp_files/131032.got.cif
#   From: 2010.05.17/outbox.cif.g08.bks.cpg/sg2_66_cif.got.tgz:131032.got - 2010.06.03 11:33:40.
