data_PCOD9070917
_publ_section_title
;
Structure prediction by ZEFSAII (Michael W. Deem and Ramdas Pophale) SiO2 
 PCOD9070917
Probable space group: P -1
;
_chemical_formula_sum "Si O2"
_cell_formula_units_Z 15
_cell_length_a 11.861541
_cell_length_b 8.065456
_cell_length_c 10.559691
_cell_angle_alpha 58.982194
_cell_angle_beta 133.183652
_cell_angle_gamma 113.962790
_cell_volume 628.974992
_symmetry_space_group_name_H-M "P -1"
_symmetry_group_IT_number 2
_symmetry_cell_setting 'triclinic'
loop_
_space_group_symop_operation_xyz
x,y,z
-x,-y,-z
loop_
_atom_site_type_symbol
_atom_site_label
_atom_site_fract_x
_atom_site_fract_y
_atom_site_fract_z
Si Si1 0.189395 0.736962 0.699458
Si Si2 0.341294 0.897899 0.368835
Si Si3 0.639377 0.536495 0.494868
Si Si4 0.981110 0.654326 0.812537
Si Si5 0.648518 0.893508 0.193252
Si Si6 0.268275 0.165165 0.002889
Si Si7 0.041382 0.915956 0.282313
Si Si8 0.500000 0.500000 0.000000
O O1 0.078552 0.769647 0.481651
O O2 0.344171 0.631834 0.826997
O O3 0.093211 0.639362 0.782439
O O4 0.245038 0.957728 0.699225
O O5 0.334925 0.668870 0.465058
O O6 0.202096 0.969108 0.314336
O O7 0.500000 0.000000 0.500000
O O8 0.316668 0.967927 0.179109
O O9 0.500000 0.500000 0.500000
O O10 0.802069 0.619927 0.646375
O O11 0.595530 0.693771 0.298598
O O12 0.012025 0.877488 0.794169
O O13 0.000000 0.500000 0.000000
O O14 0.723410 0.836060 0.142375
O O15 0.500000 0.000000 0.000000
O O16 0.396221 0.335843 0.069893
O O17 0.086057 0.179393 0.876677
#
# Coordination Sequence:
#
# PCOD9070917 Si02
#       8
#     2   2   2   2   2   2   2   1
#     4  12  27  52  76 117 153 200 258 323 386 460
#     4  12  29  49  74 109 162 199 256 321 383 461
#     4  12  28  48  75 114 150 206 258 309 389 459
#     4  12  27  48  80 114 151 202 256 316 380 464
#     4  12  25  47  81 106 152 199 258 312 377 457
#     4  12  27  48  73 111 149 203 253 317 385 458
#     4  12  26  50  79 108 156 201 250 327 391 448
#     4  12  30  44  80 108 154 202 260 310 388 458
#
# _framework density 23.848324000000002
#
# number of rings (size 3 to 8) (size 9 to 14) (size 15 to 20)
#    0.000    0.000    4.000    4.800    9.333    0.533 
#    0.000    0.000    0.000    0.000    0.000    0.000 
#    0.000    0.000    0.000    0.000    0.000    0.000 
#
# Total GULP energy -83763.888529 kJ/mol
# GULP energy per Si atom -5584.259235 kJ/mol
# Density = 2.379404 g / cm^3
# Si number density = 23.848324 Si / 1000 Ang^3
#
#
#
# Elastic Constant Matrix: (Units=GPa)
#
#
# Indices 1 2 3 4 5 6 
#
# 1 109.2315 20.6847 50.8589 -3.6019 5.1586 32.5452
# 2 20.6847 78.3801 48.0462 -21.3128 -15.9796 25.5221
# 3 50.8589 48.0462 158.1317 -25.8124 -9.3013 23.0627
# 4 -3.6019 -21.3128 -25.8124 50.6557 14.7779 5.7957
# 5 5.1586 -15.9796 -9.3013 14.7779 32.4820 -0.1188
# 6 32.5452 25.5221 23.0627 5.7957 -0.1188 41.9003
#
#
#
# Elastic Compliance Matrix: (Units=1/GPa)
#
#
# Indices 1 2 3 4 5 6 
#
# 1 0.013571 0.001548 -0.003231 0.002077 -0.003300 -0.010002
# 2 0.001548 0.022425 -0.003718 0.007391 0.006308 -0.013820
# 3 -0.003231 -0.003718 0.009053 0.002902 -0.000046 -0.000610
# 4 0.002077 0.007391 0.002902 0.028385 -0.008819 -0.011664
# 5 -0.003300 0.006308 -0.000046 -0.008819 0.038413 0.000075
# 6 -0.010002 -0.013820 -0.000610 -0.011664 0.000075 0.042002
#
#
# Mechanical properties :
#
#
# Convention : Reuss Voigt Hill
#
# Bulk Modulus (GPa) = 29.20137 64.99142 47.09640
# Shear Modulus (GPa) = 28.39846 40.08451 34.24149
#
# Velocity S-wave (km/s) = 3.45453 4.10422 3.79331
# Velocity P-wave (km/s) = 5.30876 7.05483 6.24314
#
# Compressibility (1/GPa) = 0.03424497
#
# Stress axis : x y z
#
# Youngs Moduli (GPa) = 73.68885 44.59325 110.46310
#
# Poissons Ratio (x) = -0.06904 0.35695
# Poissons Ratio (y) = -0.11408 0.41074
# Poissons Ratio (z) = 0.23812 0.16581
#
# Static dielectric constant tensor:
#      x y z
#    x 1.756170 -0.028240 -0.303560 
#    y -0.028240 1.925990 0.080720 
#    z -0.303560 0.080720 1.752930 
# 
# From -- ./inp_files/298752.got.cif
#   From: 2010.05.17/outbox.cif.g08.bks.cpg/sg2_150_cif.got.tgz:298752.got - 2010.06.03 11:33:40.
