data_PCOD9070760
_publ_section_title
;
Structure prediction by ZEFSAII (Michael W. Deem and Ramdas Pophale) SiO2 
 PCOD9070760
Probable space group: P -1
;
_chemical_formula_sum "Si O2"
_cell_formula_units_Z 14
_cell_length_a 12.706384
_cell_length_b 8.923509
_cell_length_c 8.988897
_cell_angle_alpha 76.351079
_cell_angle_beta 112.348353
_cell_angle_gamma 57.102390
_cell_volume 650.437164
_symmetry_space_group_name_H-M "P -1"
_symmetry_group_IT_number 2
_symmetry_cell_setting 'triclinic'
loop_
_space_group_symop_operation_xyz
x,y,z
-x,-y,-z
loop_
_atom_site_type_symbol
_atom_site_label
_atom_site_fract_x
_atom_site_fract_y
_atom_site_fract_z
Si Si1 0.451824 0.891255 0.417456
Si Si2 0.207022 0.592267 0.269474
Si Si3 0.202980 0.882901 0.399663
Si Si4 0.114480 0.628682 0.866645
Si Si5 0.385361 0.509737 0.832617
Si Si6 0.396633 0.970234 0.035892
Si Si7 0.043468 0.388514 0.709370
O O1 0.610845 0.635065 0.553320
O O2 0.315621 0.920739 0.415538
O O3 0.389681 0.006072 0.198200
O O4 0.500000 0.000000 0.500000
O O5 0.190793 0.784087 0.271055
O O6 0.090111 0.602027 0.307553
O O7 0.161596 0.601504 0.071641
O O8 0.285298 0.705136 0.615489
O O9 0.030855 0.113507 0.297411
O O10 0.263223 0.532703 0.865458
O O11 0.061047 0.510062 0.810748
O O12 0.505875 0.279489 0.870085
O O13 0.500000 0.500000 0.000000
O O14 0.500000 0.000000 0.000000
O O15 0.215325 0.141977 0.841704
O O16 0.000000 0.500000 0.500000
#
# Coordination Sequence:
#
# PCOD9070760 Si02
#       7
#     2   2   2   2   2   2   2
#     4  12  26  47  77 103 141 187 237 294 351 424
#     4  12  25  46  72 105 143 182 239 295 351 416
#     4  12  27  48  72 107 143 184 237 294 358 415
#     4  12  26  47  70 106 145 187 236 286 356 423
#     4  12  28  45  73 105 145 189 232 294 351 422
#     4  12  26  48  72 105 142 185 241 286 353 418
#     4  12  26  46  74 103 144 187 238 290 351 423
#
# _framework density 21.523987000000002
#
# number of rings (size 3 to 8) (size 9 to 14) (size 15 to 20)
#    0.000    0.000    2.857    6.857    8.000    0.000 
#    0.000    0.000    0.000    0.000    0.000    0.000 
#    0.000    0.000    0.000    0.000    0.000    0.000 
#
# Total GULP energy -78447.348006 kJ/mol
# GULP energy per Si atom -5603.382000 kJ/mol
# Density = 2.147500 g / cm^3
# Si number density = 21.523987 Si / 1000 Ang^3
#
#
#
# Elastic Constant Matrix: (Units=GPa)
#
#
# Indices 1 2 3 4 5 6 
#
# 1 72.0016 7.9393 12.2632 19.7094 1.0897 1.0216
# 2 7.9393 96.5616 19.1695 -3.7831 12.9552 5.7456
# 3 12.2632 19.1695 139.4257 -2.4248 -6.2432 -15.3894
# 4 19.7094 -3.7831 -2.4248 44.1421 -7.5262 11.6393
# 5 1.0897 12.9552 -6.2432 -7.5262 38.6360 -0.1185
# 6 1.0216 5.7456 -15.3894 11.6393 -0.1185 40.7899
#
#
#
# Elastic Compliance Matrix: (Units=1/GPa)
#
#
# Indices 1 2 3 4 5 6 
#
# 1 0.016535 -0.001268 -0.001329 -0.008313 -0.001870 0.001630
# 2 -0.001268 0.011589 -0.001935 0.001525 -0.003875 -0.002777
# 3 -0.001329 -0.001935 0.008010 0.000367 0.002062 0.003229
# 4 -0.008313 0.001525 0.000367 0.029652 0.005533 -0.008313
# 5 -0.001870 -0.003875 0.002062 0.005533 0.028645 -0.000125
# 6 0.001630 -0.002777 0.003229 -0.008313 -0.000125 0.028456
#
#
# Mechanical properties :
#
#
# Convention : Reuss Voigt Hill
#
# Bulk Modulus (GPa) = 36.93830 42.97033 39.95431
# Shear Modulus (GPa) = 35.46694 42.62137 39.04415
#
# Velocity S-wave (km/s) = 4.06370 4.45475 4.26371
# Velocity P-wave (km/s) = 6.26234 6.81667 6.54538
#
# Compressibility (1/GPa) = 0.02707217
#
# Stress axis : x y z
#
# Youngs Moduli (GPa) = 60.47606 86.28612 124.83771
#
# Poissons Ratio (x) = 0.10937 0.16585
# Poissons Ratio (y) = 0.07666 0.24162
# Poissons Ratio (z) = 0.08034 0.16700
#
# Static dielectric constant tensor:
#      x y z
#    x 1.798400 0.079320 0.012750 
#    y 0.079320 1.845470 0.000890 
#    z 0.012750 0.000890 1.761620 
# 
# From -- ./inp_files/158542.got.cif
#   From: 2010.05.17/outbox.cif.g08.bks.cpg/sg2_80_cif.got.tgz:158542.got - 2010.06.03 11:33:40.
