data_PCOD9070262
_publ_section_title
;
Structure prediction by ZEFSAII (Michael W. Deem and Ramdas Pophale) SiO2 
 PCOD9070262
Probable space group: P -1
;
_chemical_formula_sum "Si O2"
_cell_formula_units_Z 15
_cell_length_a 17.202086
_cell_length_b 20.582289
_cell_length_c 11.524288
_cell_angle_alpha 151.675872
_cell_angle_beta 36.506791
_cell_angle_gamma 160.387698
_cell_volume 641.466314
_symmetry_space_group_name_H-M "P -1"
_symmetry_group_IT_number 2
_symmetry_cell_setting 'triclinic'
loop_
_space_group_symop_operation_xyz
x,y,z
-x,-y,-z
loop_
_atom_site_type_symbol
_atom_site_label
_atom_site_fract_x
_atom_site_fract_y
_atom_site_fract_z
Si Si1 0.839333 0.991505 0.665964
Si Si2 0.702439 0.474285 0.439436
Si Si3 0.185544 0.415487 0.083121
Si Si4 0.324023 0.738164 0.245855
Si Si5 0.500000 0.500000 0.000000
Si Si6 0.139364 0.936866 0.516318
Si Si7 0.173567 0.572194 0.573204
Si Si8 0.382331 0.863734 0.120634
O O1 0.881086 0.086591 0.635983
O O2 0.564030 0.721089 0.575899
O O3 0.000000 0.000000 0.500000
O O4 0.936031 0.164499 0.928804
O O5 0.747443 0.496781 0.558317
O O6 0.889020 0.731529 0.556637
O O7 0.725200 0.335800 0.154433
O O8 0.334947 0.608507 0.101609
O O9 0.320338 0.408613 0.971500
O O10 0.149249 0.498879 0.355786
O O11 0.389551 0.784969 0.106768
O O12 0.064422 0.573797 0.319843
O O13 0.500000 0.000000 0.500000
O O14 0.675522 0.788644 0.233892
O O15 0.232339 0.868195 0.332537
O O16 0.377660 0.863216 0.786468
#
# Coordination Sequence:
#
# PCOD9070262 Si02
#       8
#     2   2   2   2   1   2   2   2
#     4  12  27  50  75 105 152 201 253 312 372 444
#     4  12  27  45  79 116 147 200 253 311 384 458
#     4  12  26  47  74 104 150 199 250 305 376 441
#     4  12  25  43  71 114 147 186 247 312 370 444
#     4  12  24  52  76  98 152 208 242 310 362 444
#     4  12  25  50  78 112 150 198 258 306 378 455
#     4  12  25  45  74 110 152 197 245 305 391 449
#     4  12  24  46  78 111 155 191 245 317 386 447
#
# _framework density 23.383925000000001
#
# number of rings (size 3 to 8) (size 9 to 14) (size 15 to 20)
#    0.000    0.000    6.667    2.800    3.733    0.533 
#    0.000    2.667    0.000    0.000    0.000    0.000 
#    0.000    0.000    0.000    0.000    0.000    0.000 
#
# Total GULP energy -83766.650157 kJ/mol
# GULP energy per Si atom -5584.443344 kJ/mol
# Density = 2.333070 g / cm^3
# Si number density = 23.383925 Si / 1000 Ang^3
#
#
#
# Elastic Constant Matrix: (Units=GPa)
#
#
# Indices 1 2 3 4 5 6 
#
# 1 96.8983 46.4875 12.6920 -17.8298 17.5774 8.2132
# 2 46.4875 158.0501 25.7112 36.0935 6.7606 -1.5882
# 3 12.6920 25.7112 73.4052 26.0117 16.2107 -0.7708
# 4 -17.8298 36.0935 26.0117 5.1757 13.4619 12.7834
# 5 17.5774 6.7606 16.2107 13.4619 44.4624 -8.8179
# 6 8.2132 -1.5882 -0.7708 12.7834 -8.8179 37.5924
#
#
#
# Elastic Compliance Matrix: (Units=1/GPa)
#
#
# Indices 1 2 3 4 5 6 
#
# 1 0.006287 0.000838 0.003452 -0.014284 0.001222 0.003876
# 2 0.000838 0.004801 -0.004457 0.009166 -0.002983 -0.003888
# 3 0.003452 -0.004457 0.014214 0.006372 -0.008765 -0.004874
# 4 -0.014284 0.009166 0.006372 -0.028124 0.013701 0.016416
# 5 0.001222 -0.002983 -0.008765 0.013701 0.021470 -0.000196
# 6 0.003876 -0.003888 -0.004874 0.016416 -0.000196 0.019862
#
#
# Mechanical properties :
#
#
# Convention : Reuss Voigt Hill
#
# Bulk Modulus (GPa) = 40.05115 55.34834 47.69975
# Shear Modulus (GPa) = 106.00741 33.67697 69.84219
#
# Velocity S-wave (km/s) = 6.74032 3.79908 5.47106
# Velocity P-wave (km/s) = 8.81707 6.55476 7.76870
#
# Compressibility (1/GPa) = 0.02496807
#
# Stress axis : x y z
#
# Youngs Moduli (GPa) = 159.04725 208.29343 70.35433
#
# Poissons Ratio (x) = -0.17451 -0.24286
# Poissons Ratio (y) = -0.13325 0.31355
# Poissons Ratio (z) = -0.54902 0.92831
#
# Static dielectric constant tensor:
#      x y z
#    x 1.993050 -0.034200 0.063250 
#    y -0.034200 1.896280 -0.061480 
#    z 0.063250 -0.061480 1.929360 
# 
# From -- ./inp_files/467180.got.cif
#   From: 2010.05.17/outbox.cif.g08.bks.cpg/sg2_234_cif.got.tgz:467180.got - 2010.06.03 11:33:40.
