data_PCOD9070051
_publ_section_title
;
Structure prediction by ZEFSAII (Michael W. Deem and Ramdas Pophale) SiO2 
 PCOD9070051
Probable space group: P -1
;
_chemical_formula_sum "Si O2"
_cell_formula_units_Z 13
_cell_length_a 8.560689
_cell_length_b 16.036450
_cell_length_c 9.529204
_cell_angle_alpha 26.207977
_cell_angle_beta 99.858625
_cell_angle_gamma 94.084136
_cell_volume 558.910360
_symmetry_space_group_name_H-M "P -1"
_symmetry_group_IT_number 2
_symmetry_cell_setting 'triclinic'
loop_
_space_group_symop_operation_xyz
x,y,z
-x,-y,-z
loop_
_atom_site_type_symbol
_atom_site_label
_atom_site_fract_x
_atom_site_fract_y
_atom_site_fract_z
Si Si1 0.386378 0.066552 0.175983
Si Si2 0.467222 0.444669 0.736232
Si Si3 0.758012 0.276686 0.211035
Si Si4 0.000000 0.000000 0.500000
Si Si5 0.894401 0.830020 0.251028
Si Si6 0.197307 0.536859 0.763947
Si Si7 0.747108 0.878945 0.463023
O O1 0.318848 0.911779 0.491969
O O2 0.557854 0.969864 0.284000
O O3 0.413417 0.240631 0.014640
O O4 0.249789 0.135564 0.934693
O O5 0.500000 0.500000 0.500000
O O6 0.324707 0.572192 0.611567
O O7 0.630628 0.425493 0.879156
O O8 0.780858 0.356675 0.247680
O O9 0.924254 0.196280 0.280760
O O10 0.838112 0.027465 0.333238
O O11 0.822048 0.832164 0.392054
O O12 0.018007 0.629773 0.546189
O O13 0.000000 0.000000 0.000000
O O14 0.234303 0.313777 0.149047
#
# Coordination Sequence:
#
# PCOD9070051 Si02
#       7
#     2   2   2   1   2   2   2
#     4  12  26  49  76 105 155 202 251 307 382 451
#     4  12  29  45  76 115 151 195 257 317 375 445
#     4  12  25  50  77 109 151 200 253 309 385 451
#     4  12  24  44  80 104 144 196 256 306 362 452
#     4  12  27  46  75 116 152 193 253 318 376 442
#     4  12  27  48  79 109 154 200 251 313 376 454
#     4  12  26  48  79 110 151 205 254 305 383 451
#
# _framework density 23.259544000000002
#
# number of rings (size 3 to 8) (size 9 to 14) (size 15 to 20)
#    0.000    0.000    6.154    2.769    4.308    1.846 
#    0.000    0.000    0.000    0.000    0.000    0.000 
#    0.000    0.000    0.000    0.000    0.000    0.000 
#
# Total GULP energy -72597.197342 kJ/mol
# GULP energy per Si atom -5584.399796 kJ/mol
# Density = 2.320660 g / cm^3
# Si number density = 23.259544 Si / 1000 Ang^3
#
#
#
# Elastic Constant Matrix: (Units=GPa)
#
#
# Indices 1 2 3 4 5 6 
#
# 1 124.6809 49.9470 54.6991 15.9339 53.7498 -12.9616
# 2 49.9470 106.1633 37.2792 13.5581 22.5316 -24.0767
# 3 54.6991 37.2792 86.6602 23.3634 29.6575 -11.2689
# 4 15.9339 13.5581 23.3634 44.8021 10.0689 4.7210
# 5 53.7498 22.5316 29.6575 10.0689 52.9931 -3.8768
# 6 -12.9616 -24.0767 -11.2689 4.7210 -3.8768 53.0386
#
#
#
# Elastic Compliance Matrix: (Units=1/GPa)
#
#
# Indices 1 2 3 4 5 6 
#
# 1 0.017372 -0.003526 -0.004884 0.000389 -0.013418 0.000592
# 2 -0.003526 0.013249 -0.002271 -0.002074 -0.000037 0.004852
# 3 -0.004884 -0.002271 0.018818 -0.006910 -0.003141 0.002159
# 4 0.000389 -0.002074 -0.006910 0.027182 -0.001163 -0.004819
# 5 -0.013418 -0.000037 -0.003141 -0.001163 0.034376 -0.001347
# 6 0.000592 0.004852 0.002159 -0.004819 -0.001347 0.021991
#
#
# Mechanical properties :
#
#
# Convention : Reuss Voigt Hill
#
# Bulk Modulus (GPa) = 35.61683 66.81721 51.21702
# Shear Modulus (GPa) = 30.54206 41.87204 36.20705
#
# Velocity S-wave (km/s) = 3.62760 4.24749 3.94973
# Velocity P-wave (km/s) = 5.73516 7.26939 6.54737
#
# Compressibility (1/GPa) = 0.02807661
#
# Stress axis : x y z
#
# Youngs Moduli (GPa) = 57.56396 75.47842 53.14094
#
# Poissons Ratio (x) = 0.26611 0.25955
# Poissons Ratio (y) = 0.20295 0.12070
# Poissons Ratio (z) = 0.28115 0.17143
#
# Static dielectric constant tensor:
#      x y z
#    x 1.969940 0.035260 -0.018110 
#    y 0.035260 1.904050 -0.005140 
#    z -0.018110 -0.005140 1.916910 
# 
# From -- ./inp_files/144546.got.cif
#   From: 2010.05.17/outbox.cif.g08.bks.cpg/sg2_73_cif.got.tgz:144546.got - 2010.06.03 11:33:40.
