data_PCOD9070024
_publ_section_title
;
Structure prediction by ZEFSAII (Michael W. Deem and Ramdas Pophale) SiO2 
 PCOD9070024
Probable space group: P -1
;
_chemical_formula_sum "Si O2"
_cell_formula_units_Z 12
_cell_length_a 9.997354
_cell_length_b 16.228817
_cell_length_c 9.245250
_cell_angle_alpha 118.653155
_cell_angle_beta 121.943940
_cell_angle_gamma 28.477369
_cell_volume 606.522067
_symmetry_space_group_name_H-M "P -1"
_symmetry_group_IT_number 2
_symmetry_cell_setting 'triclinic'
loop_
_space_group_symop_operation_xyz
x,y,z
-x,-y,-z
loop_
_atom_site_type_symbol
_atom_site_label
_atom_site_fract_x
_atom_site_fract_y
_atom_site_fract_z
Si Si1 0.789940 0.353997 0.640980
Si Si2 0.204523 0.965359 0.992713
Si Si3 0.834701 0.143327 0.650071
Si Si4 0.730368 0.595904 0.841963
Si Si5 0.719879 0.679431 0.575486
Si Si6 0.514526 0.996278 0.332155
O O1 0.500000 0.500000 0.500000
O O2 0.737901 0.289166 0.650934
O O3 0.760343 0.471536 0.784694
O O4 0.135124 0.174189 0.642208
O O5 0.353336 0.983575 0.164856
O O6 0.020577 0.079127 0.839981
O O7 0.453545 0.775213 0.912617
O O8 0.000000 0.000000 0.000000
O O9 0.554301 0.221797 0.589227
O O10 0.000000 0.000000 0.500000
O O11 0.722808 0.631772 0.698589
O O12 0.000000 0.500000 0.000000
O O13 0.000000 0.500000 0.500000
O O14 0.656012 0.823855 0.667876
O O15 0.500000 0.000000 0.500000
#
# Coordination Sequence:
#
# PCOD9070024 Si02
#       6
#     2   2   2   2   2   2
#     4  12  24  44  75 103 140 187 238 282 363 419
#     4  12  28  47  72 105 145 189 239 292 357 425
#     4  12  24  47  72 102 141 190 234 293 351 422
#     4  12  26  45  70 107 144 187 235 293 351 425
#     4  12  27  47  73 103 146 187 239 293 357 421
#     4  12  27  46  72 104 145 190 238 296 356 419
#
# _framework density 19.784935999999998
#
# number of rings (size 3 to 8) (size 9 to 14) (size 15 to 20)
#    0.000    0.000    6.667    2.000    7.000    1.333 
#    0.000    1.667    0.000    0.000    0.000    0.000 
#    0.000    0.000    0.000    0.000    0.000    0.000 
#
# Total GULP energy -66876.266921 kJ/mol
# GULP energy per Si atom -5573.022243 kJ/mol
# Density = 1.973990 g / cm^3
# Si number density = 19.784936 Si / 1000 Ang^3
#
#
#
# Elastic Constant Matrix: (Units=GPa)
#
#
# Indices 1 2 3 4 5 6 
#
# 1 87.5627 54.4112 37.7044 21.5963 17.3371 8.2875
# 2 54.4112 157.2920 47.0060 12.8835 2.9730 0.3541
# 3 37.7044 47.0060 113.4802 2.8647 18.7730 0.9439
# 4 21.5963 12.8835 2.8647 44.0084 3.0030 6.0581
# 5 17.3371 2.9730 18.7730 3.0030 43.4734 0.6823
# 6 8.2875 0.3541 0.9439 6.0581 0.6823 59.9376
#
#
#
# Elastic Compliance Matrix: (Units=1/GPa)
#
#
# Indices 1 2 3 4 5 6 
#
# 1 0.018721 -0.004863 -0.003144 -0.006959 -0.005267 -0.001747
# 2 -0.004863 0.008730 -0.002394 -0.000267 0.002384 0.000658
# 3 -0.003144 -0.002394 0.011404 0.001730 -0.003629 0.000136
# 4 -0.006959 -0.000267 0.001730 0.026324 0.000255 -0.001727
# 5 -0.005267 0.002384 -0.003629 0.000255 0.026482 0.000444
# 6 -0.001747 0.000658 0.000136 -0.001727 0.000444 0.017089
#
#
# Mechanical properties :
#
#
# Convention : Reuss Voigt Hill
#
# Bulk Modulus (GPa) = 55.39163 70.73091 63.06127
# Shear Modulus (GPa) = 36.88156 44.09810 40.48983
#
# Velocity S-wave (km/s) = 4.32223 4.72622 4.52873
# Velocity P-wave (km/s) = 7.27781 8.10002 7.69990
#
# Compressibility (1/GPa) = 0.01805327
#
# Stress axis : x y z
#
# Youngs Moduli (GPa) = 53.41735 114.54134 87.69027
#
# Poissons Ratio (x) = 0.55700 0.27571
# Poissons Ratio (y) = 0.25976 0.20991
# Poissons Ratio (z) = 0.16795 0.27419
#
# Static dielectric constant tensor:
#      x y z
#    x 1.648220 -0.221680 0.063360 
#    y -0.221680 1.641210 0.080220 
#    z 0.063360 0.080220 1.597030 
# 
# From -- ./inp_files/149048.got.cif
#   From: 2010.05.17/outbox.cif.g08.bks.cpg/sg2_75_cif.got.tgz:149048.got - 2010.06.03 11:33:40.
