data_PCOD9070791
_publ_section_title
;
Structure prediction by ZEFSAII (Michael W. Deem and Ramdas Pophale) SiO2 
 PCOD9070791
Probable space group: P -1
;
_chemical_formula_sum "Si O2"
_cell_formula_units_Z 16
_cell_length_a 11.536936
_cell_length_b 17.394026
_cell_length_c 14.143262
_cell_angle_alpha 32.553117
_cell_angle_beta 53.282932
_cell_angle_gamma 30.793935
_cell_volume 694.977980
_symmetry_space_group_name_H-M "P -1"
_symmetry_group_IT_number 2
_symmetry_cell_setting 'triclinic'
loop_
_space_group_symop_operation_xyz
x,y,z
-x,-y,-z
loop_
_atom_site_type_symbol
_atom_site_label
_atom_site_fract_x
_atom_site_fract_y
_atom_site_fract_z
Si Si1 0.972415 0.894239 0.549084
Si Si2 0.994271 0.103701 0.684633
Si Si3 0.467912 0.916232 0.338786
Si Si4 0.781035 0.008148 0.980931
Si Si5 0.354500 0.348905 0.672099
Si Si6 0.654481 0.672570 0.008658
Si Si7 0.458176 0.196593 0.282479
Si Si8 0.099364 0.486413 0.317786
O O1 0.022838 0.915924 0.398328
O O2 0.156166 0.606833 0.765134
O O3 0.000000 0.000000 0.500000
O O4 0.701476 0.043516 0.551296
O O5 0.956482 0.996021 0.877754
O O6 0.769829 0.394321 0.522798
O O7 0.269033 0.954078 0.710310
O O8 0.531666 0.781454 0.351074
O O9 0.721490 0.740227 0.459449
O O10 0.332020 0.177652 0.110745
O O11 0.568800 0.158928 0.844978
O O12 0.621647 0.158143 0.998347
O O13 0.950400 0.730320 0.191759
O O14 0.111585 0.441099 0.704037
O O15 0.679698 0.680295 0.877664
O O16 0.278238 0.408531 0.230697
O O17 0.500000 0.000000 0.500000
#
# Coordination Sequence:
#
# PCOD9070791 Si02
#       8
#     2   2   2   2   2   2   2   2
#     4  12  28  48  73 107 149 191 241 300 365 430
#     4  12  26  50  72 103 151 195 241 299 362 430
#     4  12  26  47  75 108 143 192 243 304 357 427
#     4  12  29  45  70 110 149 192 241 298 361 433
#     4  12  25  46  76 104 147 192 242 300 362 424
#     4  12  27  47  74 108 145 189 248 294 363 430
#     4  12  25  48  76 107 142 194 241 305 357 426
#     4  12  26  47  73 106 147 189 247 297 359 430
#
# _framework density 23.022310999999998
#
# number of rings (size 3 to 8) (size 9 to 14) (size 15 to 20)
#    0.000    0.000    6.250    2.250    7.000    2.000 
#    0.000    0.000    0.000    0.000    0.000    0.000 
#    0.000    0.000    0.000    0.000    0.000    0.000 
#
# Total GULP energy -89576.101315 kJ/mol
# GULP energy per Si atom -5598.506332 kJ/mol
# Density = 2.296991 g / cm^3
# Si number density = 23.022311 Si / 1000 Ang^3
#
#
#
# Elastic Constant Matrix: (Units=GPa)
#
#
# Indices 1 2 3 4 5 6 
#
# 1 63.5453 25.5021 9.1073 -2.4917 -13.6838 -5.6295
# 2 25.5021 134.1022 16.5217 5.8684 -0.3996 2.8159
# 3 9.1073 16.5217 35.2798 2.4605 -10.3417 -17.8716
# 4 -2.4917 5.8684 2.4605 46.6998 -1.1850 -5.7529
# 5 -13.6838 -0.3996 -10.3417 -1.1850 27.1086 6.5127
# 6 -5.6295 2.8159 -17.8716 -5.7529 6.5127 47.0880
#
#
#
# Elastic Compliance Matrix: (Units=1/GPa)
#
#
# Indices 1 2 3 4 5 6 
#
# 1 0.019522 -0.003829 0.000218 0.001946 0.009592 0.001557
# 2 -0.003829 0.008976 -0.005498 -0.001472 -0.003288 -0.002806
# 3 0.000218 -0.005498 0.041886 0.000611 0.012529 0.014594
# 4 0.001946 -0.001472 0.000611 0.022082 0.001426 0.003053
# 5 0.009592 -0.003288 0.012529 0.001426 0.046564 -0.000167
# 6 0.001557 -0.002806 0.014594 0.003053 -0.000167 0.027526
#
#
# Mechanical properties :
#
#
# Convention : Reuss Voigt Hill
#
# Bulk Modulus (GPa) = 19.16910 37.24329 28.20620
# Shear Modulus (GPa) = 24.73263 36.29902 30.51582
#
# Velocity S-wave (km/s) = 3.28119 3.97506 3.64468
# Velocity P-wave (km/s) = 4.76438 6.10576 5.47630
#
# Compressibility (1/GPa) = 0.05216729
#
# Stress axis : x y z
#
# Youngs Moduli (GPa) = 51.22465 111.40874 23.87431
#
# Poissons Ratio (x) = 0.42654 -0.00521
# Poissons Ratio (y) = 0.19612 0.13126
# Poissons Ratio (z) = -0.01118 0.61251
#
# Static dielectric constant tensor:
#      x y z
#    x 1.908540 -0.010780 0.023760 
#    y -0.010780 1.867790 -0.024080 
#    z 0.023760 -0.024080 1.826290 
# 
# From -- ./inp_files/209480.got.cif
#   From: 2010.05.17/outbox.cif.g08.bks.cpg/sg2_105_cif.got.tgz:209480.got - 2010.06.03 11:33:40.
