data_PCOD9070588
_publ_section_title
;
Structure prediction by ZEFSAII (Michael W. Deem and Ramdas Pophale) SiO2 
 PCOD9070588
Probable space group: P -1
;
_chemical_formula_sum "Si O2"
_cell_formula_units_Z 14
_cell_length_a 11.771422
_cell_length_b 8.567198
_cell_length_c 9.539626
_cell_angle_alpha 68.826450
_cell_angle_beta 119.614997
_cell_angle_gamma 68.360298
_cell_volume 575.385914
_symmetry_space_group_name_H-M "P -1"
_symmetry_group_IT_number 2
_symmetry_cell_setting 'triclinic'
loop_
_space_group_symop_operation_xyz
x,y,z
-x,-y,-z
loop_
_atom_site_type_symbol
_atom_site_label
_atom_site_fract_x
_atom_site_fract_y
_atom_site_fract_z
Si Si1 0.885721 0.090467 0.720440
Si Si2 0.226460 0.953436 0.603634
Si Si3 0.721223 0.223296 0.994991
Si Si4 0.864843 0.730323 0.932420
Si Si5 0.577317 0.710768 0.719981
Si Si6 0.074019 0.431529 0.412730
Si Si7 0.606842 0.613463 0.444954
O O1 0.864404 0.918556 0.814896
O O2 0.853808 0.118894 0.523041
O O3 0.739886 0.338645 0.616382
O O4 0.089649 0.963635 0.903755
O O5 0.401453 0.857357 0.657042
O O6 0.094478 0.223860 0.442092
O O7 0.272917 0.857490 0.819407
O O8 0.689834 0.449612 0.917058
O O9 0.560310 0.284508 0.787286
O O10 0.681234 0.791538 0.784689
O O11 0.000000 0.500000 0.000000
O O12 0.941732 0.645973 0.161981
O O13 0.553932 0.702324 0.542334
O O14 0.267894 0.347764 0.549271
O O15 0.000000 0.500000 0.500000
#
# Coordination Sequence:
#
# PCOD9070588 Si02
#       7
#     2   2   2   2   2   2   2
#     4  12  26  49  82 111 149 205 258 300 386 443
#     4  12  27  50  78 110 150 207 248 313 381 448
#     4  12  26  47  77 113 155 196 249 315 376 442
#     4  12  24  52  79 106 150 205 254 307 373 453
#     4  12  26  51  75 112 156 195 260 307 373 456
#     4  12  28  52  75 113 153 196 258 315 373 456
#     4  12  28  50  75 117 156 194 254 321 367 453
#
# _framework density 24.331498
#
# number of rings (size 3 to 8) (size 9 to 14) (size 15 to 20)
#    0.000    0.000    5.714    2.143    2.000    6.286 
#    7.714    0.000    0.000    0.000    0.000    0.000 
#    0.000    0.000    0.000    0.000    0.000    0.000 
#
# Total GULP energy -78619.391899 kJ/mol
# GULP energy per Si atom -5615.670850 kJ/mol
# Density = 2.427612 g / cm^3
# Si number density = 24.331498 Si / 1000 Ang^3
#
#
#
# Elastic Constant Matrix: (Units=GPa)
#
#
# Indices 1 2 3 4 5 6 
#
# 1 137.6350 57.1769 73.5999 18.1624 2.4569 -15.9604
# 2 57.1769 117.9084 61.4830 -9.0113 -1.1606 -1.7995
# 3 73.5999 61.4830 178.3932 16.5161 -2.6511 -5.7651
# 4 18.1624 -9.0113 16.5161 38.4294 -0.4519 1.0605
# 5 2.4569 -1.1606 -2.6511 -0.4519 52.4547 -1.2712
# 6 -15.9604 -1.7995 -5.7651 1.0605 -1.2712 34.7148
#
#
#
# Elastic Compliance Matrix: (Units=1/GPa)
#
#
# Indices 1 2 3 4 5 6 
#
# 1 0.012043 -0.004864 -0.002599 -0.005862 -0.000732 0.005005
# 2 -0.004864 0.012973 -0.003159 0.006766 0.000358 -0.002282
# 3 -0.002599 -0.003159 0.008051 -0.002970 0.000435 0.000085
# 4 -0.005862 0.006766 -0.002970 0.031765 0.000456 -0.003791
# 5 -0.000732 0.000358 0.000435 0.000456 0.019143 0.000441
# 6 0.005005 -0.002282 0.000085 -0.003791 0.000441 0.031135
#
#
# Mechanical properties :
#
#
# Convention : Reuss Voigt Hill
#
# Bulk Modulus (GPa) = 84.57936 90.93958 87.75947
# Shear Modulus (GPa) = 35.63955 41.23158 38.43557
#
# Velocity S-wave (km/s) = 3.83136 4.12099 3.97881
# Velocity P-wave (km/s) = 7.37625 7.75241 7.56667
#
# Compressibility (1/GPa) = 0.01182321
#
# Stress axis : x y z
#
# Youngs Moduli (GPa) = 83.03775 77.08430 124.21208
#
# Poissons Ratio (x) = 0.37491 0.32278
# Poissons Ratio (y) = 0.40386 0.39242
# Poissons Ratio (z) = 0.21579 0.24353
#
# Static dielectric constant tensor:
#      x y z
#    x 1.930400 0.029220 0.075750 
#    y 0.029220 1.917930 0.091810 
#    z 0.075750 0.091810 2.467780 
# 
# From -- ./inp_files/243076.got.cif
#   From: 2010.05.17/outbox.cif.g08.bks.cpg/sg2_122_cif.got.tgz:243076.got - 2010.06.03 11:33:40.
