data_PCOD9070523
_publ_section_title
;
Structure prediction by ZEFSAII (Michael W. Deem and Ramdas Pophale) SiO2 
 PCOD9070523
Probable space group: P -1
;
_chemical_formula_sum "Si O2"
_cell_formula_units_Z 13
_cell_length_a 11.957503
_cell_length_b 9.532781
_cell_length_c 8.385045
_cell_angle_alpha 121.570165
_cell_angle_beta 37.665303
_cell_angle_gamma 117.894381
_cell_volume 494.974159
_symmetry_space_group_name_H-M "P -1"
_symmetry_group_IT_number 2
_symmetry_cell_setting 'triclinic'
loop_
_space_group_symop_operation_xyz
x,y,z
-x,-y,-z
loop_
_atom_site_type_symbol
_atom_site_label
_atom_site_fract_x
_atom_site_fract_y
_atom_site_fract_z
Si Si1 0.463229 0.639487 0.792334
Si Si2 0.409752 0.819076 0.652121
Si Si3 0.151816 0.367524 0.495009
Si Si4 0.692709 0.081729 0.661578
Si Si5 0.000000 0.000000 0.500000
Si Si6 0.918091 0.249130 0.213947
Si Si7 0.705683 0.690364 0.056388
O O1 0.416896 0.670320 0.680194
O O2 0.675703 0.622685 0.575659
O O3 0.340552 0.488282 0.920861
O O4 0.411321 0.798714 0.039931
O O5 0.201932 0.838654 0.846963
O O6 0.520606 0.775582 0.343176
O O7 0.532392 0.966120 0.685425
O O8 0.084405 0.551342 0.678133
O O9 0.232201 0.329809 0.206073
O O10 0.011265 0.207731 0.595600
O O11 0.818181 0.185277 0.450759
O O12 0.824304 0.984348 0.566245
O O13 0.128462 0.213838 0.973205
#
# Coordination Sequence:
#
# PCOD9070523 Si02
#       7
#     2   2   2   2   1   2   2
#     4  12  25  48  78 105 150 201 245 306 367 441
#     4  12  28  46  72 115 153 192 246 308 365 438
#     4  12  24  49  77 109 145 196 254 303 365 444
#     4  12  26  51  73 110 149 197 249 303 373 437
#     4  12  26  44  80 108 142 188 262 304 356 440
#     4  12  26  49  79 107 150 199 245 303 376 444
#     4  12  25  47  78 106 149 196 249 303 370 436
#
# _framework density 26.263995999999999
#
# number of rings (size 3 to 8) (size 9 to 14) (size 15 to 20)
#    0.000    0.000    6.154    4.154    0.000    2.462 
#    0.000    0.000    0.000    0.000    0.000    0.000 
#    0.000    0.000    0.000    0.000    0.000    0.000 
#
# Total GULP energy -72741.615208 kJ/mol
# GULP energy per Si atom -5595.508862 kJ/mol
# Density = 2.620422 g / cm^3
# Si number density = 26.263996 Si / 1000 Ang^3
#
#
#
# Elastic Constant Matrix: (Units=GPa)
#
#
# Indices 1 2 3 4 5 6 
#
# 1 141.6043 48.2501 1.9144 1.4713 -12.0244 3.8912
# 2 48.2501 155.0754 19.2406 -5.4132 -1.4654 11.1835
# 3 1.9144 19.2406 46.4866 4.4449 4.9067 -0.8510
# 4 1.4713 -5.4132 4.4449 26.3676 4.1319 -0.3895
# 5 -12.0244 -1.4654 4.9067 4.1319 33.8120 0.8839
# 6 3.8912 11.1835 -0.8510 -0.3895 0.8839 44.7435
#
#
#
# Elastic Compliance Matrix: (Units=1/GPa)
#
#
# Indices 1 2 3 4 5 6 
#
# 1 0.008225 -0.002652 0.000599 -0.001563 0.002917 -0.000112
# 2 -0.002652 0.007901 -0.003383 0.002369 -0.000353 -0.001781
# 3 0.000599 -0.003383 0.023619 -0.004240 -0.002876 0.001263
# 4 -0.001563 0.002369 -0.004240 0.039952 -0.004718 -0.000096
# 5 0.002917 -0.000353 -0.002876 -0.004718 0.031614 -0.000886
# 6 -0.000112 -0.001781 0.001263 -0.000096 -0.000886 0.022845
#
#
# Mechanical properties :
#
#
# Convention : Reuss Voigt Hill
#
# Bulk Modulus (GPa) = 34.63586 53.55295 44.09440
# Shear Modulus (GPa) = 32.33040 39.23539 35.78290
#
# Velocity S-wave (km/s) = 3.51234 3.86927 3.69512
# Velocity P-wave (km/s) = 5.44655 6.35580 5.91866
#
# Compressibility (1/GPa) = 0.02887181
#
# Stress axis : x y z
#
# Youngs Moduli (GPa) = 121.58716 126.56291 42.33836
#
# Poissons Ratio (x) = 0.33566 -0.02534
# Poissons Ratio (y) = 0.32247 0.14323
# Poissons Ratio (z) = -0.07277 0.42816
#
# Static dielectric constant tensor:
#      x y z
#    x 2.016780 -0.004550 0.041840 
#    y -0.004550 2.071600 0.022260 
#    z 0.041840 0.022260 2.035850 
# 
# From -- ./inp_files/180534.got.cif
#   From: 2010.05.17/outbox.cif.g08.bks.cpg/sg2_91_cif.got.tgz:180534.got - 2010.06.03 11:33:40.
