data_PCOD9070753
_publ_section_title
;
Structure prediction by ZEFSAII (Michael W. Deem and Ramdas Pophale) SiO2 
 PCOD9070753
Probable space group: P -1
;
_chemical_formula_sum "Si O2"
_cell_formula_units_Z 14
_cell_length_a 9.156658
_cell_length_b 11.665726
_cell_length_c 12.790613
_cell_angle_alpha 144.703080
_cell_angle_beta 50.386456
_cell_angle_gamma 142.774906
_cell_volume 477.285009
_symmetry_space_group_name_H-M "P -1"
_symmetry_group_IT_number 2
_symmetry_cell_setting 'triclinic'
loop_
_space_group_symop_operation_xyz
x,y,z
-x,-y,-z
loop_
_atom_site_type_symbol
_atom_site_label
_atom_site_fract_x
_atom_site_fract_y
_atom_site_fract_z
Si Si1 0.170963 0.946227 0.334168
Si Si2 0.772769 0.721769 0.625590
Si Si3 0.030093 0.231744 0.214915
Si Si4 0.315438 0.447266 0.956451
Si Si5 0.520279 0.819692 0.430745
Si Si6 0.321235 0.586352 0.844976
Si Si7 0.135564 0.639916 0.788023
O O1 0.369820 0.041101 0.404100
O O2 0.964544 0.649026 0.189224
O O3 0.247794 0.098908 0.304756
O O4 0.000000 0.000000 0.500000
O O5 0.961852 0.829591 0.714521
O O6 0.511199 0.555818 0.681163
O O7 0.298726 0.233819 0.736464
O O8 0.261834 0.535338 0.333563
O O9 0.834248 0.232281 0.241357
O O10 0.000000 0.000000 0.000000
O O11 0.404197 0.654425 0.978109
O O12 0.500000 0.500000 0.000000
O O13 0.101485 0.408868 0.090848
O O14 0.154743 0.420959 0.583436
O O15 0.500000 0.000000 0.500000
O O16 0.308461 0.755505 0.894704
#
# Coordination Sequence:
#
# PCOD9070753 Si02
#       7
#     2   2   2   2   2   2   2
#     4  12  25  45  88 128 160 223 300 364 423 518
#     4  12  27  54  87 124 175 227 301 359 434 539
#     4  12  29  54  82 129 177 226 284 374 442 515
#     4  12  25  49  80 126 177 222 285 369 437 515
#     4  12  27  53  88 125 165 234 299 352 432 536
#     4  12  26  52  86 123 172 229 300 360 434 527
#     4  12  26  50  83 124 170 232 287 360 442 520
#
# _framework density 29.332578999999999
#
# number of rings (size 3 to 8) (size 9 to 14) (size 15 to 20)
#    0.000    0.000    5.714    2.143    4.000    0.000 
#    2.571    3.571    3.143    0.000    0.000    0.000 
#    0.000    0.000    0.000    0.000    0.000    0.000 
#
# Total GULP energy -78251.442022 kJ/mol
# GULP energy per Si atom -5589.388716 kJ/mol
# Density = 2.926582 g / cm^3
# Si number density = 29.332579 Si / 1000 Ang^3
#
#
#
# Elastic Constant Matrix: (Units=GPa)
#
#
# Indices 1 2 3 4 5 6 
#
# 1 302.8799 85.4225 88.7992 -13.4448 44.8574 -36.9948
# 2 85.4225 194.4962 88.3543 -2.6557 19.1122 2.2319
# 3 88.7992 88.3543 228.2796 -7.9697 0.6553 1.0785
# 4 -13.4448 -2.6557 -7.9697 58.8713 6.0076 -7.5637
# 5 44.8574 19.1122 0.6553 6.0076 68.6145 -39.7320
# 6 -36.9948 2.2319 1.0785 -7.5637 -39.7320 31.1053
#
#
#
# Elastic Compliance Matrix: (Units=1/GPa)
#
#
# Indices 1 2 3 4 5 6 
#
# 1 0.005268 -0.002304 -0.001154 0.002094 0.004099 0.012215
# 2 -0.002304 0.008437 -0.002312 -0.001595 -0.010746 -0.017379
# 3 -0.001154 -0.002312 0.005725 0.000369 0.002112 0.001383
# 4 0.002094 -0.001595 0.000369 0.018735 0.006032 0.014853
# 5 0.004099 -0.010746 0.002112 0.006032 0.070736 0.097393
# 6 0.012215 -0.017379 0.001383 0.014853 0.097393 0.175891
#
#
# Mechanical properties :
#
#
# Convention : Reuss Voigt Hill
#
# Bulk Modulus (GPa) = 126.74210 138.97863 132.86037
# Shear Modulus (GPa) = 16.72460 62.59020 39.65740
#
# Velocity S-wave (km/s) = 2.39042 4.62433 3.68093
# Velocity P-wave (km/s) = 7.13591 8.71755 7.96608
#
# Compressibility (1/GPa) = 0.00789004
#
# Stress axis : x y z
#
# Youngs Moduli (GPa) = 189.84298 118.52222 174.68459
#
# Poissons Ratio (x) = 0.27304 0.20154
# Poissons Ratio (y) = 0.43735 0.40390
# Poissons Ratio (z) = 0.21903 0.27404
#
# Static dielectric constant tensor:
#      x y z
#    x 2.270300 -0.019950 0.020550 
#    y -0.019950 2.519880 0.070920 
#    z 0.020550 0.070920 2.364230 
# 
# From -- ./inp_files/258779.got.cif
#   From: 2010.05.17/outbox.cif.g08.bks.cpg/sg2_130_cif.got.tgz:258779.got - 2010.06.03 11:33:40.
