data_PCOD9070654
_publ_section_title
;
Structure prediction by ZEFSAII (Michael W. Deem and Ramdas Pophale) SiO2 
 PCOD9070654
Probable space group: P -1
;
_chemical_formula_sum "Si O2"
_cell_formula_units_Z 16
_cell_length_a 9.163705
_cell_length_b 8.125600
_cell_length_c 12.619850
_cell_angle_alpha 92.163381
_cell_angle_beta 129.582785
_cell_angle_gamma 98.106160
_cell_volume 706.884308
_symmetry_space_group_name_H-M "P -1"
_symmetry_group_IT_number 2
_symmetry_cell_setting 'triclinic'
loop_
_space_group_symop_operation_xyz
x,y,z
-x,-y,-z
loop_
_atom_site_type_symbol
_atom_site_label
_atom_site_fract_x
_atom_site_fract_y
_atom_site_fract_z
Si Si1 0.216107 0.558820 0.064721
Si Si2 0.854854 0.931400 0.732025
Si Si3 0.561369 0.586510 0.645128
Si Si4 0.210548 0.466415 0.602850
Si Si5 0.714361 0.595123 0.122791
Si Si6 0.797521 0.918917 0.462678
Si Si7 0.372022 0.939211 0.191653
Si Si8 0.699251 0.953510 0.049581
O O1 0.347680 0.507272 0.219727
O O2 0.301785 0.758190 0.097967
O O3 0.191633 0.467832 0.937332
O O4 0.000000 0.500000 0.000000
O O5 0.719509 0.752867 0.695549
O O6 0.814161 0.973985 0.593774
O O7 0.083304 0.929960 0.844059
O O8 0.774587 0.055358 0.778645
O O9 0.500000 0.500000 0.500000
O O10 0.361706 0.604218 0.609717
O O11 0.243688 0.459134 0.742832
O O12 0.222925 0.283347 0.557955
O O13 0.000000 0.500000 0.500000
O O14 0.728905 0.793235 0.125601
O O15 0.500000 0.500000 0.000000
O O16 0.597581 0.958308 0.326005
O O17 0.000000 0.000000 0.500000
O O18 0.342641 0.078449 0.095504
O O19 0.500000 0.000000 0.000000
#
# Coordination Sequence:
#
# PCOD9070654 Si02
#       8
#     2   2   2   2   2   2   2   2
#     4  12  25  44  74 108 147 192 245 306 367 438
#     4  12  26  47  73 108 147 199 246 303 376 439
#     4  12  25  49  73 107 153 192 251 307 365 447
#     4  12  28  48  74 107 148 195 251 303 373 443
#     4  12  25  48  73 107 149 194 249 304 370 437
#     4  12  26  48  72 109 147 194 247 305 372 442
#     4  12  25  47  72 108 149 190 246 304 369 441
#     4  12  26  47  75 109 151 194 247 306 368 447
#
# _framework density 22.634540000000001
#
# number of rings (size 3 to 8) (size 9 to 14) (size 15 to 20)
#    0.000    0.000    3.750    6.000    3.500    2.000 
#    2.250    0.000    0.000    0.000    0.000    0.000 
#    0.000    0.000    0.000    0.000    0.000    0.000 
#
# Total GULP energy -89400.111645 kJ/mol
# GULP energy per Si atom -5587.506978 kJ/mol
# Density = 2.258302 g / cm^3
# Si number density = 22.634540 Si / 1000 Ang^3
#
#
#
# Elastic Constant Matrix: (Units=GPa)
#
#
# Indices 1 2 3 4 5 6 
#
# 1 205.4653 26.5433 72.8960 8.3834 3.8022 24.8789
# 2 26.5433 61.9279 20.8557 9.7775 9.1846 20.6163
# 3 72.8960 20.8557 157.9248 -14.2813 3.0190 5.4793
# 4 8.3834 9.7775 -14.2813 28.5582 10.9957 -4.3140
# 5 3.8022 9.1846 3.0190 10.9957 57.7805 9.0762
# 6 24.8789 20.6163 5.4793 -4.3140 9.0762 39.2672
#
#
#
# Elastic Compliance Matrix: (Units=1/GPa)
#
#
# Indices 1 2 3 4 5 6 
#
# 1 0.006868 0.000578 -0.003580 -0.005332 0.001456 -0.005078
# 2 0.000578 0.023808 -0.004112 -0.012883 0.001035 -0.013947
# 3 -0.003580 -0.004112 0.009173 0.008464 -0.001911 0.004519
# 4 -0.005332 -0.012883 0.008464 0.051894 -0.010607 0.017114
# 5 0.001456 0.001035 -0.001911 -0.010607 0.020272 -0.007050
# 6 -0.005078 -0.013947 0.004519 0.017114 -0.007050 0.038885
#
#
# Mechanical properties :
#
#
# Convention : Reuss Voigt Hill
#
# Bulk Modulus (GPa) = 39.02985 73.98979 56.50982
# Shear Modulus (GPa) = 28.79019 45.45604 37.12312
#
# Velocity S-wave (km/s) = 3.57032 4.48622 4.05422
# Velocity P-wave (km/s) = 5.85467 7.71977 6.85098
#
# Compressibility (1/GPa) = 0.02562141
#
# Stress axis : x y z
#
# Youngs Moduli (GPa) = 145.60229 42.00211 109.01528
#
# Poissons Ratio (x) = -0.02430 0.39032
# Poissons Ratio (y) = -0.08423 0.44827
# Poissons Ratio (z) = 0.52132 0.17271
#
# Static dielectric constant tensor:
#      x y z
#    x 1.810490 0.018260 -0.005920 
#    y 0.018260 1.911400 -0.019740 
#    z -0.005920 -0.019740 1.834450 
# 
# From -- ./inp_files/382457.got.cif
#   From: 2010.05.17/outbox.cif.g08.bks.cpg/sg2_192_cif.got.tgz:382457.got - 2010.06.03 11:33:40.
