data_PCOD9070533
_publ_section_title
;
Structure prediction by ZEFSAII (Michael W. Deem and Ramdas Pophale) SiO2 
 PCOD9070533
Probable space group: P -1
;
_chemical_formula_sum "Si O2"
_cell_formula_units_Z 14
_cell_length_a 22.812772
_cell_length_b 13.521511
_cell_length_c 16.305809
_cell_angle_alpha 147.839646
_cell_angle_beta 162.638559
_cell_angle_gamma 24.631005
_cell_volume 616.507529
_symmetry_space_group_name_H-M "P -1"
_symmetry_group_IT_number 2
_symmetry_cell_setting 'triclinic'
loop_
_space_group_symop_operation_xyz
x,y,z
-x,-y,-z
loop_
_atom_site_type_symbol
_atom_site_label
_atom_site_fract_x
_atom_site_fract_y
_atom_site_fract_z
Si Si1 0.572461 0.363435 0.316691
Si Si2 0.500000 0.000000 0.000000
Si Si3 0.380495 0.746098 0.967912
Si Si4 0.000000 0.000000 0.500000
Si Si5 0.247790 0.054699 0.167014
Si Si6 0.914783 0.167339 0.082323
Si Si7 0.403315 0.089719 0.744070
Si Si8 0.826105 0.543333 0.874589
O O1 0.641346 0.494235 0.559905
O O2 0.309550 0.568901 0.065035
O O3 0.787734 0.219144 0.432817
O O4 0.565640 0.180764 0.233189
O O5 0.419119 0.110386 0.876140
O O6 0.568743 0.741933 0.154994
O O7 0.294347 0.946203 0.062016
O O8 0.500000 0.500000 0.000000
O O9 0.147460 0.825900 0.655582
O O10 0.500000 0.000000 0.500000
O O11 0.015722 0.340630 0.052480
O O12 0.182978 0.919610 0.042311
O O13 0.152293 0.135865 0.413548
O O14 0.000000 0.000000 0.000000
O O15 0.661467 0.816575 0.877388
O O16 0.000000 0.500000 0.000000
#
# Coordination Sequence:
#
# PCOD9070533 Si02
#       8
#     2   1   2   1   2   2   2   2
#     4  12  26  50  77 111 155 209 262 329 395 483
#     4  12  30  48  74 118 158 214 248 316 428 480
#     4  12  27  50  79 113 156 212 267 330 396 479
#     4  12  24  52  80 112 158 208 272 322 400 468
#     4  12  26  47  76 114 149 205 272 327 391 475
#     4  12  27  48  77 114 158 203 264 333 406 473
#     4  12  27  52  77 117 159 209 264 329 408 485
#     4  12  24  49  81 107 150 206 272 325 385 471
#
# _framework density 22.708563000000002
#
# number of rings (size 3 to 8) (size 9 to 14) (size 15 to 20)
#    0.000    0.000    5.714    3.429    2.000    4.000 
#    0.000    0.000    0.000    0.000    0.000    0.000 
#    0.000    0.000    0.000    0.000    0.000    0.000 
#
# Total GULP energy -77947.257743 kJ/mol
# GULP energy per Si atom -5567.661267 kJ/mol
# Density = 2.265688 g / cm^3
# Si number density = 22.708563 Si / 1000 Ang^3
#
#
#
# Elastic Constant Matrix: (Units=GPa)
#
#
# Indices 1 2 3 4 5 6 
#
# 1 114.9522 40.7498 33.5475 -3.7842 -17.7928 33.7581
# 2 40.7498 132.7720 49.8913 -21.8954 -0.8829 37.0770
# 3 33.5475 49.8913 104.7719 -21.0179 -14.2968 21.5341
# 4 -3.7842 -21.8954 -21.0179 43.0545 9.1123 7.7826
# 5 -17.7928 -0.8829 -14.2968 9.1123 35.9576 0.8592
# 6 33.7581 37.0770 21.5341 7.7826 0.8592 45.5172
#
#
#
# Elastic Compliance Matrix: (Units=1/GPa)
#
#
# Indices 1 2 3 4 5 6 
#
# 1 0.012746 -0.001180 -0.000961 0.000257 0.006027 -0.008195
# 2 -0.001180 0.012737 -0.002665 0.007412 -0.002983 -0.009450
# 3 -0.000961 -0.002665 0.013599 0.005243 0.003645 -0.004515
# 4 0.000257 0.007412 0.005243 0.033375 -0.005722 -0.014307
# 5 0.006027 -0.002983 0.003645 -0.005722 0.033701 -0.003422
# 6 -0.008195 -0.009450 -0.004515 -0.014307 -0.003422 0.040392
#
#
# Mechanical properties :
#
#
# Convention : Reuss Voigt Hill
#
# Bulk Modulus (GPa) = 33.93403 66.76371 50.34887
# Shear Modulus (GPa) = 30.12326 40.12637 35.12481
#
# Velocity S-wave (km/s) = 3.64609 4.20815 3.93716
# Velocity P-wave (km/s) = 5.71848 7.28529 6.54891
#
# Compressibility (1/GPa) = 0.02946895
#
# Stress axis : x y z
#
# Youngs Moduli (GPa) = 78.45649 78.51270 73.53696
#
# Poissons Ratio (x) = 0.09263 0.07068
# Poissons Ratio (y) = 0.09257 0.19599
# Poissons Ratio (z) = 0.07540 0.20925
#
# Static dielectric constant tensor:
#      x y z
#    x 1.826000 -0.062810 0.039970 
#    y -0.062810 1.801380 0.000020 
#    z 0.039970 0.000020 1.876120 
# 
# From -- ./inp_files/382817.got.cif
#   From: 2010.05.17/outbox.cif.g08.bks.cpg/sg2_192_cif.got.tgz:382817.got - 2010.06.03 11:33:40.
