data_PCOD9070842
_publ_section_title
;
Structure prediction by ZEFSAII (Michael W. Deem and Ramdas Pophale) SiO2 
 PCOD9070842
Probable space group: P -1
;
_chemical_formula_sum "Si O2"
_cell_formula_units_Z 16
_cell_length_a 17.272441
_cell_length_b 8.106945
_cell_length_c 6.796960
_cell_angle_alpha 82.911656
_cell_angle_beta 57.996567
_cell_angle_gamma 64.211112
_cell_volume 719.526238
_symmetry_space_group_name_H-M "P -1"
_symmetry_group_IT_number 2
_symmetry_cell_setting 'triclinic'
loop_
_space_group_symop_operation_xyz
x,y,z
-x,-y,-z
loop_
_atom_site_type_symbol
_atom_site_label
_atom_site_fract_x
_atom_site_fract_y
_atom_site_fract_z
Si Si1 0.249010 0.553561 0.064716
Si Si2 0.586086 0.554617 0.798962
Si Si3 0.765021 0.805512 0.942630
Si Si4 0.341145 0.729894 0.611490
Si Si5 0.088156 0.823923 0.507332
Si Si6 0.188899 0.049209 0.526719
Si Si7 0.955487 0.716921 0.983308
Si Si8 0.452637 0.881393 0.689802
O O1 0.332873 0.480694 0.134498
O O2 0.251388 0.377031 0.975953
O O3 0.141217 0.664342 0.299860
O O4 0.273674 0.688439 0.870426
O O5 0.634581 0.423848 0.565457
O O6 0.528244 0.765997 0.777100
O O7 0.500000 0.500000 0.000000
O O8 0.789925 0.825124 0.678468
O O9 0.861022 0.783103 0.947904
O O10 0.660752 0.984476 0.104568
O O11 0.437977 0.734752 0.586686
O O12 0.281791 0.931064 0.561942
O O13 0.169269 0.894700 0.458409
O O14 0.000000 0.000000 0.500000
O O15 0.042112 0.759137 0.760301
O O16 0.091182 0.168958 0.772449
O O17 0.000000 0.500000 0.000000
O O18 0.500000 0.000000 0.500000
#
# Coordination Sequence:
#
# PCOD9070842 Si02
#       8
#     2   2   2   2   2   2   2   2
#     4  12  28  46  72 104 144 182 233 291 343 415
#     4  12  26  47  72 101 138 186 234 283 349 408
#     4  12  28  49  67 106 145 180 232 290 347 415
#     4  12  25  48  73 103 141 183 232 290 344 410
#     4  12  25  47  73 104 138 187 235 282 348 413
#     4  12  25  47  75 100 144 185 230 291 346 409
#     4  12  28  46  73 104 143 184 232 287 349 414
#     4  12  27  46  74 103 141 184 233 287 348 416
#
# _framework density 22.236851000000001
#
# number of rings (size 3 to 8) (size 9 to 14) (size 15 to 20)
#    0.000    0.000    5.000    4.500    7.000    3.500 
#    0.000    0.000    0.000    0.000    0.000    0.000 
#    0.000    0.000    0.000    0.000    0.000    0.000 
#
# Total GULP energy -89644.879146 kJ/mol
# GULP energy per Si atom -5602.804947 kJ/mol
# Density = 2.218624 g / cm^3
# Si number density = 22.236851 Si / 1000 Ang^3
#
#
#
# Elastic Constant Matrix: (Units=GPa)
#
#
# Indices 1 2 3 4 5 6 
#
# 1 45.1126 -10.4038 -7.0460 -3.4011 -1.4115 -7.8127
# 2 -10.4038 91.6761 15.6378 -12.4695 -5.4307 -16.2680
# 3 -7.0460 15.6378 99.0479 -16.9454 -10.0340 -6.3700
# 4 -3.4011 -12.4695 -16.9454 50.4515 7.6272 -1.4716
# 5 -1.4115 -5.4307 -10.0340 7.6272 29.8377 -2.9031
# 6 -7.8127 -16.2680 -6.3700 -1.4716 -2.9031 47.0985
#
#
#
# Elastic Compliance Matrix: (Units=1/GPa)
#
#
# Indices 1 2 3 4 5 6 
#
# 1 0.024857 0.004100 0.002323 0.003275 0.002460 0.006107
# 2 0.004100 0.012971 -0.000678 0.003099 0.002049 0.005292
# 3 0.002323 -0.000678 0.011397 0.003400 0.003144 0.001993
# 4 0.003275 0.003099 0.003400 0.022578 -0.003661 0.002553
# 5 0.002460 0.002049 0.003144 -0.003661 0.036354 0.003668
# 6 0.006107 0.005292 0.001993 0.002553 0.003668 0.024648
#
#
# Mechanical properties :
#
#
# Convention : Reuss Voigt Hill
#
# Bulk Modulus (GPa) = 16.47068 25.80141 21.13605
# Shear Modulus (GPa) = 35.32266 41.32078 38.32172
#
# Velocity S-wave (km/s) = 3.98989 4.31537 4.15582
# Velocity P-wave (km/s) = 5.35244 6.03806 5.70556
#
# Compressibility (1/GPa) = 0.06071393
#
# Stress axis : x y z
#
# Youngs Moduli (GPa) = 40.23062 77.09620 87.74448
#
# Poissons Ratio (x) = -0.31606 -0.20386
# Poissons Ratio (y) = -0.16493 0.05950
# Poissons Ratio (z) = -0.09347 0.05228
#
# Static dielectric constant tensor:
#      x y z
#    x 1.826560 -0.018550 0.028580 
#    y -0.018550 1.823710 0.027060 
#    z 0.028580 0.027060 1.804910 
# 
# From -- ./inp_files/39770.got.cif
#   From: 2010.05.17/outbox.cif.g08.bks.cpg/sg2_20_cif.got.tgz:39770.got - 2010.06.03 11:33:40.
