data_PCOD9070320
_publ_section_title
;
Structure prediction by ZEFSAII (Michael W. Deem and Ramdas Pophale) SiO2 
 PCOD9070320
Probable space group: P -1
;
_chemical_formula_sum "Si O2"
_cell_formula_units_Z 16
_cell_length_a 9.200098
_cell_length_b 5.366470
_cell_length_c 20.247042
_cell_angle_alpha 102.863148
_cell_angle_beta 50.614280
_cell_angle_gamma 126.340179
_cell_volume 603.163854
_symmetry_space_group_name_H-M "P -1"
_symmetry_group_IT_number 2
_symmetry_cell_setting 'triclinic'
loop_
_space_group_symop_operation_xyz
x,y,z
-x,-y,-z
loop_
_atom_site_type_symbol
_atom_site_label
_atom_site_fract_x
_atom_site_fract_y
_atom_site_fract_z
Si Si1 0.474779 0.693019 0.113914
Si Si2 0.455024 0.688042 0.835183
Si Si3 0.020899 0.876878 0.071386
Si Si4 0.645751 0.792566 0.523925
Si Si5 0.058466 0.419553 0.407103
Si Si6 0.485215 0.428895 0.678796
Si Si7 0.961427 0.554093 0.854172
Si Si8 0.787044 0.214077 0.339612
O O1 0.410845 0.411973 0.165442
O O2 0.294688 0.548756 0.097259
O O3 0.447939 0.951607 0.167892
O O4 0.739997 0.899620 0.024048
O O5 0.429430 0.584461 0.760661
O O6 0.188710 0.443824 0.924164
O O7 0.067831 0.720881 0.109366
O O8 0.927308 0.090921 0.127289
O O9 0.500000 0.500000 0.500000
O O10 0.641169 0.681458 0.591817
O O11 0.479658 0.907548 0.578803
O O12 0.906962 0.036816 0.436558
O O13 0.942515 0.411817 0.370486
O O14 0.000000 0.500000 0.500000
O O15 0.337285 0.620179 0.337743
O O16 0.266386 0.123596 0.685850
O O17 0.096699 0.590816 0.749739
#
# Coordination Sequence:
#
# PCOD9070320 Si02
#       8
#     2   2   2   2   2   2   2   2
#     4  12  26  46  72 109 147 186 246 304 354 437
#     4  12  26  45  72 106 145 192 241 295 371 429
#     4  12  24  47  74 106 145 194 239 298 364 437
#     4  12  25  45  74 100 138 185 236 297 363 427
#     4  12  25  46  73 103 138 186 237 293 364 432
#     4  12  26  46  72 102 145 188 240 299 361 435
#     4  12  26  45  75 105 146 193 243 294 373 431
#     4  12  26  47  70 103 148 185 235 307 359 431
#
# _framework density 26.526786000000001
#
# number of rings (size 3 to 8) (size 9 to 14) (size 15 to 20)
#    0.000    0.000    3.750    6.750    1.750    2.000 
#    0.000    0.000    0.000    0.000    0.000    0.000 
#    0.000    0.000    0.000    0.000    0.000    0.000 
#
# Total GULP energy -89541.536603 kJ/mol
# GULP energy per Si atom -5596.346038 kJ/mol
# Density = 2.646641 g / cm^3
# Si number density = 26.526786 Si / 1000 Ang^3
#
#
#
# Elastic Constant Matrix: (Units=GPa)
#
#
# Indices 1 2 3 4 5 6 
#
# 1 141.4558 30.2966 21.2986 4.0841 29.2746 -5.7401
# 2 30.2966 108.4567 23.9830 28.6472 14.9442 5.9596
# 3 21.2986 23.9830 72.1022 4.7460 20.7971 -16.7593
# 4 4.0841 28.6472 4.7460 43.7596 -1.1527 2.4096
# 5 29.2746 14.9442 20.7971 -1.1527 45.3998 -14.9667
# 6 -5.7401 5.9596 -16.7593 2.4096 -14.9667 48.5772
#
#
#
# Elastic Compliance Matrix: (Units=1/GPa)
#
#
# Indices 1 2 3 4 5 6 
#
# 1 0.008480 -0.001574 -0.000743 0.000224 -0.004784 -0.000546
# 2 -0.001574 0.013120 -0.003277 -0.007977 -0.003160 -0.003504
# 3 -0.000743 -0.003277 0.017760 -0.000113 -0.004959 0.004919
# 4 0.000224 -0.007977 -0.000113 0.028121 0.003457 0.000636
# 5 -0.004784 -0.003160 -0.004959 0.003457 0.030978 0.007484
# 6 -0.000546 -0.003504 0.004919 0.000636 0.007484 0.024923
#
#
# Mechanical properties :
#
#
# Convention : Reuss Voigt Hill
#
# Bulk Modulus (GPa) = 35.49802 52.57456 44.03629
# Shear Modulus (GPa) = 34.73181 43.97640 39.35410
#
# Velocity S-wave (km/s) = 3.62237 4.07604 3.85588
# Velocity P-wave (km/s) = 5.55935 6.48187 6.03825
#
# Compressibility (1/GPa) = 0.02817059
#
# Stress axis : x y z
#
# Youngs Moduli (GPa) = 117.92734 76.22216 56.30669
#
# Poissons Ratio (x) = 0.12001 0.04184
# Poissons Ratio (y) = 0.18567 0.18450
# Poissons Ratio (z) = 0.08763 0.24976
#
# Static dielectric constant tensor:
#      x y z
#    x 2.131390 -0.044970 -0.052830 
#    y -0.044970 2.131380 0.058390 
#    z -0.052830 0.058390 2.134370 
# 
# From -- ./inp_files/584040.got.cif
#   From: 2010.05.17/outbox.cif.g08.bks.cpg/sg2_293_cif.got.tgz:584040.got - 2010.06.03 11:33:40.
