data_PCOD9070078
_publ_section_title
;
Structure prediction by ZEFSAII (Michael W. Deem and Ramdas Pophale) SiO2 
 PCOD9070078
Probable space group: P -1
;
_chemical_formula_sum "Si O2"
_cell_formula_units_Z 16
_cell_length_a 14.619652
_cell_length_b 9.285254
_cell_length_c 11.974274
_cell_angle_alpha 72.866967
_cell_angle_beta 31.364854
_cell_angle_gamma 86.011792
_cell_volume 752.428364
_symmetry_space_group_name_H-M "P -1"
_symmetry_group_IT_number 2
_symmetry_cell_setting 'triclinic'
loop_
_space_group_symop_operation_xyz
x,y,z
-x,-y,-z
loop_
_atom_site_type_symbol
_atom_site_label
_atom_site_fract_x
_atom_site_fract_y
_atom_site_fract_z
Si Si1 0.974540 0.348505 0.639448
Si Si2 0.535322 0.149208 0.846422
Si Si3 0.890594 0.985957 0.733360
Si Si4 0.161270 0.609002 0.015938
Si Si5 0.082475 0.767003 0.703710
Si Si6 0.399921 0.507096 0.223168
Si Si7 0.467480 0.408734 0.433018
Si Si8 0.964998 0.814226 0.057444
O O1 0.183418 0.387590 0.464748
O O2 0.000000 0.500000 0.500000
O O3 0.914718 0.168566 0.696310
O O4 0.813912 0.362321 0.885516
O O5 0.704870 0.174388 0.577411
O O6 0.596363 0.311668 0.816989
O O7 0.500000 0.000000 0.000000
O O8 0.331632 0.118193 0.013204
O O9 0.000000 0.000000 0.500000
O O10 0.985822 0.888885 0.732009
O O11 0.031457 0.420606 0.170396
O O12 0.054541 0.729295 0.071958
O O13 0.358561 0.651330 0.740123
O O14 0.062643 0.780511 0.852321
O O15 0.470115 0.483595 0.284359
O O16 0.500000 0.500000 0.000000
O O17 0.500000 0.500000 0.500000
O O18 0.258669 0.278966 0.691480
O O19 0.000000 0.000000 0.000000
#
# Coordination Sequence:
#
# PCOD9070078 Si02
#       8
#     2   2   2   2   2   2   2   2
#     4  12  24  45  72 106 153 194 247 311 376 441
#     4  12  25  44  71 106 144 195 248 304 380 445
#     4  12  25  44  68 104 149 193 246 310 373 445
#     4  12  25  48  76 106 146 201 251 305 372 453
#     4  12  25  44  74 104 145 195 248 306 372 446
#     4  12  26  47  76 109 151 196 253 312 371 448
#     4  12  27  49  80 111 149 205 255 302 384 458
#     4  12  28  48  76 110 151 193 252 318 374 448
#
# _framework density 21.264482999999998
#
# number of rings (size 3 to 8) (size 9 to 14) (size 15 to 20)
#    0.000    0.000    5.000    4.875    1.750    1.500 
#    0.000    0.000    0.000    0.000    0.000    0.000 
#    0.000    0.000    0.000    0.000    0.000    0.000 
#
# Total GULP energy -89261.082313 kJ/mol
# GULP energy per Si atom -5578.817645 kJ/mol
# Density = 2.121608 g / cm^3
# Si number density = 21.264483 Si / 1000 Ang^3
#
#
#
# Elastic Constant Matrix: (Units=GPa)
#
#
# Indices 1 2 3 4 5 6 
#
# 1 61.0754 9.4660 38.3696 6.9417 4.8865 1.3562
# 2 9.4660 126.2311 54.9677 10.3538 7.7129 19.0743
# 3 38.3696 54.9677 179.5126 34.2829 -8.1941 7.8294
# 4 6.9417 10.3538 34.2829 38.1603 3.1600 7.2516
# 5 4.8865 7.7129 -8.1941 3.1600 49.4918 3.9047
# 6 1.3562 19.0743 7.8294 7.2516 3.9047 34.4286
#
#
#
# Elastic Compliance Matrix: (Units=1/GPa)
#
#
# Indices 1 2 3 4 5 6 
#
# 1 0.019300 0.000651 -0.004580 0.000640 -0.002814 0.000105
# 2 0.000651 0.010078 -0.003331 0.001226 -0.001878 -0.004897
# 3 -0.004580 -0.003331 0.008934 -0.006729 0.002794 0.001095
# 4 0.000640 0.001226 -0.006729 0.033157 -0.003027 -0.005815
# 5 -0.002814 -0.001878 0.002794 -0.003027 0.021533 -0.001289
# 6 0.000105 -0.004897 0.001095 -0.005815 -0.001289 0.032876
#
#
# Mechanical properties :
#
#
# Convention : Reuss Voigt Hill
#
# Bulk Modulus (GPa) = 42.03253 63.60288 52.81771
# Shear Modulus (GPa) = 33.70863 42.01719 37.86291
#
# Velocity S-wave (km/s) = 3.98579 4.44997 4.22426
# Velocity P-wave (km/s) = 6.40246 7.50855 6.97745
#
# Compressibility (1/GPa) = 0.02379110
#
# Stress axis : x y z
#
# Youngs Moduli (GPa) = 51.81472 99.22669 111.92627
#
# Poissons Ratio (x) = -0.06455 0.51258
# Poissons Ratio (y) = -0.03371 0.37286
# Poissons Ratio (z) = 0.23729 0.33055
#
# Static dielectric constant tensor:
#      x y z
#    x 1.952150 0.051680 0.105960 
#    y 0.051680 1.687570 0.044490 
#    z 0.105960 0.044490 1.819400 
# 
# From -- ./inp_files/447057.got.cif
#   From: 2010.05.17/outbox.cif.g08.bks.cpg/sg2_224_cif.got.tgz:447057.got - 2010.06.03 11:33:40.
