data_PCOD9070095
_publ_section_title
;
Structure prediction by ZEFSAII (Michael W. Deem and Ramdas Pophale) SiO2 
 PCOD9070095
Probable space group: P -1
;
_chemical_formula_sum "Si O2"
_cell_formula_units_Z 16
_cell_length_a 5.776655
_cell_length_b 18.633925
_cell_length_c 18.105232
_cell_angle_alpha 148.678743
_cell_angle_beta 55.058991
_cell_angle_gamma 136.149056
_cell_volume 696.763087
_symmetry_space_group_name_H-M "P -1"
_symmetry_group_IT_number 2
_symmetry_cell_setting 'triclinic'
loop_
_space_group_symop_operation_xyz
x,y,z
-x,-y,-z
loop_
_atom_site_type_symbol
_atom_site_label
_atom_site_fract_x
_atom_site_fract_y
_atom_site_fract_z
Si Si1 0.821596 0.800122 0.857092
Si Si2 0.512229 0.844740 0.549547
Si Si3 0.728748 0.383553 0.735846
Si Si4 0.312185 0.099678 0.819527
Si Si5 0.742032 0.310706 0.390783
Si Si6 0.360414 0.110133 0.150218
Si Si7 0.259354 0.062983 0.622360
Si Si8 0.443227 0.573922 0.862791
O O1 0.513210 0.760108 0.826964
O O2 0.704847 0.681569 0.843159
O O3 0.056776 0.776570 0.738917
O O4 0.000000 0.000000 0.000000
O O5 0.263706 0.731724 0.430909
O O6 0.425144 0.731568 0.536946
O O7 0.477875 0.995196 0.709377
O O8 0.901755 0.930826 0.535688
O O9 0.431406 0.248044 0.723797
O O10 0.589806 0.483183 0.804281
O O11 0.076587 0.473082 0.799154
O O12 0.213006 0.070731 0.725842
O O13 0.547828 0.290907 0.965676
O O14 0.004342 0.025663 0.868465
O O15 0.480374 0.233237 0.305127
O O16 0.000000 0.500000 0.500000
O O17 0.500000 0.000000 0.000000
O O18 0.500000 0.000000 0.500000
#
# Coordination Sequence:
#
# PCOD9070095 Si02
#       8
#     2   2   2   2   2   2   2   2
#     4  12  24  45  74 105 150 210 252 302 390 476
#     4  12  26  49  79 109 156 206 274 316 387 489
#     4  12  30  52  77 116 162 206 259 341 408 448
#     4  12  27  48  81 114 149 212 269 321 382 486
#     4  12  26  42  69 115 151 196 250 333 385 456
#     4  12  25  45  77 109 155 206 264 310 389 481
#     4  12  27  52  85 110 152 213 269 325 394 473
#     4  12  30  49  77 120 163 201 261 336 401 465
#
# _framework density 22.963327
#
# number of rings (size 3 to 8) (size 9 to 14) (size 15 to 20)
#    0.000    0.000    6.250    1.875    8.750    2.500 
#    0.000    0.000    0.000    0.000    0.000    0.000 
#    0.000    0.000    0.000    0.000    0.000    0.000 
#
# Total GULP energy -89163.055521 kJ/mol
# GULP energy per Si atom -5572.690970 kJ/mol
# Density = 2.291106 g / cm^3
# Si number density = 22.963327 Si / 1000 Ang^3
#
#
#
# Elastic Constant Matrix: (Units=GPa)
#
#
# Indices 1 2 3 4 5 6 
#
# 1 90.5395 53.1224 39.2248 22.7234 7.8377 -5.5595
# 2 53.1224 134.1364 35.9959 16.2017 -6.3350 -25.2825
# 3 39.2248 35.9959 121.7897 10.8737 8.3323 10.4450
# 4 22.7234 16.2017 10.8737 37.8960 2.0805 2.5593
# 5 7.8377 -6.3350 8.3323 2.0805 42.5893 3.0823
# 6 -5.5595 -25.2825 10.4450 2.5593 3.0823 48.4345
#
#
#
# Elastic Compliance Matrix: (Units=1/GPa)
#
#
# Indices 1 2 3 4 5 6 
#
# 1 0.017715 -0.005278 -0.003335 -0.007279 -0.003079 0.000578
# 2 -0.005278 0.011592 -0.002268 -0.001689 0.002799 0.005845
# 3 -0.003335 -0.002268 0.010347 0.000334 -0.001495 -0.003721
# 4 -0.007279 -0.001689 0.000334 0.031626 -0.000273 -0.003443
# 5 -0.003079 0.002799 -0.001495 -0.000273 0.024778 -0.000133
# 6 0.000578 0.005845 -0.003721 -0.003443 -0.000133 0.024757
#
#
# Mechanical properties :
#
#
# Convention : Reuss Voigt Hill
#
# Bulk Modulus (GPa) = 55.89044 67.01688 61.45366
# Shear Modulus (GPa) = 33.66050 40.32546 36.99298
#
# Velocity S-wave (km/s) = 3.83278 4.19511 4.01803
# Velocity P-wave (km/s) = 6.63165 7.26037 6.95312
#
# Compressibility (1/GPa) = 0.01789215
#
# Stress axis : x y z
#
# Youngs Moduli (GPa) = 56.44787 86.26591 96.64842
#
# Poissons Ratio (x) = 0.45534 0.32228
# Poissons Ratio (y) = 0.29795 0.21922
# Poissons Ratio (z) = 0.18823 0.19567
#
# Static dielectric constant tensor:
#      x y z
#    x 2.040630 -0.188220 0.087250 
#    y -0.188220 1.707760 -0.025740 
#    z 0.087250 -0.025740 1.911730 
# 
# From -- ./inp_files/550566.got.cif
#   From: 2010.05.17/outbox.cif.g08.bks.cpg/sg2_276_cif.got.tgz:550566.got - 2010.06.03 11:33:40.
