data_PCOD9070134
_publ_section_title
;
Structure prediction by ZEFSAII (Michael W. Deem and Ramdas Pophale) SiO2 
 PCOD9070134
Probable space group: P -1
;
_chemical_formula_sum "Si O2"
_cell_formula_units_Z 13
_cell_length_a 13.294235
_cell_length_b 9.824879
_cell_length_c 9.322714
_cell_angle_alpha 39.602476
_cell_angle_beta 81.622118
_cell_angle_gamma 54.627984
_cell_volume 516.601797
_symmetry_space_group_name_H-M "P -1"
_symmetry_group_IT_number 2
_symmetry_cell_setting 'triclinic'
loop_
_space_group_symop_operation_xyz
x,y,z
-x,-y,-z
loop_
_atom_site_type_symbol
_atom_site_label
_atom_site_fract_x
_atom_site_fract_y
_atom_site_fract_z
Si Si1 0.154585 0.255652 0.844166
Si Si2 0.370764 0.168681 0.678362
Si Si3 0.354475 0.619769 0.498077
Si Si4 0.045332 0.044527 0.598759
Si Si5 0.500000 0.000000 0.500000
Si Si6 0.088694 0.692605 0.139374
Si Si7 0.635956 0.247029 0.287954
O O1 0.284399 0.102718 0.823097
O O2 0.094556 0.580869 0.640870
O O3 0.995635 0.390516 0.730736
O O4 0.221563 0.977108 0.169319
O O5 0.370714 0.352570 0.650992
O O6 0.508036 0.918706 0.744061
O O7 0.260204 0.438015 0.359681
O O8 0.500000 0.500000 0.500000
O O9 0.364614 0.635079 0.653297
O O10 0.199575 0.942053 0.651675
O O11 0.000000 0.000000 0.500000
O O12 0.072430 0.804822 0.893735
O O13 0.608935 0.036532 0.484687
O O14 0.000000 0.000000 0.000000
O O15 0.500000 0.500000 0.000000
#
# Coordination Sequence:
#
# PCOD9070134 Si02
#       7
#     2   2   2   2   1   2   2
#     4  12  26  47  83 111 157 207 262 329 403 465
#     4  12  26  48  77 117 155 208 263 328 399 479
#     4  12  28  52  75 111 160 210 265 323 393 483
#     4  12  28  51  82 120 159 208 266 332 400 474
#     4  12  28  44  74 114 154 206 260 318 394 476
#     4  12  24  45  77 115 150 196 263 323 386 477
#     4  12  29  52  80 115 165 209 259 333 400 477
#
# _framework density 25.164449999999999
#
# number of rings (size 3 to 8) (size 9 to 14) (size 15 to 20)
#    0.000    0.000    4.615    4.154    4.308    6.769 
#    0.000    0.000    0.000    0.000    0.000    0.000 
#    0.000    0.000    0.000    0.000    0.000    0.000 
#
# Total GULP energy -72370.027874 kJ/mol
# GULP energy per Si atom -5566.925221 kJ/mol
# Density = 2.510717 g / cm^3
# Si number density = 25.164450 Si / 1000 Ang^3
#
#
#
# Elastic Constant Matrix: (Units=GPa)
#
#
# Indices 1 2 3 4 5 6 
#
# 1 171.7944 39.5874 28.2553 21.7783 -30.1102 -4.9533
# 2 39.5874 119.5128 35.6548 29.7371 -13.6649 19.8695
# 3 28.2553 35.6548 104.4127 23.0403 5.5191 -4.0390
# 4 21.7783 29.7371 23.0403 44.3046 -3.4597 -4.2179
# 5 -30.1102 -13.6649 5.5191 -3.4597 45.9944 5.8300
# 6 -4.9533 19.8695 -4.0390 -4.2179 5.8300 53.6045
#
#
#
# Elastic Compliance Matrix: (Units=1/GPa)
#
#
# Indices 1 2 3 4 5 6 
#
# 1 0.007326 -0.001119 -0.001443 -0.001717 0.004462 0.000363
# 2 -0.001119 0.012705 -0.002978 -0.006711 0.003650 -0.005962
# 3 -0.001443 -0.002978 0.012076 -0.003678 -0.003810 0.002005
# 4 -0.001717 -0.006711 -0.003678 0.030187 -0.000980 0.004534
# 5 0.004462 0.003650 -0.003810 -0.000980 0.026664 -0.004205
# 6 0.000363 -0.005962 0.002005 0.004534 -0.004205 0.021864
#
#
# Mechanical properties :
#
#
# Convention : Reuss Voigt Hill
#
# Bulk Modulus (GPa) = 47.56247 66.96832 57.26540
# Shear Modulus (GPa) = 38.78633 48.26220 43.52427
#
# Velocity S-wave (km/s) = 3.93022 4.38410 4.16335
# Velocity P-wave (km/s) = 6.28786 7.23168 6.77622
#
# Compressibility (1/GPa) = 0.02102498
#
# Stress axis : x y z
#
# Youngs Moduli (GPa) = 136.49492 78.70887 82.81213
#
# Poissons Ratio (x) = 0.08809 0.11953
# Poissons Ratio (y) = 0.15276 0.24664
# Poissons Ratio (z) = 0.19702 0.23442
#
# Static dielectric constant tensor:
#      x y z
#    x 1.995880 -0.016250 0.039390 
#    y -0.016250 2.215720 -0.080790 
#    z 0.039390 -0.080790 2.027390 
# 
# From -- ./inp_files/241781.got.cif
#   From: 2010.05.17/outbox.cif.g08.bks.cpg/sg2_121_cif.got.tgz:241781.got - 2010.06.03 11:33:40.
