data_PCOD9070141
_publ_section_title
;
Structure prediction by ZEFSAII (Michael W. Deem and Ramdas Pophale) SiO2 
 PCOD9070141
Probable space group: P -1
;
_chemical_formula_sum "Si O2"
_cell_formula_units_Z 14
_cell_length_a 5.269725
_cell_length_b 14.721419
_cell_length_c 11.809826
_cell_angle_alpha 134.806700
_cell_angle_beta 123.598631
_cell_angle_gamma 69.472043
_cell_volume 540.224703
_symmetry_space_group_name_H-M "P -1"
_symmetry_group_IT_number 2
_symmetry_cell_setting 'triclinic'
loop_
_space_group_symop_operation_xyz
x,y,z
-x,-y,-z
loop_
_atom_site_type_symbol
_atom_site_label
_atom_site_fract_x
_atom_site_fract_y
_atom_site_fract_z
Si Si1 0.204534 0.969473 0.164480
Si Si2 0.516221 0.233671 0.066659
Si Si3 0.135708 0.823156 0.229695
Si Si4 0.660574 0.132696 0.253129
Si Si5 0.155087 0.528616 0.913677
Si Si6 0.267697 0.706974 0.385068
Si Si7 0.237105 0.486543 0.646333
O O1 0.297509 0.927076 0.277044
O O2 0.418125 0.060378 0.215302
O O3 0.196102 0.833454 0.975794
O O4 0.894158 0.038593 0.172030
O O5 0.515642 0.202304 0.172095
O O6 0.531462 0.386171 0.189789
O O7 0.228617 0.168173 0.869010
O O8 0.254233 0.814203 0.378625
O O9 0.162105 0.679803 0.063842
O O10 0.834303 0.232322 0.469436
O O11 0.077876 0.499923 0.738604
O O12 0.944753 0.414769 0.819730
O O13 0.500000 0.500000 0.000000
O O14 0.587234 0.643353 0.428472
O O15 0.000000 0.500000 0.500000
#
# Coordination Sequence:
#
# PCOD9070141 Si02
#       7
#     2   2   2   2   2   2   2
#     4  12  28  52  78 115 150 215 268 316 381 461
#     4  12  26  50  80 113 152 204 268 321 386 463
#     4  12  26  47  80 112 155 205 264 320 386 468
#     4  12  31  49  79 111 165 203 263 327 382 461
#     4  12  24  45  78 113 156 202 254 318 395 470
#     4  12  29  49  72 120 161 200 253 328 399 466
#     4  12  27  45  78 117 156 198 252 327 402 465
#
# _framework density 25.915141999999999
#
# number of rings (size 3 to 8) (size 9 to 14) (size 15 to 20)
#    0.000    0.000    5.714    3.000    8.000    2.286 
#    0.000    0.000    0.000    0.000    0.000    0.000 
#    0.000    0.000    0.000    0.000    0.000    0.000 
#
# Total GULP energy -78373.125802 kJ/mol
# GULP energy per Si atom -5598.080414 kJ/mol
# Density = 2.585616 g / cm^3
# Si number density = 25.915142 Si / 1000 Ang^3
#
#
#
# Elastic Constant Matrix: (Units=GPa)
#
#
# Indices 1 2 3 4 5 6 
#
# 1 110.9153 51.9169 7.2048 -3.1996 -2.1035 13.9838
# 2 51.9169 149.0896 21.5448 -23.1537 -4.2845 30.3263
# 3 7.2048 21.5448 99.6953 -16.3459 -17.4532 9.0824
# 4 -3.1996 -23.1537 -16.3459 50.1772 10.0356 -3.6623
# 5 -2.1035 -4.2845 -17.4532 10.0356 36.1879 1.8312
# 6 13.9838 30.3263 9.0824 -3.6623 1.8312 51.2119
#
#
#
# Elastic Compliance Matrix: (Units=1/GPa)
#
#
# Indices 1 2 3 4 5 6 
#
# 1 0.010870 -0.003792 0.000008 -0.001229 0.000570 -0.000833
# 2 -0.003792 0.009565 -0.000866 0.003644 -0.000303 -0.004204
# 3 0.000008 -0.000866 0.011597 0.002277 0.004939 -0.001560
# 4 -0.001229 0.003644 0.002277 0.023239 -0.004967 -0.000387
# 5 0.000570 -0.000303 0.004939 -0.004967 0.031508 -0.002334
# 6 -0.000833 -0.004204 -0.001560 -0.000387 -0.002334 0.022576
#
#
# Mechanical properties :
#
#
# Convention : Reuss Voigt Hill
#
# Bulk Modulus (GPa) = 43.98708 57.89257 50.93983
# Shear Modulus (GPa) = 39.60931 46.11764 42.86347
#
# Velocity S-wave (km/s) = 3.91375 4.22306 4.07134
# Velocity P-wave (km/s) = 6.11830 6.79462 6.46531
#
# Compressibility (1/GPa) = 0.02273395
#
# Stress axis : x y z
#
# Youngs Moduli (GPa) = 91.99245 104.54687 86.22797
#
# Poissons Ratio (x) = 0.39640 -0.00069
# Poissons Ratio (y) = 0.34880 0.07465
# Poissons Ratio (z) = -0.00073 0.09051
#
# Static dielectric constant tensor:
#      x y z
#    x 2.141960 -0.045390 0.086400 
#    y -0.045390 2.070770 -0.035240 
#    z 0.086400 -0.035240 2.085250 
# 
# From -- ./inp_files/368129.got.cif
#   From: 2010.05.17/outbox.cif.g08.bks.cpg/sg2_185_cif.got.tgz:368129.got - 2010.06.03 11:33:40.
