data_PCOD9070420
_publ_section_title
;
Structure prediction by ZEFSAII (Michael W. Deem and Ramdas Pophale) SiO2 
 PCOD9070420
Probable space group: P -1
;
_chemical_formula_sum "Si O2"
_cell_formula_units_Z 12
_cell_length_a 26.743877
_cell_length_b 26.240717
_cell_length_c 11.977746
_cell_angle_alpha 159.988345
_cell_angle_beta 160.618058
_cell_angle_gamma 10.456694
_cell_volume 496.197523
_symmetry_space_group_name_H-M "P -1"
_symmetry_group_IT_number 2
_symmetry_cell_setting 'triclinic'
loop_
_space_group_symop_operation_xyz
x,y,z
-x,-y,-z
loop_
_atom_site_type_symbol
_atom_site_label
_atom_site_fract_x
_atom_site_fract_y
_atom_site_fract_z
Si Si1 0.402915 0.434747 0.774995
Si Si2 0.924013 0.558497 0.788554
Si Si3 0.745105 0.690824 0.439860
Si Si4 0.049820 0.967559 0.219444
Si Si5 0.804429 0.279046 0.737037
Si Si6 0.576727 0.098577 0.234903
O O1 0.241032 0.452706 0.549685
O O2 0.489095 0.276031 0.518505
O O3 0.162969 0.764761 0.941072
O O4 0.700206 0.261486 0.087786
O O5 0.793013 0.712635 0.709757
O O6 0.271245 0.276383 0.926083
O O7 0.807508 0.774223 0.079209
O O8 0.000000 0.500000 0.500000
O O9 0.500000 0.000000 0.500000
O O10 0.782480 0.478598 0.096903
O O11 0.140295 0.818048 0.219707
O O12 0.240462 0.954630 0.576516
O O13 0.500000 0.500000 0.500000
O O14 0.000000 0.000000 0.500000
#
# Coordination Sequence:
#
# PCOD9070420 Si02
#       6
#     2   2   2   2   2   2
#     4  12  24  48  73 103 145 193 241 298 369 434
#     4  12  26  46  71 106 148 186 244 301 366 433
#     4  12  28  48  75 106 148 195 245 306 370 437
#     4  12  26  46  73 104 148 187 243 304 366 432
#     4  12  28  48  76 107 146 194 248 306 368 438
#     4  12  26  44  74 109 142 191 242 299 362 447
#
# _framework density 24.183917000000001
#
# number of rings (size 3 to 8) (size 9 to 14) (size 15 to 20)
#    0.000    0.000    1.667    8.000    9.333    0.000 
#    0.000    0.000    0.000    0.000    0.000    0.000 
#    0.000    0.000    0.000    0.000    0.000    0.000 
#
# Total GULP energy -66967.802514 kJ/mol
# GULP energy per Si atom -5580.650209 kJ/mol
# Density = 2.412887 g / cm^3
# Si number density = 24.183917 Si / 1000 Ang^3
#
#
#
# Elastic Constant Matrix: (Units=GPa)
#
#
# Indices 1 2 3 4 5 6 
#
# 1 136.5285 53.4333 65.9054 -20.9441 34.2095 0.8463
# 2 53.4333 217.5873 51.8607 -6.7031 19.0586 -13.3327
# 3 65.9054 51.8607 121.9762 13.6361 24.0422 -19.8374
# 4 -20.9441 -6.7031 13.6361 60.5960 -9.3198 1.0638
# 5 34.2095 19.0586 24.0422 -9.3198 49.5024 -1.0338
# 6 0.8463 -13.3327 -19.8374 1.0638 -1.0338 36.7161
#
#
#
# Elastic Compliance Matrix: (Units=1/GPa)
#
#
# Indices 1 2 3 4 5 6 
#
# 1 0.013228 -0.001301 -0.007175 0.005479 -0.004227 -0.004932
# 2 -0.001301 0.005356 -0.001329 0.000355 -0.000425 0.001234
# 3 -0.007175 -0.001329 0.015298 -0.006680 -0.003049 0.008056
# 4 0.005479 0.000355 -0.006680 0.020487 0.003092 -0.004113
# 5 -0.004227 -0.000425 -0.003049 0.003092 0.025326 -0.001081
# 6 -0.004932 0.001234 0.008056 -0.004113 -0.001081 0.032239
#
#
# Mechanical properties :
#
#
# Convention : Reuss Voigt Hill
#
# Bulk Modulus (GPa) = 70.07646 90.94342 80.50994
# Shear Modulus (GPa) = 36.68301 49.68907 43.18604
#
# Velocity S-wave (km/s) = 3.89888 4.53772 4.23038
# Velocity P-wave (km/s) = 7.02195 8.07101 7.56468
#
# Compressibility (1/GPa) = 0.01427013
#
# Stress axis : x y z
#
# Youngs Moduli (GPa) = 75.59916 186.70561 65.36630
#
# Poissons Ratio (x) = 0.24297 0.46902
# Poissons Ratio (y) = 0.09838 0.08689
# Poissons Ratio (z) = 0.54245 0.24819
#
# Static dielectric constant tensor:
#      x y z
#    x 1.923350 -0.037520 -0.012800 
#    y -0.037520 1.817160 -0.049370 
#    z -0.012800 -0.049370 1.962500 
# 
# From -- ./inp_files/177118.got.cif
#   From: 2010.05.17/outbox.cif.g08.bks.cpg/sg2_89_cif.got.tgz:177118.got - 2010.06.03 11:33:40.
