data_PCOD9070821
_publ_section_title
;
Structure prediction by ZEFSAII (Michael W. Deem and Ramdas Pophale) SiO2 
 PCOD9070821
Probable space group: P -1
;
_chemical_formula_sum "Si O2"
_cell_formula_units_Z 16
_cell_length_a 15.534396
_cell_length_b 9.189924
_cell_length_c 8.509795
_cell_angle_alpha 81.101944
_cell_angle_beta 109.852719
_cell_angle_gamma 47.922855
_cell_volume 709.696498
_symmetry_space_group_name_H-M "P -1"
_symmetry_group_IT_number 2
_symmetry_cell_setting 'triclinic'
loop_
_space_group_symop_operation_xyz
x,y,z
-x,-y,-z
loop_
_atom_site_type_symbol
_atom_site_label
_atom_site_fract_x
_atom_site_fract_y
_atom_site_fract_z
Si Si1 0.240637 0.013566 0.071014
Si Si2 0.229552 0.590787 0.864498
Si Si3 0.031158 0.092984 0.121260
Si Si4 0.487012 0.862532 0.419242
Si Si5 0.782030 0.146421 0.430538
Si Si6 0.637698 0.788066 0.228390
Si Si7 0.453220 0.467175 0.238977
Si Si8 0.151943 0.226375 0.631893
O O1 0.099185 0.141648 0.058290
O O2 0.328939 0.027332 0.218344
O O3 0.345276 0.737700 0.167483
O O4 0.199134 0.113904 0.853465
O O5 0.178258 0.790196 0.692058
O O6 0.255426 0.427176 0.788292
O O7 0.115881 0.692313 0.910971
O O8 0.377891 0.463881 0.057071
O O9 0.151678 0.892121 0.355980
O O10 0.000000 0.000000 0.000000
O O11 0.590509 0.746357 0.350902
O O12 0.524421 0.674897 0.580711
O O13 0.500000 0.000000 0.500000
O O14 0.608742 0.337671 0.304708
O O15 0.854064 0.902613 0.467019
O O16 0.718880 0.829090 0.336079
O O17 0.500000 0.000000 0.000000
O O18 0.000000 0.500000 0.500000
#
# Coordination Sequence:
#
# PCOD9070821 Si02
#       8
#     2   2   2   2   2   2   2   2
#     4  12  26  49  77 114 152 200 256 321 378 454
#     4  12  26  45  76 113 154 199 255 314 375 458
#     4  12  26  47  72 111 158 193 250 310 382 456
#     4  12  26  47  77 114 157 196 251 318 389 450
#     4  12  25  47  77 113 147 199 258 316 379 454
#     4  12  26  47  76 111 155 197 257 317 375 453
#     4  12  25  46  80 116 149 195 258 323 384 445
#     4  12  27  50  74 109 156 206 252 308 389 462
#
# _framework density 22.544851000000001
#
# number of rings (size 3 to 8) (size 9 to 14) (size 15 to 20)
#    0.000    0.000    5.000    4.875    1.750    2.000 
#    0.000    3.750    0.000    0.000    0.000    0.000 
#    0.000    0.000    0.000    0.000    0.000    0.000 
#
# Total GULP energy -89689.916854 kJ/mol
# GULP energy per Si atom -5605.619803 kJ/mol
# Density = 2.249354 g / cm^3
# Si number density = 22.544851 Si / 1000 Ang^3
#
#
#
# Elastic Constant Matrix: (Units=GPa)
#
#
# Indices 1 2 3 4 5 6 
#
# 1 127.7828 36.5238 36.6742 5.5437 -3.7463 -15.6674
# 2 36.5238 114.2445 15.0841 0.4666 0.8609 -3.4414
# 3 36.6742 15.0841 112.7670 14.1957 9.0640 5.9620
# 4 5.5437 0.4666 14.1957 39.8227 0.6800 0.0902
# 5 -3.7463 0.8609 9.0640 0.6800 36.5826 3.3500
# 6 -15.6674 -3.4414 5.9620 0.0902 3.3500 33.5999
#
#
#
# Elastic Compliance Matrix: (Units=1/GPa)
#
#
# Indices 1 2 3 4 5 6 
#
# 1 0.010200 -0.002686 -0.003306 -0.000246 0.001481 0.004921
# 2 -0.002686 0.009666 -0.000433 0.000422 -0.000389 -0.000148
# 3 -0.003306 -0.000433 0.010804 -0.003334 -0.002648 -0.003230
# 4 -0.000246 0.000422 -0.003334 0.026324 0.000263 0.000423
# 5 0.001481 -0.000389 -0.002648 0.000263 0.028303 -0.001702
# 6 0.004921 -0.000148 -0.003230 0.000423 -0.001702 0.032783
#
#
# Mechanical properties :
#
#
# Convention : Reuss Voigt Hill
#
# Bulk Modulus (GPa) = 56.12085 59.03982 57.58033
# Shear Modulus (GPa) = 36.53081 39.76851 38.14966
#
# Velocity S-wave (km/s) = 4.02974 4.20452 4.11806
# Velocity P-wave (km/s) = 6.82633 7.05799 6.94313
#
# Compressibility (1/GPa) = 0.01781869
#
# Stress axis : x y z
#
# Youngs Moduli (GPa) = 98.04043 103.45620 92.55623
#
# Poissons Ratio (x) = 0.27791 0.30600
# Poissons Ratio (y) = 0.26337 0.04011
# Poissons Ratio (z) = 0.32413 0.04483
#
# Static dielectric constant tensor:
#      x y z
#    x 1.812020 0.003670 0.012140 
#    y 0.003670 1.831530 -0.020170 
#    z 0.012140 -0.020170 1.830540 
# 
# From -- ./inp_files/298301.got.cif
#   From: 2010.05.17/outbox.cif.g08.bks.cpg/sg2_150_cif.got.tgz:298301.got - 2010.06.03 11:33:40.
