data_PCOD9070281
_publ_section_title
;
Structure prediction by ZEFSAII (Michael W. Deem and Ramdas Pophale) SiO2 
 PCOD9070281
Probable space group: P -1
;
_chemical_formula_sum "Si O2"
_cell_formula_units_Z 13
_cell_length_a 8.535542
_cell_length_b 13.690046
_cell_length_c 8.749847
_cell_angle_alpha 74.164671
_cell_angle_beta 137.649132
_cell_angle_gamma 127.246882
_cell_volume 518.481643
_symmetry_space_group_name_H-M "P -1"
_symmetry_group_IT_number 2
_symmetry_cell_setting 'triclinic'
loop_
_space_group_symop_operation_xyz
x,y,z
-x,-y,-z
loop_
_atom_site_type_symbol
_atom_site_label
_atom_site_fract_x
_atom_site_fract_y
_atom_site_fract_z
Si Si1 0.190320 0.939727 0.385903
Si Si2 0.294053 0.184747 0.470706
Si Si3 0.047556 0.637966 0.067000
Si Si4 0.789675 0.425585 0.233529
Si Si5 0.500000 0.500000 0.500000
Si Si6 0.006812 0.271972 0.418702
Si Si7 0.216144 0.240185 0.057637
O O1 0.075475 0.811808 0.452748
O O2 0.500000 0.000000 0.500000
O O3 0.216360 0.046102 0.464585
O O4 0.940152 0.888137 0.099172
O O5 0.603762 0.289605 0.737604
O O6 0.042988 0.190098 0.356570
O O7 0.351309 0.237010 0.315320
O O8 0.922473 0.525595 0.148613
O O9 0.823089 0.580934 0.787601
O O10 0.031873 0.745258 0.083091
O O11 0.463373 0.363082 0.083424
O O12 0.000000 0.500000 0.500000
O O13 0.777228 0.302566 0.234236
O O14 0.322168 0.415429 0.564461
#
# Coordination Sequence:
#
# PCOD9070281 Si02
#       7
#     2   2   2   2   1   2   2
#     4  12  26  51  81 111 157 211 267 323 383 468
#     4  12  26  50  76 114 156 203 259 329 390 467
#     4  12  25  48  78 111 161 199 263 320 394 463
#     4  12  24  46  80 117 156 207 264 324 395 470
#     4  12  26  50  74 116 156 206 250 326 396 464
#     4  12  27  49  77 118 155 203 262 319 402 455
#     4  12  24  50  77 115 153 206 266 320 393 464
#
# _framework density 25.07321
#
# number of rings (size 3 to 8) (size 9 to 14) (size 15 to 20)
#    0.000    0.000    4.615    6.000    0.000    3.692 
#    0.000    3.846    0.000    0.000    0.000    0.000 
#    0.000    0.000    0.000    0.000    0.000    0.000 
#
# Total GULP energy -72525.913340 kJ/mol
# GULP energy per Si atom -5578.916411 kJ/mol
# Density = 2.501614 g / cm^3
# Si number density = 25.073210 Si / 1000 Ang^3
#
#
#
# Elastic Constant Matrix: (Units=GPa)
#
#
# Indices 1 2 3 4 5 6 
#
# 1 90.9352 21.7076 29.8135 5.4553 -5.0376 6.0710
# 2 21.7076 114.2506 41.3932 -19.7409 -14.3791 15.5130
# 3 29.8135 41.3932 138.6403 10.6160 -26.7243 -7.4677
# 4 5.4553 -19.7409 10.6160 40.1363 2.2064 -2.6519
# 5 -5.0376 -14.3791 -26.7243 2.2064 27.7121 -3.1741
# 6 6.0710 15.5130 -7.4677 -2.6519 -3.1741 38.3174
#
#
#
# Elastic Compliance Matrix: (Units=1/GPa)
#
#
# Indices 1 2 3 4 5 6 
#
# 1 0.012349 -0.001727 -0.002261 -0.002007 -0.000890 -0.001911
# 2 -0.001727 0.012567 -0.003946 0.007060 0.001268 -0.004990
# 3 -0.002261 -0.003946 0.011296 -0.004831 0.009347 0.004597
# 4 -0.002007 0.007060 -0.004831 0.030041 -0.003951 -0.001730
# 5 -0.000890 0.001268 0.009347 -0.003951 0.046485 0.005027
# 6 -0.001911 -0.004990 0.004597 -0.001730 0.005027 0.029613
#
#
# Mechanical properties :
#
#
# Convention : Reuss Voigt Hill
#
# Bulk Modulus (GPa) = 49.14956 58.85052 54.00004
# Shear Modulus (GPa) = 30.30291 37.96063 34.13177
#
# Velocity S-wave (km/s) = 3.48023 3.89523 3.69356
# Velocity P-wave (km/s) = 5.98284 6.61459 6.30663
#
# Compressibility (1/GPa) = 0.02034606
#
# Stress axis : x y z
#
# Youngs Moduli (GPa) = 80.97893 79.57159 88.52383
#
# Poissons Ratio (x) = 0.13738 0.20015
# Poissons Ratio (y) = 0.13981 0.34930
# Poissons Ratio (z) = 0.18309 0.31397
#
# Static dielectric constant tensor:
#      x y z
#    x 2.034850 -0.056370 -0.024360 
#    y -0.056370 2.038020 -0.019790 
#    z -0.024360 -0.019790 1.952190 
# 
# From -- ./inp_files/201208.got.cif
#   From: 2010.05.17/outbox.cif.g08.bks.cpg/sg2_101_cif.got.tgz:201208.got - 2010.06.03 11:33:40.
