data_PCOD9070410
_publ_section_title
;
Structure prediction by ZEFSAII (Michael W. Deem and Ramdas Pophale) SiO2 
 PCOD9070410
Probable space group: P -1
;
_chemical_formula_sum "Si O2"
_cell_formula_units_Z 14
_cell_length_a 12.023506
_cell_length_b 8.605527
_cell_length_c 17.312374
_cell_angle_alpha 143.754723
_cell_angle_beta 37.452607
_cell_angle_gamma 129.826130
_cell_volume 644.035553
_symmetry_space_group_name_H-M "P -1"
_symmetry_group_IT_number 2
_symmetry_cell_setting 'triclinic'
loop_
_space_group_symop_operation_xyz
x,y,z
-x,-y,-z
loop_
_atom_site_type_symbol
_atom_site_label
_atom_site_fract_x
_atom_site_fract_y
_atom_site_fract_z
Si Si1 0.404421 0.515853 0.848346
Si Si2 0.211679 0.855971 0.961757
Si Si3 0.712072 0.428892 0.353438
Si Si4 0.204653 0.976179 0.720805
Si Si5 0.804026 0.355421 0.559227
Si Si6 0.465665 0.756802 0.071119
Si Si7 0.190925 0.001955 0.438027
O O1 0.289121 0.649469 0.897959
O O2 0.344467 0.209916 0.759554
O O3 0.622878 0.533942 0.720865
O O4 0.369709 0.662807 0.007448
O O5 0.238145 0.744317 0.816841
O O6 0.340846 0.109578 0.000573
O O7 0.000541 0.918192 0.114909
O O8 0.500000 0.500000 0.500000
O O9 0.802487 0.712994 0.413000
O O10 0.764304 0.267635 0.336389
O O11 0.219845 0.867966 0.582401
O O12 0.794226 0.221576 0.594928
O O13 0.000000 0.500000 0.500000
O O14 0.346748 0.954228 0.268388
O O15 0.500000 0.500000 0.000000
O O16 0.000000 0.000000 0.500000
#
# Coordination Sequence:
#
# PCOD9070410 Si02
#       7
#     2   2   2   2   2   2   2
#     4  12  26  48  74 103 147 186 235 297 351 420
#     4  12  27  46  75 106 142 189 237 293 352 421
#     4  12  24  48  72 105 142 184 236 288 355 417
#     4  12  27  46  76 106 144 185 238 295 351 421
#     4  12  26  48  72 105 141 186 239 290 355 420
#     4  12  26  48  71 104 145 187 238 289 356 414
#     4  12  28  44  74 104 143 187 234 295 350 422
#
# _framework density 21.737929999999999
#
# number of rings (size 3 to 8) (size 9 to 14) (size 15 to 20)
#    0.000    0.000    2.857    6.857    8.000    0.000 
#    0.000    0.000    0.000    0.000    0.000    0.000 
#    0.000    0.000    0.000    0.000    0.000    0.000 
#
# Total GULP energy -78429.141555 kJ/mol
# GULP energy per Si atom -5602.081540 kJ/mol
# Density = 2.168845 g / cm^3
# Si number density = 21.737930 Si / 1000 Ang^3
#
#
#
# Elastic Constant Matrix: (Units=GPa)
#
#
# Indices 1 2 3 4 5 6 
#
# 1 98.4442 10.4850 28.1109 -18.5360 -7.0012 4.5809
# 2 10.4850 75.8403 4.5726 2.0358 -3.7858 13.0265
# 3 28.1109 4.5726 92.7405 -18.2160 1.6556 5.4244
# 4 -18.5360 2.0358 -18.2160 38.4751 4.2701 4.6012
# 5 -7.0012 -3.7858 1.6556 4.2701 63.0140 6.3383
# 6 4.5809 13.0265 5.4244 4.6012 6.3383 35.4612
#
#
#
# Elastic Compliance Matrix: (Units=1/GPa)
#
#
# Indices 1 2 3 4 5 6 
#
# 1 0.012082 -0.001325 -0.002606 0.004707 0.001163 -0.001494
# 2 -0.001325 0.014364 -0.000231 -0.001035 0.001312 -0.005170
# 3 -0.002606 -0.000231 0.012722 0.005111 -0.000778 -0.002049
# 4 0.004707 -0.001035 0.005111 0.031460 -0.001317 -0.004856
# 5 0.001163 0.001312 -0.000778 -0.001317 0.016519 -0.003295
# 6 -0.001494 -0.005170 -0.002049 -0.004856 -0.003295 0.031825
#
#
# Mechanical properties :
#
#
# Convention : Reuss Voigt Hill
#
# Bulk Modulus (GPa) = 32.42095 39.26244 35.84169
# Shear Modulus (GPa) = 36.34390 42.31383 39.32886
#
# Velocity S-wave (km/s) = 4.09334 4.41675 4.25812
# Velocity P-wave (km/s) = 6.10634 6.64163 6.37960
#
# Compressibility (1/GPa) = 0.03084426
#
# Stress axis : x y z
#
# Youngs Moduli (GPa) = 82.77042 69.61840 78.60618
#
# Poissons Ratio (x) = 0.09224 0.20482
# Poissons Ratio (y) = 0.10966 0.01815
# Poissons Ratio (z) = 0.21567 0.01608
#
# Static dielectric constant tensor:
#      x y z
#    x 1.762310 0.021050 -0.045740 
#    y 0.021050 1.788460 -0.059890 
#    z -0.045740 -0.059890 1.836350 
# 
# From -- ./inp_files/157444.got.cif
#   From: 2010.05.17/outbox.cif.g08.bks.cpg/sg2_79_cif.got.tgz:157444.got - 2010.06.03 11:33:40.
