data_PCOD9070657
_publ_section_title
;
Structure prediction by ZEFSAII (Michael W. Deem and Ramdas Pophale) SiO2 
 PCOD9070657
Probable space group: P -1
;
_chemical_formula_sum "Si O2"
_cell_formula_units_Z 16
_cell_length_a 5.567577
_cell_length_b 15.025200
_cell_length_c 11.719938
_cell_angle_alpha 50.280071
_cell_angle_beta 70.676688
_cell_angle_gamma 90.876403
_cell_volume 676.018359
_symmetry_space_group_name_H-M "P -1"
_symmetry_group_IT_number 2
_symmetry_cell_setting 'triclinic'
loop_
_space_group_symop_operation_xyz
x,y,z
-x,-y,-z
loop_
_atom_site_type_symbol
_atom_site_label
_atom_site_fract_x
_atom_site_fract_y
_atom_site_fract_z
Si Si1 0.941127 0.755825 0.156658
Si Si2 0.045059 0.050537 0.577848
Si Si3 0.555786 0.138974 0.841934
Si Si4 0.955192 0.811609 0.872634
Si Si5 0.770403 0.250466 0.496251
Si Si6 0.517414 0.394893 0.990787
Si Si7 0.001048 0.510733 0.352934
Si Si8 0.408138 0.785659 0.678133
O O1 0.686131 0.805000 0.141688
O O2 0.156421 0.794506 0.194599
O O3 0.846347 0.610146 0.281640
O O4 0.096281 0.805854 0.974730
O O5 0.362999 0.099490 0.501471
O O6 0.973778 0.175302 0.500626
O O7 0.000000 0.000000 0.500000
O O8 0.884441 0.937959 0.774746
O O9 0.568183 0.156533 0.689055
O O10 0.500000 0.000000 0.000000
O O11 0.736980 0.683083 0.981094
O O12 0.169545 0.828231 0.726502
O O13 0.679625 0.293140 0.356793
O O14 0.873213 0.372769 0.449948
O O15 0.535038 0.290891 0.163253
O O16 0.500000 0.500000 0.000000
O O17 0.748864 0.442865 0.817041
O O18 0.000000 0.500000 0.500000
#
# Coordination Sequence:
#
# PCOD9070657 Si02
#       8
#     2   2   2   2   2   2   2   2
#     4  12  28  52  82 116 160 219 274 337 411 497
#     4  12  25  47  73 115 161 201 264 335 416 495
#     4  12  29  53  82 119 163 214 276 341 415 496
#     4  12  26  46  76 112 154 209 264 332 412 488
#     4  12  29  47  77 117 156 209 271 335 413 490
#     4  12  27  48  77 113 166 213 276 341 410 499
#     4  12  27  54  80 115 165 221 284 339 416 494
#     4  12  25  44  74 114 153 204 263 333 411 486
#
# _framework density 23.667998000000001
#
# number of rings (size 3 to 8) (size 9 to 14) (size 15 to 20)
#    0.000    0.000    5.000    3.750    5.250    2.500 
#    2.250    0.000    0.000    0.000    0.000    0.000 
#    0.000    0.000    0.000    0.000    0.000    0.000 
#
# Total GULP energy -89127.236889 kJ/mol
# GULP energy per Si atom -5570.452306 kJ/mol
# Density = 2.361413 g / cm^3
# Si number density = 23.667998 Si / 1000 Ang^3
#
#
#
# Elastic Constant Matrix: (Units=GPa)
#
#
# Indices 1 2 3 4 5 6 
#
# 1 60.9544 24.9266 15.4370 0.1127 14.6893 -9.6224
# 2 24.9266 88.8798 21.2654 -2.6896 20.5475 -20.0736
# 3 15.4370 21.2654 120.8099 13.3067 26.7407 -11.8251
# 4 0.1127 -2.6896 13.3067 58.5770 1.1876 17.0362
# 5 14.6893 20.5475 26.7407 1.1876 34.9771 10.8323
# 6 -9.6224 -20.0736 -11.8251 17.0362 10.8323 30.6632
#
#
#
# Elastic Compliance Matrix: (Units=1/GPa)
#
#
# Indices 1 2 3 4 5 6 
#
# 1 0.022536 0.001348 0.003602 -0.006044 -0.018795 0.019341
# 2 0.001348 0.023808 0.006852 -0.010002 -0.030260 0.034899
# 3 0.003602 0.006852 0.016135 -0.010653 -0.025839 0.026885
# 4 -0.006044 -0.010002 -0.010653 0.029781 0.027576 -0.038841
# 5 -0.018795 -0.030260 -0.025839 0.027576 0.099787 -0.086245
# 6 0.019341 0.034899 0.026885 -0.038841 -0.086245 0.123943
#
#
# Mechanical properties :
#
#
# Convention : Reuss Voigt Hill
#
# Bulk Modulus (GPa) = 11.61640 43.76687 27.69164
# Shear Modulus (GPa) = 15.57245 38.77781 27.17513
#
# Velocity S-wave (km/s) = 2.56784 4.05212 3.39216
# Velocity P-wave (km/s) = 3.70277 6.35807 5.20267
#
# Compressibility (1/GPa) = 0.08608520
#
# Stress axis : x y z
#
# Youngs Moduli (GPa) = 44.37368 42.00232 61.97610
#
# Poissons Ratio (x) = -0.05664 -0.22325
# Poissons Ratio (y) = -0.05983 -0.42469
# Poissons Ratio (z) = -0.15984 -0.28782
#
# Static dielectric constant tensor:
#      x y z
#    x 10.947220 18.113300 -12.264030 
#    y 18.113300 38.495230 -24.732520 
#    z -12.264030 -24.732520 18.656670 
# 
# From -- ./inp_files/367470.got.cif
#   From: 2010.05.17/outbox.cif.g08.bks.cpg/sg2_184_cif.got.tgz:367470.got - 2010.06.03 11:33:40.
