data_PCOD9070215
_publ_section_title
;
Structure prediction by ZEFSAII (Michael W. Deem and Ramdas Pophale) SiO2 
 PCOD9070215
Probable space group: P -1
;
_chemical_formula_sum "Si O2"
_cell_formula_units_Z 16
_cell_length_a 9.221869
_cell_length_b 8.401470
_cell_length_c 11.580049
_cell_angle_alpha 111.323420
_cell_angle_beta 124.942431
_cell_angle_gamma 62.801742
_cell_volume 647.720164
_symmetry_space_group_name_H-M "P -1"
_symmetry_group_IT_number 2
_symmetry_cell_setting 'triclinic'
loop_
_space_group_symop_operation_xyz
x,y,z
-x,-y,-z
loop_
_atom_site_type_symbol
_atom_site_label
_atom_site_fract_x
_atom_site_fract_y
_atom_site_fract_z
Si Si1 0.695472 0.216252 0.517993
Si Si2 0.283237 0.063223 0.937563
Si Si3 0.373827 0.134361 0.596769
Si Si4 0.051533 0.371100 0.348277
Si Si5 0.699732 0.301617 0.271774
Si Si6 0.929774 0.767677 0.317402
Si Si7 0.977485 0.806404 0.954560
Si Si8 0.358297 0.639243 0.220524
O O1 0.670420 0.267398 0.385080
O O2 0.653771 0.358506 0.643342
O O3 0.921769 0.126718 0.603958
O O4 0.587727 0.076715 0.466008
O O5 0.169141 0.226890 0.847377
O O6 0.218474 0.140413 0.053602
O O7 0.244143 0.882252 0.826508
O O8 0.500000 0.000000 0.000000
O O9 0.239610 0.155075 0.652376
O O10 0.544331 0.207253 0.720723
O O11 0.235544 0.258821 0.471213
O O12 0.868977 0.379408 0.343187
O O13 0.044851 0.570244 0.362187
O O14 0.032602 0.279531 0.194917
O O15 0.503850 0.453408 0.190175
O O16 0.155184 0.691236 0.082749
O O17 0.000000 0.000000 0.000000
#
# Coordination Sequence:
#
# PCOD9070215 Si02
#       8
#     2   2   2   2   2   2   2   2
#     4  12  24  46  75 107 150 190 243 312 369 433
#     4  12  29  49  76 106 148 197 249 296 376 447
#     4  12  24  46  77 111 142 199 250 303 371 438
#     4  12  26  45  79 108 150 197 249 304 367 438
#     4  12  25  47  75 110 147 195 243 310 369 432
#     4  12  24  46  76 106 143 193 250 306 367 434
#     4  12  28  50  75 107 153 195 242 304 371 440
#     4  12  28  46  75 113 152 190 250 306 369 440
#
# _framework density 24.702029
#
# number of rings (size 3 to 8) (size 9 to 14) (size 15 to 20)
#    0.000    0.000    6.250    3.750    3.500    3.000 
#    0.000    0.000    0.000    0.000    0.000    0.000 
#    0.000    0.000    0.000    0.000    0.000    0.000 
#
# Total GULP energy -89557.015802 kJ/mol
# GULP energy per Si atom -5597.313488 kJ/mol
# Density = 2.464581 g / cm^3
# Si number density = 24.702029 Si / 1000 Ang^3
#
#
#
# Elastic Constant Matrix: (Units=GPa)
#
#
# Indices 1 2 3 4 5 6 
#
# 1 132.8385 20.8431 25.4286 -7.2496 3.9272 -16.0931
# 2 20.8431 71.0301 12.8430 2.2884 -11.4324 -6.2178
# 3 25.4286 12.8430 79.5331 10.9314 -15.4744 -3.0389
# 4 -7.2496 2.2884 10.9314 32.4082 -8.9558 -2.4664
# 5 3.9272 -11.4324 -15.4744 -8.9558 45.4779 6.5091
# 6 -16.0931 -6.2178 -3.0389 -2.4664 6.5091 41.9436
#
#
#
# Elastic Compliance Matrix: (Units=1/GPa)
#
#
# Indices 1 2 3 4 5 6 
#
# 1 0.009170 -0.002270 -0.003303 0.002925 -0.002410 0.003488
# 2 -0.002270 0.015588 -0.001031 -0.000203 0.003611 0.000793
# 3 -0.003303 -0.001031 0.015261 -0.004673 0.004483 -0.001285
# 4 0.002925 -0.000203 -0.004673 0.034533 0.004611 0.002069
# 5 -0.002410 0.003611 0.004483 0.004611 0.026088 -0.003842
# 6 0.003488 0.000793 -0.001285 0.002069 -0.003842 0.025922
#
#
# Mechanical properties :
#
#
# Convention : Reuss Voigt Hill
#
# Bulk Modulus (GPa) = 37.29731 44.62567 40.96149
# Shear Modulus (GPa) = 33.62324 38.91839 36.27081
#
# Velocity S-wave (km/s) = 3.69338 3.97358 3.83604
# Velocity P-wave (km/s) = 5.77233 6.25758 6.01984
#
# Compressibility (1/GPa) = 0.02681158
#
# Stress axis : x y z
#
# Youngs Moduli (GPa) = 109.05225 64.15125 65.52601
#
# Poissons Ratio (x) = 0.14565 0.21642
# Poissons Ratio (y) = 0.24759 0.06753
# Poissons Ratio (z) = 0.36018 0.06612
#
# Static dielectric constant tensor:
#      x y z
#    x 2.011740 0.042970 -0.005400 
#    y 0.042970 1.982060 0.063840 
#    z -0.005400 0.063840 2.012050 
# 
# From -- ./inp_files/383022.got.cif
#   From: 2010.05.17/outbox.cif.g08.bks.cpg/sg2_192_cif.got.tgz:383022.got - 2010.06.03 11:33:40.
