data_PCOD9070868
_publ_section_title
;
Structure prediction by ZEFSAII (Michael W. Deem and Ramdas Pophale) SiO2 
 PCOD9070868
Probable space group: P -1
;
_chemical_formula_sum "Si O2"
_cell_formula_units_Z 14
_cell_length_a 19.155824
_cell_length_b 9.351829
_cell_length_c 8.588414
_cell_angle_alpha 109.418098
_cell_angle_beta 31.476654
_cell_angle_gamma 121.157037
_cell_volume 666.782702
_symmetry_space_group_name_H-M "P -1"
_symmetry_group_IT_number 2
_symmetry_cell_setting 'triclinic'
loop_
_space_group_symop_operation_xyz
x,y,z
-x,-y,-z
loop_
_atom_site_type_symbol
_atom_site_label
_atom_site_fract_x
_atom_site_fract_y
_atom_site_fract_z
Si Si1 0.449775 0.642498 0.613434
Si Si2 0.989532 0.917628 0.320582
Si Si3 0.419110 0.735966 0.356399
Si Si4 0.869964 0.516827 0.352806
Si Si5 0.697008 0.996124 0.400233
Si Si6 0.834198 0.373690 0.707976
Si Si7 0.735233 0.992451 0.693220
O O1 0.500000 0.500000 0.500000
O O2 0.460515 0.697471 0.433573
O O3 0.554671 0.811967 0.573427
O O4 0.279474 0.576034 0.970330
O O5 0.928824 0.712878 0.363129
O O6 0.000000 0.000000 0.500000
O O7 0.871436 0.950773 0.455041
O O8 0.155626 0.997178 0.957435
O O9 0.288200 0.560064 0.468145
O O10 0.341379 0.860897 0.548774
O O11 0.574488 0.839375 0.001704
O O12 0.835237 0.405093 0.533937
O O13 0.000000 0.500000 0.000000
O O14 0.722650 0.021145 0.544815
O O15 0.776701 0.170988 0.768102
O O16 0.000000 0.500000 0.500000
#
# Coordination Sequence:
#
# PCOD9070868 Si02
#       7
#     2   2   2   2   2   2   2
#     4  12  30  45  72 109 144 188 239 302 360 426
#     4  12  28  45  74 109 149 190 241 296 358 424
#     4  12  25  49  77 100 146 192 239 293 363 433
#     4  12  25  47  75 107 142 192 242 295 357 426
#     4  12  25  50  73 103 146 192 239 289 364 434
#     4  12  26  45  74 105 146 184 242 294 358 429
#     4  12  26  47  74 108 141 192 237 297 358 426
#
# _framework density 20.996345000000002
#
# number of rings (size 3 to 8) (size 9 to 14) (size 15 to 20)
#    0.000    0.000    4.286    4.714   10.000    0.571 
#    0.000    0.000    0.000    0.000    0.000    0.000 
#    0.000    0.000    0.000    0.000    0.000    0.000 
#
# Total GULP energy -78415.997642 kJ/mol
# GULP energy per Si atom -5601.142689 kJ/mol
# Density = 2.094856 g / cm^3
# Si number density = 20.996345 Si / 1000 Ang^3
#
#
#
# Elastic Constant Matrix: (Units=GPa)
#
#
# Indices 1 2 3 4 5 6 
#
# 1 117.8538 42.8721 26.7578 10.7469 -3.4661 -7.7533
# 2 42.8721 119.5007 31.9786 6.2494 -9.1565 7.9802
# 3 26.7578 31.9786 145.5940 7.4945 -12.0722 -11.5172
# 4 10.7469 6.2494 7.4945 29.3002 5.0536 -8.9268
# 5 -3.4661 -9.1565 -12.0722 5.0536 41.8713 -5.7940
# 6 -7.7533 7.9802 -11.5172 -8.9268 -5.7940 42.7023
#
#
#
# Elastic Compliance Matrix: (Units=1/GPa)
#
#
# Indices 1 2 3 4 5 6 
#
# 1 0.010268 -0.003432 -0.000835 -0.002326 0.000395 0.001848
# 2 -0.003432 0.010466 -0.001730 -0.001736 0.001268 -0.003236
# 3 -0.000835 -0.001730 0.007829 -0.000991 0.002259 0.002382
# 4 -0.002326 -0.001736 -0.000991 0.038544 -0.004531 0.007078
# 5 0.000395 0.001268 0.002259 -0.004531 0.025806 0.002998
# 6 0.001848 -0.003236 0.002382 0.007078 0.002998 0.026887
#
#
# Mechanical properties :
#
#
# Convention : Reuss Voigt Hill
#
# Bulk Modulus (GPa) = 60.34798 65.12950 62.73874
# Shear Modulus (GPa) = 36.41226 41.53077 38.97151
#
# Velocity S-wave (km/s) = 4.16891 4.45230 4.31293
# Velocity P-wave (km/s) = 7.20955 7.58402 7.39916
#
# Compressibility (1/GPa) = 0.01657056
#
# Stress axis : x y z
#
# Youngs Moduli (GPa) = 97.38645 95.54460 127.73829
#
# Poissons Ratio (x) = 0.32791 0.10662
# Poissons Ratio (y) = 0.33423 0.22094
# Poissons Ratio (z) = 0.08128 0.16526
#
# Static dielectric constant tensor:
#      x y z
#    x 1.732400 0.005990 0.013020 
#    y 0.005990 1.755500 0.003910 
#    z 0.013020 0.003910 1.718150 
# 
# From -- ./inp_files/156755.got.cif
#   From: 2010.05.17/outbox.cif.g08.bks.cpg/sg2_79_cif.got.tgz:156755.got - 2010.06.03 11:33:40.
