data_PCOD9070387
_publ_section_title
;
Structure prediction by ZEFSAII (Michael W. Deem and Ramdas Pophale) SiO2 
 PCOD9070387
Probable space group: P -1
;
_chemical_formula_sum "Si O2"
_cell_formula_units_Z 13
_cell_length_a 5.934165
_cell_length_b 9.847187
_cell_length_c 10.838282
_cell_angle_alpha 62.101040
_cell_angle_beta 69.109623
_cell_angle_gamma 97.184827
_cell_volume 489.156387
_symmetry_space_group_name_H-M "P -1"
_symmetry_group_IT_number 2
_symmetry_cell_setting 'triclinic'
loop_
_space_group_symop_operation_xyz
x,y,z
-x,-y,-z
loop_
_atom_site_type_symbol
_atom_site_label
_atom_site_fract_x
_atom_site_fract_y
_atom_site_fract_z
Si Si1 0.769192 0.555730 0.791817
Si Si2 0.419313 0.146384 0.509799
Si Si3 0.759557 0.499078 0.180437
Si Si4 0.377150 0.856562 0.262668
Si Si5 0.815191 0.832578 0.050918
Si Si6 0.119365 0.100021 0.260495
Si Si7 0.000000 0.500000 0.500000
O O1 0.455747 0.480075 0.882648
O O2 0.833464 0.748093 0.724416
O O3 0.867102 0.524988 0.650712
O O4 0.946594 0.499996 0.879025
O O5 0.593260 0.320900 0.344891
O O6 0.471834 0.170354 0.634999
O O7 0.500000 0.000000 0.500000
O O8 0.115318 0.061574 0.587743
O O9 0.796364 0.660365 0.188175
O O10 0.537779 0.847477 0.115063
O O11 0.119585 0.699210 0.375046
O O12 0.345778 0.029479 0.222135
O O13 0.927923 0.835573 0.891266
O O14 0.000000 0.000000 0.000000
#
# Coordination Sequence:
#
# PCOD9070387 Si02
#       7
#     2   2   2   2   2   2   1
#     4  12  28  49  82 119 159 210 264 341 404 480
#     4  12  24  47  79 116 156 204 269 340 405 477
#     4  12  28  51  79 118 159 207 275 328 406 479
#     4  12  26  48  79 113 158 215 272 335 406 481
#     4  12  29  50  78 117 163 221 269 332 406 491
#     4  12  28  49  79 115 165 212 270 332 411 486
#     4  12  24  48  78 124 156 210 272 346 404 478
#
# _framework density 26.576369
#
# number of rings (size 3 to 8) (size 9 to 14) (size 15 to 20)
#    0.000    0.000    6.154    2.308    2.154    6.769 
#    0.000    0.000    0.000    0.000    0.000    0.000 
#    0.000    0.000    0.000    0.000    0.000    0.000 
#
# Total GULP energy -72389.551690 kJ/mol
# GULP energy per Si atom -5568.427053 kJ/mol
# Density = 2.651588 g / cm^3
# Si number density = 26.576369 Si / 1000 Ang^3
#
#
#
# Elastic Constant Matrix: (Units=GPa)
#
#
# Indices 1 2 3 4 5 6 
#
# 1 146.9709 40.5142 36.7641 1.4078 -8.1225 -9.9398
# 2 40.5142 241.7871 42.4075 -23.1916 -6.5469 -12.3558
# 3 36.7641 42.4075 60.8823 -1.8765 -7.9034 7.0477
# 4 1.4078 -23.1916 -1.8765 59.6882 6.1253 -2.4806
# 5 -8.1225 -6.5469 -7.9034 6.1253 27.5104 4.8613
# 6 -9.9398 -12.3558 7.0477 -2.4806 4.8613 50.7329
#
#
#
# Elastic Compliance Matrix: (Units=1/GPa)
#
#
# Indices 1 2 3 4 5 6 
#
# 1 0.008339 -0.000464 -0.004883 -0.000514 0.000691 0.002108
# 2 -0.000464 0.005096 -0.003507 0.002028 -0.000702 0.001804
# 3 -0.004883 -0.003507 0.023164 -0.001336 0.005672 -0.005638
# 4 -0.000514 0.002028 -0.001336 0.018042 -0.004403 0.001883
# 5 0.000691 -0.000702 0.005672 -0.004403 0.039855 -0.004858
# 6 0.002108 0.001804 -0.005638 0.001883 -0.004858 0.021904
#
#
# Mechanical properties :
#
#
# Convention : Reuss Voigt Hill
#
# Bulk Modulus (GPa) = 52.93174 76.55689 64.74431
# Shear Modulus (GPa) = 35.61119 49.58326 42.59723
#
# Velocity S-wave (km/s) = 3.66451 4.32405 4.00787
# Velocity P-wave (km/s) = 6.15345 7.33477 6.76992
#
# Compressibility (1/GPa) = 0.01889226
#
# Stress axis : x y z
#
# Youngs Moduli (GPa) = 119.91948 196.21608 43.16992
#
# Poissons Ratio (x) = 0.09100 0.21078
# Poissons Ratio (y) = 0.05561 0.15141
# Poissons Ratio (z) = 0.58552 0.68819
#
# Static dielectric constant tensor:
#      x y z
#    x 2.223580 -0.012250 0.040570 
#    y -0.012250 2.010150 0.082090 
#    z 0.040570 0.082090 1.820130 
# 
# From -- ./inp_files/360531.got.cif
#   From: 2010.05.17/outbox.cif.g08.bks.cpg/sg2_181_cif.got.tgz:360531.got - 2010.06.03 11:33:40.
