data_PCOD9070390
_publ_section_title
;
Structure prediction by ZEFSAII (Michael W. Deem and Ramdas Pophale) SiO2 
 PCOD9070390
Probable space group: P -1
;
_chemical_formula_sum "Si O2"
_cell_formula_units_Z 16
_cell_length_a 8.250646
_cell_length_b 12.222979
_cell_length_c 7.971286
_cell_angle_alpha 52.941200
_cell_angle_beta 62.930505
_cell_angle_gamma 77.477175
_cell_volume 569.371531
_symmetry_space_group_name_H-M "P -1"
_symmetry_group_IT_number 2
_symmetry_cell_setting 'triclinic'
loop_
_space_group_symop_operation_xyz
x,y,z
-x,-y,-z
loop_
_atom_site_type_symbol
_atom_site_label
_atom_site_fract_x
_atom_site_fract_y
_atom_site_fract_z
Si Si1 0.039512 0.389532 0.436659
Si Si2 0.111224 0.095762 0.725598
Si Si3 0.448810 0.304480 0.727548
Si Si4 0.550460 0.946156 0.217140
Si Si5 0.668539 0.250561 0.992550
Si Si6 0.534164 0.625725 0.730310
Si Si7 0.148426 0.903466 0.583158
Si Si8 0.976818 0.645692 0.067644
O O1 0.251823 0.380967 0.362788
O O2 0.999770 0.483216 0.208207
O O3 0.000000 0.500000 0.500000
O O4 0.439899 0.734644 0.794209
O O5 0.305430 0.145407 0.669627
O O6 0.991735 0.222118 0.606793
O O7 0.177856 0.989478 0.659063
O O8 0.000000 0.000000 0.000000
O O9 0.430236 0.135719 0.889364
O O10 0.586486 0.335851 0.793677
O O11 0.522174 0.368055 0.451238
O O12 0.239796 0.340999 0.819646
O O13 0.339432 0.915144 0.389082
O O14 0.628992 0.096588 0.089478
O O15 0.877875 0.292503 0.912078
O O16 0.500000 0.500000 0.000000
O O17 0.052330 0.750946 0.791401
O O18 0.000000 0.000000 0.500000
#
# Coordination Sequence:
#
# PCOD9070390 Si02
#       8
#     2   2   2   2   2   2   2   2
#     4  12  24  47  80 113 162 214 273 339 422 492
#     4  12  26  46  83 113 157 223 269 336 435 489
#     4  12  28  52  80 122 167 216 286 341 417 517
#     4  12  25  47  78 117 166 207 277 353 405 497
#     4  12  28  50  84 119 164 225 277 344 432 490
#     4  12  26  48  79 113 165 214 272 350 411 493
#     4  12  27  51  79 122 165 214 284 343 419 508
#     4  12  26  52  84 116 173 218 273 357 415 495
#
# _framework density 28.101157000000001
#
# number of rings (size 3 to 8) (size 9 to 14) (size 15 to 20)
#    0.000    0.000    5.000    4.500    0.000    1.500 
#    0.000    3.750    0.000    0.000    0.000    0.000 
#    0.000    0.000    0.000    0.000    0.000    0.000 
#
# Total GULP energy -89117.542934 kJ/mol
# GULP energy per Si atom -5569.846433 kJ/mol
# Density = 2.803720 g / cm^3
# Si number density = 28.101157 Si / 1000 Ang^3
#
#
#
# Elastic Constant Matrix: (Units=GPa)
#
#
# Indices 1 2 3 4 5 6 
#
# 1 184.8701 49.2263 61.7888 2.7411 20.6580 -18.9291
# 2 49.2263 161.6807 51.9186 -42.7803 -11.8998 -23.6370
# 3 61.7888 51.9186 142.6120 -32.6854 15.6622 -16.7572
# 4 2.7411 -42.7803 -32.6854 54.7490 -2.1289 0.7018
# 5 20.6580 -11.8998 15.6622 -2.1289 52.4100 7.6851
# 6 -18.9291 -23.6370 -16.7572 0.7018 7.6851 43.6084
#
#
#
# Elastic Compliance Matrix: (Units=1/GPa)
#
#
# Indices 1 2 3 4 5 6 
#
# 1 0.007577 -0.002523 -0.002807 -0.004166 -0.003103 0.001457
# 2 -0.002523 0.009905 -0.000773 0.007491 0.003299 0.003274
# 3 -0.002807 -0.000773 0.010362 0.005597 -0.002329 0.002664
# 4 -0.004166 0.007491 0.005597 0.027711 0.002275 0.003556
# 5 -0.003103 0.003299 -0.002329 0.002275 0.022494 -0.004455
# 6 0.001457 0.003274 0.002664 0.003556 -0.004455 0.027090
#
#
# Mechanical properties :
#
#
# Convention : Reuss Voigt Hill
#
# Bulk Modulus (GPa) = 63.95593 90.55890 77.25742
# Shear Modulus (GPa) = 40.79655 51.90208 46.34932
#
# Velocity S-wave (km/s) = 3.81435 4.30231 4.06565
# Velocity P-wave (km/s) = 6.49674 7.54823 7.04214
#
# Compressibility (1/GPa) = 0.01563577
#
# Stress axis : x y z
#
# Youngs Moduli (GPa) = 131.97763 100.95659 96.51098
#
# Poissons Ratio (x) = 0.25476 0.27092
# Poissons Ratio (y) = 0.33303 0.07465
# Poissons Ratio (z) = 0.37048 0.07809
#
# Static dielectric constant tensor:
#      x y z
#    x 2.687990 0.146820 0.190490 
#    y 0.146820 2.316360 -0.143470 
#    z 0.190490 -0.143470 2.601370 
# 
# From -- ./inp_files/216600.got.cif
#   From: 2010.05.17/outbox.cif.g08.bks.cpg/sg2_109_cif.got.tgz:216600.got - 2010.06.03 11:33:40.
