data_PCOD9070972
_publ_section_title
;
Structure prediction by ZEFSAII (Michael W. Deem and Ramdas Pophale) SiO2 
 PCOD9070972
Probable space group: P -1
;
_chemical_formula_sum "Si O2"
_cell_formula_units_Z 14
_cell_length_a 8.117035
_cell_length_b 9.346110
_cell_length_c 16.848768
_cell_angle_alpha 112.973502
_cell_angle_beta 111.436386
_cell_angle_gamma 32.205065
_cell_volume 625.567112
_symmetry_space_group_name_H-M "P -1"
_symmetry_group_IT_number 2
_symmetry_cell_setting 'triclinic'
loop_
_space_group_symop_operation_xyz
x,y,z
-x,-y,-z
loop_
_atom_site_type_symbol
_atom_site_label
_atom_site_fract_x
_atom_site_fract_y
_atom_site_fract_z
Si Si1 0.454193 0.932211 0.556049
Si Si2 0.131038 0.704688 0.187627
Si Si3 0.142211 0.747066 0.012338
Si Si4 0.363092 0.012501 0.247787
Si Si5 0.788651 0.377901 0.485627
Si Si6 0.030194 0.528227 0.845870
Si Si7 0.806391 0.233613 0.280961
O O1 0.113494 0.104544 0.524862
O O2 0.500000 0.000000 0.500000
O O3 0.478096 0.023066 0.656308
O O4 0.716272 0.611998 0.534836
O O5 0.100305 0.771401 0.104460
O O6 0.478200 0.481491 0.232750
O O7 0.045552 0.586541 0.158438
O O8 0.901547 0.985124 0.255077
O O9 0.500000 0.500000 0.000000
O O10 0.011464 0.681412 0.938510
O O11 0.000000 0.000000 0.000000
O O12 0.211970 0.252358 0.217669
O O13 0.079664 0.112181 0.250464
O O14 0.623453 0.729767 0.185119
O O15 0.500000 0.500000 0.500000
O O16 0.799616 0.325628 0.383666
#
# Coordination Sequence:
#
# PCOD9070972 Si02
#       7
#     2   2   2   2   2   2   2
#     4  12  26  48  70 103 138 190 241 295 346 411
#     4  12  27  46  73 106 145 181 231 292 349 416
#     4  12  25  48  76 106 140 184 231 279 351 423
#     4  12  26  45  73 102 142 187 241 286 350 418
#     4  12  28  46  71 102 145 186 238 295 356 410
#     4  12  27  46  73 108 142 183 230 294 348 414
#     4  12  26  46  71 104 142 190 237 285 352 420
#
# _framework density 22.379694000000001
#
# number of rings (size 3 to 8) (size 9 to 14) (size 15 to 20)
#    0.000    0.000    1.429    9.000    8.000    0.000 
#    0.000    4.286    0.000    0.000    0.000    0.000 
#    0.000    0.000    0.000    0.000    0.000    0.000 
#
# Total GULP energy -78520.250357 kJ/mol
# GULP energy per Si atom -5608.589311 kJ/mol
# Density = 2.232876 g / cm^3
# Si number density = 22.379694 Si / 1000 Ang^3
#
#
#
# Elastic Constant Matrix: (Units=GPa)
#
#
# Indices 1 2 3 4 5 6 
#
# 1 70.2534 9.2491 23.3694 -7.2003 9.9495 -2.9350
# 2 9.2491 133.0060 33.4177 -3.9822 4.1737 -2.4769
# 3 23.3694 33.4177 120.5283 -0.2531 10.2059 2.4021
# 4 -7.2003 -3.9822 -0.2531 41.9538 -0.1823 6.8394
# 5 9.9495 4.1737 10.2059 -0.1823 25.8850 7.0168
# 6 -2.9350 -2.4769 2.4021 6.8394 7.0168 44.0673
#
#
#
# Elastic Compliance Matrix: (Units=1/GPa)
#
#
# Indices 1 2 3 4 5 6 
#
# 1 0.016262 -0.000181 -0.002656 0.002451 -0.005627 0.001733
# 2 -0.000181 0.008125 -0.002183 0.000635 -0.000524 0.000548
# 3 -0.002656 -0.002183 0.009620 -0.000555 -0.002324 -0.000368
# 4 0.002451 0.000635 -0.000555 0.024917 0.000351 -0.003694
# 5 -0.005627 -0.000524 -0.002324 0.000351 0.043778 -0.007303
# 6 0.001733 0.000548 -0.000368 -0.003694 -0.007303 0.024595
#
#
# Mechanical properties :
#
#
# Convention : Reuss Voigt Hill
#
# Bulk Modulus (GPa) = 41.72366 50.65113 46.18740
# Shear Modulus (GPa) = 34.40534 39.56466 36.98500
#
# Velocity S-wave (km/s) = 3.92515 4.20918 4.06965
# Velocity P-wave (km/s) = 6.26310 6.80476 6.53954
#
# Compressibility (1/GPa) = 0.02396722
#
# Stress axis : x y z
#
# Youngs Moduli (GPa) = 61.49322 123.07411 103.95090
#
# Poissons Ratio (x) = 0.02232 0.27606
# Poissons Ratio (y) = 0.01115 0.22691
# Poissons Ratio (z) = 0.16331 0.26865
#
# Static dielectric constant tensor:
#      x y z
#    x 1.781900 -0.043580 -0.077450 
#    y -0.043580 1.726450 -0.092490 
#    z -0.077450 -0.092490 1.583040 
# 
# From -- ./inp_files/557101.got.cif
#   From: 2010.05.17/outbox.cif.g08.bks.cpg/sg2_279_cif.got.tgz:557101.got - 2010.06.03 11:33:40.
