data_PCOD9070414
_publ_section_title
;
Structure prediction by ZEFSAII (Michael W. Deem and Ramdas Pophale) SiO2 
 PCOD9070414
Probable space group: P -1
;
_chemical_formula_sum "Si O2"
_cell_formula_units_Z 12
_cell_length_a 5.792881
_cell_length_b 12.501648
_cell_length_c 15.526437
_cell_angle_alpha 29.324260
_cell_angle_beta 74.260632
_cell_angle_gamma 71.706645
_cell_volume 522.855094
_symmetry_space_group_name_H-M "P -1"
_symmetry_group_IT_number 2
_symmetry_cell_setting 'triclinic'
loop_
_space_group_symop_operation_xyz
x,y,z
-x,-y,-z
loop_
_atom_site_type_symbol
_atom_site_label
_atom_site_fract_x
_atom_site_fract_y
_atom_site_fract_z
Si Si1 0.098753 0.056180 0.653173
Si Si2 0.153017 0.194764 0.364229
Si Si3 0.211894 0.113576 0.944626
Si Si4 0.210961 0.526584 0.531777
Si Si5 0.517032 0.742698 0.866219
Si Si6 0.111949 0.314705 0.996444
O O1 0.193921 0.166527 0.481901
O O2 0.883244 0.231072 0.590006
O O3 0.321611 0.959643 0.759304
O O4 0.008065 0.815676 0.823132
O O5 0.366097 0.160029 0.297805
O O6 0.020545 0.442685 0.183335
O O7 0.000000 0.000000 0.500000
O O8 0.199939 0.342171 0.734287
O O9 0.132632 0.168217 0.012401
O O10 0.500000 0.000000 0.000000
O O11 0.000000 0.000000 0.000000
O O12 0.500000 0.500000 0.500000
O O13 0.000000 0.500000 0.500000
O O14 0.500000 0.500000 0.000000
O O15 0.634078 0.672588 0.995366
#
# Coordination Sequence:
#
# PCOD9070414 Si02
#       6
#     2   2   2   2   2   2
#     4  12  26  47  76 109 151 200 256 313 387 458
#     4  12  24  48  72 106 152 201 253 311 380 458
#     4  12  28  52  80 115 154 202 259 328 395 465
#     4  12  28  52  79 115 153 200 262 324 390 469
#     4  12  26  46  76 108 154 203 254 315 379 458
#     4  12  26  48  75 110 157 195 255 322 387 453
#
# _framework density 22.950911000000001
#
# number of rings (size 3 to 8) (size 9 to 14) (size 15 to 20)
#    0.000    0.000    5.000    5.000    7.000    0.000 
#    6.000    0.000    0.000    0.000    0.000    0.000 
#    0.000    0.000    0.000    0.000    0.000    0.000 
#
# Total GULP energy -66812.014717 kJ/mol
# GULP energy per Si atom -5567.667893 kJ/mol
# Density = 2.289867 g / cm^3
# Si number density = 22.950911 Si / 1000 Ang^3
#
#
#
# Elastic Constant Matrix: (Units=GPa)
#
#
# Indices 1 2 3 4 5 6 
#
# 1 120.4388 68.1102 54.6813 -8.3322 36.5624 -12.9397
# 2 68.1102 101.6570 40.8780 -3.2086 16.5120 -11.4368
# 3 54.6813 40.8780 198.8400 -5.8233 21.3269 -20.3160
# 4 -8.3322 -3.2086 -5.8233 42.6040 -8.7751 7.7510
# 5 36.5624 16.5120 21.3269 -8.7751 59.1600 -3.5700
# 6 -12.9397 -11.4368 -20.3160 7.7510 -3.5700 50.3900
#
#
#
# Elastic Compliance Matrix: (Units=1/GPa)
#
#
# Indices 1 2 3 4 5 6 
#
# 1 0.016484 -0.009082 -0.001826 0.000730 -0.006835 0.000839
# 2 -0.009082 0.016159 -0.000872 -0.000604 0.001399 0.001176
# 3 -0.001826 -0.000872 0.005955 -0.000057 -0.000681 0.001695
# 4 0.000730 -0.000604 -0.000057 0.024873 0.003212 -0.003571
# 5 -0.006835 0.001399 -0.000681 0.003212 0.021418 -0.000689
# 6 0.000839 0.001176 0.001695 -0.003571 -0.000689 0.021511
#
#
# Mechanical properties :
#
#
# Convention : Reuss Voigt Hill
#
# Bulk Modulus (GPa) = 66.49901 83.14165 74.82033
# Shear Modulus (GPa) = 37.04480 47.58189 42.31334
#
# Velocity S-wave (km/s) = 4.02193 4.55818 4.29843
# Velocity P-wave (km/s) = 7.11374 8.00045 7.57009
#
# Compressibility (1/GPa) = 0.01503782
#
# Stress axis : x y z
#
# Youngs Moduli (GPa) = 60.66584 61.88591 167.92518
#
# Poissons Ratio (x) = 0.56207 0.30658
# Poissons Ratio (y) = 0.55099 0.14641
# Poissons Ratio (z) = 0.11076 0.05396
#
# Static dielectric constant tensor:
#      x y z
#    x 2.213560 -0.132270 -0.186730 
#    y -0.132270 1.827530 -0.028380 
#    z -0.186730 -0.028380 1.754770 
# 
# From -- ./inp_files/42139.got.cif
#   From: 2010.05.17/outbox.cif.g08.bks.cpg/sg2_22_cif.got.tgz:42139.got - 2010.06.03 11:33:40.
