data_PCOD9070980
_publ_section_title
;
Structure prediction by ZEFSAII (Michael W. Deem and Ramdas Pophale) SiO2 
 PCOD9070980
Probable space group: P -1
;
_chemical_formula_sum "Si O2"
_cell_formula_units_Z 12
_cell_length_a 8.454899
_cell_length_b 15.137570
_cell_length_c 9.494220
_cell_angle_alpha 132.975152
_cell_angle_beta 132.803661
_cell_angle_gamma 83.194338
_cell_volume 500.043008
_symmetry_space_group_name_H-M "P -1"
_symmetry_group_IT_number 2
_symmetry_cell_setting 'triclinic'
loop_
_space_group_symop_operation_xyz
x,y,z
-x,-y,-z
loop_
_atom_site_type_symbol
_atom_site_label
_atom_site_fract_x
_atom_site_fract_y
_atom_site_fract_z
Si Si1 0.042792 0.571569 0.449161
Si Si2 0.486407 0.971782 0.787972
Si Si3 0.887426 0.799082 0.590861
Si Si4 0.517755 0.647154 0.641531
Si Si5 0.332490 0.667942 0.275267
Si Si6 0.898679 0.007220 0.596671
O O1 0.362335 0.670413 0.693988
O O2 0.000000 0.500000 0.500000
O O3 0.925555 0.666537 0.461528
O O4 0.866259 0.427423 0.078208
O O5 0.297933 0.787501 0.449643
O O6 0.375896 0.019280 0.648289
O O7 0.500000 0.000000 0.000000
O O8 0.798969 0.050806 0.015549
O O9 0.640645 0.745508 0.486528
O O10 0.837270 0.865800 0.496763
O O11 0.500000 0.500000 0.500000
O O12 0.323338 0.585286 0.318432
O O13 0.834073 0.815681 0.994120
O O14 0.000000 0.000000 0.500000
#
# Coordination Sequence:
#
# PCOD9070980 Si02
#       6
#     2   2   2   2   2   2
#     4  12  29  50  80 112 157 208 255 320 389 457
#     4  12  25  48  76 112 151 200 257 315 384 453
#     4  12  27  48  77 112 156 196 263 312 387 456
#     4  12  27  48  75 111 155 201 262 314 383 458
#     4  12  27  50  76 113 154 203 259 321 380 464
#     4  12  26  44  78 110 151 204 252 316 387 450
#
# _framework density 23.997937
#
# number of rings (size 3 to 8) (size 9 to 14) (size 15 to 20)
#    0.000    0.000    3.333    5.500    7.000    0.667 
#    0.000    0.000    0.000    0.000    0.000    0.000 
#    0.000    0.000    0.000    0.000    0.000    0.000 
#
# Total GULP energy -66983.116369 kJ/mol
# GULP energy per Si atom -5581.926364 kJ/mol
# Density = 2.394332 g / cm^3
# Si number density = 23.997937 Si / 1000 Ang^3
#
#
#
# Elastic Constant Matrix: (Units=GPa)
#
#
# Indices 1 2 3 4 5 6 
#
# 1 93.9107 57.5167 23.0773 -4.2464 2.6446 10.1529
# 2 57.5167 235.6251 47.0423 -24.7612 -22.1652 -4.0115
# 3 23.0773 47.0423 132.1313 -16.7886 -28.7240 5.6502
# 4 -4.2464 -24.7612 -16.7886 42.8340 -9.3787 -2.1392
# 5 2.6446 -22.1652 -28.7240 -9.3787 48.9780 4.3563
# 6 10.1529 -4.0115 5.6502 -2.1392 4.3563 42.7312
#
#
#
# Elastic Compliance Matrix: (Units=1/GPa)
#
#
# Indices 1 2 3 4 5 6 
#
# 1 0.013701 -0.003599 -0.002141 -0.002555 -0.003842 -0.003046
# 2 -0.003599 0.005910 -0.000355 0.003698 0.003253 0.001310
# 3 -0.002141 -0.000355 0.010322 0.005117 0.007109 -0.001358
# 4 -0.002555 0.003698 0.005117 0.029550 0.010409 0.000696
# 5 -0.003842 0.003253 0.007109 0.010409 0.028446 -0.002101
# 6 -0.003046 0.001310 -0.001358 0.000696 -0.002101 0.024677
#
#
# Mechanical properties :
#
#
# Convention : Reuss Voigt Hill
#
# Bulk Modulus (GPa) = 56.35764 79.65998 68.00881
# Shear Modulus (GPa) = 38.25226 49.17735 43.71481
#
# Velocity S-wave (km/s) = 3.99680 4.53176 4.27266
# Velocity P-wave (km/s) = 6.69586 7.78775 7.26235
#
# Compressibility (1/GPa) = 0.01774382
#
# Stress axis : x y z
#
# Youngs Moduli (GPa) = 72.98916 169.19836 96.87758
#
# Poissons Ratio (x) = 0.60889 0.20745
# Poissons Ratio (y) = 0.26266 0.03436
# Poissons Ratio (z) = 0.15629 0.06002
#
# Static dielectric constant tensor:
#      x y z
#    x 1.948280 -0.043100 0.069760 
#    y -0.043100 1.986810 -0.014910 
#    z 0.069760 -0.014910 2.016860 
# 
# From -- ./inp_files/198622.got.cif
#   From: 2010.05.17/outbox.cif.g08.bks.cpg/sg2_100_cif.got.tgz:198622.got - 2010.06.03 11:33:40.
