data_PCOD9070687
_publ_section_title
;
Structure prediction by ZEFSAII (Michael W. Deem and Ramdas Pophale) SiO2 
 PCOD9070687
Probable space group: P -1
;
_chemical_formula_sum "Si O2"
_cell_formula_units_Z 16
_cell_length_a 8.010617
_cell_length_b 7.671490
_cell_length_c 20.062218
_cell_angle_alpha 116.525149
_cell_angle_beta 41.582333
_cell_angle_gamma 123.477648
_cell_volume 681.227864
_symmetry_space_group_name_H-M "P -1"
_symmetry_group_IT_number 2
_symmetry_cell_setting 'triclinic'
loop_
_space_group_symop_operation_xyz
x,y,z
-x,-y,-z
loop_
_atom_site_type_symbol
_atom_site_label
_atom_site_fract_x
_atom_site_fract_y
_atom_site_fract_z
Si Si1 0.386438 0.363416 0.602253
Si Si2 0.080494 0.797113 0.938441
Si Si3 0.494935 0.470350 0.916957
Si Si4 0.136180 0.973002 0.690298
Si Si5 0.594399 0.895337 0.893040
Si Si6 0.967712 0.431924 0.420928
Si Si7 0.350808 0.798491 0.723398
Si Si8 0.209110 0.763034 0.295970
O O1 0.365553 0.181946 0.630838
O O2 0.660279 0.402330 0.487191
O O3 0.409605 0.587585 0.661878
O O4 0.095892 0.267775 0.637335
O O5 0.359927 0.837976 0.898983
O O6 0.127564 0.754421 0.840521
O O7 0.825305 0.621793 0.018679
O O8 0.000000 0.000000 0.000000
O O9 0.622636 0.686251 0.877077
O O10 0.642234 0.318580 0.820498
O O11 0.500000 0.500000 0.000000
O O12 0.020657 0.793782 0.637809
O O13 0.241882 0.867190 0.700360
O O14 0.886299 0.032226 0.800776
O O15 0.500000 0.000000 0.000000
O O16 0.000000 0.500000 0.500000
O O17 0.175250 0.609350 0.343122
O O18 0.609718 0.999425 0.701161
#
# Coordination Sequence:
#
# PCOD9070687 Si02
#       8
#     2   2   2   2   2   2   2   2
#     4  12  28  49  81 111 151 201 260 317 393 452
#     4  12  25  45  71 108 152 197 250 309 379 459
#     4  12  25  47  74 110 157 201 253 315 389 461
#     4  12  27  52  76 115 159 199 258 324 386 466
#     4  12  27  44  75 112 153 201 253 309 388 464
#     4  12  28  53  79 113 154 205 263 323 389 457
#     4  12  27  49  80 115 155 203 258 319 387 467
#     4  12  26  50  80 112 158 201 257 324 387 465
#
# _framework density 23.487003000000001
#
# number of rings (size 3 to 8) (size 9 to 14) (size 15 to 20)
#    0.000    0.000    3.750    5.625    7.000    1.500 
#    0.000    0.000    0.000    0.000    0.000    0.000 
#    0.000    0.000    0.000    0.000    0.000    0.000 
#
# Total GULP energy -89672.446458 kJ/mol
# GULP energy per Si atom -5604.527904 kJ/mol
# Density = 2.343355 g / cm^3
# Si number density = 23.487003 Si / 1000 Ang^3
#
#
#
# Elastic Constant Matrix: (Units=GPa)
#
#
# Indices 1 2 3 4 5 6 
#
# 1 91.3397 14.7101 19.9899 7.6911 11.4717 5.8236
# 2 14.7101 123.7272 27.9315 -5.4583 4.1808 0.4560
# 3 19.9899 27.9315 120.4489 -1.3441 3.8949 9.5893
# 4 7.6911 -5.4583 -1.3441 48.0959 3.6898 -1.7112
# 5 11.4717 4.1808 3.8949 3.6898 38.0716 -7.4757
# 6 5.8236 0.4560 9.5893 -1.7112 -7.4757 39.3303
#
#
#
# Elastic Compliance Matrix: (Units=1/GPa)
#
#
# Indices 1 2 3 4 5 6 
#
# 1 0.012210 -0.001064 -0.001507 -0.001913 -0.003656 -0.002206
# 2 -0.001064 0.008691 -0.001848 0.001157 -0.000465 0.000469
# 3 -0.001507 -0.001848 0.009176 0.000268 -0.000724 -0.002119
# 4 -0.001913 0.001157 0.000268 0.021381 -0.001483 0.000853
# 5 -0.003656 -0.000465 -0.000724 -0.001483 0.028842 0.006141
# 6 -0.002206 0.000469 -0.002119 0.000853 0.006141 0.027468
#
#
# Mechanical properties :
#
#
# Convention : Reuss Voigt Hill
#
# Bulk Modulus (GPa) = 47.08480 51.19765 49.14123
# Shear Modulus (GPa) = 40.42462 43.29184 41.85823
#
# Velocity S-wave (km/s) = 4.15317 4.29794 4.22618
# Velocity P-wave (km/s) = 6.56423 6.81728 6.69195
#
# Compressibility (1/GPa) = 0.02123828
#
# Stress axis : x y z
#
# Youngs Moduli (GPa) = 81.89790 115.06047 108.97934
#
# Poissons Ratio (x) = 0.12245 0.16425
# Poissons Ratio (y) = 0.08716 0.20142
# Poissons Ratio (z) = 0.12343 0.21266
#
# Static dielectric constant tensor:
#      x y z
#    x 1.790600 0.043870 -0.008610 
#    y 0.043870 1.873650 -0.006330 
#    z -0.008610 -0.006330 1.869530 
# 
# From -- ./inp_files/587462.got.cif
#   From: 2010.05.17/outbox.cif.g08.bks.cpg/sg2_294_cif.got.tgz:587462.got - 2010.06.03 11:33:40.
