data_PCOD9070029
_publ_section_title
;
Structure prediction by ZEFSAII (Michael W. Deem and Ramdas Pophale) SiO2 
 PCOD9070029
Probable space group: P -1
;
_chemical_formula_sum "Si O2"
_cell_formula_units_Z 12
_cell_length_a 15.561966
_cell_length_b 11.638204
_cell_length_c 9.631522
_cell_angle_alpha 123.681574
_cell_angle_beta 42.447967
_cell_angle_gamma 153.036877
_cell_volume 502.610464
_symmetry_space_group_name_H-M "P -1"
_symmetry_group_IT_number 2
_symmetry_cell_setting 'triclinic'
loop_
_space_group_symop_operation_xyz
x,y,z
-x,-y,-z
loop_
_atom_site_type_symbol
_atom_site_label
_atom_site_fract_x
_atom_site_fract_y
_atom_site_fract_z
Si Si1 0.110535 0.792162 0.959178
Si Si2 0.966567 0.601098 0.706172
Si Si3 0.469604 0.599439 0.206973
Si Si4 0.584264 0.953679 0.966542
Si Si5 0.939613 0.127433 0.453640
Si Si6 0.717552 0.638925 0.426273
O O1 0.055657 0.655536 0.793445
O O2 0.297273 0.085159 0.879582
O O3 0.855498 0.627685 0.205219
O O4 0.258126 0.862122 0.959826
O O5 0.000000 0.500000 0.500000
O O6 0.110284 0.860883 0.633187
O O7 0.674009 0.361469 0.902239
O O8 0.409783 0.494438 0.362629
O O9 0.212905 0.436408 0.366966
O O10 0.500000 0.500000 0.000000
O O11 0.752934 0.014265 0.711884
O O12 0.500000 0.000000 0.000000
O O13 0.927503 0.952930 0.374687
O O14 0.500000 0.500000 0.500000
#
# Coordination Sequence:
#
# PCOD9070029 Si02
#       6
#     2   2   2   2   2   2
#     4  12  27  47  78 109 150 201 246 310 389 442
#     4  12  28  50  72 107 149 200 260 312 362 444
#     4  12  24  44  75 110 155 194 237 308 383 452
#     4  12  26  50  74 107 150 201 251 310 368 448
#     4  12  24  46  73 108 156 191 244 312 371 447
#     4  12  26  43  72 115 150 190 246 305 384 456
#
# _framework density 23.875349
#
# number of rings (size 3 to 8) (size 9 to 14) (size 15 to 20)
#    0.000    0.000    6.667    3.500    2.333    2.667 
#    0.000    0.000    0.000    0.000    0.000    0.000 
#    0.000    0.000    0.000    0.000    0.000    0.000 
#
# Total GULP energy -67160.875399 kJ/mol
# GULP energy per Si atom -5596.739617 kJ/mol
# Density = 2.382101 g / cm^3
# Si number density = 23.875349 Si / 1000 Ang^3
#
#
#
# Elastic Constant Matrix: (Units=GPa)
#
#
# Indices 1 2 3 4 5 6 
#
# 1 158.0430 30.1546 49.5307 16.9420 40.3990 26.0823
# 2 30.1546 65.0125 50.4452 6.8059 5.0441 19.9842
# 3 49.5307 50.4452 172.1155 1.9785 14.8053 12.8163
# 4 16.9420 6.8059 1.9785 45.2036 1.7771 4.6592
# 5 40.3990 5.0441 14.8053 1.7771 52.7341 -2.0038
# 6 26.0823 19.9842 12.8163 4.6592 -2.0038 47.9987
#
#
#
# Elastic Compliance Matrix: (Units=1/GPa)
#
#
# Indices 1 2 3 4 5 6 
#
# 1 0.009881 -0.001185 -0.001518 -0.002715 -0.007110 -0.004504
# 2 -0.001185 0.022821 -0.005809 -0.002011 0.000153 -0.007105
# 3 -0.001518 -0.005809 0.007905 0.001013 -0.000496 0.001014
# 4 -0.002715 -0.002011 0.001013 0.023369 0.001194 -0.000176
# 5 -0.007110 0.000153 -0.000496 0.001194 0.024678 0.004846
# 6 -0.004504 -0.007105 0.001014 -0.000176 0.004846 0.026188
#
#
# Mechanical properties :
#
#
# Convention : Reuss Voigt Hill
#
# Bulk Modulus (GPa) = 42.40207 72.82576 57.61391
# Shear Modulus (GPa) = 35.78400 46.85665 41.32032
#
# Velocity S-wave (km/s) = 3.87561 4.43488 4.16464
# Velocity P-wave (km/s) = 6.15024 7.53611 6.87817
#
# Compressibility (1/GPa) = 0.02358375
#
# Stress axis : x y z
#
# Youngs Moduli (GPa) = 101.20501 43.81931 126.50312
#
# Poissons Ratio (x) = 0.05192 0.19204
# Poissons Ratio (y) = 0.11992 0.73481
# Poissons Ratio (z) = 0.15364 0.25453
#
# Static dielectric constant tensor:
#      x y z
#    x 2.061730 -0.002230 0.013010 
#    y -0.002230 2.047060 -0.039760 
#    z 0.013010 -0.039760 1.907100 
# 
# From -- ./inp_files/22065.got.cif
#   From: 2010.05.17/outbox.cif.g08.bks.cpg/sg2_12_cif.got.tgz:22065.got - 2010.06.03 11:33:40.
