data_PCOD9070034
_publ_section_title
;
Structure prediction by ZEFSAII (Michael W. Deem and Ramdas Pophale) SiO2 
 PCOD9070034
Probable space group: P -1
;
_chemical_formula_sum "Si O2"
_cell_formula_units_Z 16
_cell_length_a 17.124481
_cell_length_b 21.313031
_cell_length_c 16.822381
_cell_angle_alpha 34.845454
_cell_angle_beta 162.682328
_cell_angle_gamma 137.980070
_cell_volume 1014.073090
_symmetry_space_group_name_H-M "P -1"
_symmetry_group_IT_number 2
_symmetry_cell_setting 'triclinic'
loop_
_space_group_symop_operation_xyz
x,y,z
-x,-y,-z
loop_
_atom_site_type_symbol
_atom_site_label
_atom_site_fract_x
_atom_site_fract_y
_atom_site_fract_z
Si Si1 0.692291 0.675559 0.775867
Si Si2 0.077768 0.248931 0.366635
Si Si3 0.708732 0.865816 0.469570
Si Si4 0.885754 0.997030 0.302023
Si Si5 0.299861 0.389024 0.980855
Si Si6 0.700852 0.546977 0.250292
Si Si7 0.708785 0.480593 0.495154
Si Si8 0.516091 0.598571 0.351389
O O1 0.673164 0.786603 0.590056
O O2 0.460889 0.612775 0.590981
O O3 0.673674 0.697480 0.830285
O O4 0.978115 0.586791 0.128319
O O5 0.128782 0.212531 0.361679
O O6 0.129452 0.132443 0.587931
O O7 0.274706 0.328940 0.494667
O O8 0.776373 0.317035 0.020212
O O9 0.891454 0.953076 0.579817
O O10 0.415585 0.927381 0.084573
O O11 0.000000 0.000000 0.500000
O O12 0.338676 0.359604 0.955431
O O13 0.002627 0.470117 0.615604
O O14 0.504896 0.466206 0.121401
O O15 0.662542 0.568670 0.284315
O O16 0.607721 0.542246 0.414339
O O17 0.500000 0.500000 0.500000
#
# Coordination Sequence:
#
# PCOD9070034 Si02
#       8
#     2   2   2   2   2   2   2   2
#     4  10  18  29  45  67  94 116 142 179 221 264
#     4  11  21  34  47  62  87 116 149 184 214 252
#     4  11  19  32  50  68  87 112 145 184 232 266
#     4  10  20  34  50  66  83 111 149 187 228 265
#     4   8  14  24  40  61  84 114 141 171 214 256
#     4   8  14  25  40  57  84 117 147 172 203 252
#     4  10  19  30  42  63  93 125 152 175 207 253
#     4  12  22  32  45  64  90 121 153 178 208 248
#
# _framework density 15.777955
#
# number of rings (size 3 to 8) (size 9 to 14) (size 15 to 20)
#    0.000    2.000    0.000    7.125    0.000    0.000 
#    0.000    0.000    0.000    0.000    0.000    0.000 
#    0.000    6.000    0.000    0.000    0.000    0.500 
#
# Total GULP energy -89085.989847 kJ/mol
# GULP energy per Si atom -5567.874365 kJ/mol
# Density = 1.574204 g / cm^3
# Si number density = 15.777955 Si / 1000 Ang^3
#
#
#
# Elastic Constant Matrix: (Units=GPa)
#
#
# Indices 1 2 3 4 5 6 
#
# 1 127.8084 24.4887 8.7528 -17.9138 -14.7488 7.9128
# 2 24.4887 72.6864 6.0761 6.2337 -0.0685 14.3506
# 3 8.7528 6.0761 59.1532 6.2717 9.2734 2.3764
# 4 -17.9138 6.2337 6.2717 28.8239 11.3132 1.2696
# 5 -14.7488 -0.0685 9.2734 11.3132 20.3417 2.2440
# 6 7.9128 14.3506 2.3764 1.2696 2.2440 19.0771
#
#
#
# Elastic Compliance Matrix: (Units=1/GPa)
#
#
# Indices 1 2 3 4 5 6 
#
# 1 0.010197 -0.003172 -0.002567 0.005407 0.005829 -0.002569
# 2 -0.003172 0.017769 -0.000662 -0.006269 0.002860 -0.011888
# 3 -0.002567 -0.000662 0.019030 -0.001864 -0.009551 0.000440
# 4 0.005407 -0.006269 -0.001864 0.048547 -0.022484 0.002119
# 5 0.005829 0.002860 -0.009551 -0.022484 0.071389 -0.010280
# 6 -0.002569 -0.011888 0.000440 0.002119 -0.010280 0.063441
#
#
# Mechanical properties :
#
#
# Convention : Reuss Voigt Hill
#
# Bulk Modulus (GPa) = 29.24403 37.58701 33.41552
# Shear Modulus (GPa) = 19.64064 28.33722 23.98893
#
# Velocity S-wave (km/s) = 3.53202 4.24252 3.90347
# Velocity P-wave (km/s) = 5.93368 6.91902 6.44521
#
# Compressibility (1/GPa) = 0.03419501
#
# Stress axis : x y z
#
# Youngs Moduli (GPa) = 98.06366 56.27741 52.54775
#
# Poissons Ratio (x) = 0.17851 0.13489
# Poissons Ratio (y) = 0.31106 0.03478
# Poissons Ratio (z) = 0.25173 0.03725
#
# Static dielectric constant tensor:
#      x y z
#    x 1.589170 0.017700 -0.024040 
#    y 0.017700 1.520690 0.013410 
#    z -0.024040 0.013410 1.525630 
# 
# From -- ./inp_files/82627.got.cif
#   From: 2010.05.17/outbox.cif.g08.bks.cpg/sg2_42_cif.got.tgz:82627.got - 2010.06.03 11:33:40.
