data_PCOD9070287
_publ_section_title
;
Structure prediction by ZEFSAII (Michael W. Deem and Ramdas Pophale) SiO2 
 PCOD9070287
Probable space group: P -1
;
_chemical_formula_sum "Si O2"
_cell_formula_units_Z 12
_cell_length_a 6.247385
_cell_length_b 10.470717
_cell_length_c 12.700034
_cell_angle_alpha 40.829899
_cell_angle_beta 80.867892
_cell_angle_gamma 60.286609
_cell_volume 436.174845
_symmetry_space_group_name_H-M "P -1"
_symmetry_group_IT_number 2
_symmetry_cell_setting 'triclinic'
loop_
_space_group_symop_operation_xyz
x,y,z
-x,-y,-z
loop_
_atom_site_type_symbol
_atom_site_label
_atom_site_fract_x
_atom_site_fract_y
_atom_site_fract_z
Si Si1 0.348111 0.051885 0.200200
Si Si2 0.000000 0.000000 0.500000
Si Si3 0.872932 0.309064 0.846592
Si Si4 0.239238 0.204226 0.489406
Si Si5 0.500000 0.000000 0.000000
Si Si6 0.805412 0.276489 0.627523
Si Si7 0.614324 0.525571 0.085559
O O1 0.510080 0.947280 0.360365
O O2 0.155445 0.963763 0.271628
O O3 0.549309 0.912187 0.173887
O O4 0.262083 0.322711 0.033338
O O5 0.184925 0.715895 0.713876
O O6 0.802656 0.948922 0.490662
O O7 0.768866 0.582729 0.696091
O O8 0.860520 0.255961 0.759087
O O9 0.650854 0.298946 0.930950
O O10 0.177716 0.150818 0.956234
O O11 0.987889 0.318900 0.517125
O O12 0.500000 0.500000 0.500000
O O13 0.500000 0.500000 0.000000
#
# Coordination Sequence:
#
# PCOD9070287 Si02
#       7
#     2   1   2   2   1   2   2
#     4  12  26  48  80 122 170 213 282 350 420 510
#     4  12  28  54  84 110 172 230 284 346 420 490
#     4  12  27  51  85 123 171 220 276 352 431 510
#     4  12  26  50  79 122 163 224 284 339 422 505
#     4  12  26  46  78 124 170 212 268 348 432 498
#     4  12  24  46  83 121 168 216 272 351 428 511
#     4  12  29  55  83 123 166 226 293 350 417 505
#
# _framework density 27.511901000000002
#
# number of rings (size 3 to 8) (size 9 to 14) (size 15 to 20)
#    0.000    0.000    5.000    4.500    2.333    3.333 
#    0.000    2.500    0.000    0.000    0.000    0.000 
#    0.000    0.000    0.000    0.000    0.000    0.000 
#
# Total GULP energy -66911.562884 kJ/mol
# GULP energy per Si atom -5575.963574 kJ/mol
# Density = 2.744928 g / cm^3
# Si number density = 27.511901 Si / 1000 Ang^3
#
#
#
# Elastic Constant Matrix: (Units=GPa)
#
#
# Indices 1 2 3 4 5 6 
#
# 1 78.3009 38.1105 36.8690 -11.9035 9.4708 13.3517
# 2 38.1105 82.5787 14.3937 -0.8003 12.8453 -14.0559
# 3 36.8690 14.3937 142.6102 -35.4298 18.3916 3.6730
# 4 -11.9035 -0.8003 -35.4298 49.3619 15.5380 -12.1277
# 5 9.4708 12.8453 18.3916 15.5380 62.1361 -3.1368
# 6 13.3517 -14.0559 3.6730 -12.1277 -3.1368 81.3752
#
#
#
# Elastic Compliance Matrix: (Units=1/GPa)
#
#
# Indices 1 2 3 4 5 6 
#
# 1 0.020097 -0.009307 -0.003838 0.000958 -0.000475 -0.004607
# 2 -0.009307 0.017372 0.000997 0.000607 -0.002393 0.004481
# 3 -0.003838 0.000997 0.010626 0.008590 -0.004843 0.001416
# 4 0.000958 0.000607 0.008590 0.030842 -0.010337 0.003758
# 5 -0.000475 -0.002393 -0.004843 -0.010337 0.020636 -0.000862
# 6 -0.004607 0.004481 0.001416 0.003758 -0.000862 0.014282
#
#
# Mechanical properties :
#
#
# Convention : Reuss Voigt Hill
#
# Bulk Modulus (GPa) = 42.02019 53.58180 47.80099
# Shear Modulus (GPa) = 34.22696 52.84908 43.53802
#
# Velocity S-wave (km/s) = 3.53098 4.38762 3.98240
# Velocity P-wave (km/s) = 5.65069 6.72209 6.20954
#
# Compressibility (1/GPa) = 0.02379808
#
# Stress axis : x y z
#
# Youngs Moduli (GPa) = 49.75806 57.56393 94.10979
#
# Poissons Ratio (x) = 0.53574 0.36123
# Poissons Ratio (y) = 0.46310 -0.09381
# Poissons Ratio (z) = 0.19099 -0.05738
#
# Static dielectric constant tensor:
#      x y z
#    x 2.071950 0.036260 0.008780 
#    y 0.036260 2.256900 0.040120 
#    z 0.008780 0.040120 2.204000 
# 
# From -- ./inp_files/480963.got.cif
#   From: 2010.05.17/outbox.cif.g08.bks.cpg/sg2_241_cif.got.tgz:480963.got - 2010.06.03 11:33:40.
