data_PCOD9070439
_publ_section_title
;
Structure prediction by ZEFSAII (Michael W. Deem and Ramdas Pophale) SiO2 
 PCOD9070439
Probable space group: P -1
;
_chemical_formula_sum "Si O2"
_cell_formula_units_Z 12
_cell_length_a 9.360054
_cell_length_b 16.198722
_cell_length_c 9.197231
_cell_angle_alpha 123.300251
_cell_angle_beta 120.502701
_cell_angle_gamma 26.397265
_cell_volume 517.714543
_symmetry_space_group_name_H-M "P -1"
_symmetry_group_IT_number 2
_symmetry_cell_setting 'triclinic'
loop_
_space_group_symop_operation_xyz
x,y,z
-x,-y,-z
loop_
_atom_site_type_symbol
_atom_site_label
_atom_site_fract_x
_atom_site_fract_y
_atom_site_fract_z
Si Si1 0.604081 0.055063 0.050423
Si Si2 0.552425 0.461726 0.319909
Si Si3 0.321684 0.081942 0.331554
Si Si4 0.803564 0.550663 0.821076
Si Si5 0.248056 0.322683 0.563557
Si Si6 0.185533 0.828125 0.320901
O O1 0.403798 0.256282 0.172680
O O2 0.950782 0.902258 0.150471
O O3 0.500000 0.000000 0.000000
O O4 0.573808 0.054196 0.859254
O O5 0.500000 0.500000 0.500000
O O6 0.402194 0.430279 0.190188
O O7 0.360517 0.647924 0.320976
O O8 0.934617 0.269887 0.309425
O O9 0.391658 0.157465 0.388115
O O10 0.500000 0.000000 0.500000
O O11 0.044063 0.391740 0.664639
O O12 0.000000 0.500000 0.000000
O O13 0.531929 0.251343 0.682281
O O14 0.000000 0.500000 0.500000
O O15 0.000000 0.000000 0.500000
#
# Coordination Sequence:
#
# PCOD9070439 Si02
#       6
#     2   2   2   2   2   2
#     4  12  28  48  75 113 149 195 257 307 370 445
#     4  12  26  48  74 109 150 201 245 306 383 443
#     4  12  28  47  76 108 154 196 249 306 376 445
#     4  12  27  48  73 107 151 194 245 310 372 441
#     4  12  24  48  75 106 142 199 246 302 372 439
#     4  12  27  47  81 111 151 194 255 312 372 445
#
# _framework density 23.178796999999999
#
# number of rings (size 3 to 8) (size 9 to 14) (size 15 to 20)
#    0.000    0.000    3.333    6.000    9.333    1.333 
#    0.000    0.000    0.000    0.000    0.000    0.000 
#    0.000    0.000    0.000    0.000    0.000    0.000 
#
# Total GULP energy -67057.832134 kJ/mol
# GULP energy per Si atom -5588.152678 kJ/mol
# Density = 2.312604 g / cm^3
# Si number density = 23.178797 Si / 1000 Ang^3
#
#
#
# Elastic Constant Matrix: (Units=GPa)
#
#
# Indices 1 2 3 4 5 6 
#
# 1 135.1139 51.1150 35.0269 -8.7849 45.7103 -7.5198
# 2 51.1150 140.5156 43.4436 -5.8643 14.2301 8.0309
# 3 35.0269 43.4436 129.8761 -15.2963 26.3234 -10.3704
# 4 -8.7849 -5.8643 -15.2963 48.0699 -5.3896 13.8613
# 5 45.7103 14.2301 26.3234 -5.3896 51.5601 -8.0520
# 6 -7.5198 8.0309 -10.3704 13.8613 -8.0520 33.1141
#
#
#
# Elastic Compliance Matrix: (Units=1/GPa)
#
#
# Indices 1 2 3 4 5 6 
#
# 1 0.011998 -0.003442 -0.000035 0.000388 -0.009459 0.001086
# 2 -0.003442 0.009323 -0.002662 0.000949 0.001319 -0.003953
# 3 -0.000035 -0.002662 0.009718 0.001757 -0.003692 0.002048
# 4 0.000388 0.000949 0.001757 0.024349 -0.000505 -0.009907
# 5 -0.009459 0.001319 -0.003692 -0.000505 0.029849 0.003845
# 6 0.001086 -0.003953 0.002048 -0.009907 0.003845 0.037127
#
#
# Mechanical properties :
#
#
# Convention : Reuss Voigt Hill
#
# Bulk Modulus (GPa) = 53.29617 73.85294 63.57456
# Shear Modulus (GPa) = 35.48717 44.94350 40.21534
#
# Velocity S-wave (km/s) = 3.91707 4.40818 4.16986
# Velocity P-wave (km/s) = 6.59555 7.60531 7.11836
#
# Compressibility (1/GPa) = 0.01876307
#
# Stress axis : x y z
#
# Youngs Moduli (GPa) = 83.34795 107.25619 102.89942
#
# Poissons Ratio (x) = 0.36913 0.00361
# Poissons Ratio (y) = 0.28685 0.27388
# Poissons Ratio (z) = 0.00292 0.28548
#
# Static dielectric constant tensor:
#      x y z
#    x 1.916180 -0.080820 -0.035100 
#    y -0.080820 1.536940 0.002370 
#    z -0.035100 0.002370 1.831630 
# 
# From -- ./inp_files/148943.got.cif
#   From: 2010.05.17/outbox.cif.g08.bks.cpg/sg2_75_cif.got.tgz:148943.got - 2010.06.03 11:33:40.
