data_PCOD9070623
_publ_section_title
;
Structure prediction by ZEFSAII (Michael W. Deem and Ramdas Pophale) SiO2 
 PCOD9070623
Probable space group: P -1
;
_chemical_formula_sum "Si O2"
_cell_formula_units_Z 14
_cell_length_a 6.960469
_cell_length_b 9.470012
_cell_length_c 21.530292
_cell_angle_alpha 143.276507
_cell_angle_beta 46.126160
_cell_angle_gamma 126.480181
_cell_volume 609.220979
_symmetry_space_group_name_H-M "P -1"
_symmetry_group_IT_number 2
_symmetry_cell_setting 'triclinic'
loop_
_space_group_symop_operation_xyz
x,y,z
-x,-y,-z
loop_
_atom_site_type_symbol
_atom_site_label
_atom_site_fract_x
_atom_site_fract_y
_atom_site_fract_z
Si Si1 0.219505 0.104672 0.089180
Si Si2 0.470847 0.370515 0.231378
Si Si3 0.448916 0.075189 0.608803
Si Si4 0.064508 0.421968 0.131292
Si Si5 0.905653 0.765342 0.620874
Si Si6 0.818065 0.663825 0.057785
Si Si7 0.716018 0.131784 0.695604
O O1 0.249544 0.306455 0.206126
O O2 0.209904 0.233568 0.071680
O O3 0.981023 0.914120 0.093327
O O4 0.500000 0.000000 0.000000
O O5 0.548830 0.646096 0.301045
O O6 0.331658 0.269748 0.288979
O O7 0.770893 0.293477 0.137026
O O8 0.664338 0.054472 0.608506
O O9 0.500000 0.000000 0.500000
O O10 0.167689 0.935494 0.642657
O O11 0.063109 0.656146 0.257455
O O12 0.204682 0.471603 0.051127
O O13 0.000000 0.500000 0.500000
O O14 0.788171 0.900162 0.635925
O O15 0.550825 0.741715 0.177880
O O16 0.000000 0.500000 0.000000
#
# Coordination Sequence:
#
# PCOD9070623 Si02
#       7
#     2   2   2   2   2   2   2
#     4  12  25  43  71 105 151 195 247 292 370 454
#     4  12  25  48  76 106 153 197 246 311 373 441
#     4  12  26  54  76 104 149 195 254 320 374 438
#     4  12  25  46  73 109 151 202 242 297 378 452
#     4  12  28  49  76 111 145 194 258 313 373 440
#     4  12  26  46  75 112 157 196 247 304 371 454
#     4  12  27  47  77 110 151 199 248 311 378 440
#
# _framework density 22.980167000000002
#
# number of rings (size 3 to 8) (size 9 to 14) (size 15 to 20)
#    0.000    0.000    5.714    4.286    4.000    1.143 
#    2.571    0.000    0.000    0.000    0.000    0.000 
#    0.000    0.000    0.000    0.000    0.000    0.000 
#
# Total GULP energy -78168.164220 kJ/mol
# GULP energy per Si atom -5583.440301 kJ/mol
# Density = 2.292786 g / cm^3
# Si number density = 22.980167 Si / 1000 Ang^3
#
#
#
# Elastic Constant Matrix: (Units=GPa)
#
#
# Indices 1 2 3 4 5 6 
#
# 1 148.9453 44.3992 31.9904 -0.0418 16.4283 -39.0428
# 2 44.3992 112.2553 18.6163 13.2500 6.5204 -5.6172
# 3 31.9904 18.6163 56.9145 10.5737 8.0797 -13.1665
# 4 -0.0418 13.2500 10.5737 46.6476 -1.4394 -6.1184
# 5 16.4283 6.5204 8.0797 -1.4394 39.9005 5.1400
# 6 -39.0428 -5.6172 -13.1665 -6.1184 5.1400 64.3625
#
#
#
# Elastic Compliance Matrix: (Units=1/GPa)
#
#
# Indices 1 2 3 4 5 6 
#
# 1 0.010350 -0.003317 -0.003291 0.002348 -0.003720 0.005836
# 2 -0.003317 0.010728 -0.001488 -0.002930 0.000022 -0.001660
# 3 -0.003291 -0.001488 0.021662 -0.004308 -0.003221 0.002153
# 4 0.002348 -0.002930 -0.004308 0.023599 0.000919 0.002457
# 5 -0.003720 0.000022 -0.003221 0.000919 0.027927 -0.005057
# 6 0.005836 -0.001660 0.002153 0.002457 -0.005057 0.020010
#
#
# Mechanical properties :
#
#
# Convention : Reuss Voigt Hill
#
# Bulk Modulus (GPa) = 37.66452 56.45854 47.06153
# Shear Modulus (GPa) = 35.88919 45.05608 40.47263
#
# Velocity S-wave (km/s) = 3.95618 4.43273 4.20122
# Velocity P-wave (km/s) = 6.10689 7.12885 6.63757
#
# Compressibility (1/GPa) = 0.02655018
#
# Stress axis : x y z
#
# Youngs Moduli (GPa) = 96.61627 93.21029 46.16365
#
# Poissons Ratio (x) = 0.30918 0.15191
# Poissons Ratio (y) = 0.32048 0.06867
# Poissons Ratio (z) = 0.31793 0.13866
#
# Static dielectric constant tensor:
#      x y z
#    x 1.966170 0.026200 0.105960 
#    y 0.026200 1.808520 -0.010590 
#    z 0.105960 -0.010590 2.100390 
# 
# From -- ./inp_files/106324.got.cif
#   From: 2010.05.17/outbox.cif.g08.bks.cpg/sg2_54_cif.got.tgz:106324.got - 2010.06.03 11:33:40.
