data_PCOD9070747
_publ_section_title
;
Structure prediction by ZEFSAII (Michael W. Deem and Ramdas Pophale) SiO2 
 PCOD9070747
Probable space group: P -1
;
_chemical_formula_sum "Si O2"
_cell_formula_units_Z 14
_cell_length_a 9.302839
_cell_length_b 11.886557
_cell_length_c 16.963845
_cell_angle_alpha 31.274359
_cell_angle_beta 55.868705
_cell_angle_gamma 75.894692
_cell_volume 673.814730
_symmetry_space_group_name_H-M "P -1"
_symmetry_group_IT_number 2
_symmetry_cell_setting 'triclinic'
loop_
_space_group_symop_operation_xyz
x,y,z
-x,-y,-z
loop_
_atom_site_type_symbol
_atom_site_label
_atom_site_fract_x
_atom_site_fract_y
_atom_site_fract_z
Si Si1 0.282872 0.403505 0.806270
Si Si2 0.398242 0.004685 0.610338
Si Si3 0.938759 0.873161 0.799442
Si Si4 0.305501 0.517778 0.030672
Si Si5 0.079773 0.624454 0.486518
Si Si6 0.885952 0.313742 0.888556
Si Si7 0.535494 0.745178 0.293218
O O1 0.374439 0.263876 0.813892
O O2 0.082202 0.352376 0.851760
O O3 0.456945 0.708248 0.571567
O O4 0.210878 0.298098 0.979687
O O5 0.166708 0.934555 0.709256
O O6 0.500000 0.000000 0.500000
O O7 0.382764 0.787575 0.801552
O O8 0.849243 0.711050 0.843893
O O9 0.945551 0.136597 0.637242
O O10 0.191248 0.524004 0.140263
O O11 0.500000 0.500000 0.000000
O O12 0.319304 0.720854 0.365080
O O13 0.000000 0.500000 0.500000
O O14 0.952753 0.414849 0.719066
O O15 0.703685 0.012062 0.123749
O O16 0.500000 0.500000 0.500000
#
# Coordination Sequence:
#
# PCOD9070747 Si02
#       7
#     2   2   2   2   2   2   2
#     4  12  25  45  79 101 142 189 236 290 352 423
#     4  12  25  46  73 104 143 189 236 286 354 419
#     4  12  27  48  71 108 144 186 236 292 355 420
#     4  12  27  46  73 107 145 185 239 291 352 423
#     4  12  29  47  72 108 144 184 238 295 354 416
#     4  12  27  47  73 105 145 187 235 293 353 419
#     4  12  26  46  75 105 139 187 240 286 351 422
#
# _framework density 20.777224
#
# number of rings (size 3 to 8) (size 9 to 14) (size 15 to 20)
#    0.000    0.000    4.286    5.143    6.000    5.143 
#    0.000    0.000    0.000    0.000    0.000    0.000 
#    0.000    0.000    0.000    0.000    0.000    0.000 
#
# Total GULP energy -78478.100959 kJ/mol
# GULP energy per Si atom -5605.578640 kJ/mol
# Density = 2.072993 g / cm^3
# Si number density = 20.777224 Si / 1000 Ang^3
#
#
#
# Elastic Constant Matrix: (Units=GPa)
#
#
# Indices 1 2 3 4 5 6 
#
# 1 139.8614 46.9883 65.4553 -7.7791 -18.7170 -15.5576
# 2 46.9883 146.6328 50.4687 0.8503 -12.1701 3.5080
# 3 65.4553 50.4687 107.0663 -20.1152 -29.4737 0.2256
# 4 -7.7791 0.8503 -20.1152 49.5054 -0.8738 -6.9063
# 5 -18.7170 -12.1701 -29.4737 -0.8738 21.6095 -4.0333
# 6 -15.5576 3.5080 0.2256 -6.9063 -4.0333 49.9178
#
#
#
# Elastic Compliance Matrix: (Units=1/GPa)
#
#
# Indices 1 2 3 4 5 6 
#
# 1 0.010856 -0.001563 -0.005369 0.000099 0.001892 0.003684
# 2 -0.001563 0.008636 -0.004348 -0.002439 -0.002825 -0.001640
# 3 -0.005369 -0.004348 0.023550 0.009523 0.025766 0.001925
# 4 0.000099 -0.002439 0.009523 0.025025 0.013594 0.004720
# 5 0.001892 -0.002825 0.025766 0.013594 0.083756 0.009320
# 6 0.003684 -0.001640 0.001925 0.004720 0.009320 0.022694
#
#
# Mechanical properties :
#
#
# Convention : Reuss Voigt Hill
#
# Bulk Modulus (GPa) = 48.82031 79.93169 64.37600
# Shear Modulus (GPa) = 24.52157 39.58308 32.05232
#
# Velocity S-wave (km/s) = 3.43915 4.36950 3.93194
# Velocity P-wave (km/s) = 6.27044 8.00069 7.18782
#
# Compressibility (1/GPa) = 0.02048328
#
# Stress axis : x y z
#
# Youngs Moduli (GPa) = 92.11566 115.79565 42.46344
#
# Poissons Ratio (x) = 0.18095 0.22797
# Poissons Ratio (y) = 0.14395 0.18463
# Poissons Ratio (z) = 0.49453 0.50346
#
# Static dielectric constant tensor:
#      x y z
#    x 1.693960 0.017730 0.007630 
#    y 0.017730 1.737890 0.011800 
#    z 0.007630 0.011800 1.721760 
# 
# From -- ./inp_files/27375.got.cif
#   From: 2010.05.17/outbox.cif.g08.bks.cpg/sg2_14_cif.got.tgz:27375.got - 2010.06.03 11:33:40.
