data_PCOD9070488
_publ_section_title
;
Structure prediction by ZEFSAII (Michael W. Deem and Ramdas Pophale) SiO2 
 PCOD9070488
Probable space group: P -1
;
_chemical_formula_sum "Si O2"
_cell_formula_units_Z 12
_cell_length_a 10.701303
_cell_length_b 8.108189
_cell_length_c 7.395287
_cell_angle_alpha 124.017701
_cell_angle_beta 120.783134
_cell_angle_gamma 82.187206
_cell_volume 446.622829
_symmetry_space_group_name_H-M "P -1"
_symmetry_group_IT_number 2
_symmetry_cell_setting 'triclinic'
loop_
_space_group_symop_operation_xyz
x,y,z
-x,-y,-z
loop_
_atom_site_type_symbol
_atom_site_label
_atom_site_fract_x
_atom_site_fract_y
_atom_site_fract_z
Si Si1 0.341294 0.034415 0.338991
Si Si2 0.751874 0.752572 0.092930
Si Si3 0.537107 0.504282 0.247959
Si Si4 0.019716 0.418811 0.661099
Si Si5 0.288939 0.849286 0.785598
Si Si6 0.968122 0.146431 0.902350
O O1 0.369202 0.277312 0.491567
O O2 0.500000 0.000000 0.500000
O O3 0.702933 0.081638 0.954827
O O4 0.204848 0.949626 0.319906
O O5 0.970389 0.382014 0.089787
O O6 0.626721 0.558627 0.822048
O O7 0.894220 0.834999 0.121181
O O8 0.624469 0.332157 0.264242
O O9 0.500000 0.500000 0.000000
O O10 0.664407 0.936276 0.152883
O O11 0.000000 0.500000 0.500000
O O12 0.165653 0.326618 0.727043
O O13 0.126688 0.753062 0.526425
O O14 0.000000 0.000000 0.000000
#
# Coordination Sequence:
#
# PCOD9070488 Si02
#       6
#     2   2   2   2   2   2
#     4  12  25  50  81 112 160 205 258 319 393 457
#     4  12  28  51  77 117 157 207 264 325 393 461
#     4  12  27  51  81 110 158 214 262 319 389 466
#     4  12  24  48  81 111 155 204 266 321 391 463
#     4  12  26  49  76 116 154 206 259 321 387 464
#     4  12  25  51  79 118 158 205 257 329 389 466
#
# _framework density 26.868310000000001
#
# number of rings (size 3 to 8) (size 9 to 14) (size 15 to 20)
#    0.000    0.000    5.000    4.500    0.000    3.333 
#    6.000    0.000    0.000    0.000    0.000    0.000 
#    0.000    0.000    0.000    0.000    0.000    0.000 
#
# Total GULP energy -67253.728556 kJ/mol
# GULP energy per Si atom -5604.477380 kJ/mol
# Density = 2.680716 g / cm^3
# Si number density = 26.868310 Si / 1000 Ang^3
#
#
#
# Elastic Constant Matrix: (Units=GPa)
#
#
# Indices 1 2 3 4 5 6 
#
# 1 131.4713 56.7704 76.9126 10.7448 8.4396 -29.1776
# 2 56.7704 126.7205 38.8605 11.1899 -7.5021 -14.3923
# 3 76.9126 38.8605 197.6152 47.5779 14.6781 -8.0070
# 4 10.7448 11.1899 47.5779 58.0031 -2.5979 3.4220
# 5 8.4396 -7.5021 14.6781 -2.5979 48.7886 14.6481
# 6 -29.1776 -14.3923 -8.0070 3.4220 14.6481 56.6487
#
#
#
# Elastic Compliance Matrix: (Units=1/GPa)
#
#
# Indices 1 2 3 4 5 6 
#
# 1 0.013366 -0.004349 -0.004147 0.001254 -0.003472 0.006015
# 2 -0.004349 0.010112 -0.000305 -0.000767 0.002448 -0.000301
# 3 -0.004147 -0.000305 0.008363 -0.006122 -0.002139 -0.000109
# 4 0.001254 -0.000767 -0.006122 0.022493 0.003509 -0.002680
# 5 -0.003472 0.002448 -0.002139 0.003509 0.024728 -0.008075
# 6 0.006015 -0.000301 -0.000109 -0.002680 -0.008075 0.022909
#
#
# Mechanical properties :
#
#
# Convention : Reuss Voigt Hill
#
# Bulk Modulus (GPa) = 70.23598 88.98822 79.61210
# Shear Modulus (GPa) = 40.21898 51.57232 45.89565
#
# Velocity S-wave (km/s) = 3.87317 4.38590 4.13749
# Velocity P-wave (km/s) = 6.79702 7.67074 7.24706
#
# Compressibility (1/GPa) = 0.01423772
#
# Stress axis : x y z
#
# Youngs Moduli (GPa) = 74.81862 98.89347 119.57708
#
# Poissons Ratio (x) = 0.43011 0.49590
# Poissons Ratio (y) = 0.32540 0.03647
# Poissons Ratio (z) = 0.31028 0.03017
#
# Static dielectric constant tensor:
#      x y z
#    x 2.152090 0.119790 0.019030 
#    y 0.119790 2.148840 -0.020290 
#    z 0.019030 -0.020290 2.107130 
# 
# From -- ./inp_files/211509.got.cif
#   From: 2010.05.17/outbox.cif.g08.bks.cpg/sg2_106_cif.got.tgz:211509.got - 2010.06.03 11:33:40.
