data_PCOD9070661
_publ_section_title
;
Structure prediction by ZEFSAII (Michael W. Deem and Ramdas Pophale) SiO2 
 PCOD9070661
Probable space group: P -1
;
_chemical_formula_sum "Si O2"
_cell_formula_units_Z 16
_cell_length_a 13.675466
_cell_length_b 11.163290
_cell_length_c 6.214648
_cell_angle_alpha 91.780412
_cell_angle_beta 119.585769
_cell_angle_gamma 60.268066
_cell_volume 687.122446
_symmetry_space_group_name_H-M "P -1"
_symmetry_group_IT_number 2
_symmetry_cell_setting 'triclinic'
loop_
_space_group_symop_operation_xyz
x,y,z
-x,-y,-z
loop_
_atom_site_type_symbol
_atom_site_label
_atom_site_fract_x
_atom_site_fract_y
_atom_site_fract_z
Si Si1 0.899086 0.979090 0.526431
Si Si2 0.211133 0.780388 0.259661
Si Si3 0.424743 0.132738 0.760371
Si Si4 0.483085 0.563685 0.736087
Si Si5 0.300310 0.917674 0.041273
Si Si6 0.045462 0.672450 0.851115
Si Si7 0.219171 0.199271 0.197155
Si Si8 0.288431 0.371796 0.963685
O O1 0.965409 0.811141 0.618742
O O2 0.880486 0.062019 0.729995
O O3 0.000000 0.000000 0.500000
O O4 0.755876 0.053635 0.258337
O O5 0.325257 0.686094 0.553334
O O6 0.275775 0.805627 0.122214
O O7 0.133933 0.706681 0.103073
O O8 0.544551 0.136269 0.779991
O O9 0.331971 0.114485 0.497022
O O10 0.326097 0.284010 0.779122
O O11 0.500000 0.000000 0.000000
O O12 0.500000 0.500000 0.500000
O O13 0.500000 0.500000 0.000000
O O14 0.588466 0.611312 0.851328
O O15 0.214310 0.076214 0.061770
O O16 0.148516 0.526647 0.830476
O O17 0.926112 0.682165 0.857723
O O18 0.273677 0.273530 0.112964
#
# Coordination Sequence:
#
# PCOD9070661 Si02
#       8
#     2   2   2   2   2   2   2   2
#     4  12  25  44  75 112 150 200 259 322 395 469
#     4  12  26  48  78 111 153 199 260 326 391 471
#     4  12  27  47  75 108 145 201 258 318 385 463
#     4  12  30  53  80 119 160 205 261 332 405 475
#     4  12  25  47  79 112 148 196 263 321 388 461
#     4  12  26  50  73 111 156 203 258 318 401 469
#     4  12  27  50  73 107 153 200 258 318 392 475
#     4  12  29  49  75 111 154 203 253 322 396 474
#
# _framework density 23.285513999999999
#
# number of rings (size 3 to 8) (size 9 to 14) (size 15 to 20)
#    0.000    0.000    5.000    4.125    8.750    0.500 
#    2.250    0.000    0.000    0.000    0.000    0.000 
#    0.000    0.000    0.000    0.000    0.000    0.000 
#
# Total GULP energy -89493.532166 kJ/mol
# GULP energy per Si atom -5593.345760 kJ/mol
# Density = 2.323252 g / cm^3
# Si number density = 23.285514 Si / 1000 Ang^3
#
#
#
# Elastic Constant Matrix: (Units=GPa)
#
#
# Indices 1 2 3 4 5 6 
#
# 1 120.5895 -4.3947 9.5934 -5.0605 2.4947 3.1942
# 2 -4.3947 93.5079 27.0490 2.6930 -7.8563 -25.4485
# 3 9.5934 27.0490 112.8067 -11.3995 7.2274 -0.5689
# 4 -5.0605 2.6930 -11.3995 39.4629 0.5460 -3.9019
# 5 2.4947 -7.8563 7.2274 0.5460 33.2776 -3.4340
# 6 3.1942 -25.4485 -0.5689 -3.9019 -3.4340 37.2080
#
#
#
# Elastic Compliance Matrix: (Units=1/GPa)
#
#
# Indices 1 2 3 4 5 6 
#
# 1 0.008418 0.000437 -0.000713 0.000811 -0.000426 -0.000389
# 2 0.000437 0.015361 -0.004148 -0.001201 0.005629 0.010799
# 3 -0.000713 -0.004148 0.010434 0.002995 -0.003512 -0.002626
# 4 0.000811 -0.001201 0.002995 0.026589 -0.001242 0.001829
# 5 -0.000426 0.005629 -0.003512 -0.001242 0.032889 0.006738
# 6 -0.000389 0.010799 -0.002626 0.001829 0.006738 0.035069
#
#
# Mechanical properties :
#
#
# Convention : Reuss Voigt Hill
#
# Bulk Modulus (GPa) = 39.42416 43.48883 41.45649
# Shear Modulus (GPa) = 34.23122 41.63345 37.93234
#
# Velocity S-wave (km/s) = 3.83830 4.23301 4.04048
# Velocity P-wave (km/s) = 6.05070 6.52748 6.29361
#
# Compressibility (1/GPa) = 0.02536516
#
# Stress axis : x y z
#
# Youngs Moduli (GPa) = 118.78696 65.09921 95.83689
#
# Poissons Ratio (x) = -0.02844 0.06837
# Poissons Ratio (y) = -0.05190 0.39753
# Poissons Ratio (z) = 0.08474 0.27003
#
# Static dielectric constant tensor:
#      x y z
#    x 1.901790 -0.052070 -0.047030 
#    y -0.052070 1.894430 0.008020 
#    z -0.047030 0.008020 1.875290 
# 
# From -- ./inp_files/95055.got.cif
#   From: 2010.05.17/outbox.cif.g08.bks.cpg/sg2_48_cif.got.tgz:95055.got - 2010.06.03 11:33:40.
