data_PCOD9070918
_publ_section_title
;
Structure prediction by ZEFSAII (Michael W. Deem and Ramdas Pophale) SiO2 
 PCOD9070918
Probable space group: P -1
;
_chemical_formula_sum "Si O2"
_cell_formula_units_Z 12
_cell_length_a 12.264314
_cell_length_b 9.626580
_cell_length_c 10.145825
_cell_angle_alpha 55.683902
_cell_angle_beta 35.019810
_cell_angle_gamma 70.586154
_cell_volume 546.214296
_symmetry_space_group_name_H-M "P -1"
_symmetry_group_IT_number 2
_symmetry_cell_setting 'triclinic'
loop_
_space_group_symop_operation_xyz
x,y,z
-x,-y,-z
loop_
_atom_site_type_symbol
_atom_site_label
_atom_site_fract_x
_atom_site_fract_y
_atom_site_fract_z
Si Si1 0.406559 0.450676 0.763168
Si Si2 0.486080 0.791702 0.661794
Si Si3 0.925027 0.798960 0.179232
Si Si4 0.001381 0.303851 0.133124
Si Si5 0.658193 0.190058 0.734320
Si Si6 0.837803 0.314088 0.763417
O O1 0.500000 0.500000 0.500000
O O2 0.379869 0.633151 0.751608
O O3 0.546771 0.345553 0.751583
O O4 0.190589 0.316699 0.031624
O O5 0.699769 0.756697 0.467161
O O6 0.500000 0.000000 0.500000
O O7 0.384608 0.728925 0.935846
O O8 0.064264 0.755298 0.173732
O O9 0.953606 0.753200 0.025462
O O10 0.000000 0.000000 0.000000
O O11 0.799773 0.204097 0.458778
O O12 0.000000 0.500000 0.000000
O O13 0.801450 0.230638 0.698952
O O14 0.500000 0.000000 0.000000
O O15 0.000000 0.500000 0.500000
#
# Coordination Sequence:
#
# PCOD9070918 Si02
#       6
#     2   2   2   2   2   2
#     4  12  25  47  81 110 148 198 259 302 380 454
#     4  12  26  47  80 112 148 202 259 311 366 460
#     4  12  27  45  79 111 142 200 259 300 372 456
#     4  12  25  49  81 107 149 200 256 310 372 457
#     4  12  31  49  76 118 157 196 250 323 387 443
#     4  12  28  50  74 111 160 193 249 317 390 437
#
# _framework density 21.9694
#
# number of rings (size 3 to 8) (size 9 to 14) (size 15 to 20)
#    0.000    0.000    5.000    4.000    7.000    4.667 
#    0.000    0.000    0.000    0.000    0.000    0.000 
#    0.000    0.000    0.000    0.000    0.000    0.000 
#
# Total GULP energy -66867.001618 kJ/mol
# GULP energy per Si atom -5572.250135 kJ/mol
# Density = 2.191940 g / cm^3
# Si number density = 21.969400 Si / 1000 Ang^3
#
#
#
# Elastic Constant Matrix: (Units=GPa)
#
#
# Indices 1 2 3 4 5 6 
#
# 1 37.4293 20.6946 52.5437 37.4602 -36.8145 71.4978
# 2 20.6946 115.9592 43.5567 -0.8847 -1.5432 18.8818
# 3 52.5437 43.5567 167.9163 -5.2755 2.6012 -16.9514
# 4 37.4602 -0.8847 -5.2755 34.0957 10.8771 -31.1779
# 5 -36.8145 -1.5432 2.6012 10.8771 27.9387 19.4329
# 6 71.4978 18.8818 -16.9514 -31.1779 19.4329 -19.4688
#
#
#
# Elastic Compliance Matrix: (Units=1/GPa)
#
#
# Indices 1 2 3 4 5 6 
#
# 1 0.005115 -0.002495 0.000130 0.003413 -0.001323 0.009466
# 2 -0.002495 0.010103 -0.001957 0.001528 -0.001811 -0.001913
# 3 0.000130 -0.001957 0.006119 -0.001787 0.001707 -0.002183
# 4 0.003413 0.001528 -0.001787 0.016943 0.003655 -0.007911
# 5 -0.001323 -0.001811 0.001707 0.003655 0.024833 0.010833
# 6 0.009466 -0.001913 -0.002183 -0.007911 0.010833 0.006925
#
#
# Mechanical properties :
#
#
# Convention : Reuss Voigt Hill
#
# Bulk Modulus (GPa) = 78.77851 61.65497 70.21674
# Shear Modulus (GPa) = 60.30383 22.14709 41.22546
#
# Velocity S-wave (km/s) = 5.24486 3.17848 4.33655
# Velocity P-wave (km/s) = 8.52140 6.44944 7.55677
#
# Compressibility (1/GPa) = 0.01269382
#
# Stress axis : x y z
#
# Youngs Moduli (GPa) = 195.50063 98.97884 163.41350
#
# Poissons Ratio (x) = 0.24690 -0.02121
# Poissons Ratio (y) = 0.48768 0.31984
# Poissons Ratio (z) = -0.02538 0.19372
#
# Static dielectric constant tensor:
#      x y z
#    x 2.132340 0.050420 -0.573740 
#    y 0.050420 1.830430 -0.085290 
#    z -0.573740 -0.085290 2.708460 
# 
# From -- ./inp_files/242345.got.cif
#   From: 2010.05.17/outbox.cif.g08.bks.cpg/sg2_122_cif.got.tgz:242345.got - 2010.06.03 11:33:40.
