data_PCOD9070524
_publ_section_title
;
Structure prediction by ZEFSAII (Michael W. Deem and Ramdas Pophale) SiO2 
 PCOD9070524
Probable space group: P -1
;
_chemical_formula_sum "Si O2"
_cell_formula_units_Z 16
_cell_length_a 14.874097
_cell_length_b 13.130408
_cell_length_c 9.285793
_cell_angle_alpha 44.958200
_cell_angle_beta 116.219738
_cell_angle_gamma 144.756949
_cell_volume 697.029896
_symmetry_space_group_name_H-M "P -1"
_symmetry_group_IT_number 2
_symmetry_cell_setting 'triclinic'
loop_
_space_group_symop_operation_xyz
x,y,z
-x,-y,-z
loop_
_atom_site_type_symbol
_atom_site_label
_atom_site_fract_x
_atom_site_fract_y
_atom_site_fract_z
Si Si1 0.368295 0.415973 0.098279
Si Si2 0.636648 0.251901 0.258791
Si Si3 0.121511 0.405341 0.368398
Si Si4 0.831743 0.892246 0.993533
Si Si5 0.050114 0.393582 0.658735
Si Si6 0.782301 0.958002 0.404234
Si Si7 0.346556 0.875300 0.915212
Si Si8 0.321773 0.350864 0.580928
O O1 0.214094 0.195714 0.113128
O O2 0.328781 0.284539 0.345211
O O3 0.500000 0.500000 0.000000
O O4 0.404211 0.626604 0.921956
O O5 0.804522 0.450202 0.275810
O O6 0.651256 0.194917 0.170405
O O7 0.500000 0.000000 0.500000
O O8 0.107443 0.402742 0.533128
O O9 0.258467 0.437250 0.404379
O O10 0.187723 0.631843 0.128569
O O11 0.949415 0.178240 0.391373
O O12 0.702388 0.689367 0.223877
O O13 0.882861 0.112431 0.849159
O O14 0.000000 0.000000 0.000000
O O15 0.000000 0.500000 0.500000
O O16 0.812549 0.912194 0.320875
O O17 0.678436 0.983791 0.272678
O O18 0.500000 0.000000 0.000000
O O19 0.500000 0.500000 0.500000
#
# Coordination Sequence:
#
# PCOD9070524 Si02
#       8
#     2   2   2   2   2   2   2   2
#     4  12  25  45  76 109 153 198 256 316 378 455
#     4  12  27  48  75 111 151 200 252 314 388 460
#     4  12  25  48  73 112 153 199 261 318 380 458
#     4  12  24  49  77 113 151 204 256 318 378 454
#     4  12  27  47  80 111 154 198 257 315 381 461
#     4  12  26  46  73 110 147 203 260 317 383 460
#     4  12  28  48  72 105 157 200 255 319 394 465
#     4  12  26  45  74 111 155 203 256 314 386 457
#
# _framework density 22.954540000000001
#
# number of rings (size 3 to 8) (size 9 to 14) (size 15 to 20)
#    0.000    0.000    3.750    5.250    5.250    1.000 
#    0.000    0.000    0.000    0.000    0.000    0.000 
#    0.000    0.000    0.000    0.000    0.000    0.000 
#
# Total GULP energy -89365.124564 kJ/mol
# GULP energy per Si atom -5585.320285 kJ/mol
# Density = 2.290229 g / cm^3
# Si number density = 22.954540 Si / 1000 Ang^3
#
#
#
# Elastic Constant Matrix: (Units=GPa)
#
#
# Indices 1 2 3 4 5 6 
#
# 1 100.7474 13.9755 28.1948 6.4345 29.3808 -2.7682
# 2 13.9755 133.8522 24.2740 21.7464 1.8121 -6.8029
# 3 28.1948 24.2740 149.7909 -3.3150 17.5574 -3.5276
# 4 6.4345 21.7464 -3.3150 47.5790 -12.9160 -3.5042
# 5 29.3808 1.8121 17.5574 -12.9160 51.8023 -4.9630
# 6 -2.7682 -6.8029 -3.5276 -3.5042 -4.9630 40.8236
#
#
#
# Elastic Compliance Matrix: (Units=1/GPa)
#
#
# Indices 1 2 3 4 5 6 
#
# 1 0.012917 -0.000366 -0.001557 -0.003851 -0.007803 -0.000599
# 2 -0.000366 0.008445 -0.001302 -0.003989 -0.000559 0.000860
# 3 -0.001557 -0.001302 0.007360 0.000984 -0.001297 0.000240
# 4 -0.003851 -0.003989 0.000984 0.025972 0.008700 0.002446
# 5 -0.007803 -0.000559 -0.001297 0.008700 0.026670 0.003255
# 6 -0.000599 0.000860 0.000240 0.002446 0.003255 0.025225
#
#
# Mechanical properties :
#
#
# Convention : Reuss Voigt Hill
#
# Bulk Modulus (GPa) = 44.89851 57.47547 51.18699
# Shear Modulus (GPa) = 41.50670 49.23739 45.37204
#
# Velocity S-wave (km/s) = 4.25692 4.63643 4.45073
# Velocity P-wave (km/s) = 6.61544 7.33179 6.98281
#
# Compressibility (1/GPa) = 0.02227245
#
# Stress axis : x y z
#
# Youngs Moduli (GPa) = 77.41489 118.41828 135.87793
#
# Poissons Ratio (x) = 0.04329 0.21154
# Poissons Ratio (y) = 0.02830 0.17694
# Poissons Ratio (z) = 0.12052 0.15420
#
# Static dielectric constant tensor:
#      x y z
#    x 1.425390 1.184010 -1.221530 
#    y 1.184010 -1.826100 3.705310 
#    z -1.221530 3.705310 -1.966250 
# 
# From -- ./inp_files/306543.got.cif
#   From: 2010.05.17/outbox.cif.g08.bks.cpg/sg2_154_cif.got.tgz:306543.got - 2010.06.03 11:33:40.
