data_PCOD9070217
_publ_section_title
;
Structure prediction by ZEFSAII (Michael W. Deem and Ramdas Pophale) SiO2 
 PCOD9070217
Probable space group: P -1
;
_chemical_formula_sum "Si O2"
_cell_formula_units_Z 13
_cell_length_a 9.380363
_cell_length_b 8.952093
_cell_length_c 11.601056
_cell_angle_alpha 39.203885
_cell_angle_beta 107.409825
_cell_angle_gamma 88.234315
_cell_volume 528.909235
_symmetry_space_group_name_H-M "P -1"
_symmetry_group_IT_number 2
_symmetry_cell_setting 'triclinic'
loop_
_space_group_symop_operation_xyz
x,y,z
-x,-y,-z
loop_
_atom_site_type_symbol
_atom_site_label
_atom_site_fract_x
_atom_site_fract_y
_atom_site_fract_z
Si Si1 0.162902 0.952274 0.496115
Si Si2 0.839901 0.781958 0.296833
Si Si3 0.444372 0.468371 0.378185
Si Si4 0.927624 0.194084 0.974085
Si Si5 0.000000 0.500000 0.000000
Si Si6 0.428396 0.980259 0.711074
Si Si7 0.655313 0.627211 0.167258
O O1 0.117999 0.212186 0.256207
O O2 0.322130 0.898358 0.646996
O O3 0.211056 0.673517 0.615303
O O4 0.000000 0.000000 0.500000
O O5 0.737257 0.795601 0.147283
O O6 0.000000 0.500000 0.500000
O O7 0.896799 0.014160 0.171079
O O8 0.707644 0.840967 0.332613
O O9 0.500000 0.500000 0.500000
O O10 0.512129 0.614596 0.219302
O O11 0.503018 0.158938 0.559741
O O12 0.249105 0.595234 0.237992
O O13 0.013525 0.354499 0.961287
O O14 0.000000 0.000000 0.000000
O O15 0.573822 0.745733 0.954642
#
# Coordination Sequence:
#
# PCOD9070217 Si02
#       7
#     2   2   2   2   1   2   2
#     4  12  29  49  76 108 152 204 256 324 394 463
#     4  12  24  46  75 112 149 198 261 313 385 467
#     4  12  25  46  74 111 152 199 259 314 389 459
#     4  12  27  48  79 111 154 206 253 321 385 461
#     4  12  28  52  74 118 154 192 272 316 382 466
#     4  12  24  48  73 107 155 198 252 319 388 465
#     4  12  27  47  75 113 149 201 257 323 387 471
#
# _framework density 24.578886000000001
#
# number of rings (size 3 to 8) (size 9 to 14) (size 15 to 20)
#    0.000    0.000    4.615    5.538    4.308    1.846 
#    0.000    0.000    0.000    0.000    0.000    0.000 
#    0.000    0.000    0.000    0.000    0.000    0.000 
#
# Total GULP energy -72544.281877 kJ/mol
# GULP energy per Si atom -5580.329375 kJ/mol
# Density = 2.452294 g / cm^3
# Si number density = 24.578886 Si / 1000 Ang^3
#
#
#
# Elastic Constant Matrix: (Units=GPa)
#
#
# Indices 1 2 3 4 5 6 
#
# 1 37.9233 7.4737 13.6167 0.3498 4.1103 9.4950
# 2 7.4737 115.1282 14.4119 -1.8958 11.1112 10.5866
# 3 13.6167 14.4119 181.2583 -4.9131 7.0528 2.0343
# 4 0.3498 -1.8958 -4.9131 50.8414 7.3382 9.5843
# 5 4.1103 11.1112 7.0528 7.3382 24.6666 -8.7361
# 6 9.4950 10.5866 2.0343 9.5843 -8.7361 33.3450
#
#
#
# Elastic Compliance Matrix: (Units=1/GPa)
#
#
# Indices 1 2 3 4 5 6 
#
# 1 0.031170 0.000419 -0.001732 0.003520 -0.010412 -0.012642
# 2 0.000419 0.009996 -0.000409 0.002493 -0.007284 -0.005893
# 3 -0.001732 -0.000409 0.005768 0.000852 -0.001566 -0.000384
# 4 0.003520 0.002493 0.000852 0.024083 -0.013473 -0.012298
# 5 -0.010412 -0.007284 -0.001566 -0.013473 0.058737 0.024634
# 6 -0.012642 -0.005893 -0.000384 -0.012298 0.024634 0.045472
#
#
# Mechanical properties :
#
#
# Convention : Reuss Voigt Hill
#
# Bulk Modulus (GPa) = 22.99473 45.03493 34.01483
# Shear Modulus (GPa) = 25.88420 41.69110 33.78765
#
# Velocity S-wave (km/s) = 3.24868 4.12298 3.71167
# Velocity P-wave (km/s) = 4.84228 6.40529 5.67783
#
# Compressibility (1/GPa) = 0.04348822
#
# Stress axis : x y z
#
# Youngs Moduli (GPa) = 32.08227 100.04114 173.37015
#
# Poissons Ratio (x) = -0.04190 0.30036
# Poissons Ratio (y) = -0.01344 0.07093
# Poissons Ratio (z) = 0.05558 0.04093
#
# Static dielectric constant tensor:
#      x y z
#    x 1.643670 0.375430 -0.421240 
#    y 0.375430 1.552700 0.346480 
#    z -0.421240 0.346480 1.560770 
# 
# From -- ./inp_files/183715.got.cif
#   From: 2010.05.17/outbox.cif.g08.bks.cpg/sg2_92_cif.got.tgz:183715.got - 2010.06.03 11:33:40.
