data_PCOD9070226
_publ_section_title
;
Structure prediction by ZEFSAII (Michael W. Deem and Ramdas Pophale) SiO2 
 PCOD9070226
Probable space group: P -1
;
_chemical_formula_sum "Si O2"
_cell_formula_units_Z 15
_cell_length_a 9.186134
_cell_length_b 17.273833
_cell_length_c 11.742060
_cell_angle_alpha 35.636073
_cell_angle_beta 131.681379
_cell_angle_gamma 144.327488
_cell_volume 632.996247
_symmetry_space_group_name_H-M "P -1"
_symmetry_group_IT_number 2
_symmetry_cell_setting 'triclinic'
loop_
_space_group_symop_operation_xyz
x,y,z
-x,-y,-z
loop_
_atom_site_type_symbol
_atom_site_label
_atom_site_fract_x
_atom_site_fract_y
_atom_site_fract_z
Si Si1 0.268377 0.354007 0.979299
Si Si2 0.922626 0.614509 0.780206
Si Si3 0.020315 0.735278 0.448960
Si Si4 0.500000 0.000000 0.000000
Si Si5 0.962593 0.126387 0.276578
Si Si6 0.874338 0.403611 0.670101
Si Si7 0.417654 0.010638 0.161557
Si Si8 0.612433 0.702583 0.141883
O O1 0.317785 0.324177 0.914286
O O2 0.086987 0.401938 0.833890
O O3 0.500000 0.500000 0.000000
O O4 0.125214 0.184450 0.179815
O O5 0.078911 0.744212 0.602070
O O6 0.642440 0.483595 0.743515
O O7 0.937783 0.719842 0.768576
O O8 0.000000 0.500000 0.000000
O O9 0.869698 0.538785 0.572610
O O10 0.837524 0.772859 0.262915
O O11 0.269504 0.856167 0.356684
O O12 0.625689 0.210354 0.787279
O O13 0.705520 0.028250 0.979222
O O14 0.676673 0.056359 0.187894
O O15 0.000000 0.000000 0.500000
O O16 0.000000 0.500000 0.500000
O O17 0.450957 0.167738 0.046572
#
# Coordination Sequence:
#
# PCOD9070226 Si02
#       8
#     2   2   2   1   2   2   2   2
#     4  12  26  48  78 109 155 196 258 320 388 466
#     4  12  26  51  75 107 158 204 258 321 395 459
#     4  12  28  46  79 116 150 206 262 319 392 472
#     4  12  24  46  76 106 154 196 250 320 386 460
#     4  12  29  47  75 116 147 208 262 322 392 469
#     4  12  24  47  75 112 151 199 256 312 393 457
#     4  12  27  47  77 111 159 200 257 331 387 464
#     4  12  26  49  76 115 150 202 259 325 391 465
#
# _framework density 23.696822999999998
#
# number of rings (size 3 to 8) (size 9 to 14) (size 15 to 20)
#    0.000    0.000    6.667    2.400    3.733    2.667 
#    0.000    0.000    0.000    0.000    0.000    0.000 
#    0.000    0.000    0.000    0.000    0.000    0.000 
#
# Total GULP energy -83604.240131 kJ/mol
# GULP energy per Si atom -5573.616009 kJ/mol
# Density = 2.364289 g / cm^3
# Si number density = 23.696823 Si / 1000 Ang^3
#
#
#
# Elastic Constant Matrix: (Units=GPa)
#
#
# Indices 1 2 3 4 5 6 
#
# 1 115.5111 8.6843 36.3886 -8.5430 -27.7051 -8.2943
# 2 8.6843 61.4987 4.0386 -13.7741 -0.9650 -5.0111
# 3 36.3886 4.0386 117.5721 -14.2864 -23.8066 1.1842
# 4 -8.5430 -13.7741 -14.2864 37.6871 -5.6352 1.6682
# 5 -27.7051 -0.9650 -23.8066 -5.6352 65.5531 -7.6021
# 6 -8.2943 -5.0111 1.1842 1.6682 -7.6021 37.5559
#
#
#
# Elastic Compliance Matrix: (Units=1/GPa)
#
#
# Indices 1 2 3 4 5 6 
#
# 1 0.010804 -0.000638 -0.002266 0.001854 0.004259 0.003152
# 2 -0.000638 0.018009 0.000583 0.006718 0.001035 0.002155
# 3 -0.002266 0.000583 0.010317 0.004089 0.003115 -0.000299
# 4 0.001854 0.006718 0.004089 0.031699 0.005188 0.000819
# 5 0.004259 0.001035 0.003115 0.005188 0.019184 0.004633
# 6 0.003152 0.002155 -0.000299 0.000819 0.004633 0.028522
#
#
# Mechanical properties :
#
#
# Convention : Reuss Voigt Hill
#
# Bulk Modulus (GPa) = 28.99574 43.64499 36.32036
# Shear Modulus (GPa) = 37.12694 44.52392 40.82543
#
# Velocity S-wave (km/s) = 3.96251 4.33933 4.15519
# Velocity P-wave (km/s) = 5.76177 6.60033 6.19526
#
# Compressibility (1/GPa) = 0.03448783
#
# Stress axis : x y z
#
# Youngs Moduli (GPa) = 92.55924 55.52886 96.92442
#
# Poissons Ratio (x) = 0.03542 0.21963
# Poissons Ratio (y) = 0.05904 -0.05649
# Poissons Ratio (z) = 0.20974 -0.03237
#
# Static dielectric constant tensor:
#      x y z
#    x 1.903950 0.109810 -0.292980 
#    y 0.109810 1.614610 0.137060 
#    z -0.292980 0.137060 1.040800 
# 
# From -- ./inp_files/402760.got.cif
#   From: 2010.05.17/outbox.cif.g08.bks.cpg/sg2_202_cif.got.tgz:402760.got - 2010.06.03 11:33:40.
