data_PCOD9070637
_publ_section_title
;
Structure prediction by ZEFSAII (Michael W. Deem and Ramdas Pophale) SiO2 
 PCOD9070637
Probable space group: P -1
;
_chemical_formula_sum "Si O2"
_cell_formula_units_Z 15
_cell_length_a 17.984890
_cell_length_b 7.939668
_cell_length_c 9.152045
_cell_angle_alpha 146.496527
_cell_angle_beta 108.973054
_cell_angle_gamma 63.118987
_cell_volume 639.839271
_symmetry_space_group_name_H-M "P -1"
_symmetry_group_IT_number 2
_symmetry_cell_setting 'triclinic'
loop_
_space_group_symop_operation_xyz
x,y,z
-x,-y,-z
loop_
_atom_site_type_symbol
_atom_site_label
_atom_site_fract_x
_atom_site_fract_y
_atom_site_fract_z
Si Si1 0.485199 0.166587 0.764455
Si Si2 0.445599 0.280607 0.272794
Si Si3 0.959821 0.716252 0.775509
Si Si4 0.239996 0.098165 0.247178
Si Si5 0.000000 0.500000 0.000000
Si Si6 0.809760 0.619931 0.022141
Si Si7 0.737755 0.346026 0.540771
Si Si8 0.704008 0.629003 0.239228
O O1 0.388654 0.222258 0.783267
O O2 0.500000 0.000000 0.500000
O O3 0.555984 0.923889 0.733567
O O4 0.500000 0.500000 0.000000
O O5 0.500000 0.500000 0.500000
O O6 0.353461 0.508175 0.338547
O O7 0.500000 0.000000 0.000000
O O8 0.859402 0.841080 0.774230
O O9 0.000000 0.500000 0.500000
O O10 0.974812 0.565262 0.842081
O O11 0.000000 0.000000 0.000000
O O12 0.251405 0.386452 0.367309
O O13 0.277870 0.144646 0.462086
O O14 0.286665 0.729880 0.955958
O O15 0.903822 0.603561 0.056295
O O16 0.775745 0.569360 0.120827
O O17 0.753933 0.997669 0.226033
O O18 0.800700 0.342960 0.709517
#
# Coordination Sequence:
#
# PCOD9070637 Si02
#       8
#     2   2   2   2   1   2   2   2
#     4  12  25  44  70 107 143 191 246 303 372 451
#     4  12  25  44  69 102 144 189 240 300 362 445
#     4  12  28  50  77 113 153 200 261 325 393 468
#     4  12  25  47  70 103 141 191 240 299 379 447
#     4  12  28  52  80 114 156 202 270 322 402 464
#     4  12  27  46  73 105 144 192 248 311 379 457
#     4  12  25  46  70 103 143 191 238 300 375 447
#     4  12  25  46  72 105 146 194 244 309 376 451
#
# _framework density 23.443389
#
# number of rings (size 3 to 8) (size 9 to 14) (size 15 to 20)
#    0.000    0.000    1.333    9.600    1.867    2.133 
#    0.000    0.000    0.000    0.000    0.000    0.000 
#    0.000    0.000    0.000    0.000    0.000    0.000 
#
# Total GULP energy -83625.463818 kJ/mol
# GULP energy per Si atom -5575.030921 kJ/mol
# Density = 2.339003 g / cm^3
# Si number density = 23.443389 Si / 1000 Ang^3
#
#
#
# Elastic Constant Matrix: (Units=GPa)
#
#
# Indices 1 2 3 4 5 6 
#
# 1 131.2725 14.5104 28.0541 5.4473 -5.8544 -16.1532
# 2 14.5104 66.8705 9.9658 -8.2386 7.6516 -3.1828
# 3 28.0541 9.9658 108.3949 -10.8567 24.6622 2.5171
# 4 5.4473 -8.2386 -10.8567 26.9119 15.0324 -1.1614
# 5 -5.8544 7.6516 24.6622 15.0324 37.0153 6.7639
# 6 -16.1532 -3.1828 2.5171 -1.1614 6.7639 51.1486
#
#
#
# Elastic Compliance Matrix: (Units=1/GPa)
#
#
# Indices 1 2 3 4 5 6 
#
# 1 0.010592 -0.004077 -0.006174 -0.012093 0.011244 0.001634
# 2 -0.004077 0.018984 0.004189 0.016457 -0.014403 0.001966
# 3 -0.006174 0.004189 0.018009 0.022865 -0.023315 0.001027
# 4 -0.012093 0.016457 0.022865 0.085546 -0.056289 0.005466
# 5 0.011244 -0.014403 -0.023315 -0.056289 0.071430 -0.006922
# 6 0.001634 0.001966 0.001027 0.005466 -0.006922 0.021178
#
#
# Mechanical properties :
#
#
# Convention : Reuss Voigt Hill
#
# Bulk Modulus (GPa) = 28.19929 45.73315 36.96622
# Shear Modulus (GPa) = 20.02540 39.94902 29.98721
#
# Velocity S-wave (km/s) = 2.92584 4.13251 3.58038
# Velocity P-wave (km/s) = 4.84447 6.50542 5.73539
#
# Compressibility (1/GPa) = 0.03546188
#
# Stress axis : x y z
#
# Youngs Moduli (GPa) = 94.40942 52.67670 55.52711
#
# Poissons Ratio (x) = 0.21477 0.34283
# Poissons Ratio (y) = 0.38491 -0.23263
# Poissons Ratio (z) = 0.58289 -0.22069
#
# Static dielectric constant tensor:
#      x y z
#    x 1.888890 0.022090 -0.019710 
#    y 0.022090 2.074050 -0.016410 
#    z -0.019710 -0.016410 1.870190 
# 
# From -- ./inp_files/329747.got.cif
#   From: 2010.05.17/outbox.cif.g08.bks.cpg/sg2_165_cif.got.tgz:329747.got - 2010.06.03 11:33:40.
