data_PCOD9070614
_publ_section_title
;
Structure prediction by ZEFSAII (Michael W. Deem and Ramdas Pophale) SiO2 
 PCOD9070614
Probable space group: P -1
;
_chemical_formula_sum "Si O2"
_cell_formula_units_Z 12
_cell_length_a 11.686273
_cell_length_b 14.376809
_cell_length_c 23.002125
_cell_angle_alpha 15.670772
_cell_angle_beta 27.653233
_cell_angle_gamma 30.858146
_cell_volume 483.997552
_symmetry_space_group_name_H-M "P -1"
_symmetry_group_IT_number 2
_symmetry_cell_setting 'triclinic'
loop_
_space_group_symop_operation_xyz
x,y,z
-x,-y,-z
loop_
_atom_site_type_symbol
_atom_site_label
_atom_site_fract_x
_atom_site_fract_y
_atom_site_fract_z
Si Si1 0.321701 0.337137 0.608486
Si Si2 0.358781 0.235458 0.995058
Si Si3 0.262419 0.532907 0.393448
Si Si4 0.939198 0.958228 0.653301
Si Si5 0.247623 0.181077 0.855661
Si Si6 0.235872 0.359713 0.193562
O O1 0.274041 0.289364 0.591250
O O2 0.273444 0.078784 0.837954
O O3 0.590988 0.484902 0.406535
O O4 0.153431 0.674847 0.499200
O O5 0.486781 0.518544 0.727105
O O6 0.137741 0.290143 0.108912
O O7 0.278262 0.923753 0.176882
O O8 0.605643 0.097256 0.003201
O O9 0.000000 0.500000 0.500000
O O10 0.790361 0.812467 0.753892
O O11 0.180772 0.079552 0.437484
O O12 0.974830 0.332668 0.897624
O O13 0.500000 0.500000 0.000000
#
# Coordination Sequence:
#
# PCOD9070614 Si02
#       6
#     2   2   2   2   2   2
#     4   8  15  31  52  70  96 127 157 197 240 283
#     4   9  18  33  52  72  98 127 159 200 240 282
#     4   9  17  30  50  75  98 125 159 196 241 288
#     4   8  17  31  45  66  96 128 158 190 236 288
#     4   8  15  30  49  73  98 120 157 202 239 279
#     4  10  18  29  46  71 101 129 157 195 243 288
#
# _framework density 24.793514999999999
#
# number of rings (size 3 to 8) (size 9 to 14) (size 15 to 20)
#    0.000    3.667    0.000    1.000    0.000    4.000 
#    0.000   17.500    0.000   16.000    0.000   49.000 
#    0.000    0.000    0.000    0.000    0.000    0.000 
#
# Total GULP energy -66859.036377 kJ/mol
# GULP energy per Si atom -5571.586365 kJ/mol
# Density = 2.473708 g / cm^3
# Si number density = 24.793515 Si / 1000 Ang^3
#
#
#
# Elastic Constant Matrix: (Units=GPa)
#
#
# Indices 1 2 3 4 5 6 
#
# 1 161.4488 30.5259 59.6789 20.5551 9.7111 18.9307
# 2 30.5259 64.5048 29.6038 25.2573 10.9199 17.9870
# 3 59.6789 29.6038 95.6119 30.4142 -8.9834 21.1654
# 4 20.5551 25.2573 30.4142 30.4385 -9.2235 13.1516
# 5 9.7111 10.9199 -8.9834 -9.2235 44.8933 15.3785
# 6 18.9307 17.9870 21.1654 13.1516 15.3785 33.2825
#
#
#
# Elastic Compliance Matrix: (Units=1/GPa)
#
#
# Indices 1 2 3 4 5 6 
#
# 1 0.008508 -0.000893 -0.005142 -0.001213 -0.003199 0.000871
# 2 -0.000893 0.028787 -0.001727 -0.027087 -0.013790 0.003123
# 3 -0.005142 -0.001727 0.019450 -0.009384 0.006109 -0.007626
# 4 -0.001213 -0.027087 -0.009384 0.087796 0.032791 -0.028548
# 5 -0.003199 -0.013790 0.006109 0.032791 0.043808 -0.027811
# 6 0.000871 0.003123 -0.007626 -0.028548 -0.027811 0.056843
#
#
# Mechanical properties :
#
#
# Convention : Reuss Voigt Hill
#
# Bulk Modulus (GPa) = 24.25834 62.35363 43.30599
# Shear Modulus (GPa) = 18.21791 35.17333 26.69562
#
# Velocity S-wave (km/s) = 2.71363 3.77058 3.28490
# Velocity P-wave (km/s) = 4.42988 6.64531 5.64730
#
# Compressibility (1/GPa) = 0.04122293
#
# Stress axis : x y z
#
# Youngs Moduli (GPa) = 117.53494 34.73757 51.41441
#
# Poissons Ratio (x) = 0.03102 0.26436
# Poissons Ratio (y) = 0.10495 0.08877
# Poissons Ratio (z) = 0.60433 0.05998
#
# Static dielectric constant tensor:
#      x y z
#    x 2.005180 -0.007910 0.077290 
#    y -0.007910 2.055660 0.018420 
#    z 0.077290 0.018420 2.032080 
# 
# From -- ./inp_files/610490.got.cif
#   From: 2010.05.17/outbox.cif.g08.bks.cpg/sg2_306_cif.got.tgz:610490.got - 2010.06.03 11:33:40.
