data_PCOD9070744
_publ_section_title
;
Structure prediction by ZEFSAII (Michael W. Deem and Ramdas Pophale) SiO2 
 PCOD9070744
Probable space group: P -1
;
_chemical_formula_sum "Si O2"
_cell_formula_units_Z 14
_cell_length_a 12.139395
_cell_length_b 9.585151
_cell_length_c 8.855265
_cell_angle_alpha 87.328063
_cell_angle_beta 36.761708
_cell_angle_gamma 85.781771
_cell_volume 614.869293
_symmetry_space_group_name_H-M "P -1"
_symmetry_group_IT_number 2
_symmetry_cell_setting 'triclinic'
loop_
_space_group_symop_operation_xyz
x,y,z
-x,-y,-z
loop_
_atom_site_type_symbol
_atom_site_label
_atom_site_fract_x
_atom_site_fract_y
_atom_site_fract_z
Si Si1 0.073047 0.021615 0.589321
Si Si2 0.697233 0.019937 0.165281
Si Si3 0.458651 0.889619 0.184544
Si Si4 0.176402 0.194785 0.731940
Si Si5 0.452172 0.665022 0.661995
Si Si6 0.557845 0.429970 0.782436
Si Si7 0.134802 0.616798 0.783582
O O1 0.240116 0.909513 0.435716
O O2 0.140161 0.163198 0.594711
O O3 0.000000 0.000000 0.500000
O O4 0.896929 0.995991 0.879310
O O5 0.564966 0.932391 0.213590
O O6 0.727430 0.948708 0.298049
O O7 0.635803 0.182037 0.203618
O O8 0.506977 0.726640 0.119998
O O9 0.500000 0.000000 0.000000
O O10 0.331852 0.304933 0.586561
O O11 0.993719 0.246581 0.024599
O O12 0.444217 0.535318 0.789029
O O13 0.328164 0.628293 0.658709
O O14 0.773574 0.414097 0.482918
O O15 0.500000 0.500000 0.000000
O O16 0.000000 0.500000 0.000000
#
# Coordination Sequence:
#
# PCOD9070744 Si02
#       7
#     2   2   2   2   2   2   2
#     4  12  26  45  76 114 155 196 258 326 390 460
#     4  12  25  45  78 112 150 203 265 319 383 462
#     4  12  26  48  76 109 156 204 256 324 394 457
#     4  12  26  46  80 115 151 206 264 318 386 465
#     4  12  26  50  77 111 158 203 257 321 389 466
#     4  12  29  49  77 112 157 207 258 319 395 463
#     4  12  27  50  80 112 159 207 260 321 390 465
#
# _framework density 22.769065999999999
#
# number of rings (size 3 to 8) (size 9 to 14) (size 15 to 20)
#    0.000    0.000    5.714    3.857    4.000    0.000 
#    0.000    0.714    0.000    0.000    0.000    0.000 
#    0.000    0.000    0.000    0.000    0.000    0.000 
#
# Total GULP energy -78015.204578 kJ/mol
# GULP energy per Si atom -5572.514613 kJ/mol
# Density = 2.271724 g / cm^3
# Si number density = 22.769066 Si / 1000 Ang^3
#
#
#
# Elastic Constant Matrix: (Units=GPa)
#
#
# Indices 1 2 3 4 5 6 
#
# 1 129.8847 59.7159 46.7951 8.3921 -17.9259 17.9828
# 2 59.7159 181.3426 58.0042 20.0446 13.8322 -1.8345
# 3 46.7951 58.0042 121.5811 9.2979 -1.4325 11.6482
# 4 8.3921 20.0446 9.2979 37.6983 2.8126 -0.4438
# 5 -17.9259 13.8322 -1.4325 2.8126 32.9305 0.8440
# 6 17.9828 -1.8345 11.6482 -0.4438 0.8440 44.6012
#
#
#
# Elastic Compliance Matrix: (Units=1/GPa)
#
#
# Indices 1 2 3 4 5 6 
#
# 1 0.012118 -0.003879 -0.002213 -0.000764 0.008314 -0.004632
# 2 -0.003879 0.008361 -0.002628 -0.002485 -0.005594 0.002675
# 3 -0.002213 -0.002628 0.010587 -0.000780 0.000477 -0.001998
# 4 -0.000764 -0.002485 -0.000780 0.028357 -0.001847 0.000727
# 5 0.008314 -0.005594 0.000477 -0.001847 0.037535 -0.004435
# 6 -0.004632 0.002675 -0.001998 0.000727 -0.004435 0.025012
#
#
# Mechanical properties :
#
#
# Convention : Reuss Voigt Hill
#
# Bulk Modulus (GPa) = 73.39178 84.64876 79.02027
# Shear Modulus (GPa) = 34.73395 40.93222 37.83309
#
# Velocity S-wave (km/s) = 3.90999 4.24454 4.08070
# Velocity P-wave (km/s) = 7.25859 7.82811 7.54872
#
# Compressibility (1/GPa) = 0.01362550
#
# Stress axis : x y z
#
# Youngs Moduli (GPa) = 82.52105 119.60528 94.45304
#
# Poissons Ratio (x) = 0.46396 0.20905
# Poissons Ratio (y) = 0.32011 0.24822
# Poissons Ratio (z) = 0.18264 0.31432
#
# Static dielectric constant tensor:
#      x y z
#    x 1.919840 -0.031220 0.093330 
#    y -0.031220 1.905100 0.015490 
#    z 0.093330 0.015490 1.937310 
# 
# From -- ./inp_files/243796.got.cif
#   From: 2010.05.17/outbox.cif.g08.bks.cpg/sg2_122_cif.got.tgz:243796.got - 2010.06.03 11:33:40.
