data_PCOD9070675
_publ_section_title
;
Structure prediction by ZEFSAII (Michael W. Deem and Ramdas Pophale) SiO2 
 PCOD9070675
Probable space group: P -1
;
_chemical_formula_sum "Si O2"
_cell_formula_units_Z 16
_cell_length_a 5.230254
_cell_length_b 11.685808
_cell_length_c 14.336330
_cell_angle_alpha 87.043220
_cell_angle_beta 126.059584
_cell_angle_gamma 78.657433
_cell_volume 678.859490
_symmetry_space_group_name_H-M "P -1"
_symmetry_group_IT_number 2
_symmetry_cell_setting 'triclinic'
loop_
_space_group_symop_operation_xyz
x,y,z
-x,-y,-z
loop_
_atom_site_type_symbol
_atom_site_label
_atom_site_fract_x
_atom_site_fract_y
_atom_site_fract_z
Si Si1 0.291122 0.279481 0.572091
Si Si2 0.613446 0.504851 0.915620
Si Si3 0.385782 0.957206 0.071176
Si Si4 0.537078 0.054107 0.289401
Si Si5 0.337049 0.298722 0.788320
Si Si6 0.386818 0.529400 0.369262
Si Si7 0.243882 0.948149 0.392152
Si Si8 0.625287 0.313968 0.307075
O O1 0.321636 0.235100 0.687121
O O2 0.336827 0.407837 0.603399
O O3 0.598214 0.192119 0.587093
O O4 0.977469 0.290778 0.438069
O O5 0.554058 0.390539 0.852013
O O6 0.413521 0.621207 0.805761
O O7 0.500000 0.500000 0.000000
O O8 0.000000 0.500000 0.000000
O O9 0.530851 0.814962 0.113244
O O10 0.505339 0.025090 0.176873
O O11 0.500000 0.000000 0.000000
O O12 0.000000 0.000000 0.000000
O O13 0.525030 0.191876 0.292705
O O14 0.267524 0.013633 0.295120
O O15 0.920919 0.978434 0.385098
O O16 0.965075 0.376897 0.722078
O O17 0.500000 0.500000 0.500000
O O18 0.389401 0.413104 0.317921
O O19 0.500000 0.000000 0.500000
#
# Coordination Sequence:
#
# PCOD9070675 Si02
#       8
#     2   2   2   2   2   2   2   2
#     4  12  25  47  77 114 156 198 257 330 394 476
#     4  12  30  52  76 109 155 208 262 314 386 460
#     4  12  30  52  81 112 153 211 276 325 383 460
#     4  12  28  49  75 112 155 203 255 321 386 465
#     4  12  27  51  82 111 160 206 264 333 396 463
#     4  12  25  44  79 115 159 203 253 317 403 475
#     4  12  26  46  75 112 157 199 243 309 403 460
#     4  12  27  48  77 117 156 203 259 321 399 476
#
# _framework density 23.568942
#
# number of rings (size 3 to 8) (size 9 to 14) (size 15 to 20)
#    0.000    0.000    5.000    3.750    7.000    2.000 
#    0.000    0.000    0.000    0.000    0.000    0.000 
#    0.000    0.000    0.000    0.000    0.000    0.000 
#
# Total GULP energy -89407.050800 kJ/mol
# GULP energy per Si atom -5587.940675 kJ/mol
# Density = 2.351530 g / cm^3
# Si number density = 23.568942 Si / 1000 Ang^3
#
#
#
# Elastic Constant Matrix: (Units=GPa)
#
#
# Indices 1 2 3 4 5 6 
#
# 1 102.2679 23.2492 50.1811 -7.5548 0.1275 0.3399
# 2 23.2492 159.0283 35.8094 -3.3288 14.6791 -2.5846
# 3 50.1811 35.8094 133.0913 1.4499 -5.0680 6.9749
# 4 -7.5548 -3.3288 1.4499 52.6632 -0.3653 4.1932
# 5 0.1275 14.6791 -5.0680 -0.3653 48.4938 5.6287
# 6 0.3399 -2.5846 6.9749 4.1932 5.6287 40.0507
#
#
#
# Elastic Compliance Matrix: (Units=1/GPa)
#
#
# Indices 1 2 3 4 5 6 
#
# 1 0.012277 -0.000706 -0.004497 0.001799 -0.000332 0.000492
# 2 -0.000706 0.007041 -0.001781 0.000290 -0.002439 0.001083
# 3 -0.004497 -0.001781 0.009869 -0.000861 0.001803 -0.001959
# 4 0.001799 0.000290 -0.000861 0.019442 0.000186 -0.001908
# 5 -0.000332 -0.002439 0.001803 0.000186 0.021965 -0.003575
# 6 0.000492 0.001083 -0.001959 -0.001908 -0.003575 0.026077
#
#
# Mechanical properties :
#
#
# Convention : Reuss Voigt Hill
#
# Bulk Modulus (GPa) = 65.70637 68.09631 66.90134
# Shear Modulus (GPa) = 43.21025 47.25138 45.23082
#
# Velocity S-wave (km/s) = 4.28642 4.48237 4.38549
# Velocity P-wave (km/s) = 7.24132 7.46619 7.35461
#
# Compressibility (1/GPa) = 0.01521922
#
# Stress axis : x y z
#
# Youngs Moduli (GPa) = 81.45311 142.01961 101.32589
#
# Poissons Ratio (x) = 0.10025 0.45567
# Poissons Ratio (y) = 0.05750 0.18048
# Poissons Ratio (z) = 0.36630 0.25296
#
# Static dielectric constant tensor:
#      x y z
#    x 3.924420 0.832430 -0.559760 
#    y 0.832430 2.174830 -0.238100 
#    z -0.559760 -0.238100 2.072770 
# 
# From -- ./inp_files/482854.got.cif
#   From: 2010.05.17/outbox.cif.g08.bks.cpg/sg2_242_cif.got.tgz:482854.got - 2010.06.03 11:33:40.
