data_PCOD9070741
_publ_section_title
;
Structure prediction by ZEFSAII (Michael W. Deem and Ramdas Pophale) SiO2 
 PCOD9070741
Probable space group: P -1
;
_chemical_formula_sum "Si O2"
_cell_formula_units_Z 11
_cell_length_a 15.833953
_cell_length_b 13.443727
_cell_length_c 5.869055
_cell_angle_alpha 120.207515
_cell_angle_beta 49.077848
_cell_angle_gamma 148.412571
_cell_volume 489.691634
_symmetry_space_group_name_H-M "P -1"
_symmetry_group_IT_number 2
_symmetry_cell_setting 'triclinic'
loop_
_space_group_symop_operation_xyz
x,y,z
-x,-y,-z
loop_
_atom_site_type_symbol
_atom_site_label
_atom_site_fract_x
_atom_site_fract_y
_atom_site_fract_z
Si Si1 0.323594 0.322157 0.759849
Si Si2 0.441135 0.226534 0.763320
Si Si3 0.000000 0.500000 0.500000
Si Si4 0.881495 0.002714 0.589787
Si Si5 0.149469 0.398725 0.371890
Si Si6 0.403940 0.948189 0.357773
O O1 0.500000 0.500000 0.500000
O O2 0.401634 0.318729 0.834038
O O3 0.186275 0.116483 0.654432
O O4 0.216238 0.350541 0.034663
O O5 0.660873 0.400265 0.617758
O O6 0.383144 0.069497 0.535420
O O7 0.308313 0.115644 0.088734
O O8 0.047097 0.415647 0.444235
O O9 0.212331 0.721248 0.435928
O O10 0.000000 0.000000 0.500000
O O11 0.011121 0.220335 0.583375
O O12 0.500000 0.000000 0.500000
O O13 0.500000 0.000000 0.000000
#
# Coordination Sequence:
#
# PCOD9070741 Si02
#       6
#     2   2   1   2   2   2
#     4  12  25  45  77 111 155 202 260 335 414 478
#     4  12  27  51  76 112 157 206 269 342 409 481
#     4  12  30  50  82 116 166 220 280 330 414 504
#     4  12  26  46  76 115 153 199 265 331 412 487
#     4  12  26  49  75 115 158 212 265 333 409 486
#     4  12  31  56  82 117 167 219 277 342 413 497
#
# _framework density 22.463114000000001
#
# number of rings (size 3 to 8) (size 9 to 14) (size 15 to 20)
#    0.000    0.000    5.455    3.273   10.182    2.182 
#    0.000    0.000    0.000    0.000    0.000    0.000 
#    0.000    0.000    0.000    0.000    0.000    0.000 
#
# Total GULP energy -61253.506968 kJ/mol
# GULP energy per Si atom -5568.500633 kJ/mol
# Density = 2.241199 g / cm^3
# Si number density = 22.463114 Si / 1000 Ang^3
#
#
#
# Elastic Constant Matrix: (Units=GPa)
#
#
# Indices 1 2 3 4 5 6 
#
# 1 164.5355 51.1483 10.5642 -12.7015 -12.0586 -16.6765
# 2 51.1483 188.2267 40.5466 -23.1725 4.1333 -8.6528
# 3 10.5642 40.5466 25.7086 0.3744 29.8082 -13.8365
# 4 -12.7015 -23.1725 0.3744 43.8504 -3.8630 -6.7069
# 5 -12.0586 4.1333 29.8082 -3.8630 10.4465 8.5678
# 6 -16.6765 -8.6528 -13.8365 -6.7069 8.5678 50.9924
#
#
#
# Elastic Compliance Matrix: (Units=1/GPa)
#
#
# Indices 1 2 3 4 5 6 
#
# 1 0.006929 -0.002150 0.002608 0.001243 -0.000472 0.002852
# 2 -0.002150 0.006329 0.000555 0.002383 -0.007391 0.002077
# 3 0.002608 0.000555 -0.009291 0.003227 0.036464 -0.007276
# 4 0.001243 0.002383 0.003227 0.024897 -0.004152 0.005659
# 5 -0.000472 -0.007391 0.036464 -0.004152 -0.016225 0.010666
# 6 0.002852 0.002077 -0.007276 0.005659 0.010666 0.017874
#
#
# Mechanical properties :
#
#
# Convention : Reuss Voigt Hill
#
# Bulk Modulus (GPa) = 166.88865 64.77656 115.83261
# Shear Modulus (GPa) = 164.02351 39.47198 101.74775
#
# Velocity S-wave (km/s) = 8.55439 4.19643 6.73749
# Velocity P-wave (km/s) = 13.11586 7.23737 10.59258
#
# Compressibility (1/GPa) = 0.00599202
#
# Stress axis : x y z
#
# Youngs Moduli (GPa) = 144.31924 158.01073 -107.62799
#
# Poissons Ratio (x) = 0.33976 0.28071
# Poissons Ratio (y) = 0.31032 0.05972
# Poissons Ratio (z) = -0.37640 -0.08767
#
# Static dielectric constant tensor:
#      x y z
#    x 1.759060 0.147310 0.063300 
#    y 0.147310 1.689510 -0.029630 
#    z 0.063300 -0.029630 1.887360 
# 
# From -- ./inp_files/31503.got.cif
#   From: 2010.05.17/outbox.cif.g08.bks.cpg/sg2_16_cif.got.tgz:31503.got - 2010.06.03 11:33:40.
