data_PCOD9070903
_publ_section_title
;
Structure prediction by ZEFSAII (Michael W. Deem and Ramdas Pophale) SiO2 
 PCOD9070903
Probable space group: P -1
;
_chemical_formula_sum "Si O2"
_cell_formula_units_Z 16
_cell_length_a 22.288268
_cell_length_b 8.156581
_cell_length_c 4.872845
_cell_angle_alpha 75.983263
_cell_angle_beta 81.067180
_cell_angle_gamma 47.629111
_cell_volume 634.948398
_symmetry_space_group_name_H-M "P -1"
_symmetry_group_IT_number 2
_symmetry_cell_setting 'triclinic'
loop_
_space_group_symop_operation_xyz
x,y,z
-x,-y,-z
loop_
_atom_site_type_symbol
_atom_site_label
_atom_site_fract_x
_atom_site_fract_y
_atom_site_fract_z
Si Si1 0.612524 0.644617 0.998041
Si Si2 0.134844 0.536025 0.973483
Si Si3 0.532682 0.269519 0.700900
Si Si4 0.223988 0.838549 0.940642
Si Si5 0.035218 0.613128 0.532664
Si Si6 0.609802 0.880444 0.410119
Si Si7 0.871097 0.098632 0.497578
Si Si8 0.292863 0.062277 0.002471
O O1 0.536426 0.661270 0.065976
O O2 0.694949 0.402698 0.126823
O O3 0.594269 0.832776 0.141056
O O4 0.629088 0.690039 0.670803
O O5 0.096737 0.479374 0.796811
O O6 0.134606 0.714570 0.739682
O O7 0.224920 0.308556 0.082042
O O8 0.079304 0.626613 0.244231
O O9 0.500000 0.500000 0.500000
O O10 0.377902 0.875108 0.174739
O O11 0.540821 0.112035 0.522752
O O12 0.166545 0.964268 0.668518
O O13 0.252800 0.959353 0.002977
O O14 0.179121 0.815108 0.220335
O O15 0.000000 0.500000 0.500000
O O16 0.961862 0.868186 0.582485
O O17 0.680900 0.883936 0.310620
#
# Coordination Sequence:
#
# PCOD9070903 Si02
#       8
#     2   2   2   2   2   2   2   2
#     4  12  27  49  75 109 146 203 251 319 374 455
#     4  12  26  47  77 109 152 196 252 306 374 447
#     4  12  30  50  77 109 154 198 260 314 389 449
#     4  12  27  46  75 108 156 193 256 305 379 442
#     4  12  25  47  78 112 154 196 245 306 379 451
#     4  12  27  50  76 107 147 196 258 310 384 446
#     4  12  26  48  75 115 150 201 251 308 374 449
#     4  12  29  48  75 111 153 200 253 319 380 450
#
# _framework density 25.198900999999999
#
# number of rings (size 3 to 8) (size 9 to 14) (size 15 to 20)
#    0.000    0.000    1.250    7.875    8.750    1.000 
#    0.000    0.000    0.000    0.000    0.000    0.000 
#    0.000    0.000    0.000    0.000    0.000    0.000 
#
# Total GULP energy -89766.964062 kJ/mol
# GULP energy per Si atom -5610.435254 kJ/mol
# Density = 2.514155 g / cm^3
# Si number density = 25.198901 Si / 1000 Ang^3
#
#
#
# Elastic Constant Matrix: (Units=GPa)
#
#
# Indices 1 2 3 4 5 6 
#
# 1 97.5503 36.3926 36.9436 -7.3624 -7.4496 -16.0311
# 2 36.3926 132.4636 13.6189 -0.6900 -11.9868 -24.9243
# 3 36.9436 13.6189 118.2444 6.4833 -3.0245 -19.4865
# 4 -7.3624 -0.6900 6.4833 38.7756 -7.6110 -0.8404
# 5 -7.4496 -11.9868 -3.0245 -7.6110 48.1944 -1.5041
# 6 -16.0311 -24.9243 -19.4865 -0.8404 -1.5041 43.8687
#
#
#
# Elastic Compliance Matrix: (Units=1/GPa)
#
#
# Indices 1 2 3 4 5 6 
#
# 1 0.013388 -0.002783 -0.003714 0.003496 0.001752 0.001788
# 2 -0.002783 0.009307 0.000608 0.000042 0.002074 0.004613
# 3 -0.003714 0.000608 0.010251 -0.002340 -0.000040 0.003496
# 4 0.003496 0.000042 -0.002340 0.027813 0.004826 0.000960
# 5 0.001752 0.002074 -0.000040 0.004826 0.022379 0.002660
# 6 0.001788 0.004613 0.003496 0.000960 0.002660 0.027732
#
#
# Mechanical properties :
#
#
# Convention : Reuss Voigt Hill
#
# Bulk Modulus (GPa) = 47.24152 58.01872 52.63012
# Shear Modulus (GPa) = 38.54953 43.58796 41.06874
#
# Velocity S-wave (km/s) = 3.91552 4.16355 4.04144
# Velocity P-wave (km/s) = 6.26338 6.79616 6.53520
#
# Compressibility (1/GPa) = 0.02116782
#
# Stress axis : x y z
#
# Youngs Moduli (GPa) = 74.69623 107.44458 97.55292
#
# Poissons Ratio (x) = 0.29901 0.36235
# Poissons Ratio (y) = 0.20788 -0.05936
# Poissons Ratio (z) = 0.27745 -0.06538
#
# Static dielectric constant tensor:
#      x y z
#    x 2.031940 0.028650 0.008650 
#    y 0.028650 1.942250 0.012660 
#    z 0.008650 0.012660 1.940230 
# 
# From -- ./inp_files/126418.got.cif
#   From: 2010.05.17/outbox.cif.g08.bks.cpg/sg2_64_cif.got.tgz:126418.got - 2010.06.03 11:33:40.
