data_PCOD9070636
_publ_section_title
;
Structure prediction by ZEFSAII (Michael W. Deem and Ramdas Pophale) SiO2 
 PCOD9070636
Probable space group: P -1
;
_chemical_formula_sum "Si O2"
_cell_formula_units_Z 10
_cell_length_a 11.187583
_cell_length_b 11.658213
_cell_length_c 9.432382
_cell_angle_alpha 95.494975
_cell_angle_beta 71.099689
_cell_angle_gamma 155.836682
_cell_volume 408.143025
_symmetry_space_group_name_H-M "P -1"
_symmetry_group_IT_number 2
_symmetry_cell_setting 'triclinic'
loop_
_space_group_symop_operation_xyz
x,y,z
-x,-y,-z
loop_
_atom_site_type_symbol
_atom_site_label
_atom_site_fract_x
_atom_site_fract_y
_atom_site_fract_z
Si Si1 0.599062 0.882113 0.575958
Si Si2 0.967965 0.618036 0.761160
Si Si3 0.500986 0.011992 0.831978
Si Si4 0.150600 0.280091 0.615002
Si Si5 0.301756 0.212586 0.014909
O O1 0.284178 0.523534 0.626669
O O2 0.525804 0.911271 0.731544
O O3 0.726125 0.061755 0.412489
O O4 0.941485 0.102857 0.526328
O O5 0.841371 0.386693 0.721249
O O6 0.605656 0.383267 0.867517
O O7 0.139800 0.755819 0.868718
O O8 0.500000 0.000000 0.000000
O O9 0.500000 0.500000 0.500000
O O10 0.888293 0.007635 0.803491
O O11 0.500000 0.500000 0.000000
O O12 0.000000 0.000000 0.000000
#
# Coordination Sequence:
#
# PCOD9070636 Si02
#       5
#     2   2   2   2   2
#     4  12  25  46  72 104 142 187 236 291 352 421
#     4  12  25  46  72 104 142 188 237 294 353 419
#     4  12  26  45  71 106 144 188 237 293 353 420
#     4  12  25  45  71 104 141 186 235 292 354 422
#     4  12  25  44  69 102 139 183 232 288 350 418
#
# _framework density 24.501215999999999
#
# number of rings (size 3 to 8) (size 9 to 14) (size 15 to 20)
#    0.000    0.000    0.000   10.800    0.000    3.200 
#    0.000    0.000    0.000    0.000    0.000    0.000 
#    0.000    0.000    0.000    0.000    0.000    0.000 
#
# Total GULP energy -56097.035792 kJ/mol
# GULP energy per Si atom -5609.703579 kJ/mol
# Density = 2.444545 g / cm^3
# Si number density = 24.501216 Si / 1000 Ang^3
#
#
#
# Elastic Constant Matrix: (Units=GPa)
#
#
# Indices 1 2 3 4 5 6 
#
# 1 115.4663 49.4047 38.5696 -6.3305 6.2636 5.4037
# 2 49.4047 192.0089 31.3655 -16.6112 21.5783 -10.4858
# 3 38.5696 31.3655 127.4640 -14.4288 19.5009 -17.6053
# 4 -6.3305 -16.6112 -14.4288 39.3443 -5.5803 16.0082
# 5 6.2636 21.5783 19.5009 -5.5803 47.0086 -3.8235
# 6 5.4037 -10.4858 -17.6053 16.0082 -3.8235 77.2847
#
#
#
# Elastic Compliance Matrix: (Units=1/GPa)
#
#
# Indices 1 2 3 4 5 6 
#
# 1 0.010764 -0.002434 -0.002983 0.000467 0.000828 -0.001818
# 2 -0.002434 0.006292 -0.000210 0.001658 -0.002238 0.000522
# 3 -0.002983 -0.000210 0.009748 0.001793 -0.003185 0.001872
# 4 0.000467 0.001658 0.001793 0.029249 0.001467 -0.005385
# 5 0.000828 -0.002238 -0.003185 0.001467 0.023667 -0.000220
# 6 -0.001818 0.000522 0.001872 -0.005385 -0.000220 0.014668
#
#
# Mechanical properties :
#
#
# Convention : Reuss Voigt Hill
#
# Bulk Modulus (GPa) = 64.30513 74.84653 69.57583
# Shear Modulus (GPa) = 45.11559 53.76748 49.44153
#
# Velocity S-wave (km/s) = 4.29576 4.68961 4.49700
# Velocity P-wave (km/s) = 7.13495 7.74194 7.44463
#
# Compressibility (1/GPa) = 0.01555086
#
# Stress axis : x y z
#
# Youngs Moduli (GPa) = 92.89890 158.92863 102.58066
#
# Poissons Ratio (x) = 0.38689 0.30601
# Poissons Ratio (y) = 0.22615 0.02150
# Poissons Ratio (z) = 0.27713 0.03330
#
# Static dielectric constant tensor:
#      x y z
#    x 1.903950 0.053150 -0.058560 
#    y 0.053150 1.865850 0.008620 
#    z -0.058560 0.008620 1.911820 
# 
# From -- ./inp_files/251808.got.cif
#   From: 2010.05.17/outbox.cif.g08.bks.cpg/sg2_126_cif.got.tgz:251808.got - 2010.06.03 11:33:40.
