data_PCOD9070555
_publ_section_title
;
Structure prediction by ZEFSAII (Michael W. Deem and Ramdas Pophale) SiO2 
 PCOD9070555
Probable space group: P -1
;
_chemical_formula_sum "Si O2"
_cell_formula_units_Z 7
_cell_length_a 5.343675
_cell_length_b 5.084682
_cell_length_c 9.596041
_cell_angle_alpha 95.128875
_cell_angle_beta 114.479260
_cell_angle_gamma 93.125763
_cell_volume 235.136888
_symmetry_space_group_name_H-M "P -1"
_symmetry_group_IT_number 2
_symmetry_cell_setting 'triclinic'
loop_
_space_group_symop_operation_xyz
x,y,z
-x,-y,-z
loop_
_atom_site_type_symbol
_atom_site_label
_atom_site_fract_x
_atom_site_fract_y
_atom_site_fract_z
Si Si1 0.057611 0.217407 0.639926
Si Si2 0.811392 0.885754 0.791481
Si Si3 0.613306 0.400232 0.876574
Si Si4 0.500000 0.500000 0.500000
O O1 0.818159 0.409342 0.595353
O O2 0.358792 0.381642 0.701082
O O3 0.060843 0.050804 0.776359
O O4 0.000000 0.000000 0.500000
O O5 0.835311 0.625887 0.876160
O O6 0.598770 0.788343 0.615517
O O7 0.694221 0.104117 0.873715
O O8 0.500000 0.500000 0.000000
#
# Coordination Sequence:
#
# PCOD9070555 Si02
#       4
#     2   2   2   1
#     4  12  27  49  83 111 158 201 250 328 384 447
#     4  12  26  50  76 117 152 196 268 310 377 471
#     4  12  29  51  77 113 156 207 255 313 388 454
#     4  12  24  50  76 122 148 196 268 312 384 460
#
# _framework density 29.769893
#
# number of rings (size 3 to 8) (size 9 to 14) (size 15 to 20)
#    0.000    0.000    5.714    3.429    4.000    4.571 
#    0.000    0.000    0.000    0.000    0.000    0.000 
#    0.000    0.000    0.000    0.000    0.000    0.000 
#
# Total GULP energy -39143.330967 kJ/mol
# GULP energy per Si atom -5591.904424 kJ/mol
# Density = 2.970214 g / cm^3
# Si number density = 29.769893 Si / 1000 Ang^3
#
#
#
# Elastic Constant Matrix: (Units=GPa)
#
#
# Indices 1 2 3 4 5 6 
#
# 1 113.1927 50.2301 15.1493 22.0345 -0.8268 -10.9471
# 2 50.2301 206.6867 44.6402 -0.5298 -12.9125 -16.0784
# 3 15.1493 44.6402 178.0394 50.6162 -10.9419 -27.6448
# 4 22.0345 -0.5298 50.6162 67.7746 -6.3630 -7.1591
# 5 -0.8268 -12.9125 -10.9419 -6.3630 74.3856 16.1656
# 6 -10.9471 -16.0784 -27.6448 -7.1591 16.1656 61.6421
#
#
#
# Elastic Compliance Matrix: (Units=1/GPa)
#
#
# Indices 1 2 3 4 5 6 
#
# 1 0.010943 -0.002876 0.001218 -0.004420 -0.000894 0.001461
# 2 -0.002876 0.006027 -0.001879 0.002498 0.000892 0.000275
# 3 0.001218 -0.001879 0.008169 -0.006246 -0.000238 0.002727
# 4 -0.004420 0.002498 -0.006246 0.020918 0.001447 -0.000884
# 5 -0.000894 0.000892 -0.000238 0.001447 0.014473 -0.003660
# 6 0.001461 0.000275 0.002727 -0.000884 -0.003660 0.018634
#
#
# Mechanical properties :
#
#
# Convention : Reuss Voigt Hill
#
# Bulk Modulus (GPa) = 55.35766 79.77310 67.56538
# Shear Modulus (GPa) = 54.19616 66.62042 60.40829
#
# Velocity S-wave (km/s) = 4.27136 4.73572 4.50952
# Velocity P-wave (km/s) = 6.55451 7.53375 7.06113
#
# Compressibility (1/GPa) = 0.01806435
#
# Stress axis : x y z
#
# Youngs Moduli (GPa) = 91.38429 165.93273 122.41986
#
# Poissons Ratio (x) = 0.47723 -0.14916
# Poissons Ratio (y) = 0.26283 0.23004
# Poissons Ratio (z) = -0.11134 0.31181
#
# Static dielectric constant tensor:
#      x y z
#    x 2.135430 -0.010480 0.187870 
#    y -0.010480 2.182600 -0.037060 
#    z 0.187870 -0.037060 2.105330 
# 
# From -- ./inp_files/359227.got.cif
#   From: 2010.05.17/outbox.cif.g08.bks.cpg/sg2_180_cif.got.tgz:359227.got - 2010.06.03 11:33:40.
