data_PCOD9070399
_publ_section_title
;
Structure prediction by ZEFSAII (Michael W. Deem and Ramdas Pophale) SiO2 
 PCOD9070399
Probable space group: P -1
;
_chemical_formula_sum "Si O2"
_cell_formula_units_Z 15
_cell_length_a 8.970120
_cell_length_b 15.689655
_cell_length_c 4.965095
_cell_angle_alpha 74.283706
_cell_angle_beta 94.112135
_cell_angle_gamma 106.755338
_cell_volume 644.080702
_symmetry_space_group_name_H-M "P -1"
_symmetry_group_IT_number 2
_symmetry_cell_setting 'triclinic'
loop_
_space_group_symop_operation_xyz
x,y,z
-x,-y,-z
loop_
_atom_site_type_symbol
_atom_site_label
_atom_site_fract_x
_atom_site_fract_y
_atom_site_fract_z
Si Si1 0.500000 0.000000 0.000000
Si Si2 0.894145 0.570089 0.467656
Si Si3 0.523571 0.722374 0.578559
Si Si4 0.248387 0.846630 0.787907
Si Si5 0.673344 0.568704 0.929223
Si Si6 0.022970 0.067947 0.195280
Si Si7 0.207249 0.725747 0.386613
Si Si8 0.635465 0.841335 0.973883
O O1 0.383983 0.936597 0.808779
O O2 0.614864 0.934129 0.023021
O O3 0.777736 0.543271 0.727960
O O4 0.000000 0.500000 0.500000
O O5 0.030496 0.665588 0.446413
O O6 0.781831 0.576843 0.198739
O O7 0.627377 0.660582 0.758321
O O8 0.338722 0.676612 0.540524
O O9 0.532342 0.801866 0.732587
O O10 0.593521 0.766264 0.268407
O O11 0.237209 0.816627 0.501358
O O12 0.094450 0.871677 0.837725
O O13 0.248788 0.761213 0.058397
O O14 0.500000 0.500000 0.000000
O O15 0.192199 0.137108 0.131829
O O16 0.000000 0.000000 0.500000
O O17 0.000000 0.000000 0.000000
#
# Coordination Sequence:
#
# PCOD9070399 Si02
#       8
#     1   2   2   2   2   2   2   2
#     4  12  24  48  70 104 144 204 262 300 394 434
#     4  12  28  51  82 116 155 204 252 314 393 480
#     4  12  26  48  72 111 148 194 251 319 377 452
#     4  12  27  43  72 101 149 192 257 308 381 445
#     4  12  28  51  83 117 154 205 251 316 392 479
#     4  12  26  44  64  98 138 190 246 311 365 442
#     4  12  26  48  71 111 147 198 244 320 374 451
#     4  12  27  43  73 101 148 196 255 316 380 447
#
# _framework density 23.289003999999998
#
# number of rings (size 3 to 8) (size 9 to 14) (size 15 to 20)
#    0.000    0.000    4.000    4.800    5.600    3.200 
#    0.000    0.000    0.000    0.000    0.000    0.000 
#    0.000    0.000    0.000    0.000    0.000    0.000 
#
# Total GULP energy -83707.956133 kJ/mol
# GULP energy per Si atom -5580.530409 kJ/mol
# Density = 2.323600 g / cm^3
# Si number density = 23.289004 Si / 1000 Ang^3
#
#
#
# Elastic Constant Matrix: (Units=GPa)
#
#
# Indices 1 2 3 4 5 6 
#
# 1 167.8488 47.7859 58.1235 -2.5846 10.3106 19.4758
# 2 47.7859 62.1823 18.0240 9.7016 3.0120 14.7182
# 3 58.1235 18.0240 126.8719 21.7399 -7.4372 20.6064
# 4 -2.5846 9.7016 21.7399 23.7384 -2.9970 4.3737
# 5 10.3106 3.0120 -7.4372 -2.9970 46.9576 -1.1286
# 6 19.4758 14.7182 20.6064 4.3737 -1.1286 52.4189
#
#
#
# Elastic Compliance Matrix: (Units=1/GPa)
#
#
# Indices 1 2 3 4 5 6 
#
# 1 0.010177 -0.007489 -0.005138 0.008697 -0.002023 -0.000428
# 2 -0.007489 0.023935 0.002797 -0.012464 -0.000340 -0.004005
# 3 -0.005138 0.002797 0.012529 -0.012413 0.002075 -0.002721
# 4 0.008697 -0.012464 -0.012413 0.059592 0.000732 0.000192
# 5 -0.002023 -0.000340 0.002075 0.000732 0.022148 0.000447
# 6 -0.000428 -0.004005 -0.002721 0.000192 0.000447 0.021424
#
#
# Mechanical properties :
#
#
# Convention : Reuss Voigt Hill
#
# Bulk Modulus (GPa) = 37.06282 67.19662 52.12972
# Shear Modulus (GPa) = 28.01764 40.15430 34.08597
#
# Velocity S-wave (km/s) = 3.47225 4.15682 3.82986
# Velocity P-wave (km/s) = 5.65900 7.20797 6.47994
#
# Compressibility (1/GPa) = 0.02698121
#
# Stress axis : x y z
#
# Youngs Moduli (GPa) = 98.26200 41.77926 79.81414
#
# Poissons Ratio (x) = 0.31289 0.41007
# Poissons Ratio (y) = 0.73590 -0.22324
# Poissons Ratio (z) = 0.50485 -0.11685
#
# Static dielectric constant tensor:
#      x y z
#    x 1.980990 -0.046130 0.079230 
#    y -0.046130 1.909320 -0.048290 
#    z 0.079230 -0.048290 1.892190 
# 
# From -- ./inp_files/34690.got.cif
#   From: 2010.05.17/outbox.cif.g08.bks.cpg/sg2_18_cif.got.tgz:34690.got - 2010.06.03 11:33:40.
