data_PCOD9070680
_publ_section_title
;
Structure prediction by ZEFSAII (Michael W. Deem and Ramdas Pophale) SiO2 
 PCOD9070680
Probable space group: P -1
;
_chemical_formula_sum "Si O2"
_cell_formula_units_Z 16
_cell_length_a 14.480741
_cell_length_b 9.139496
_cell_length_c 14.943140
_cell_angle_alpha 108.910380
_cell_angle_beta 30.268267
_cell_angle_gamma 88.519538
_cell_volume 723.681180
_symmetry_space_group_name_H-M "P -1"
_symmetry_group_IT_number 2
_symmetry_cell_setting 'triclinic'
loop_
_space_group_symop_operation_xyz
x,y,z
-x,-y,-z
loop_
_atom_site_type_symbol
_atom_site_label
_atom_site_fract_x
_atom_site_fract_y
_atom_site_fract_z
Si Si1 0.119168 0.778408 0.826751
Si Si2 0.257171 0.003701 0.511995
Si Si3 0.476104 0.766751 0.853488
Si Si4 0.235831 0.152887 0.014143
Si Si5 0.123058 0.815538 0.292613
Si Si6 0.005791 0.551302 0.402961
Si Si7 0.536900 0.397576 0.650443
Si Si8 0.057181 0.629159 0.024045
O O1 0.355373 0.680164 0.553322
O O2 0.158638 0.671829 0.865318
O O3 0.940211 0.790397 0.909484
O O4 0.000000 0.000000 0.000000
O O5 0.056152 0.113951 0.626401
O O6 0.308516 0.799255 0.456694
O O7 0.157618 0.160739 0.708579
O O8 0.506517 0.937031 0.256481
O O9 0.724804 0.722542 0.647924
O O10 0.539340 0.574963 0.710245
O O11 0.357441 0.769461 0.045327
O O12 0.289460 0.973708 0.995998
O O13 0.121866 0.352284 0.207280
O O14 0.145688 0.635672 0.284651
O O15 0.000000 0.000000 0.500000
O O16 0.000000 0.500000 0.500000
O O17 0.262299 0.494794 0.899356
O O18 0.000000 0.500000 0.000000
#
# Coordination Sequence:
#
# PCOD9070680 Si02
#       8
#     2   2   2   2   2   2   2   2
#     4  12  25  45  70 105 143 194 246 298 364 426
#     4  12  27  48  70 108 149 189 247 303 364 435
#     4  12  26  49  80 107 151 195 241 303 366 436
#     4  12  27  47  76 106 152 190 243 308 362 433
#     4  12  28  50  79 110 149 191 245 302 368 444
#     4  12  29  51  77 114 146 192 244 300 374 439
#     4  12  25  47  72 102 148 196 242 303 365 429
#     4  12  28  44  71 105 145 192 249 299 364 435
#
# _framework density 22.109183999999999
#
# number of rings (size 3 to 8) (size 9 to 14) (size 15 to 20)
#    0.000    0.000    5.000    4.125    8.750    2.500 
#    0.000    0.000    0.000    0.000    0.000    0.000 
#    0.000    0.000    0.000    0.000    0.000    0.000 
#
# Total GULP energy -89575.868185 kJ/mol
# GULP energy per Si atom -5598.491762 kJ/mol
# Density = 2.205886 g / cm^3
# Si number density = 22.109184 Si / 1000 Ang^3
#
#
#
# Elastic Constant Matrix: (Units=GPa)
#
#
# Indices 1 2 3 4 5 6 
#
# 1 55.1810 4.9548 14.6579 11.3766 19.9552 -1.3862
# 2 4.9548 120.9878 30.6151 9.9764 23.8271 -6.9699
# 3 14.6579 30.6151 133.5268 -1.5806 23.7753 1.5036
# 4 11.3766 9.9764 -1.5806 37.8529 6.8776 4.2323
# 5 19.9552 23.8271 23.7753 6.8776 47.0062 6.5146
# 6 -1.3862 -6.9699 1.5036 4.2323 6.5146 39.4143
#
#
#
# Elastic Compliance Matrix: (Units=1/GPa)
#
#
# Indices 1 2 3 4 5 6 
#
# 1 0.023201 0.002035 -0.001389 -0.006186 -0.009760 0.003506
# 2 0.002035 0.010014 -0.001675 -0.002732 -0.005115 0.003045
# 3 -0.001389 -0.001675 0.008609 0.001827 -0.003134 -0.000352
# 4 -0.006186 -0.002732 0.001827 0.029633 -0.000717 -0.003834
# 5 -0.009760 -0.005115 -0.003134 -0.000717 0.030545 -0.006100
# 6 0.003506 0.003045 -0.000352 -0.003834 -0.006100 0.027467
#
#
# Mechanical properties :
#
#
# Convention : Reuss Voigt Hill
#
# Bulk Modulus (GPa) = 25.14619 45.57236 35.35928
# Shear Modulus (GPa) = 34.53468 42.15252 38.34360
#
# Velocity S-wave (km/s) = 3.95651 4.37116 4.16899
# Velocity P-wave (km/s) = 5.68069 6.79214 6.26113
#
# Compressibility (1/GPa) = 0.03976745
#
# Stress axis : x y z
#
# Youngs Moduli (GPa) = 43.10133 99.86114 116.15238
#
# Poissons Ratio (x) = -0.20325 0.16128
# Poissons Ratio (y) = -0.08773 0.19459
# Poissons Ratio (z) = 0.05985 0.16730
#
# Static dielectric constant tensor:
#      x y z
#    x 1.780330 -0.011920 -0.014710 
#    y -0.011920 1.783030 -0.024410 
#    z -0.014710 -0.024410 1.781760 
# 
# From -- ./inp_files/47788.got.cif
#   From: 2010.05.17/outbox.cif.g08.bks.cpg/sg2_24_cif.got.tgz:47788.got - 2010.06.03 11:33:40.
