data_PCOD9070644
_publ_section_title
;
Structure prediction by ZEFSAII (Michael W. Deem and Ramdas Pophale) SiO2 
 PCOD9070644
Probable space group: P -1
;
_chemical_formula_sum "Si O2"
_cell_formula_units_Z 12
_cell_length_a 4.981329
_cell_length_b 8.562887
_cell_length_c 12.613778
_cell_angle_alpha 94.337248
_cell_angle_beta 113.805804
_cell_angle_gamma 88.532640
_cell_volume 490.841562
_symmetry_space_group_name_H-M "P -1"
_symmetry_group_IT_number 2
_symmetry_cell_setting 'triclinic'
loop_
_space_group_symop_operation_xyz
x,y,z
-x,-y,-z
loop_
_atom_site_type_symbol
_atom_site_label
_atom_site_fract_x
_atom_site_fract_y
_atom_site_fract_z
Si Si1 0.798283 0.906530 0.543251
Si Si2 0.792592 0.134773 0.853816
Si Si3 0.881020 0.427191 0.740406
Si Si4 0.738623 0.582158 0.403038
Si Si5 0.730858 0.362825 0.055240
Si Si6 0.760263 0.077545 0.190308
O O1 0.721955 0.743458 0.469771
O O2 0.982998 0.891980 0.680735
O O3 0.500000 0.000000 0.500000
O O4 0.000000 0.000000 0.500000
O O5 0.799269 0.255683 0.762863
O O6 0.508239 0.022360 0.809064
O O7 0.786904 0.250790 0.958865
O O8 0.081809 0.028874 0.880130
O O9 0.581822 0.494659 0.647820
O O10 0.146512 0.407799 0.699111
O O11 0.985411 0.542109 0.855283
O O12 0.000000 0.500000 0.500000
O O13 0.652633 0.240288 0.130720
O O14 0.500000 0.500000 0.000000
#
# Coordination Sequence:
#
# PCOD9070644 Si02
#       6
#     2   2   2   2   2   2
#     4  12  25  44  71 104 141 185 237 295 360 430
#     4  12  26  48  74 104 144 192 242 300 364 433
#     4  12  26  47  74 108 147 192 244 304 366 435
#     4  12  26  46  73 108 147 191 242 303 368 436
#     4  12  28  49  75 109 148 196 248 304 366 436
#     4  12  27  48  74 107 146 192 244 302 365 436
#
# _framework density 24.447804999999999
#
# number of rings (size 3 to 8) (size 9 to 14) (size 15 to 20)
#    0.000    0.000    0.000   11.000    0.000    8.000 
#    0.000    0.000    0.000    0.000    0.000    0.000 
#    0.000    0.000    0.000    0.000    0.000    0.000 
#
# Total GULP energy -67303.975104 kJ/mol
# GULP energy per Si atom -5608.664592 kJ/mol
# Density = 2.439216 g / cm^3
# Si number density = 24.447805 Si / 1000 Ang^3
#
#
#
# Elastic Constant Matrix: (Units=GPa)
#
#
# Indices 1 2 3 4 5 6 
#
# 1 127.8478 31.5154 20.9373 4.8945 12.3710 -8.6277
# 2 31.5154 100.2722 66.7699 -8.4637 9.1579 -11.2390
# 3 20.9373 66.7699 116.9320 14.7483 9.2008 -8.3606
# 4 4.8945 -8.4637 14.7483 41.8553 7.0876 2.5191
# 5 12.3710 9.1579 9.2008 7.0876 46.0906 0.2230
# 6 -8.6277 -11.2390 -8.3606 2.5191 0.2230 46.2930
#
#
#
# Elastic Compliance Matrix: (Units=1/GPa)
#
#
# Indices 1 2 3 4 5 6 
#
# 1 0.008760 -0.002977 0.000541 -0.001608 -0.001626 0.001103
# 2 -0.002977 0.019689 -0.011510 0.008648 -0.002153 0.001686
# 3 0.000541 -0.011510 0.016086 -0.008128 0.000177 0.000653
# 4 -0.001608 0.008648 -0.008128 0.029478 -0.004191 -0.001252
# 5 -0.001626 -0.002153 0.000177 -0.004191 0.023173 -0.000677
# 6 0.001103 0.001686 0.000653 -0.001252 -0.000677 0.022406
#
#
# Mechanical properties :
#
#
# Convention : Reuss Voigt Hill
#
# Bulk Modulus (GPa) = 60.08992 64.83303 62.46147
# Shear Modulus (GPa) = 32.67296 41.90309 37.28802
#
# Velocity S-wave (km/s) = 3.65970 4.14452 3.90963
# Velocity P-wave (km/s) = 6.51844 7.03415 6.78120
#
# Compressibility (1/GPa) = 0.01664173
#
# Stress axis : x y z
#
# Youngs Moduli (GPa) = 114.14950 50.79012 62.16758
#
# Poissons Ratio (x) = 0.15122 -0.03364
# Poissons Ratio (y) = 0.33987 0.71557
# Poissons Ratio (z) = -0.06177 0.58461
#
# Static dielectric constant tensor:
#      x y z
#    x 1.665590 0.067110 -0.382530 
#    y 0.067110 1.903660 0.017080 
#    z -0.382530 0.017080 1.518000 
# 
# From -- ./inp_files/478632.got.cif
#   From: 2010.05.17/outbox.cif.g08.bks.cpg/sg2_240_cif.got.tgz:478632.got - 2010.06.03 11:33:40.
