data_PCOD9070187
_publ_section_title
;
Structure prediction by ZEFSAII (Michael W. Deem and Ramdas Pophale) SiO2 
 PCOD9070187
Probable space group: P -1
;
_chemical_formula_sum "Si O2"
_cell_formula_units_Z 16
_cell_length_a 21.046776
_cell_length_b 9.538298
_cell_length_c 13.015601
_cell_angle_alpha 51.504821
_cell_angle_beta 155.345205
_cell_angle_gamma 136.092864
_cell_volume 751.145411
_symmetry_space_group_name_H-M "P -1"
_symmetry_group_IT_number 2
_symmetry_cell_setting 'triclinic'
loop_
_space_group_symop_operation_xyz
x,y,z
-x,-y,-z
loop_
_atom_site_type_symbol
_atom_site_label
_atom_site_fract_x
_atom_site_fract_y
_atom_site_fract_z
Si Si1 0.564819 0.534165 0.199739
Si Si2 0.196688 0.780121 0.914881
Si Si3 0.380324 0.096640 0.745348
Si Si4 0.774093 0.860997 0.081615
Si Si5 0.938527 0.270461 0.479056
Si Si6 0.673650 0.026760 0.681699
Si Si7 0.472408 0.273397 0.570444
Si Si8 0.892927 0.478908 0.746717
O O1 0.573873 0.728227 0.181907
O O2 0.754028 0.560799 0.490879
O O3 0.500000 0.500000 0.000000
O O4 0.417235 0.326176 0.127161
O O5 0.179320 0.757356 0.779241
O O6 0.033286 0.597314 0.812160
O O7 0.211859 0.999722 0.863892
O O8 0.361203 0.755755 0.198880
O O9 0.417548 0.190937 0.642870
O O10 0.183442 0.913008 0.541893
O O11 0.500000 0.000000 0.000000
O O12 0.905280 0.770055 0.310105
O O13 0.800512 0.018412 0.958090
O O14 0.000000 0.500000 0.500000
O O15 0.650643 0.857637 0.642368
O O16 0.500000 0.000000 0.500000
O O17 0.766351 0.238605 0.661775
O O18 0.500000 0.500000 0.500000
O O19 0.000000 0.500000 0.000000
#
# Coordination Sequence:
#
# PCOD9070187 Si02
#       8
#     2   2   2   2   2   2   2   2
#     4  12  26  45  78 105 139 191 249 296 364 442
#     4  12  25  47  71 105 146 188 244 303 363 432
#     4  12  27  48  73 106 150 193 243 302 377 438
#     4  12  24  46  74 102 139 187 245 301 356 433
#     4  12  28  47  71 105 149 191 242 305 368 439
#     4  12  24  46  74 102 141 187 244 293 363 445
#     4  12  28  47  75 107 150 193 239 303 373 443
#     4  12  25  44  75 110 144 184 244 311 364 429
#
# _framework density 21.300802000000001
#
# number of rings (size 3 to 8) (size 9 to 14) (size 15 to 20)
#    0.000    0.000    5.000    4.125    7.000    0.000 
#    0.000    1.250    0.000    0.000    0.000    0.000 
#    0.000    0.000    0.000    0.000    0.000    0.000 
#
# Total GULP energy -89363.407548 kJ/mol
# GULP energy per Si atom -5585.212972 kJ/mol
# Density = 2.125232 g / cm^3
# Si number density = 21.300802 Si / 1000 Ang^3
#
#
#
# Elastic Constant Matrix: (Units=GPa)
#
#
# Indices 1 2 3 4 5 6 
#
# 1 97.0106 66.0909 11.2635 9.8061 -7.9462 -5.1683
# 2 66.0909 156.1510 -2.5857 8.8179 4.2195 -20.2606
# 3 11.2635 -2.5857 52.2058 -0.6741 -0.7542 -7.1365
# 4 9.8061 8.8179 -0.6741 35.3180 6.2255 0.4473
# 5 -7.9462 4.2195 -0.7542 6.2255 38.5142 9.3832
# 6 -5.1683 -20.2606 -7.1365 0.4473 9.3832 56.1682
#
#
#
# Elastic Compliance Matrix: (Units=1/GPa)
#
#
# Indices 1 2 3 4 5 6 
#
# 1 0.016444 -0.007289 -0.004224 -0.003733 0.005324 -0.002512
# 2 -0.007289 0.010126 0.002557 0.000118 -0.003531 0.003896
# 3 -0.004224 0.002557 0.020654 0.001199 -0.001780 0.003446
# 4 -0.003733 0.000118 0.001199 0.030361 -0.005808 0.000580
# 5 0.005324 -0.003531 -0.001780 -0.005808 0.029801 -0.005942
# 6 -0.002512 0.003896 0.003446 0.000580 -0.005942 0.020404
#
#
# Mechanical properties :
#
#
# Convention : Reuss Voigt Hill
#
# Bulk Modulus (GPa) = 34.11496 50.54500 42.32998
# Shear Modulus (GPa) = 32.16049 41.37332 36.76690
#
# Velocity S-wave (km/s) = 3.88986 4.41198 4.15912
# Velocity P-wave (km/s) = 6.01874 7.05228 6.55591
#
# Compressibility (1/GPa) = 0.02931266
#
# Stress axis : x y z
#
# Youngs Moduli (GPa) = 60.81315 98.75925 48.41755
#
# Poissons Ratio (x) = 0.71984 0.20449
# Poissons Ratio (y) = 0.44326 -0.12381
# Poissons Ratio (z) = 0.25685 -0.25254
#
# Static dielectric constant tensor:
#      x y z
#    x 1.765180 0.038160 -0.012990 
#    y 0.038160 1.769450 0.027230 
#    z -0.012990 0.027230 1.826360 
# 
# From -- ./inp_files/347679.got.cif
#   From: 2010.05.17/outbox.cif.g08.bks.cpg/sg2_174_cif.got.tgz:347679.got - 2010.06.03 11:33:40.
