data_PCOD9070477
_publ_section_title
;
Structure prediction by ZEFSAII (Michael W. Deem and Ramdas Pophale) SiO2 
 PCOD9070477
Probable space group: P -1
;
_chemical_formula_sum "Si O2"
_cell_formula_units_Z 12
_cell_length_a 14.538535
_cell_length_b 6.553062
_cell_length_c 9.541561
_cell_angle_alpha 121.394431
_cell_angle_beta 70.810750
_cell_angle_gamma 66.485474
_cell_volume 518.060840
_symmetry_space_group_name_H-M "P -1"
_symmetry_group_IT_number 2
_symmetry_cell_setting 'triclinic'
loop_
_space_group_symop_operation_xyz
x,y,z
-x,-y,-z
loop_
_atom_site_type_symbol
_atom_site_label
_atom_site_fract_x
_atom_site_fract_y
_atom_site_fract_z
Si Si1 0.286369 0.417456 0.387757
Si Si2 0.932789 0.571569 0.411637
Si Si3 0.102514 0.426503 0.038730
Si Si4 0.510630 0.714000 0.168526
Si Si5 0.618607 0.229005 0.455040
Si Si6 0.798378 0.310508 0.775976
O O1 0.166760 0.482297 0.552220
O O2 0.304175 0.663082 0.499686
O O3 0.255182 0.452833 0.249908
O O4 0.426260 0.056649 0.245906
O O5 0.000000 0.500000 0.500000
O O6 0.846528 0.966807 0.574742
O O7 0.058472 0.337512 0.158380
O O8 0.259140 0.132944 0.805976
O O9 0.089762 0.721219 0.209676
O O10 0.000000 0.500000 0.000000
O O11 0.446924 0.779064 0.376887
O O12 0.500000 0.500000 0.000000
O O13 0.671628 0.490572 0.008751
O O14 0.500000 0.500000 0.500000
#
# Coordination Sequence:
#
# PCOD9070477 Si02
#       6
#     2   2   2   2   2   2
#     4  12  24  48  78 110 145 196 251 304 366 448
#     4  12  27  46  77 108 140 202 256 291 368 447
#     4  12  28  49  72 109 156 189 244 315 372 435
#     4  12  25  46  80 110 143 194 255 296 370 450
#     4  12  30  49  73 116 155 192 243 313 384 432
#     4  12  26  47  80 108 147 195 255 306 361 448
#
# _framework density 23.163301000000001
#
# number of rings (size 3 to 8) (size 9 to 14) (size 15 to 20)
#    0.000    0.000    5.000    4.000    7.000    4.667 
#    0.000    0.000    0.000    0.000    0.000    0.000 
#    0.000    0.000    0.000    0.000    0.000    0.000 
#
# Total GULP energy -67137.147289 kJ/mol
# GULP energy per Si atom -5594.762274 kJ/mol
# Density = 2.311058 g / cm^3
# Si number density = 23.163301 Si / 1000 Ang^3
#
#
#
# Elastic Constant Matrix: (Units=GPa)
#
#
# Indices 1 2 3 4 5 6 
#
# 1 148.6953 18.0030 24.6294 -15.6927 -0.0642 14.3984
# 2 18.0030 107.0110 42.8512 -17.1227 -3.1413 -8.1576
# 3 24.6294 42.8512 118.3934 -32.0156 -25.3636 9.9065
# 4 -15.6927 -17.1227 -32.0156 43.2412 7.5805 1.8405
# 5 -0.0642 -3.1413 -25.3636 7.5805 50.0797 -7.7253
# 6 14.3984 -8.1576 9.9065 1.8405 -7.7253 49.5158
#
#
#
# Elastic Compliance Matrix: (Units=1/GPa)
#
#
# Indices 1 2 3 4 5 6 
#
# 1 0.007398 -0.000842 -0.000689 0.002134 -0.001086 -0.002401
# 2 -0.000842 0.011517 -0.004118 0.001289 -0.001136 0.002741
# 3 -0.000689 -0.004118 0.013322 0.007220 0.004989 -0.002633
# 4 0.002134 0.001289 0.007220 0.030121 -0.001309 -0.003177
# 5 -0.001086 -0.001136 0.004989 -0.001309 0.023048 0.002775
# 6 -0.002401 0.002741 -0.002633 -0.003177 0.002775 0.022423
#
#
# Mechanical properties :
#
#
# Convention : Reuss Voigt Hill
#
# Bulk Modulus (GPa) = 47.75593 60.56298 54.15945
# Shear Modulus (GPa) = 39.64873 47.80843 43.72858
#
# Velocity S-wave (km/s) = 4.14176 4.54803 4.34964
# Velocity P-wave (km/s) = 6.59804 7.33364 6.97554
#
# Compressibility (1/GPa) = 0.02093981
#
# Stress axis : x y z
#
# Youngs Moduli (GPa) = 135.16302 86.82692 75.06619
#
# Poissons Ratio (x) = 0.07313 0.05171
# Poissons Ratio (y) = 0.11385 0.30909
# Poissons Ratio (z) = 0.09311 0.35751
#
# Static dielectric constant tensor:
#      x y z
#    x 1.840770 0.016990 -0.004160 
#    y 0.016990 1.971220 0.127870 
#    z -0.004160 0.127870 1.942640 
# 
# From -- ./inp_files/26420.got.cif
#   From: 2010.05.17/outbox.cif.g08.bks.cpg/sg2_14_cif.got.tgz:26420.got - 2010.06.03 11:33:40.
