data_PCOD9070084
_publ_section_title
;
Structure prediction by ZEFSAII (Michael W. Deem and Ramdas Pophale) SiO2 
 PCOD9070084
Probable space group: P -1
;
_chemical_formula_sum "Si O2"
_cell_formula_units_Z 14
_cell_length_a 12.384719
_cell_length_b 15.762061
_cell_length_c 15.871863
_cell_angle_alpha 18.523184
_cell_angle_beta 40.407273
_cell_angle_gamma 43.768951
_cell_volume 638.040739
_symmetry_space_group_name_H-M "P -1"
_symmetry_group_IT_number 2
_symmetry_cell_setting 'triclinic'
loop_
_space_group_symop_operation_xyz
x,y,z
-x,-y,-z
loop_
_atom_site_type_symbol
_atom_site_label
_atom_site_fract_x
_atom_site_fract_y
_atom_site_fract_z
Si Si1 0.181300 0.074475 0.663272
Si Si2 0.813747 0.102394 0.535020
Si Si3 0.311818 0.252955 0.594215
Si Si4 0.319111 0.513279 0.052463
Si Si5 0.191060 0.782116 0.223595
Si Si6 0.342925 0.449591 0.899715
Si Si7 0.376254 0.751207 0.320338
O O1 0.291656 0.149475 0.608590
O O2 0.989149 0.082336 0.794158
O O3 0.240136 0.795979 0.854197
O O4 0.208394 0.291498 0.371159
O O5 0.785766 0.352030 0.255049
O O6 0.753847 0.200421 0.570990
O O7 0.692906 0.851351 0.823546
O O8 0.000000 0.000000 0.500000
O O9 0.177463 0.488007 0.467686
O O10 0.480389 0.418979 0.352602
O O11 0.296745 0.996318 0.904824
O O12 0.330912 0.463400 0.993935
O O13 0.500000 0.500000 0.000000
O O14 0.270390 0.733077 0.314349
O O15 0.500000 0.500000 0.500000
O O16 0.500000 0.000000 0.000000
#
# Coordination Sequence:
#
# PCOD9070084 Si02
#       7
#     2   2   2   2   2   2   2
#     4  12  26  45  70 106 148 183 234 292 358 422
#     4  12  28  49  73 109 144 188 245 309 361 422
#     4  12  24  45  73 106 142 187 235 284 356 443
#     4  12  26  45  71 107 142 189 235 287 350 437
#     4  12  26  44  73 104 142 186 235 298 359 414
#     4  12  26  45  77 100 144 188 236 287 364 428
#     4  12  26  48  73 102 141 188 248 295 355 428
#
# _framework density 21.942173
#
# number of rings (size 3 to 8) (size 9 to 14) (size 15 to 20)
#    0.000    0.000    1.429    9.429    6.000    0.000 
#    0.000    0.000    0.000    0.000    0.000    0.000 
#    0.000    0.000    0.000    0.000    0.000    0.000 
#
# Total GULP energy -78413.185476 kJ/mol
# GULP energy per Si atom -5600.941820 kJ/mol
# Density = 2.189223 g / cm^3
# Si number density = 21.942173 Si / 1000 Ang^3
#
#
#
# Elastic Constant Matrix: (Units=GPa)
#
#
# Indices 1 2 3 4 5 6 
#
# 1 52.3770 26.8409 21.8116 6.3443 11.0372 23.4448
# 2 26.8409 109.5651 34.3755 -6.9608 24.2345 6.6288
# 3 21.8116 34.3755 150.6099 -14.1410 22.7872 16.2509
# 4 6.3443 -6.9608 -14.1410 50.4769 -1.8476 1.0185
# 5 11.0372 24.2345 22.7872 -1.8476 38.5768 4.0430
# 6 23.4448 6.6288 16.2509 1.0185 4.0430 48.4711
#
#
#
# Elastic Compliance Matrix: (Units=1/GPa)
#
#
# Indices 1 2 3 4 5 6 
#
# 1 0.029475 -0.005618 -0.001647 -0.004791 -0.002840 -0.012599
# 2 -0.005618 0.012061 -0.001154 0.001811 -0.005397 0.001867
# 3 -0.001647 -0.001154 0.008005 0.002201 -0.003269 -0.001503
# 4 -0.004791 0.001811 0.002201 0.021256 -0.000143 0.000897
# 5 -0.002840 -0.005397 -0.003269 -0.000143 0.031993 0.000542
# 6 -0.012599 0.001867 -0.001503 0.000897 0.000542 0.026909
#
#
# Mechanical properties :
#
#
# Convention : Reuss Voigt Hill
#
# Bulk Modulus (GPa) = 30.57802 53.17867 41.87834
# Shear Modulus (GPa) = 31.75829 42.80654 37.28242
#
# Velocity S-wave (km/s) = 3.80855 4.42167 4.12651
# Velocity P-wave (km/s) = 5.77114 7.09624 6.46772
#
# Compressibility (1/GPa) = 0.03270323
#
# Stress axis : x y z
#
# Youngs Moduli (GPa) = 33.92668 82.91069 124.92010
#
# Poissons Ratio (x) = 0.46579 0.20576
# Poissons Ratio (y) = 0.19060 0.14418
# Poissons Ratio (z) = 0.05588 0.09569
#
# Static dielectric constant tensor:
#      x y z
#    x 1.804390 -0.034640 -0.020810 
#    y -0.034640 1.865300 0.028590 
#    z -0.020810 0.028590 1.773820 
# 
# From -- ./inp_files/521186.got.cif
#   From: 2010.05.17/outbox.cif.g08.bks.cpg/sg2_261_cif.got.tgz:521186.got - 2010.06.03 11:33:40.
