data_PCOD9070898
_publ_section_title
;
Structure prediction by ZEFSAII (Michael W. Deem and Ramdas Pophale) SiO2 
 PCOD9070898
Probable space group: P -1
;
_chemical_formula_sum "Si O2"
_cell_formula_units_Z 12
_cell_length_a 7.586918
_cell_length_b 10.995512
_cell_length_c 12.231435
_cell_angle_alpha 143.944509
_cell_angle_beta 127.697473
_cell_angle_gamma 69.238727
_cell_volume 453.249007
_symmetry_space_group_name_H-M "P -1"
_symmetry_group_IT_number 2
_symmetry_cell_setting 'triclinic'
loop_
_space_group_symop_operation_xyz
x,y,z
-x,-y,-z
loop_
_atom_site_type_symbol
_atom_site_label
_atom_site_fract_x
_atom_site_fract_y
_atom_site_fract_z
Si Si1 0.293962 0.772737 0.222225
Si Si2 0.229048 0.919580 0.527797
Si Si3 0.142496 0.115982 0.925013
Si Si4 0.429684 0.262064 0.350265
Si Si5 0.130215 0.351323 0.500473
Si Si6 0.442821 0.359486 0.009406
O O1 0.337013 0.541756 0.057082
O O2 0.085223 0.802221 0.089498
O O3 0.500000 0.000000 0.500000
O O4 0.182092 0.756700 0.290976
O O5 0.344080 0.803379 0.577115
O O6 0.426523 0.158797 0.776756
O O7 0.000000 0.000000 0.500000
O O8 0.276074 0.118037 0.091402
O O9 0.314365 0.250960 0.994578
O O10 0.034535 0.866573 0.668495
O O11 0.500000 0.500000 0.500000
O O12 0.284264 0.270047 0.410340
O O13 0.298405 0.503812 0.761365
O O14 0.000000 0.500000 0.500000
#
# Coordination Sequence:
#
# PCOD9070898 Si02
#       6
#     2   2   2   2   2   2
#     4  12  25  51  74 113 153 197 252 316 374 456
#     4  12  27  46  78 113 149 201 255 304 385 454
#     4  12  25  47  78 105 156 198 250 318 376 446
#     4  12  26  48  77 112 155 199 255 314 378 451
#     4  12  27  47  74 113 151 197 257 314 379 447
#     4  12  26  48  77 110 155 197 253 310 386 447
#
# _framework density 26.475512999999999
#
# number of rings (size 3 to 8) (size 9 to 14) (size 15 to 20)
#    0.000    0.000    6.667    2.000    4.667    3.333 
#    0.000    0.000    0.000    0.000    0.000    0.000 
#    0.000    0.000    0.000    0.000    0.000    0.000 
#
# Total GULP energy -67212.818330 kJ/mol
# GULP energy per Si atom -5601.068194 kJ/mol
# Density = 2.641525 g / cm^3
# Si number density = 26.475513 Si / 1000 Ang^3
#
#
#
# Elastic Constant Matrix: (Units=GPa)
#
#
# Indices 1 2 3 4 5 6 
#
# 1 57.8901 14.6928 11.7258 12.4978 -11.2950 1.9130
# 2 14.6928 207.4720 38.9190 3.5922 10.2743 -16.6191
# 3 11.7258 38.9190 153.4799 -0.0252 -0.9636 2.4906
# 4 12.4978 3.5922 -0.0252 65.9381 -1.4227 2.7221
# 5 -11.2950 10.2743 -0.9636 -1.4227 45.9822 2.1718
# 6 1.9130 -16.6191 2.4906 2.7221 2.1718 36.3157
#
#
#
# Elastic Compliance Matrix: (Units=1/GPa)
#
#
# Indices 1 2 3 4 5 6 
#
# 1 0.019681 -0.001526 -0.001057 -0.003466 0.005127 -0.001709
# 2 -0.001526 0.005493 -0.001333 -0.000164 -0.001768 0.002804
# 3 -0.001057 -0.001333 0.006953 0.000325 0.000244 -0.001070
# 4 -0.003466 -0.000164 0.000325 0.015871 -0.000265 -0.001089
# 5 0.005127 -0.001768 0.000244 -0.000265 0.023516 -0.002482
# 6 -0.001709 0.002804 -0.001070 -0.001089 -0.002482 0.029213
#
#
# Mechanical properties :
#
#
# Convention : Reuss Voigt Hill
#
# Bulk Modulus (GPa) = 41.16204 61.05746 51.10975
# Shear Modulus (GPa) = 42.86046 53.21415 48.03730
#
# Velocity S-wave (km/s) = 4.02789 4.48810 4.26420
# Velocity P-wave (km/s) = 6.10023 7.06890 6.60235
#
# Compressibility (1/GPa) = 0.02429423
#
# Stress axis : x y z
#
# Youngs Moduli (GPa) = 50.81116 182.04953 143.81801
#
# Poissons Ratio (x) = 0.27785 0.15205
# Poissons Ratio (y) = 0.07755 0.19170
# Poissons Ratio (z) = 0.05372 0.24266
#
# Static dielectric constant tensor:
#      x y z
#    x 2.774780 -0.010750 -0.018310 
#    y -0.010750 2.110730 0.004890 
#    z -0.018310 0.004890 2.154170 
# 
# From -- ./inp_files/166551.got.cif
#   From: 2010.05.17/outbox.cif.g08.bks.cpg/sg2_84_cif.got.tgz:166551.got - 2010.06.03 11:33:40.
