data_PCOD9070375
_publ_section_title
;
Structure prediction by ZEFSAII (Michael W. Deem and Ramdas Pophale) SiO2 
 PCOD9070375
Probable space group: P -1
;
_chemical_formula_sum "Si O2"
_cell_formula_units_Z 13
_cell_length_a 9.140452
_cell_length_b 9.183279
_cell_length_c 12.435459
_cell_angle_alpha 37.468389
_cell_angle_beta 115.300027
_cell_angle_gamma 105.691235
_cell_volume 569.575472
_symmetry_space_group_name_H-M "P -1"
_symmetry_group_IT_number 2
_symmetry_cell_setting 'triclinic'
loop_
_space_group_symop_operation_xyz
x,y,z
-x,-y,-z
loop_
_atom_site_type_symbol
_atom_site_label
_atom_site_fract_x
_atom_site_fract_y
_atom_site_fract_z
Si Si1 0.000000 0.000000 0.500000
Si Si2 0.872202 0.532275 0.537201
Si Si3 0.672541 0.998570 0.281775
Si Si4 0.045401 0.771167 0.071200
Si Si5 0.654954 0.392564 0.873571
Si Si6 0.836013 0.830692 0.755373
Si Si7 0.398143 0.756873 0.461399
O O1 0.199240 0.957549 0.611011
O O2 0.965415 0.902825 0.668049
O O3 0.958776 0.470274 0.715882
O O4 0.742860 0.344814 0.591497
O O5 0.000000 0.500000 0.500000
O O6 0.773216 0.793988 0.359042
O O7 0.523328 0.881941 0.354961
O O8 0.615870 0.227508 0.056736
O O9 0.226572 0.758222 0.086649
O O10 0.923647 0.782341 0.926340
O O11 0.000000 0.000000 0.000000
O O12 0.761264 0.596492 0.829312
O O13 0.498091 0.532186 0.685216
O O14 0.692006 0.047452 0.601018
#
# Coordination Sequence:
#
# PCOD9070375 Si02
#       7
#     1   2   2   2   2   2   2
#     4  12  24  48  78 108 156 204 262 312 390 458
#     4  12  26  49  77 111 157 207 261 322 387 468
#     4  12  27  45  75 115 153 208 257 321 395 457
#     4  12  24  47  78 115 151 203 265 320 386 463
#     4  12  27  47  77 116 156 207 255 324 393 463
#     4  12  26  50  80 115 157 207 263 324 384 472
#     4  12  27  51  76 112 161 198 263 329 390 457
#
# _framework density 22.824017999999999
#
# number of rings (size 3 to 8) (size 9 to 14) (size 15 to 20)
#    0.000    0.000    6.154    3.231    2.154    2.462 
#    0.000    0.000    0.000    0.000    0.000    0.000 
#    0.000    0.000    0.000    0.000    0.000    0.000 
#
# Total GULP energy -72650.057142 kJ/mol
# GULP energy per Si atom -5588.465934 kJ/mol
# Density = 2.277207 g / cm^3
# Si number density = 22.824018 Si / 1000 Ang^3
#
#
#
# Elastic Constant Matrix: (Units=GPa)
#
#
# Indices 1 2 3 4 5 6 
#
# 1 112.0998 39.4175 56.7860 14.3136 2.5387 11.7771
# 2 39.4175 86.6710 33.4670 12.3639 1.5637 -8.1439
# 3 56.7860 33.4670 130.9990 14.8349 -4.5617 -3.4157
# 4 14.3136 12.3639 14.8349 42.3936 -8.8375 4.1608
# 5 2.5387 1.5637 -4.5617 -8.8375 39.6092 -7.1783
# 6 11.7771 -8.1439 -3.4157 4.1608 -7.1783 31.1006
#
#
#
# Elastic Compliance Matrix: (Units=1/GPa)
#
#
# Indices 1 2 3 4 5 6 
#
# 1 0.014336 -0.005031 -0.005073 -0.001467 -0.003047 -0.007810
# 2 -0.005031 0.015300 -0.001234 -0.002929 0.000042 0.006178
# 3 -0.005073 -0.001234 0.010475 -0.001539 0.001850 0.003381
# 4 -0.001467 -0.002929 -0.001539 0.026897 0.005544 -0.002699
# 5 -0.003047 0.000042 0.001850 0.005544 0.028183 0.007131
# 6 -0.007810 0.006178 0.003381 -0.002699 0.007131 0.039108
#
#
# Mechanical properties :
#
#
# Convention : Reuss Voigt Hill
#
# Bulk Modulus (GPa) = 57.35303 65.45676 61.40489
# Shear Modulus (GPa) = 30.71530 35.96062 33.33796
#
# Velocity S-wave (km/s) = 3.67242 3.97364 3.82599
# Velocity P-wave (km/s) = 6.57002 7.05650 6.81760
#
# Compressibility (1/GPa) = 0.01743587
#
# Stress axis : x y z
#
# Youngs Moduli (GPa) = 69.75324 65.36017 95.46792
#
# Poissons Ratio (x) = 0.32882 0.48430
# Poissons Ratio (y) = 0.35092 0.11777
# Poissons Ratio (z) = 0.35385 0.08063
#
# Static dielectric constant tensor:
#      x y z
#    x 1.762500 0.064350 -0.035950 
#    y 0.064350 1.720990 0.122630 
#    z -0.035950 0.122630 1.743430 
# 
# From -- ./inp_files/173963.got.cif
#   From: 2010.05.17/outbox.cif.g08.bks.cpg/sg2_87_cif.got.tgz:173963.got - 2010.06.03 11:33:40.
