data_PCOD9070630
_publ_section_title
;
Structure prediction by ZEFSAII (Michael W. Deem and Ramdas Pophale) SiO2 
 PCOD9070630
Probable space group: P -1
;
_chemical_formula_sum "Si O2"
_cell_formula_units_Z 14
_cell_length_a 4.869271
_cell_length_b 12.659712
_cell_length_c 9.036555
_cell_angle_alpha 97.846795
_cell_angle_beta 76.769604
_cell_angle_gamma 99.512228
_cell_volume 531.970528
_symmetry_space_group_name_H-M "P -1"
_symmetry_group_IT_number 2
_symmetry_cell_setting 'triclinic'
loop_
_space_group_symop_operation_xyz
x,y,z
-x,-y,-z
loop_
_atom_site_type_symbol
_atom_site_label
_atom_site_fract_x
_atom_site_fract_y
_atom_site_fract_z
Si Si1 0.153155 0.401163 0.407841
Si Si2 0.507322 0.933384 0.835469
Si Si3 0.358128 0.512556 0.859406
Si Si4 0.081086 0.715996 0.875743
Si Si5 0.709940 0.729628 0.183432
Si Si6 0.116073 0.948657 0.625109
Si Si7 0.105142 0.768387 0.378192
O O1 0.439492 0.450097 0.298407
O O2 0.000000 0.500000 0.500000
O O3 0.993456 0.329299 0.284906
O O4 0.130614 0.318353 0.529374
O O5 0.322495 0.817250 0.858996
O O6 0.828630 0.921050 0.750351
O O7 0.360579 0.987556 0.723631
O O8 0.500000 0.000000 0.000000
O O9 0.177460 0.609803 0.917841
O O10 0.226888 0.391668 0.814276
O O11 0.500000 0.500000 0.000000
O O12 0.813084 0.748217 0.006045
O O13 0.381141 0.731055 0.260604
O O14 0.921566 0.810020 0.275641
O O15 0.223468 0.847257 0.510384
O O16 0.000000 0.000000 0.500000
#
# Coordination Sequence:
#
# PCOD9070630 Si02
#       7
#     2   2   2   2   2   2   2
#     4  12  25  43  75 108 156 208 257 321 393 474
#     4  12  29  56  86 121 160 213 279 335 414 491
#     4  12  25  46  71 113 161 207 265 319 395 473
#     4  12  28  48  78 109 164 210 264 335 396 476
#     4  12  27  46  77 113 159 212 261 315 399 484
#     4  12  28  56  84 120 162 204 271 350 412 478
#     4  12  27  49  76 116 155 208 263 324 402 476
#
# _framework density 26.317249
#
# number of rings (size 3 to 8) (size 9 to 14) (size 15 to 20)
#    0.000    0.000    4.286    4.714    4.000    1.143 
#    2.571    0.000    0.000    0.000    0.000    0.000 
#    0.000    0.000    0.000    0.000    0.000    0.000 
#
# Total GULP energy -78388.540352 kJ/mol
# GULP energy per Si atom -5599.181454 kJ/mol
# Density = 2.625735 g / cm^3
# Si number density = 26.317249 Si / 1000 Ang^3
#
#
#
# Elastic Constant Matrix: (Units=GPa)
#
#
# Indices 1 2 3 4 5 6 
#
# 1 121.1956 7.0876 68.6783 0.7391 -24.3302 1.5519
# 2 7.0876 33.6934 31.8294 3.2815 -0.0396 1.9930
# 3 68.6783 31.8294 217.3440 21.9116 -2.0483 3.0668
# 4 0.7391 3.2815 21.9116 46.9621 6.7672 10.2648
# 5 -24.3302 -0.0396 -2.0483 6.7672 76.5930 -2.5164
# 6 1.5519 1.9930 3.0668 10.2648 -2.5164 40.8460
#
#
#
# Elastic Compliance Matrix: (Units=1/GPa)
#
#
# Indices 1 2 3 4 5 6 
#
# 1 0.010930 0.001100 -0.003687 0.001056 0.003272 -0.000256
# 2 0.001100 0.034630 -0.005437 0.000388 0.000141 -0.001412
# 3 -0.003687 -0.005437 0.006826 -0.002760 -0.000730 0.000542
# 4 0.001056 0.000388 -0.002760 0.024159 -0.002072 -0.006051
# 5 0.003272 0.000141 -0.000730 -0.002072 0.014303 0.001325
# 6 -0.000256 -0.001412 0.000542 -0.006051 0.001325 0.026122
#
#
# Mechanical properties :
#
#
# Convention : Reuss Voigt Hill
#
# Bulk Modulus (GPa) = 27.51933 65.26928 46.39430
# Shear Modulus (GPa) = 34.45196 50.52275 42.48736
#
# Velocity S-wave (km/s) = 3.62208 4.38626 4.02236
# Velocity P-wave (km/s) = 5.28886 7.10684 6.26415
#
# Compressibility (1/GPa) = 0.03633810
#
# Stress axis : x y z
#
# Youngs Moduli (GPa) = 91.49378 28.87669 146.50055
#
# Poissons Ratio (x) = -0.03176 0.54010
# Poissons Ratio (y) = -0.10062 0.79650
# Poissons Ratio (z) = 0.33731 0.15700
#
# Static dielectric constant tensor:
#      x y z
#    x 2.139780 0.055340 0.070600 
#    y 0.055340 2.268460 -0.045230 
#    z 0.070600 -0.045230 2.081210 
# 
# From -- ./inp_files/131774.got.cif
#   From: 2010.05.17/outbox.cif.g08.bks.cpg/sg2_66_cif.got.tgz:131774.got - 2010.06.03 11:33:40.
