data_PCOD9070328
_publ_section_title
;
Structure prediction by ZEFSAII (Michael W. Deem and Ramdas Pophale) SiO2 
 PCOD9070328
Probable space group: P -1
;
_chemical_formula_sum "Si O2"
_cell_formula_units_Z 16
_cell_length_a 12.065233
_cell_length_b 13.753145
_cell_length_c 12.064382
_cell_angle_alpha 73.576296
_cell_angle_beta 68.602604
_cell_angle_gamma 131.419720
_cell_volume 923.470591
_symmetry_space_group_name_H-M "P -1"
_symmetry_group_IT_number 2
_symmetry_cell_setting 'triclinic'
loop_
_space_group_symop_operation_xyz
x,y,z
-x,-y,-z
loop_
_atom_site_type_symbol
_atom_site_label
_atom_site_fract_x
_atom_site_fract_y
_atom_site_fract_z
Si Si1 0.922694 0.537816 0.668748
Si Si2 0.726011 0.118320 0.731649
Si Si3 0.255870 0.875823 0.626345
Si Si4 0.814759 0.013778 0.550755
Si Si5 0.336750 0.461798 0.198653
Si Si6 0.537959 0.407646 0.145691
Si Si7 0.033152 0.405115 0.983849
Si Si8 0.210120 0.776992 0.094276
O O1 0.720449 0.472954 0.743732
O O2 0.820376 0.355531 0.795476
O O3 0.103199 0.678512 0.457168
O O4 0.073809 0.685941 0.672389
O O5 0.804054 0.158020 0.817148
O O6 0.738467 0.029270 0.677104
O O7 0.463626 0.965007 0.886518
O O8 0.149159 0.791273 0.813519
O O9 0.500000 0.000000 0.500000
O O10 0.282263 0.004537 0.519566
O O11 0.703311 0.824893 0.672596
O O12 0.088248 0.224892 0.370124
O O13 0.515944 0.508305 0.161915
O O14 0.403311 0.538540 0.023494
O O15 0.724938 0.469113 0.112026
O O16 0.000000 0.500000 0.000000
O O17 0.975500 0.350558 0.893681
#
# Coordination Sequence:
#
# PCOD9070328 Si02
#       8
#     2   2   2   2   2   2   2   2
#     4  10  18  34  51  71 102 132 166 208 246 294
#     4   9  20  33  49  73  99 135 173 203 238 302
#     4  10  18  29  45  73 104 133 155 195 254 313
#     4  10  19  33  51  71 103 134 164 210 248 293
#     4   9  19  33  49  75 102 130 172 203 246 305
#     4  11  19  32  52  77 103 130 165 207 257 299
#     4  12  19  31  49  76 106 130 157 206 263 305
#     4  11  20  32  51  75 103 133 166 204 252 300
#
# _framework density 17.325944
#
# number of rings (size 3 to 8) (size 9 to 14) (size 15 to 20)
#    0.000    2.000    3.750    4.500    0.000    0.000 
#    0.000    0.000    0.000    3.000    0.000   14.000 
#    0.000    0.000    0.000    0.000    0.000    0.000 
#
# Total GULP energy -89103.858708 kJ/mol
# GULP energy per Si atom -5568.991169 kJ/mol
# Density = 1.728651 g / cm^3
# Si number density = 17.325944 Si / 1000 Ang^3
#
#
#
# Elastic Constant Matrix: (Units=GPa)
#
#
# Indices 1 2 3 4 5 6 
#
# 1 101.9212 24.2966 27.6983 9.8092 -0.5196 -2.1237
# 2 24.2966 22.7625 -6.4841 -0.1332 25.0452 2.8092
# 3 27.6983 -6.4841 80.5198 -3.6931 27.2867 -9.0201
# 4 9.8092 -0.1332 -3.6931 9.8570 15.2753 4.0192
# 5 -0.5196 25.0452 27.2867 15.2753 6.5262 -2.4481
# 6 -2.1237 2.8092 -9.0201 4.0192 -2.4481 17.7113
#
#
#
# Elastic Compliance Matrix: (Units=1/GPa)
#
#
# Indices 1 2 3 4 5 6 
#
# 1 0.009409 -0.000258 -0.000202 0.004664 -0.008785 -0.001206
# 2 -0.000258 0.021252 -0.005649 -0.032222 0.018822 0.003635
# 3 -0.000202 -0.005649 0.010279 -0.010531 0.006875 0.009447
# 4 0.004664 -0.032222 -0.010531 0.060148 0.023487 -0.010096
# 5 -0.008785 0.018822 0.006875 0.023487 -0.005929 -0.006687
# 6 -0.001206 0.003635 0.009447 -0.010096 -0.006687 0.061918
#
#
# Mechanical properties :
#
#
# Convention : Reuss Voigt Hill
#
# Bulk Modulus (GPa) = 34.81492 32.91389 33.86441
# Shear Modulus (GPa) = 27.95342 17.46510 22.70926
#
# Velocity S-wave (km/s) = 4.02105 3.17840 3.62430
# Velocity P-wave (km/s) = 6.45726 5.70155 6.09114
#
# Compressibility (1/GPa) = 0.02872331
#
# Stress axis : x y z
#
# Youngs Moduli (GPa) = 106.28040 47.05418 97.28377
#
# Poissons Ratio (x) = 0.01215 0.01961
# Poissons Ratio (y) = 0.02745 0.54953
# Poissons Ratio (z) = 0.02142 0.26580
#
# Static dielectric constant tensor:
#      x y z
#    x 1.625600 -0.005070 -0.013960 
#    y -0.005070 1.607360 -0.006370 
#    z -0.013960 -0.006370 1.613400 
# 
# From -- ./inp_files/248223.got.cif
#   From: 2010.05.17/outbox.cif.g08.bks.cpg/sg2_125_cif.got.tgz:248223.got - 2010.06.03 11:33:40.
