data_PCOD9070966
_publ_section_title
;
Structure prediction by ZEFSAII (Michael W. Deem and Ramdas Pophale) SiO2 
 PCOD9070966
Probable space group: P -1
;
_chemical_formula_sum "Si O2"
_cell_formula_units_Z 14
_cell_length_a 8.406963
_cell_length_b 9.288707
_cell_length_c 12.971716
_cell_angle_alpha 143.423489
_cell_angle_beta 82.604417
_cell_angle_gamma 99.689271
_cell_volume 594.971495
_symmetry_space_group_name_H-M "P -1"
_symmetry_group_IT_number 2
_symmetry_cell_setting 'triclinic'
loop_
_space_group_symop_operation_xyz
x,y,z
-x,-y,-z
loop_
_atom_site_type_symbol
_atom_site_label
_atom_site_fract_x
_atom_site_fract_y
_atom_site_fract_z
Si Si1 0.930762 0.245610 0.599369
Si Si2 0.880458 0.056957 0.265525
Si Si3 0.340591 0.412955 0.900583
Si Si4 0.192681 0.646454 0.764770
Si Si5 0.423062 0.290147 0.455621
Si Si6 0.772818 0.126468 0.898784
Si Si7 0.572390 0.270634 0.636345
O O1 0.751107 0.286965 0.676669
O O2 0.034964 0.505740 0.752114
O O3 0.913790 0.205570 0.454509
O O4 0.000000 0.000000 0.500000
O O5 0.752322 0.828675 0.180464
O O6 0.053806 0.970598 0.173975
O O7 0.830484 0.206461 0.255001
O O8 0.431875 0.400978 0.775975
O O9 0.500000 0.500000 0.000000
O O10 0.222740 0.617872 0.013796
O O11 0.279525 0.409011 0.592056
O O12 0.270654 0.828596 0.951635
O O13 0.500000 0.500000 0.500000
O O14 0.565772 0.284687 0.522777
O O15 0.355094 0.057145 0.260882
O O16 0.500000 0.000000 0.500000
#
# Coordination Sequence:
#
# PCOD9070966 Si02
#       7
#     2   2   2   2   2   2   2
#     4  12  26  47  83 111 152 204 258 314 385 466
#     4  12  27  49  78 111 160 205 255 322 387 459
#     4  12  28  47  75 116 156 202 260 321 385 460
#     4  12  27  52  76 118 153 201 263 316 390 456
#     4  12  28  49  80 111 157 201 251 323 388 457
#     4  12  28  51  77 112 155 204 260 311 388 465
#     4  12  25  48  75 113 153 200 259 316 382 455
#
# _framework density 23.530538
#
# number of rings (size 3 to 8) (size 9 to 14) (size 15 to 20)
#    0.000    0.000    4.286    4.714    8.000    1.714 
#    0.000    0.000    0.000    0.000    0.000    0.000 
#    0.000    0.000    0.000    0.000    0.000    0.000 
#
# Total GULP energy -78129.148340 kJ/mol
# GULP energy per Si atom -5580.653453 kJ/mol
# Density = 2.347698 g / cm^3
# Si number density = 23.530538 Si / 1000 Ang^3
#
#
#
# Elastic Constant Matrix: (Units=GPa)
#
#
# Indices 1 2 3 4 5 6 
#
# 1 87.0193 24.8724 8.9981 10.4916 9.4221 -4.6768
# 2 24.8724 151.5626 30.5405 -10.7232 13.6253 -23.6944
# 3 8.9981 30.5405 107.9845 -10.5862 14.8652 -12.1731
# 4 10.4916 -10.7232 -10.5862 33.5657 -6.9139 4.8573
# 5 9.4221 13.6253 14.8652 -6.9139 32.8764 5.3290
# 6 -4.6768 -23.6944 -12.1731 4.8573 5.3290 46.2833
#
#
#
# Elastic Compliance Matrix: (Units=1/GPa)
#
#
# Indices 1 2 3 4 5 6 
#
# 1 0.013353 -0.001929 -0.000404 -0.006010 -0.004333 0.001385
# 2 -0.001929 0.008087 -0.001189 0.001756 -0.002497 0.003735
# 3 -0.000404 -0.001189 0.010672 0.001890 -0.004215 0.002444
# 4 -0.006010 0.001756 0.001890 0.035057 0.008133 -0.003827
# 5 -0.004333 -0.002497 -0.004215 0.008133 0.037608 -0.008009
# 6 0.001385 0.003735 0.002444 -0.003827 -0.008009 0.025625
#
#
# Mechanical properties :
#
#
# Convention : Reuss Voigt Hill
#
# Bulk Modulus (GPa) = 39.89224 52.82094 46.35659
# Shear Modulus (GPa) = 34.29308 41.35545 37.82426
#
# Velocity S-wave (km/s) = 3.82171 4.19683 4.01366
# Velocity P-wave (km/s) = 6.03856 6.78093 6.42049
#
# Compressibility (1/GPa) = 0.02506753
#
# Stress axis : x y z
#
# Youngs Moduli (GPa) = 74.88868 123.65671 93.70584
#
# Poissons Ratio (x) = 0.23855 0.03782
# Poissons Ratio (y) = 0.14447 0.11145
# Poissons Ratio (z) = 0.03023 0.14708
#
# Static dielectric constant tensor:
#      x y z
#    x 1.917200 -0.026540 0.020490 
#    y -0.026540 1.846960 -0.036620 
#    z 0.020490 -0.036620 1.930430 
# 
# From -- ./inp_files/383692.got.cif
#   From: 2010.05.17/outbox.cif.g08.bks.cpg/sg2_192_cif.got.tgz:383692.got - 2010.06.03 11:33:40.
