data_PCOD9070945
_publ_section_title
;
Structure prediction by ZEFSAII (Michael W. Deem and Ramdas Pophale) SiO2 
 PCOD9070945
Probable space group: P -1
;
_chemical_formula_sum "Si O2"
_cell_formula_units_Z 16
_cell_length_a 13.725994
_cell_length_b 9.468275
_cell_length_c 13.711012
_cell_angle_alpha 89.762191
_cell_angle_beta 31.974507
_cell_angle_gamma 68.046810
_cell_volume 674.461295
_symmetry_space_group_name_H-M "P -1"
_symmetry_group_IT_number 2
_symmetry_cell_setting 'triclinic'
loop_
_space_group_symop_operation_xyz
x,y,z
-x,-y,-z
loop_
_atom_site_type_symbol
_atom_site_label
_atom_site_fract_x
_atom_site_fract_y
_atom_site_fract_z
Si Si1 0.779351 0.024347 0.240077
Si Si2 0.013260 0.599593 0.083420
Si Si3 0.860324 0.181322 0.333598
Si Si4 0.414268 0.819141 0.892970
Si Si5 0.173838 0.796222 0.408969
Si Si6 0.740659 0.407838 0.938144
Si Si7 0.311649 0.420285 0.528639
Si Si8 0.104393 0.300197 0.454761
O O1 0.765937 0.092741 0.360138
O O2 0.519153 0.216899 0.411861
O O3 0.843180 0.825006 0.190349
O O4 0.000000 0.000000 0.000000
O O5 0.944077 0.523135 0.225795
O O6 0.216704 0.579948 0.981489
O O7 0.000000 0.500000 0.000000
O O8 0.824459 0.182596 0.477781
O O9 0.715851 0.400902 0.421677
O O10 0.166877 0.027831 0.055602
O O11 0.301344 0.738761 0.039170
O O12 0.605097 0.646835 0.652266
O O13 0.589325 0.840217 0.797932
O O14 0.474521 0.621455 0.126984
O O15 0.011134 0.745353 0.524041
O O16 0.000000 0.000000 0.500000
O O17 0.975131 0.327549 0.668594
O O18 0.000000 0.500000 0.500000
#
# Coordination Sequence:
#
# PCOD9070945 Si02
#       8
#     2   2   2   2   2   2   2   2
#     4  12  25  48  78 109 156 206 251 319 397 471
#     4  12  28  47  79 120 154 203 267 324 396 477
#     4  12  26  47  81 111 155 209 263 317 397 474
#     4  12  25  50  81 111 158 209 262 324 397 467
#     4  12  29  47  75 121 154 209 270 328 393 461
#     4  12  25  52  80 111 163 206 259 334 399 470
#     4  12  25  48  73 118 157 202 263 320 394 478
#     4  12  26  49  81 109 150 209 265 324 396 462
#
# _framework density 23.722636000000001
#
# number of rings (size 3 to 8) (size 9 to 14) (size 15 to 20)
#    0.000    0.000    6.250    2.625    3.500    1.500 
#    0.000    0.000    0.000    0.000    0.000    0.000 
#    0.000    0.000    0.000    0.000    0.000    0.000 
#
# Total GULP energy -89287.262438 kJ/mol
# GULP energy per Si atom -5580.453902 kJ/mol
# Density = 2.366864 g / cm^3
# Si number density = 23.722636 Si / 1000 Ang^3
#
#
#
# Elastic Constant Matrix: (Units=GPa)
#
#
# Indices 1 2 3 4 5 6 
#
# 1 109.4679 24.0268 -0.6976 3.0381 10.3400 -7.0238
# 2 24.0268 168.3838 25.1431 15.4291 7.7114 2.5883
# 3 -0.6976 25.1431 38.0982 -5.1555 -0.0127 -1.1936
# 4 3.0381 15.4291 -5.1555 45.6993 -5.6367 -6.0519
# 5 10.3400 7.7114 -0.0127 -5.6367 42.8916 12.3405
# 6 -7.0238 2.5883 -1.1936 -6.0519 12.3405 30.0906
#
#
#
# Elastic Compliance Matrix: (Units=1/GPa)
#
#
# Indices 1 2 3 4 5 6 
#
# 1 0.010037 -0.001556 0.001348 0.000125 -0.003241 0.003884
# 2 -0.001556 0.007328 -0.005356 -0.003288 -0.000951 -0.001477
# 3 0.001348 -0.005356 0.030660 0.005630 0.000553 0.002897
# 4 0.000125 -0.003288 0.005630 0.024516 0.002508 0.004438
# 5 -0.003241 -0.000951 0.000553 0.002508 0.027935 -0.011605
# 6 0.003884 -0.001477 0.002897 0.004438 -0.011605 0.040033
#
#
# Mechanical properties :
#
#
# Convention : Reuss Voigt Hill
#
# Bulk Modulus (GPa) = 27.10226 45.87718 36.48972
# Shear Modulus (GPa) = 30.49929 41.56814 36.03372
#
# Velocity S-wave (km/s) = 3.58950 4.19054 3.90161
# Velocity P-wave (km/s) = 5.35059 6.54180 5.97595
#
# Compressibility (1/GPa) = 0.03689729
#
# Stress axis : x y z
#
# Youngs Moduli (GPa) = 99.62985 136.45863 32.61540
#
# Poissons Ratio (x) = 0.21237 -0.04398
# Poissons Ratio (y) = 0.15505 0.17470
# Poissons Ratio (z) = -0.13434 0.73092
#
# Static dielectric constant tensor:
#      x y z
#    x 2.125820 0.024460 -0.079510 
#    y 0.024460 1.868140 -0.066150 
#    z -0.079510 -0.066150 2.124050 
# 
# From -- ./inp_files/529738.got.cif
#   From: 2010.05.17/outbox.cif.g08.bks.cpg/sg2_265_cif.got.tgz:529738.got - 2010.06.03 11:33:40.
