data_PCOD9070916
_publ_section_title
;
Structure prediction by ZEFSAII (Michael W. Deem and Ramdas Pophale) SiO2 
 PCOD9070916
Probable space group: P -1
;
_chemical_formula_sum "Si O2"
_cell_formula_units_Z 16
_cell_length_a 9.361609
_cell_length_b 19.944088
_cell_length_c 12.241367
_cell_angle_alpha 32.565363
_cell_angle_beta 36.288887
_cell_angle_gamma 33.463437
_cell_volume 636.227470
_symmetry_space_group_name_H-M "P -1"
_symmetry_group_IT_number 2
_symmetry_cell_setting 'triclinic'
loop_
_space_group_symop_operation_xyz
x,y,z
-x,-y,-z
loop_
_atom_site_type_symbol
_atom_site_label
_atom_site_fract_x
_atom_site_fract_y
_atom_site_fract_z
Si Si1 0.655776 0.209247 0.458626
Si Si2 0.537215 0.314713 0.028829
Si Si3 0.470229 0.861563 0.923988
Si Si4 0.015494 0.354578 0.651503
Si Si5 0.400383 0.911845 0.544016
Si Si6 0.925484 0.389203 0.056687
Si Si7 0.111360 0.845805 0.364508
Si Si8 0.825529 0.418807 0.435149
O O1 0.337299 0.247099 0.604452
O O2 0.765346 0.095922 0.448775
O O3 0.724064 0.333952 0.208918
O O4 0.747271 0.184241 0.562409
O O5 0.607030 0.212355 0.023290
O O6 0.453345 0.243132 0.277497
O O7 0.293891 0.472276 0.928342
O O8 0.808487 0.319809 0.894387
O O9 0.802786 0.756596 0.874230
O O10 0.423023 0.015180 0.705479
O O11 0.301021 0.867367 0.128309
O O12 0.000000 0.500000 0.500000
O O13 0.897678 0.367939 0.584240
O O14 0.183628 0.017659 0.620593
O O15 0.065220 0.467660 0.798505
O O16 0.073342 0.713527 0.528973
O O17 0.500000 0.500000 0.500000
#
# Coordination Sequence:
#
# PCOD9070916 Si02
#       8
#     2   2   2   2   2   2   2   2
#     4  12  29  50  76 119 160 215 265 333 406 477
#     4  12  27  50  81 120 160 207 266 338 411 473
#     4  12  27  50  85 116 155 215 269 336 396 487
#     4  12  26  47  76 121 164 201 264 334 408 474
#     4  12  30  52  77 115 167 214 267 329 412 486
#     4  12  26  47  83 112 163 202 267 331 402 472
#     4  12  27  52  82 115 159 212 276 324 401 483
#     4  12  25  47  80 121 153 209 267 336 396 474
#
# _framework density 25.148237999999999
#
# number of rings (size 3 to 8) (size 9 to 14) (size 15 to 20)
#    0.000    0.000    5.000    3.375    5.250    3.000 
#    0.000    0.000    0.000    0.000    0.000    0.000 
#    0.000    0.000    0.000    0.000    0.000    0.000 
#
# Total GULP energy -89545.648805 kJ/mol
# GULP energy per Si atom -5596.603050 kJ/mol
# Density = 2.509100 g / cm^3
# Si number density = 25.148238 Si / 1000 Ang^3
#
#
#
# Elastic Constant Matrix: (Units=GPa)
#
#
# Indices 1 2 3 4 5 6 
#
# 1 125.2999 15.1500 49.6953 -3.2449 -0.8569 12.4769
# 2 15.1500 73.5993 31.6857 -3.6655 -2.2079 15.2582
# 3 49.6953 31.6857 189.4985 5.5052 -23.9738 8.1691
# 4 -3.2449 -3.6655 5.5052 37.0423 7.0361 -9.8595
# 5 -0.8569 -2.2079 -23.9738 7.0361 42.7926 5.6524
# 6 12.4769 15.2582 8.1691 -9.8595 5.6524 56.5310
#
#
#
# Elastic Compliance Matrix: (Units=1/GPa)
#
#
# Indices 1 2 3 4 5 6 
#
# 1 0.009155 -0.000569 -0.002437 0.001015 -0.001218 -0.001216
# 2 -0.000569 0.015484 -0.002341 0.000930 -0.000210 -0.003532
# 3 -0.002437 -0.002341 0.006942 -0.002459 0.004214 -0.000684
# 4 0.001015 0.000930 -0.002459 0.030462 -0.007098 0.005903
# 5 -0.001218 -0.000210 0.004214 -0.007098 0.027424 -0.004263
# 6 -0.001216 -0.003532 -0.000684 0.005903 -0.004263 0.020466
#
#
# Mechanical properties :
#
#
# Convention : Reuss Voigt Hill
#
# Bulk Modulus (GPa) = 47.87760 64.60663 56.24211
# Shear Modulus (GPa) = 39.18793 46.73095 42.95944
#
# Velocity S-wave (km/s) = 3.95178 4.31538 4.13758
# Velocity P-wave (km/s) = 6.31677 7.11169 6.72599
#
# Compressibility (1/GPa) = 0.02088660
#
# Stress axis : x y z
#
# Youngs Moduli (GPa) = 109.22731 64.58080 144.05807
#
# Poissons Ratio (x) = 0.03677 0.35105
# Poissons Ratio (y) = 0.06218 0.33727
# Poissons Ratio (z) = 0.26617 0.15120
#
# Static dielectric constant tensor:
#      x y z
#    x 1.962990 -0.044600 0.035000 
#    y -0.044600 2.043520 0.017920 
#    z 0.035000 0.017920 2.027130 
# 
# From -- ./inp_files/402795.got.cif
#   From: 2010.05.17/outbox.cif.g08.bks.cpg/sg2_202_cif.got.tgz:402795.got - 2010.06.03 11:33:40.
