data_PCOD9070598
_publ_section_title
;
Structure prediction by ZEFSAII (Michael W. Deem and Ramdas Pophale) SiO2 
 PCOD9070598
Probable space group: P -1
;
_chemical_formula_sum "Si O2"
_cell_formula_units_Z 14
_cell_length_a 8.104885
_cell_length_b 10.915584
_cell_length_c 11.362708
_cell_angle_alpha 74.782520
_cell_angle_beta 139.876379
_cell_angle_gamma 87.544671
_cell_volume 575.169950
_symmetry_space_group_name_H-M "P -1"
_symmetry_group_IT_number 2
_symmetry_cell_setting 'triclinic'
loop_
_space_group_symop_operation_xyz
x,y,z
-x,-y,-z
loop_
_atom_site_type_symbol
_atom_site_label
_atom_site_fract_x
_atom_site_fract_y
_atom_site_fract_z
Si Si1 0.198687 0.073750 0.374334
Si Si2 0.175754 0.365715 0.305813
Si Si3 0.356905 0.856427 0.698701
Si Si4 0.644008 0.106750 0.041107
Si Si5 0.978796 0.673655 0.112256
Si Si6 0.454955 0.356665 0.704356
Si Si7 0.741028 0.335208 0.486259
O O1 0.096642 0.237866 0.267960
O O2 0.964654 0.034831 0.192137
O O3 0.500000 0.000000 0.500000
O O4 0.247726 0.010217 0.548636
O O5 0.967717 0.522442 0.130251
O O6 0.260913 0.354314 0.491115
O O7 0.456216 0.345506 0.392690
O O8 0.324810 0.846259 0.821943
O O9 0.211496 0.776212 0.561236
O O10 0.690988 0.786169 0.883031
O O11 0.484603 0.237825 0.841425
O O12 0.500000 0.000000 0.000000
O O13 0.244456 0.669574 0.183816
O O14 0.043489 0.692210 0.280473
O O15 0.325502 0.513231 0.640886
#
# Coordination Sequence:
#
# PCOD9070598 Si02
#       7
#     2   2   2   2   2   2   2
#     4  12  25  45  73 102 131 185 241 286 332 413
#     4   9  19  42  70 102 134 173 238 294 332 397
#     4  12  25  41  69 102 142 179 225 287 353 408
#     4  12  29  46  65 100 150 188 224 281 360 416
#     4   9  21  42  73 102 136 178 231 292 339 406
#     4   9  20  42  69  98 137 186 229 279 341 415
#     4   9  20  40  69 106 136 172 234 290 340 403
#
# _framework density 24.340633
#
# number of rings (size 3 to 8) (size 9 to 14) (size 15 to 20)
#    0.000    1.714    1.429    3.857    4.000    1.714 
#    0.000    5.000    0.000    0.000    0.000    0.000 
#    0.000    0.000    0.000    0.000    0.000    0.000 
#
# Total GULP energy -78412.356953 kJ/mol
# GULP energy per Si atom -5600.882639 kJ/mol
# Density = 2.428523 g / cm^3
# Si number density = 24.340633 Si / 1000 Ang^3
#
#
#
# Elastic Constant Matrix: (Units=GPa)
#
#
# Indices 1 2 3 4 5 6 
#
# 1 64.7335 37.7949 10.6825 1.6999 -17.9627 12.6464
# 2 37.7949 142.4032 46.8932 0.1692 -10.6958 20.2514
# 3 10.6825 46.8932 96.9839 -3.1313 -17.2963 13.8496
# 4 1.6999 0.1692 -3.1313 30.8595 9.8245 -10.6342
# 5 -17.9627 -10.6958 -17.2963 9.8245 51.6696 2.2472
# 6 12.6464 20.2514 13.8496 -10.6342 2.2472 42.8110
#
#
#
# Elastic Compliance Matrix: (Units=1/GPa)
#
#
# Indices 1 2 3 4 5 6 
#
# 1 0.021898 -0.004931 0.002332 -0.006125 0.008837 -0.006876
# 2 -0.004931 0.009916 -0.004134 -0.000627 -0.000839 -0.002008
# 3 0.002332 -0.004134 0.013409 -0.001591 0.004908 -0.003724
# 4 -0.006125 -0.000627 -0.001591 0.040711 -0.011112 0.013317
# 5 0.008837 -0.000839 0.004908 -0.011112 0.026353 -0.007945
# 6 -0.006876 -0.002008 -0.003724 0.013317 -0.007945 0.031269
#
#
# Mechanical properties :
#
#
# Convention : Reuss Voigt Hill
#
# Bulk Modulus (GPa) = 31.48957 54.98461 43.23709
# Shear Modulus (GPa) = 29.83141 38.98469 34.40805
#
# Velocity S-wave (km/s) = 3.50463 4.00638 3.76387
# Velocity P-wave (km/s) = 5.41680 6.63627 6.05730
#
# Compressibility (1/GPa) = 0.03175655
#
# Stress axis : x y z
#
# Youngs Moduli (GPa) = 45.66552 100.84851 74.57741
#
# Poissons Ratio (x) = 0.49730 -0.17394
# Poissons Ratio (y) = 0.22519 0.30834
# Poissons Ratio (z) = -0.10651 0.41695
#
# Static dielectric constant tensor:
#      x y z
#    x 2.046800 -0.014100 0.051450 
#    y -0.014100 1.937850 0.012880 
#    z 0.051450 0.012880 1.909350 
# 
# From -- ./inp_files/389857.got.cif
#   From: 2010.05.17/outbox.cif.g08.bks.cpg/sg2_195_cif.got.tgz:389857.got - 2010.06.03 11:33:40.
