data_PCOD9070816
_publ_section_title
;
Structure prediction by ZEFSAII (Michael W. Deem and Ramdas Pophale) SiO2 
 PCOD9070816
Probable space group: P -1
;
_chemical_formula_sum "Si O2"
_cell_formula_units_Z 13
_cell_length_a 12.681928
_cell_length_b 8.350486
_cell_length_c 5.319886
_cell_angle_alpha 102.481143
_cell_angle_beta 96.052951
_cell_angle_gamma 97.600359
_cell_volume 539.976520
_symmetry_space_group_name_H-M "P -1"
_symmetry_group_IT_number 2
_symmetry_cell_setting 'triclinic'
loop_
_space_group_symop_operation_xyz
x,y,z
-x,-y,-z
loop_
_atom_site_type_symbol
_atom_site_label
_atom_site_fract_x
_atom_site_fract_y
_atom_site_fract_z
Si Si1 0.913358 0.363039 0.073618
Si Si2 0.730938 0.174068 0.598852
Si Si3 0.122522 0.239742 0.131219
Si Si4 0.544136 0.606319 0.296398
Si Si5 0.500000 0.000000 0.500000
Si Si6 0.247537 0.508369 0.555044
Si Si7 0.125978 0.059627 0.566487
O O1 0.854015 0.455482 0.298665
O O2 0.996358 0.245081 0.149272
O O3 0.818463 0.259937 0.849859
O O4 0.000000 0.500000 0.000000
O O5 0.692134 0.315197 0.465100
O O6 0.625286 0.057145 0.627838
O O7 0.800313 0.075905 0.401799
O O8 0.196483 0.412357 0.266059
O O9 0.157389 0.122182 0.315373
O O10 0.138967 0.189383 0.837008
O O11 0.500000 0.500000 0.500000
O O12 0.523748 0.798769 0.369034
O O13 0.671009 0.594122 0.327650
O O14 0.500000 0.500000 0.000000
O O15 0.000000 0.000000 0.500000
#
# Coordination Sequence:
#
# PCOD9070816 Si02
#       7
#     2   2   2   2   1   2   2
#     4  12  25  46  78 119 166 219 276 342 434 508
#     4  12  27  48  80 116 166 219 284 346 426 512
#     4  12  26  46  75 110 163 208 268 330 419 499
#     4  12  29  58  89 121 170 226 298 361 432 512
#     4  12  28  58  84 126 164 232 290 362 424 520
#     4  12  27  48  81 117 160 218 276 351 429 505
#     4  12  26  46  71 117 159 213 268 342 411 502
#
# _framework density 24.075123000000001
#
# number of rings (size 3 to 8) (size 9 to 14) (size 15 to 20)
#    0.000    0.000    4.615    4.615    2.154    1.846 
#    5.538    0.000    0.000    0.000    0.000    0.000 
#    0.000    0.000    0.000    0.000    0.000    0.000 
#
# Total GULP energy -72424.982199 kJ/mol
# GULP energy per Si atom -5571.152477 kJ/mol
# Density = 2.402033 g / cm^3
# Si number density = 24.075123 Si / 1000 Ang^3
#
#
#
# Elastic Constant Matrix: (Units=GPa)
#
#
# Indices 1 2 3 4 5 6 
#
# 1 147.8984 40.2422 56.0773 22.4793 30.3886 -24.6937
# 2 40.2422 110.5937 50.0524 21.0069 2.8551 -16.8422
# 3 56.0773 50.0524 140.7609 30.7541 10.3341 -1.2421
# 4 22.4793 21.0069 30.7541 39.0093 3.6001 -4.5248
# 5 30.3886 2.8551 10.3341 3.6001 36.4903 7.8436
# 6 -24.6937 -16.8422 -1.2421 -4.5248 7.8436 56.1496
#
#
#
# Elastic Compliance Matrix: (Units=1/GPa)
#
#
# Indices 1 2 3 4 5 6 
#
# 1 0.011489 -0.001357 -0.002884 -0.002053 -0.009682 0.005769
# 2 -0.001357 0.011851 -0.003063 -0.002966 0.000817 0.002537
# 3 -0.002884 -0.003063 0.010414 -0.005256 0.000745 -0.002484
# 4 -0.002053 -0.002966 -0.005256 0.032636 0.000057 0.000713
# 5 -0.009682 0.000817 0.000745 0.000057 0.037161 -0.009183
# 6 0.005769 0.002537 -0.002484 0.000713 -0.009183 0.022393
#
#
# Mechanical properties :
#
#
# Convention : Reuss Voigt Hill
#
# Bulk Modulus (GPa) = 52.23038 76.88855 64.55947
# Shear Modulus (GPa) = 34.02898 43.18858 38.60878
#
# Velocity S-wave (km/s) = 3.76367 4.24005 4.00894
# Velocity P-wave (km/s) = 6.37407 7.48178 6.95003
#
# Compressibility (1/GPa) = 0.01914594
#
# Stress axis : x y z
#
# Youngs Moduli (GPa) = 87.04129 84.38324 96.02357
#
# Poissons Ratio (x) = 0.11448 0.27695
# Poissons Ratio (y) = 0.11808 0.29412
# Poissons Ratio (z) = 0.25105 0.25846
#
# Static dielectric constant tensor:
#      x y z
#    x 1.917020 -0.056190 -0.053260 
#    y -0.056190 2.216470 0.020970 
#    z -0.053260 0.020970 1.892880 
# 
# From -- ./inp_files/60014.got.cif
#   From: 2010.05.17/outbox.cif.g08.bks.cpg/sg2_31_cif.got.tgz:60014.got - 2010.06.03 11:33:40.
