data_PCOD9070019
_publ_section_title
;
Structure prediction by ZEFSAII (Michael W. Deem and Ramdas Pophale) SiO2 
 PCOD9070019
Probable space group: P -1
;
_chemical_formula_sum "Si O2"
_cell_formula_units_Z 16
_cell_length_a 15.792526
_cell_length_b 8.538003
_cell_length_c 8.430165
_cell_angle_alpha 77.884581
_cell_angle_beta 71.690085
_cell_angle_gamma 40.811008
_cell_volume 704.579766
_symmetry_space_group_name_H-M "P -1"
_symmetry_group_IT_number 2
_symmetry_cell_setting 'triclinic'
loop_
_space_group_symop_operation_xyz
x,y,z
-x,-y,-z
loop_
_atom_site_type_symbol
_atom_site_label
_atom_site_fract_x
_atom_site_fract_y
_atom_site_fract_z
Si Si1 0.856865 0.774477 0.036991
Si Si2 0.279447 0.135221 0.568407
Si Si3 0.425496 0.398650 0.806454
Si Si4 0.697779 0.487906 0.838399
Si Si5 0.240624 0.538161 0.632573
Si Si6 0.042668 0.012202 0.144798
Si Si7 0.702647 0.860481 0.799974
Si Si8 0.535502 0.594687 0.624262
O O1 0.797122 0.832122 0.237900
O O2 0.883730 0.921213 0.949001
O O3 0.774298 0.811554 0.931104
O O4 0.000000 0.500000 0.000000
O O5 0.264342 0.347278 0.556573
O O6 0.238433 0.158492 0.403308
O O7 0.429745 0.862458 0.556031
O O8 0.333614 0.399648 0.761695
O O9 0.473926 0.500736 0.679747
O O10 0.556952 0.131573 0.837326
O O11 0.333666 0.564848 0.971675
O O12 0.692513 0.683463 0.829347
O O13 0.576839 0.596976 0.773766
O O14 0.852022 0.237378 0.766749
O O15 0.316624 0.587255 0.499737
O O16 0.090805 0.773110 0.721656
O O17 0.000000 0.000000 0.000000
#
# Coordination Sequence:
#
# PCOD9070019 Si02
#       8
#     2   2   2   2   2   2   2   2
#     4  12  26  49  75 107 148 189 244 296 362 436
#     4  12  25  48  77 108 147 192 242 302 366 430
#     4  12  24  44  74 108 144 185 248 303 362 427
#     4  12  24  45  72 105 146 192 242 296 368 434
#     4  12  24  46  70 103 147 189 237 298 363 428
#     4  12  26  48  73 104 147 197 240 295 369 437
#     4  12  26  47  77 112 144 192 243 304 364 431
#     4  12  25  44  73 110 144 186 243 306 364 424
#
# _framework density 22.708572
#
# number of rings (size 3 to 8) (size 9 to 14) (size 15 to 20)
#    0.000    0.000    5.000    6.000    0.000    1.000 
#    0.000    0.000    0.000    0.000    0.000    0.000 
#    0.000    0.000    0.000    0.000    0.000    0.000 
#
# Total GULP energy -89377.787673 kJ/mol
# GULP energy per Si atom -5586.111730 kJ/mol
# Density = 2.265689 g / cm^3
# Si number density = 22.708572 Si / 1000 Ang^3
#
#
#
# Elastic Constant Matrix: (Units=GPa)
#
#
# Indices 1 2 3 4 5 6 
#
# 1 87.4372 28.2412 21.1425 4.6562 -2.8097 13.7025
# 2 28.2412 149.4207 16.9922 16.6361 -8.9453 5.2297
# 3 21.1425 16.9922 124.3668 19.9255 -14.6459 -11.0887
# 4 4.6562 16.6361 19.9255 32.3833 -6.8370 -0.2975
# 5 -2.8097 -8.9453 -14.6459 -6.8370 38.1969 -6.3397
# 6 13.7025 5.2297 -11.0887 -0.2975 -6.3397 32.4478
#
#
#
# Elastic Compliance Matrix: (Units=1/GPa)
#
#
# Indices 1 2 3 4 5 6 
#
# 1 0.013846 -0.002203 -0.002942 0.000538 -0.001661 -0.006817
# 2 -0.002203 0.007546 -0.000017 -0.003344 0.000978 -0.000131
# 3 -0.002942 -0.000017 0.010276 -0.005056 0.003717 0.005437
# 4 0.000538 -0.003344 -0.005056 0.036427 0.003781 -0.000343
# 5 -0.001661 0.000978 0.003717 0.003781 0.029658 0.007643
# 6 -0.006817 -0.000131 0.005437 -0.000343 0.007643 0.037067
#
#
# Mechanical properties :
#
#
# Convention : Reuss Voigt Hill
#
# Bulk Modulus (GPa) = 46.85456 54.88627 50.87041
# Shear Modulus (GPa) = 32.83862 40.26219 36.55040
#
# Velocity S-wave (km/s) = 3.80687 4.21526 4.01626
# Velocity P-wave (km/s) = 6.32462 6.92196 6.63002
#
# Compressibility (1/GPa) = 0.02134264
#
# Stress axis : x y z
#
# Youngs Moduli (GPa) = 72.22214 132.51435 97.31528
#
# Poissons Ratio (x) = 0.29195 0.28635
# Poissons Ratio (y) = 0.15911 0.00168
# Poissons Ratio (z) = 0.21251 0.00229
#
# Static dielectric constant tensor:
#      x y z
#    x 1.809600 0.001660 0.038400 
#    y 0.001660 1.839970 -0.049290 
#    z 0.038400 -0.049290 2.069240 
# 
# From -- ./inp_files/298192.got.cif
#   From: 2010.05.17/outbox.cif.g08.bks.cpg/sg2_150_cif.got.tgz:298192.got - 2010.06.03 11:33:40.
