data_PCOD9070473
_publ_section_title
;
Structure prediction by ZEFSAII (Michael W. Deem and Ramdas Pophale) SiO2 
 PCOD9070473
Probable space group: P -1
;
_chemical_formula_sum "Si O2"
_cell_formula_units_Z 16
_cell_length_a 8.829555
_cell_length_b 11.411204
_cell_length_c 8.633351
_cell_angle_alpha 115.364060
_cell_angle_beta 98.562830
_cell_angle_gamma 64.805377
_cell_volume 710.638463
_symmetry_space_group_name_H-M "P -1"
_symmetry_group_IT_number 2
_symmetry_cell_setting 'triclinic'
loop_
_space_group_symop_operation_xyz
x,y,z
-x,-y,-z
loop_
_atom_site_type_symbol
_atom_site_label
_atom_site_fract_x
_atom_site_fract_y
_atom_site_fract_z
Si Si1 0.436087 0.856214 0.006022
Si Si2 0.792277 0.295712 0.021467
Si Si3 0.377993 0.132562 0.658322
Si Si4 0.121252 0.127288 0.155042
Si Si5 0.386294 0.413483 0.665942
Si Si6 0.288819 0.340941 0.281828
Si Si7 0.766612 0.383367 0.720423
Si Si8 0.042847 0.118405 0.488068
O O1 0.555052 0.883645 0.165866
O O2 0.278409 0.001691 0.030715
O O3 0.359437 0.753949 0.015616
O O4 0.541281 0.777094 0.829281
O O5 0.734188 0.444127 0.186543
O O6 0.953135 0.177450 0.059521
O O7 0.824999 0.320672 0.863714
O O8 0.384391 0.275439 0.672164
O O9 0.193544 0.138067 0.611705
O O10 0.500000 0.000000 0.500000
O O11 0.167687 0.263071 0.253865
O O12 0.098852 0.079275 0.297313
O O13 0.327290 0.407379 0.479474
O O14 0.572977 0.408469 0.690688
O O15 0.218612 0.468394 0.220556
O O16 0.880689 0.266041 0.550974
O O17 0.000000 0.000000 0.500000
#
# Coordination Sequence:
#
# PCOD9070473 Si02
#       8
#     2   2   2   2   2   2   2   2
#     4  12  25  50  74 108 147 198 249 297 369 436
#     4  12  27  48  76 109 150 196 246 307 363 433
#     4  12  24  48  78 105 146 195 244 301 370 436
#     4  12  28  49  71 109 153 194 242 310 363 437
#     4  12  24  49  76 105 151 194 247 304 367 433
#     4  12  27  46  76 110 147 197 251 299 366 437
#     4  12  26  46  75 110 146 193 246 301 367 435
#     4  12  27  48  77 110 146 192 244 305 374 440
#
# _framework density 22.514962000000001
#
# number of rings (size 3 to 8) (size 9 to 14) (size 15 to 20)
#    0.000    0.000    5.000    4.500    5.250    1.500 
#    0.000    0.000    0.000    0.000    0.000    0.000 
#    0.000    0.000    0.000    0.000    0.000    0.000 
#
# Total GULP energy -89734.608073 kJ/mol
# GULP energy per Si atom -5608.413005 kJ/mol
# Density = 2.246372 g / cm^3
# Si number density = 22.514962 Si / 1000 Ang^3
#
#
#
# Elastic Constant Matrix: (Units=GPa)
#
#
# Indices 1 2 3 4 5 6 
#
# 1 73.4445 40.9717 6.3346 -11.3284 0.4331 18.9292
# 2 40.9717 86.0039 0.6921 10.5620 8.6923 21.3737
# 3 6.3346 0.6921 73.6935 2.5308 5.9785 4.4190
# 4 -11.3284 10.5620 2.5308 41.6967 -7.4411 -0.5220
# 5 0.4331 8.6923 5.9785 -7.4411 31.0891 0.7616
# 6 18.9292 21.3737 4.4190 -0.5220 0.7616 46.3721
#
#
#
# Elastic Compliance Matrix: (Units=1/GPa)
#
#
# Indices 1 2 3 4 5 6 
#
# 1 0.023007 -0.011939 -0.002502 0.010468 0.006093 -0.003632
# 2 -0.011939 0.020571 0.002142 -0.010126 -0.008303 -0.004790
# 3 -0.002502 0.002142 0.014259 -0.002808 -0.003946 -0.001292
# 4 0.010468 -0.010126 -0.002808 0.031490 0.010742 0.000840
# 5 0.006093 -0.008303 -0.003946 0.010742 0.037702 0.001218
# 6 -0.003632 -0.004790 -0.001292 0.000840 0.001218 0.025368
#
#
# Mechanical properties :
#
#
# Convention : Reuss Voigt Hill
#
# Bulk Modulus (GPa) = 30.08538 36.57097 33.32818
# Shear Modulus (GPa) = 26.58550 36.17448 31.37999
#
# Velocity S-wave (km/s) = 3.43999 4.01270 3.73733
# Velocity P-wave (km/s) = 5.40088 6.14388 5.78432
#
# Compressibility (1/GPa) = 0.03323874
#
# Stress axis : x y z
#
# Youngs Moduli (GPa) = 43.46584 48.61272 70.13281
#
# Poissons Ratio (x) = 0.58037 0.17544
# Poissons Ratio (y) = 0.51893 -0.15020
# Poissons Ratio (z) = 0.10873 -0.10411
#
# Static dielectric constant tensor:
#      x y z
#    x 1.805510 0.014010 0.003430 
#    y 0.014010 1.825910 -0.002480 
#    z 0.003430 -0.002480 1.789900 
# 
# From -- ./inp_files/190186.got.cif
#   From: 2010.05.17/outbox.cif.g08.bks.cpg/sg2_96_cif.got.tgz:190186.got - 2010.06.03 11:33:40.
