data_PCOD9070248
_publ_section_title
;
Structure prediction by ZEFSAII (Michael W. Deem and Ramdas Pophale) SiO2 
 PCOD9070248
Probable space group: P -1
;
_chemical_formula_sum "Si O2"
_cell_formula_units_Z 13
_cell_length_a 9.288697
_cell_length_b 11.755553
_cell_length_c 7.587629
_cell_angle_alpha 50.904252
_cell_angle_beta 102.362801
_cell_angle_gamma 67.221922
_cell_volume 455.340278
_symmetry_space_group_name_H-M "P -1"
_symmetry_group_IT_number 2
_symmetry_cell_setting 'triclinic'
loop_
_space_group_symop_operation_xyz
x,y,z
-x,-y,-z
loop_
_atom_site_type_symbol
_atom_site_label
_atom_site_fract_x
_atom_site_fract_y
_atom_site_fract_z
Si Si1 0.531802 0.393016 0.930223
Si Si2 0.209410 0.114371 0.164578
Si Si3 0.000000 0.500000 0.000000
Si Si4 0.867557 0.388937 0.274589
Si Si5 0.546819 0.254851 0.594745
Si Si6 0.099573 0.935165 0.849108
Si Si7 0.799564 0.688994 0.364731
O O1 0.522933 0.531418 0.656997
O O2 0.321902 0.446562 0.812233
O O3 0.500000 0.500000 0.000000
O O4 0.742140 0.168772 0.171359
O O5 0.012531 0.142547 0.086012
O O6 0.392929 0.869820 0.450516
O O7 0.164452 0.273542 0.135328
O O8 0.263740 0.146695 0.954063
O O9 0.167346 0.524156 0.011517
O O10 0.078389 0.343100 0.391786
O O11 0.942058 0.176025 0.543078
O O12 0.383920 0.279856 0.644789
O O13 0.757819 0.129556 0.883682
O O14 0.000000 0.500000 0.500000
#
# Coordination Sequence:
#
# PCOD9070248 Si02
#       7
#     2   2   1   2   2   2   2
#     4  12  28  47  75 117 161 203 262 322 396 476
#     4  12  25  49  78 112 155 204 263 323 398 458
#     4  12  30  46  78 110 162 202 254 324 404 470
#     4  12  27  49  76 115 151 213 256 324 398 464
#     4  12  26  48  80 122 150 210 269 328 385 467
#     4  12  26  50  82 111 156 207 269 326 385 469
#     4  12  24  46  77 111 158 202 263 327 384 463
#
# _framework density 28.550079
#
# number of rings (size 3 to 8) (size 9 to 14) (size 15 to 20)
#    0.000    0.000    4.615    5.077    4.308    1.231 
#    0.000    1.538    0.000    0.000    0.000    0.000 
#    0.000    0.000    0.000    0.000    0.000    0.000 
#
# Total GULP energy -72559.553558 kJ/mol
# GULP energy per Si atom -5581.504120 kJ/mol
# Density = 2.848510 g / cm^3
# Si number density = 28.550079 Si / 1000 Ang^3
#
#
#
# Elastic Constant Matrix: (Units=GPa)
#
#
# Indices 1 2 3 4 5 6 
#
# 1 245.1171 44.4535 42.0513 7.2070 -14.5800 -40.7827
# 2 44.4535 187.2600 20.3120 2.9868 2.2042 -29.1415
# 3 42.0513 20.3120 63.9875 -1.6237 -2.6225 -9.7131
# 4 7.2070 2.9868 -1.6237 33.3145 -9.6679 8.2522
# 5 -14.5800 2.2042 -2.6225 -9.6679 48.7323 -0.1245
# 6 -40.7827 -29.1415 -9.7131 8.2522 -0.1245 53.8340
#
#
#
# Elastic Compliance Matrix: (Units=1/GPa)
#
#
# Indices 1 2 3 4 5 6 
#
# 1 0.005362 -0.000383 -0.002853 -0.001840 0.001112 0.003624
# 2 -0.000383 0.006068 -0.001289 -0.001480 -0.000744 0.002987
# 3 -0.002853 -0.001289 0.017996 0.001729 0.000517 0.000124
# 4 -0.001840 -0.001480 0.001729 0.034248 0.006386 -0.007118
# 5 0.001112 -0.000744 0.000517 0.006386 0.022180 -0.000395
# 6 0.003624 0.002987 0.000124 -0.007118 -0.000395 0.024051
#
#
# Mechanical properties :
#
#
# Convention : Reuss Voigt Hill
#
# Bulk Modulus (GPa) = 49.07825 78.88868 63.98346
# Shear Modulus (GPa) = 39.76205 53.14603 46.45404
#
# Velocity S-wave (km/s) = 3.73595 4.31919 4.03812
# Velocity P-wave (km/s) = 5.98643 7.25021 6.64842
#
# Compressibility (1/GPa) = 0.02037562
#
# Stress axis : x y z
#
# Youngs Moduli (GPa) = 186.50112 164.79424 55.56764
#
# Poissons Ratio (x) = 0.06313 0.15854
# Poissons Ratio (y) = 0.07145 0.07163
# Poissons Ratio (z) = 0.53209 0.21244
#
# Static dielectric constant tensor:
#      x y z
#    x 2.896530 0.528150 -0.438960 
#    y 0.528150 2.993100 -0.135030 
#    z -0.438960 -0.135030 3.112630 
# 
# From -- ./inp_files/174266.got.cif
#   From: 2010.05.17/outbox.cif.g08.bks.cpg/sg2_88_cif.got.tgz:174266.got - 2010.06.03 11:33:40.
