data_PCOD9070629
_publ_section_title
;
Structure prediction by ZEFSAII (Michael W. Deem and Ramdas Pophale) SiO2 
 PCOD9070629
Probable space group: P -1
;
_chemical_formula_sum "Si O2"
_cell_formula_units_Z 16
_cell_length_a 9.282036
_cell_length_b 12.024521
_cell_length_c 12.023459
_cell_angle_alpha 46.085500
_cell_angle_beta 94.550312
_cell_angle_gamma 121.923257
_cell_volume 724.198003
_symmetry_space_group_name_H-M "P -1"
_symmetry_group_IT_number 2
_symmetry_cell_setting 'triclinic'
loop_
_space_group_symop_operation_xyz
x,y,z
-x,-y,-z
loop_
_atom_site_type_symbol
_atom_site_label
_atom_site_fract_x
_atom_site_fract_y
_atom_site_fract_z
Si Si1 0.095403 0.407284 0.391357
Si Si2 0.143950 0.228133 0.904426
Si Si3 0.797602 0.173293 0.901658
Si Si4 0.645453 0.981116 0.274001
Si Si5 0.015533 0.830265 0.662205
Si Si6 0.454719 0.438930 0.413595
Si Si7 0.710534 0.710934 0.885878
Si Si8 0.716611 0.056517 0.729979
O O1 0.213629 0.649741 0.231198
O O2 0.983807 0.293061 0.350031
O O3 0.253395 0.382112 0.420185
O O4 0.928008 0.277360 0.563860
O O5 0.359836 0.373896 0.771723
O O6 0.026042 0.300155 0.824108
O O7 0.170401 0.236112 0.031533
O O8 0.000000 0.000000 0.000000
O O9 0.710313 0.035244 0.879817
O O10 0.713622 0.050964 0.099516
O O11 0.823789 0.108282 0.281897
O O12 0.563342 0.756235 0.456685
O O13 0.470929 0.975842 0.286744
O O14 0.818606 0.692649 0.811101
O O15 0.000000 0.000000 0.500000
O O16 0.500000 0.500000 0.500000
O O17 0.707175 0.894904 0.766767
O O18 0.500000 0.500000 0.000000
#
# Coordination Sequence:
#
# PCOD9070629 Si02
#       8
#     2   2   2   2   2   2   2   2
#     4  12  27  48  77 109 156 199 247 313 375 453
#     4  12  25  46  76 109 150 197 251 312 376 444
#     4  12  26  47  76 114 154 190 253 320 375 437
#     4  12  27  46  75 113 151 199 249 310 381 448
#     4  12  25  51  73 103 152 202 250 302 372 453
#     4  12  25  43  74 108 146 197 250 300 383 449
#     4  12  27  46  76 108 149 199 254 303 376 454
#     4  12  26  48  75 111 157 194 251 320 379 439
#
# _framework density 22.093404
#
# number of rings (size 3 to 8) (size 9 to 14) (size 15 to 20)
#    0.000    0.000    5.000    4.500    3.500    2.000 
#    0.000    0.000    0.000    0.000    0.000    0.000 
#    0.000    0.000    0.000    0.000    0.000    0.000 
#
# Total GULP energy -89280.814928 kJ/mol
# GULP energy per Si atom -5580.050933 kJ/mol
# Density = 2.204312 g / cm^3
# Si number density = 22.093404 Si / 1000 Ang^3
#
#
#
# Elastic Constant Matrix: (Units=GPa)
#
#
# Indices 1 2 3 4 5 6 
#
# 1 134.1449 2.6833 24.6185 1.5345 -4.5849 23.1477
# 2 2.6833 76.0603 20.2276 -0.2635 -3.6107 5.2513
# 3 24.6185 20.2276 86.0047 -1.2224 -13.2848 5.1617
# 4 1.5345 -0.2635 -1.2224 34.2313 -2.6256 -2.0022
# 5 -4.5849 -3.6107 -13.2848 -2.6256 37.1860 -4.4071
# 6 23.1477 5.2513 5.1617 -2.0022 -4.4071 40.6044
#
#
#
# Elastic Compliance Matrix: (Units=1/GPa)
#
#
# Indices 1 2 3 4 5 6 
#
# 1 0.008715 0.000651 -0.002424 -0.000781 -0.000355 -0.004821
# 2 0.000651 0.014154 -0.003408 -0.000144 0.000017 -0.001773
# 3 -0.002424 -0.003408 0.013785 0.000950 0.004433 0.000598
# 4 -0.000781 -0.000144 0.000950 0.029599 0.002565 0.002081
# 5 -0.000355 0.000017 0.004433 0.002565 0.028959 0.002906
# 6 -0.004821 -0.001773 0.000598 0.002081 0.002906 0.027948
#
#
# Mechanical properties :
#
#
# Convention : Reuss Voigt Hill
#
# Bulk Modulus (GPa) = 38.03673 43.47429 40.75551
# Shear Modulus (GPa) = 35.14018 38.98304 37.06161
#
# Velocity S-wave (km/s) = 3.99247 4.20511 4.10017
# Velocity P-wave (km/s) = 6.20538 6.58008 6.39548
#
# Compressibility (1/GPa) = 0.02629038
#
# Stress axis : x y z
#
# Youngs Moduli (GPa) = 114.74066 70.65340 72.54211
#
# Poissons Ratio (x) = -0.04597 0.17586
# Poissons Ratio (y) = -0.07465 0.24723
# Poissons Ratio (z) = 0.27817 0.24079
#
# Static dielectric constant tensor:
#      x y z
#    x 1.739240 0.054030 0.073650 
#    y 0.054030 1.724490 0.004790 
#    z 0.073650 0.004790 1.817110 
# 
# From -- ./inp_files/392104.got.cif
#   From: 2010.05.17/outbox.cif.g08.bks.cpg/sg2_197_cif.got.tgz:392104.got - 2010.06.03 11:33:40.
