data_PCOD9070474
_publ_section_title
;
Structure prediction by ZEFSAII (Michael W. Deem and Ramdas Pophale) SiO2 
 PCOD9070474
Probable space group: P -1
;
_chemical_formula_sum "Si O2"
_cell_formula_units_Z 15
_cell_length_a 5.525157
_cell_length_b 20.282314
_cell_length_c 19.329282
_cell_angle_alpha 22.478497
_cell_angle_beta 122.906929
_cell_angle_gamma 112.199491
_cell_volume 641.174319
_symmetry_space_group_name_H-M "P -1"
_symmetry_group_IT_number 2
_symmetry_cell_setting 'triclinic'
loop_
_space_group_symop_operation_xyz
x,y,z
-x,-y,-z
loop_
_atom_site_type_symbol
_atom_site_label
_atom_site_fract_x
_atom_site_fract_y
_atom_site_fract_z
Si Si1 0.080823 0.088490 0.716239
Si Si2 0.871947 0.324484 0.845104
Si Si3 0.807023 0.381897 0.117607
Si Si4 0.502301 0.279197 0.038921
Si Si5 0.500000 0.500000 0.500000
Si Si6 0.831720 0.847630 0.475164
Si Si7 0.469069 0.587068 0.627051
Si Si8 0.367758 0.913134 0.125844
O O1 0.951009 0.147706 0.560894
O O2 0.439379 0.066369 0.797411
O O3 0.879162 0.259645 0.567485
O O4 0.084248 0.889292 0.932274
O O5 0.857756 0.387735 0.703050
O O6 0.538868 0.475185 0.674179
O O7 0.127080 0.352446 0.907276
O O8 0.016383 0.230258 0.352235
O O9 0.500000 0.500000 0.000000
O O10 0.674802 0.293702 0.121146
O O11 0.000000 0.500000 0.000000
O O12 0.562383 0.417203 0.860247
O O13 0.617980 0.065557 0.239750
O O14 0.482101 0.699795 0.329088
O O15 0.667115 0.710486 0.557896
O O16 0.500000 0.000000 0.000000
O O17 0.000000 0.000000 0.000000
#
# Coordination Sequence:
#
# PCOD9070474 Si02
#       8
#     2   2   2   2   1   2   2   2
#     4  12  27  50  78 113 155 209 269 332 404 478
#     4  12  27  49  79 114 153 215 265 334 405 481
#     4  12  27  50  80 119 164 212 266 328 401 476
#     4  12  26  48  78 115 155 208 267 323 405 476
#     4  12  28  50  80 112 160 212 272 330 412 470
#     4  12  26  47  79 113 155 211 260 334 392 482
#     4  12  24  48  78 107 155 204 264 323 405 469
#     4  12  30  51  80 114 157 206 268 333 398 480
#
# _framework density 23.394575
#
# number of rings (size 3 to 8) (size 9 to 14) (size 15 to 20)
#    0.000    0.000    5.333    4.400    5.600    1.600 
#    0.000    2.000    0.000    0.000    0.000    0.000 
#    0.000    0.000    0.000    0.000    0.000    0.000 
#
# Total GULP energy -83602.341891 kJ/mol
# GULP energy per Si atom -5573.489459 kJ/mol
# Density = 2.334133 g / cm^3
# Si number density = 23.394575 Si / 1000 Ang^3
#
#
#
# Elastic Constant Matrix: (Units=GPa)
#
#
# Indices 1 2 3 4 5 6 
#
# 1 87.3929 8.3753 60.5961 -7.2281 -7.3615 7.2693
# 2 8.3753 69.7960 34.6651 -5.6551 -13.4032 29.6111
# 3 60.5961 34.6651 183.2194 -19.6977 -31.9878 9.7027
# 4 -7.2281 -5.6551 -19.6977 54.9098 -3.3733 3.2482
# 5 -7.3615 -13.4032 -31.9878 -3.3733 36.7348 0.7554
# 6 7.2693 29.6111 9.7027 3.2482 0.7554 23.6590
#
#
#
# Elastic Compliance Matrix: (Units=1/GPa)
#
#
# Indices 1 2 3 4 5 6 
#
# 1 0.015556 0.004529 -0.005374 0.001106 0.000365 -0.008408
# 2 0.004529 0.041832 -0.003001 0.007975 0.015402 -0.054103
# 3 -0.005374 -0.003001 0.009045 0.002523 0.005912 0.001163
# 4 0.001106 0.007975 0.002523 0.021410 0.007593 -0.014537
# 5 0.000365 0.015402 0.005912 0.007593 0.039256 -0.024110
# 6 -0.008408 -0.054103 0.001163 -0.014537 -0.024110 0.114854
#
#
# Mechanical properties :
#
#
# Convention : Reuss Voigt Hill
#
# Bulk Modulus (GPa) = 17.02379 60.85349 38.93864
# Shear Modulus (GPa) = 18.57181 38.84550 28.70865
#
# Velocity S-wave (km/s) = 2.82059 4.07928 3.50687
# Velocity P-wave (km/s) = 4.23087 6.94663 5.75134
#
# Compressibility (1/GPa) = 0.05874133
#
# Stress axis : x y z
#
# Youngs Moduli (GPa) = 64.28262 23.90524 110.56053
#
# Poissons Ratio (x) = -0.10827 0.59415
# Poissons Ratio (y) = -0.29114 0.33179
# Poissons Ratio (z) = 0.34545 0.07174
#
# Static dielectric constant tensor:
#      x y z
#    x 2.085110 -0.059750 -0.025360 
#    y -0.059750 1.935330 0.071550 
#    z -0.025360 0.071550 1.855780 
# 
# From -- ./inp_files/584303.got.cif
#   From: 2010.05.17/outbox.cif.g08.bks.cpg/sg2_293_cif.got.tgz:584303.got - 2010.06.03 11:33:40.
