data_PCOD9070520
_publ_section_title
;
Structure prediction by ZEFSAII (Michael W. Deem and Ramdas Pophale) SiO2 
 PCOD9070520
Probable space group: P -1
;
_chemical_formula_sum "Si O2"
_cell_formula_units_Z 16
_cell_length_a 18.884109
_cell_length_b 18.627233
_cell_length_c 9.757431
_cell_angle_alpha 150.347376
_cell_angle_beta 141.700134
_cell_angle_gamma 27.205219
_cell_volume 775.254780
_symmetry_space_group_name_H-M "P -1"
_symmetry_group_IT_number 2
_symmetry_cell_setting 'triclinic'
loop_
_space_group_symop_operation_xyz
x,y,z
-x,-y,-z
loop_
_atom_site_type_symbol
_atom_site_label
_atom_site_fract_x
_atom_site_fract_y
_atom_site_fract_z
Si Si1 0.594298 0.528581 0.290468
Si Si2 0.085916 0.289139 0.847546
Si Si3 0.967767 0.199876 0.280732
Si Si4 0.406212 0.983885 0.222861
Si Si5 0.392055 0.161120 0.216256
Si Si6 0.933731 0.218772 0.728907
Si Si7 0.044775 0.294856 0.270298
Si Si8 0.414414 0.443863 0.348671
O O1 0.781960 0.361125 0.290366
O O2 0.557857 0.717769 0.492686
O O3 0.558045 0.566828 0.462851
O O4 0.500000 0.500000 0.000000
O O5 0.073063 0.181348 0.528704
O O6 0.035197 0.235771 0.812715
O O7 0.230306 0.255551 0.063587
O O8 0.000000 0.500000 0.000000
O O9 0.005964 0.265606 0.313825
O O10 0.000000 0.000000 0.000000
O O11 0.390290 0.096028 0.253078
O O12 0.229414 0.105411 0.208298
O O13 0.500000 0.000000 0.500000
O O14 0.510032 0.761497 0.952052
O O15 0.500000 0.000000 0.000000
O O16 0.766191 0.375423 0.662457
O O17 0.000000 0.000000 0.500000
O O18 0.938000 0.291677 0.002764
O O19 0.000000 0.500000 0.500000
O O20 0.500000 0.500000 0.500000
#
# Coordination Sequence:
#
# PCOD9070520 Si02
#       8
#     2   2   2   2   2   2   2   2
#     4  12  29  51  74 112 155 197 252 314 385 455
#     4  12  24  49  77 104 148 198 258 312 370 450
#     4  12  28  45  75 109 149 197 253 312 375 443
#     4  12  28  47  75 113 151 194 251 308 380 454
#     4  12  26  48  77 109 146 201 254 310 381 449
#     4  12  25  47  75 107 150 193 251 310 376 448
#     4  12  26  47  74 107 147 195 248 308 369 448
#     4  12  28  48  75 108 153 202 247 310 385 452
#
# _framework density 20.638377999999999
#
# number of rings (size 3 to 8) (size 9 to 14) (size 15 to 20)
#    0.000    0.000    5.000    3.750    8.750    0.000 
#    0.000    0.000    0.000    0.000    0.000    0.000 
#    0.000    0.000    0.000    0.000    0.000    0.000 
#
# Total GULP energy -89150.664567 kJ/mol
# GULP energy per Si atom -5571.916535 kJ/mol
# Density = 2.059140 g / cm^3
# Si number density = 20.638378 Si / 1000 Ang^3
#
#
#
# Elastic Constant Matrix: (Units=GPa)
#
#
# Indices 1 2 3 4 5 6 
#
# 1 128.7570 37.0614 34.0620 1.1274 0.0596 3.2248
# 2 37.0614 102.9000 51.2594 -12.9064 0.9676 7.6342
# 3 34.0620 51.2594 173.6318 -8.8996 13.8363 7.5129
# 4 1.1274 -12.9064 -8.8996 51.2087 10.5219 -1.6891
# 5 0.0596 0.9676 13.8363 10.5219 43.4233 -2.9118
# 6 3.2248 7.6342 7.5129 -1.6891 -2.9118 27.9487
#
#
#
# Elastic Compliance Matrix: (Units=1/GPa)
#
#
# Indices 1 2 3 4 5 6 
#
# 1 0.008865 -0.002849 -0.001016 -0.001227 0.000674 0.000024
# 2 -0.002849 0.012719 -0.002950 0.002713 -0.000145 -0.002204
# 3 -0.001016 -0.002950 0.007134 0.000999 -0.002528 -0.001198
# 4 -0.001227 0.002713 0.000999 0.021560 -0.005611 -0.000149
# 5 0.000674 -0.000145 -0.002528 -0.005611 0.025394 0.002948
# 6 0.000024 -0.002204 -0.001198 -0.000149 0.002948 0.036999
#
#
# Mechanical properties :
#
#
# Convention : Reuss Voigt Hill
#
# Bulk Modulus (GPa) = 66.27596 72.22827 69.25211
# Shear Modulus (GPa) = 38.07179 43.37655 40.72417
#
# Velocity S-wave (km/s) = 4.29967 4.58945 4.44692
# Velocity P-wave (km/s) = 7.53871 7.94714 7.74562
#
# Compressibility (1/GPa) = 0.01508843
#
# Stress axis : x y z
#
# Youngs Moduli (GPa) = 112.80101 78.62267 140.17460
#
# Poissons Ratio (x) = 0.22400 0.14237
# Poissons Ratio (y) = 0.32138 0.41352
# Poissons Ratio (z) = 0.11457 0.23194
#
# Static dielectric constant tensor:
#      x y z
#    x 1.387520 -0.066280 0.309140 
#    y -0.066280 1.649960 0.084340 
#    z 0.309140 0.084340 1.353130 
# 
# From -- ./inp_files/336846.got.cif
#   From: 2010.05.17/outbox.cif.g08.bks.cpg/sg2_169_cif.got.tgz:336846.got - 2010.06.03 11:33:40.
