data_PCOD9070745
_publ_section_title
;
Structure prediction by ZEFSAII (Michael W. Deem and Ramdas Pophale) SiO2 
 PCOD9070745
Probable space group: P -1
;
_chemical_formula_sum "Si O2"
_cell_formula_units_Z 13
_cell_length_a 6.376037
_cell_length_b 8.691830
_cell_length_c 19.263310
_cell_angle_alpha 140.676406
_cell_angle_beta 83.110036
_cell_angle_gamma 74.155246
_cell_volume 546.402233
_symmetry_space_group_name_H-M "P -1"
_symmetry_group_IT_number 2
_symmetry_cell_setting 'triclinic'
loop_
_space_group_symop_operation_xyz
x,y,z
-x,-y,-z
loop_
_atom_site_type_symbol
_atom_site_label
_atom_site_fract_x
_atom_site_fract_y
_atom_site_fract_z
Si Si1 0.000000 0.500000 0.000000
Si Si2 0.881681 0.469608 0.746802
Si Si3 0.484721 0.689946 0.714086
Si Si4 0.016662 0.057473 0.100402
Si Si5 0.585281 0.090461 0.460322
Si Si6 0.484732 0.101222 0.750799
Si Si7 0.608907 0.555342 0.926090
O O1 0.817955 0.653964 0.132545
O O2 0.250299 0.449382 0.012940
O O3 0.678998 0.548776 0.721774
O O4 0.029041 0.624711 0.780921
O O5 0.720267 0.609846 0.872344
O O6 0.100908 0.120388 0.624771
O O7 0.480042 0.433458 0.587943
O O8 0.194742 0.943891 0.844658
O O9 0.572080 0.836181 0.708443
O O10 0.304557 0.819288 0.032460
O O11 0.000000 0.000000 0.000000
O O12 0.500000 0.000000 0.500000
O O13 0.497254 0.010271 0.366772
O O14 0.636254 0.250362 0.805765
#
# Coordination Sequence:
#
# PCOD9070745 Si02
#       7
#     1   2   2   2   2   2   2
#     4  12  26  48  74 110 160 192 256 308 386 446
#     4  12  25  49  78 111 147 206 258 312 380 456
#     4  12  27  47  77 114 156 198 255 319 377 457
#     4  12  25  45  78 113 153 196 259 312 380 453
#     4  12  25  53  78 106 154 208 258 310 375 464
#     4  12  27  48  75 115 154 198 250 318 388 448
#     4  12  26  47  79 113 155 204 248 320 386 459
#
# _framework density 23.791996000000001
#
# number of rings (size 3 to 8) (size 9 to 14) (size 15 to 20)
#    0.000    0.000    4.615    5.538    2.154    1.231 
#    0.000    1.538    0.000    0.000    0.000    0.000 
#    0.000    0.000    0.000    0.000    0.000    0.000 
#
# Total GULP energy -72736.481792 kJ/mol
# GULP energy per Si atom -5595.113984 kJ/mol
# Density = 2.373784 g / cm^3
# Si number density = 23.791996 Si / 1000 Ang^3
#
#
#
# Elastic Constant Matrix: (Units=GPa)
#
#
# Indices 1 2 3 4 5 6 
#
# 1 102.5826 46.1714 39.0135 -10.2707 19.0460 -23.0674
# 2 46.1714 112.7994 42.2780 -24.8898 16.2472 -13.4989
# 3 39.0135 42.2780 125.1360 -17.2365 24.4095 -15.2196
# 4 -10.2707 -24.8898 -17.2365 43.9235 -5.4574 4.9081
# 5 19.0460 16.2472 24.4095 -5.4574 48.5145 -1.4987
# 6 -23.0674 -13.4989 -15.2196 4.9081 -1.4987 61.0659
#
#
#
# Elastic Compliance Matrix: (Units=1/GPa)
#
#
# Indices 1 2 3 4 5 6 
#
# 1 0.013674 -0.004155 -0.001919 -0.000699 -0.002974 0.003752
# 2 -0.004155 0.012662 -0.002033 0.005252 -0.000987 0.000277
# 3 -0.001919 -0.002033 0.010370 0.001899 -0.003533 0.001171
# 4 -0.000699 0.005252 0.001899 0.026472 0.000515 -0.000745
# 5 -0.002974 -0.000987 -0.003533 0.000515 0.023894 -0.001677
# 6 0.003752 0.000277 0.001171 -0.000745 -0.001677 0.018165
#
#
# Mechanical properties :
#
#
# Convention : Reuss Voigt Hill
#
# Bulk Modulus (GPa) = 48.79983 66.16043 57.48013
# Shear Modulus (GPa) = 38.97692 44.90444 41.94068
#
# Velocity S-wave (km/s) = 4.05190 4.34911 4.20313
# Velocity P-wave (km/s) = 6.51507 7.28614 6.91137
#
# Compressibility (1/GPa) = 0.02049187
#
# Stress axis : x y z
#
# Youngs Moduli (GPa) = 73.13197 78.97599 96.43481
#
# Poissons Ratio (x) = 0.32811 0.18509
# Poissons Ratio (y) = 0.30383 0.19606
# Poissons Ratio (z) = 0.14036 0.16056
#
# Static dielectric constant tensor:
#      x y z
#    x 1.862380 0.031160 -0.037270 
#    y 0.031160 1.994150 0.073660 
#    z -0.037270 0.073660 1.876340 
# 
# From -- ./inp_files/25922.got.cif
#   From: 2010.05.17/outbox.cif.g08.bks.cpg/sg2_13_cif.got.tgz:25922.got - 2010.06.03 11:33:40.
