data_PCOD9070976
_publ_section_title
;
Structure prediction by ZEFSAII (Michael W. Deem and Ramdas Pophale) SiO2 
 PCOD9070976
Probable space group: P -1
;
_chemical_formula_sum "Si O2"
_cell_formula_units_Z 16
_cell_length_a 9.298889
_cell_length_b 18.496323
_cell_length_c 19.027478
_cell_angle_alpha 27.341386
_cell_angle_beta 27.993705
_cell_angle_gamma 36.428987
_cell_volume 702.398029
_symmetry_space_group_name_H-M "P -1"
_symmetry_group_IT_number 2
_symmetry_cell_setting 'triclinic'
loop_
_space_group_symop_operation_xyz
x,y,z
-x,-y,-z
loop_
_atom_site_type_symbol
_atom_site_label
_atom_site_fract_x
_atom_site_fract_y
_atom_site_fract_z
Si Si1 0.224689 0.024610 0.946709
Si Si2 0.729129 0.598844 0.989296
Si Si3 0.167088 0.053688 0.313424
Si Si4 0.738140 0.669380 0.266004
Si Si5 0.057868 0.479762 0.409181
Si Si6 0.193825 0.824041 0.267627
Si Si7 0.825344 0.448126 0.936328
Si Si8 0.813499 0.082244 0.299910
O O1 0.544396 0.058773 0.742879
O O2 0.096619 0.175329 0.917491
O O3 0.300521 0.885113 0.092116
O O4 0.000000 0.000000 0.000000
O O5 0.391648 0.536720 0.197247
O O6 0.851237 0.570139 0.882461
O O7 0.706938 0.778650 0.868596
O O8 0.000000 0.500000 0.000000
O O9 0.923520 0.069677 0.342858
O O10 0.000000 0.000000 0.500000
O O11 0.442508 0.739139 0.288127
O O12 0.777303 0.575045 0.404316
O O13 0.921407 0.554222 0.231016
O O14 0.000000 0.500000 0.500000
O O15 0.046165 0.300246 0.542954
O O16 0.048769 0.976584 0.240004
O O17 0.815792 0.266732 0.121425
O O18 0.500000 0.500000 0.000000
O O19 0.500000 0.000000 0.500000
#
# Coordination Sequence:
#
# PCOD9070976 Si02
#       8
#     2   2   2   2   2   2   2   2
#     4  12  26  48  77 110 152 199 252 319 384 451
#     4  12  27  49  74 106 153 203 251 306 389 453
#     4  12  29  48  75 112 150 197 254 311 384 453
#     4  12  25  48  76 110 149 203 258 315 376 451
#     4  12  28  49  72 114 157 201 251 315 382 456
#     4  12  26  49  80 110 152 202 263 315 380 453
#     4  12  26  48  77 105 151 201 254 309 380 450
#     4  12  27  48  76 110 151 197 258 317 374 456
#
# _framework density 22.779107
#
# number of rings (size 3 to 8) (size 9 to 14) (size 15 to 20)
#    0.000    0.000    5.000    4.500    5.250    1.000 
#    0.000    0.000    0.000    0.000    0.000    0.000 
#    0.000    0.000    0.000    0.000    0.000    0.000 
#
# Total GULP energy -89456.148976 kJ/mol
# GULP energy per Si atom -5591.009311 kJ/mol
# Density = 2.272726 g / cm^3
# Si number density = 22.779107 Si / 1000 Ang^3
#
#
#
# Elastic Constant Matrix: (Units=GPa)
#
#
# Indices 1 2 3 4 5 6 
#
# 1 197.8337 42.7908 43.6427 8.0497 15.2232 12.6426
# 2 42.7908 89.9618 5.4754 8.7927 10.5451 8.7426
# 3 43.6427 5.4754 80.3811 3.8479 5.9332 6.7209
# 4 8.0497 8.7927 3.8479 34.5977 9.4550 -5.5290
# 5 15.2232 10.5451 5.9332 9.4550 47.8160 -4.8061
# 6 12.6426 8.7426 6.7209 -5.5290 -4.8061 49.7063
#
#
#
# Elastic Compliance Matrix: (Units=1/GPa)
#
#
# Indices 1 2 3 4 5 6 
#
# 1 0.006481 -0.002640 -0.003166 -0.000324 -0.001115 -0.000900
# 2 -0.002640 0.013003 0.000997 -0.002651 -0.001850 -0.002224
# 3 -0.003166 0.000997 0.014340 -0.001102 -0.000926 -0.001521
# 4 -0.000324 -0.002651 -0.001102 0.031761 -0.005080 0.003739
# 5 -0.001115 -0.001850 -0.000926 -0.005080 0.023037 0.002397
# 6 -0.000900 -0.002224 -0.001521 0.003739 0.002397 0.021592
#
#
# Mechanical properties :
#
#
# Convention : Reuss Voigt Hill
#
# Bulk Modulus (GPa) = 41.31187 61.33272 51.32230
# Shear Modulus (GPa) = 39.09325 44.84184 41.96755
#
# Velocity S-wave (km/s) = 4.14719 4.44165 4.29694
# Velocity P-wave (km/s) = 6.41151 7.29985 6.87005
#
# Compressibility (1/GPa) = 0.02420612
#
# Stress axis : x y z
#
# Youngs Moduli (GPa) = 154.30606 76.90504 69.73511
#
# Poissons Ratio (x) = 0.20304 0.22077
# Poissons Ratio (y) = 0.40739 -0.06954
# Poissons Ratio (z) = 0.48850 -0.07669
#
# Static dielectric constant tensor:
#      x y z
#    x 1.902580 0.898190 -0.316700 
#    y 0.898190 8.427350 -2.175500 
#    z -0.316700 -2.175500 2.522680 
# 
# From -- ./inp_files/262195.got.cif
#   From: 2010.05.17/outbox.cif.g08.bks.cpg/sg2_132_cif.got.tgz:262195.got - 2010.06.03 11:33:40.
