data_PCOD9070113
_publ_section_title
;
Structure prediction by ZEFSAII (Michael W. Deem and Ramdas Pophale) SiO2 
 PCOD9070113
Probable space group: P -1
;
_chemical_formula_sum "Si O2"
_cell_formula_units_Z 13
_cell_length_a 11.952631
_cell_length_b 17.335439
_cell_length_c 19.272781
_cell_angle_alpha 21.250057
_cell_angle_beta 33.873275
_cell_angle_gamma 21.527376
_cell_volume 510.458764
_symmetry_space_group_name_H-M "P -1"
_symmetry_group_IT_number 2
_symmetry_cell_setting 'triclinic'
loop_
_space_group_symop_operation_xyz
x,y,z
-x,-y,-z
loop_
_atom_site_type_symbol
_atom_site_label
_atom_site_fract_x
_atom_site_fract_y
_atom_site_fract_z
Si Si1 0.666265 0.769566 0.791569
Si Si2 0.210963 0.864154 0.180092
Si Si3 0.500000 0.000000 0.000000
Si Si4 0.784854 0.157711 0.410322
Si Si5 0.126619 0.230937 0.102478
Si Si6 0.101654 0.140459 0.865242
Si Si7 0.749404 0.869918 0.424067
O O1 0.715482 0.975257 0.581738
O O2 0.450442 0.873040 0.753397
O O3 0.024431 0.396507 0.937792
O O4 0.465584 0.880347 0.871051
O O5 0.424312 0.813864 0.167144
O O6 0.454173 0.537471 0.279591
O O7 0.980201 0.874422 0.321958
O O8 0.042336 0.153689 0.966703
O O9 0.491404 0.929166 0.149801
O O10 0.969216 0.137773 0.274866
O O11 0.000000 0.000000 0.500000
O O12 0.000000 0.500000 0.000000
O O13 0.935030 0.495320 0.626586
O O14 0.000000 0.000000 0.000000
O O15 0.500000 0.000000 0.500000
#
# Coordination Sequence:
#
# PCOD9070113 Si02
#       7
#     2   2   1   2   2   2   2
#     4  12  24  45  76 105 143 196 255 309 387 454
#     4  12  26  49  74 109 156 202 254 320 391 461
#     4  12  28  46  76 112 152 204 256 312 392 466
#     4  12  24  45  76 109 146 196 255 313 377 462
#     4  12  25  49  74 110 150 201 253 317 383 458
#     4  12  24  47  79 105 145 200 260 314 383 465
#     4  12  30  47  70 117 156 198 257 325 389 461
#
# _framework density 25.467286000000001
#
# number of rings (size 3 to 8) (size 9 to 14) (size 15 to 20)
#    0.000    0.000    7.692    1.385    4.308    0.615 
#    0.000    2.308    0.000    0.000    0.000    0.000 
#    0.000    0.000    0.000    0.000    0.000    0.000 
#
# Total GULP energy -72533.375544 kJ/mol
# GULP energy per Si atom -5579.490426 kJ/mol
# Density = 2.540932 g / cm^3
# Si number density = 25.467286 Si / 1000 Ang^3
#
#
#
# Elastic Constant Matrix: (Units=GPa)
#
#
# Indices 1 2 3 4 5 6 
#
# 1 87.4297 17.3953 29.3085 15.8920 -1.8166 -21.7609
# 2 17.3953 118.3080 40.9767 55.4799 -8.9660 1.6811
# 3 29.3085 40.9767 113.2751 32.9205 -10.3553 -11.7069
# 4 15.8920 55.4799 32.9205 66.5439 -16.6559 -2.7356
# 5 -1.8166 -8.9660 -10.3553 -16.6559 44.7658 11.1610
# 6 -21.7609 1.6811 -11.7069 -2.7356 11.1610 52.5098
#
#
#
# Elastic Compliance Matrix: (Units=1/GPa)
#
#
# Indices 1 2 3 4 5 6 
#
# 1 0.014116 -0.000500 -0.002494 -0.002059 -0.002289 0.005689
# 2 -0.000500 0.014479 -0.002092 -0.011344 -0.001472 -0.001415
# 3 -0.002494 -0.002092 0.011302 -0.003037 0.000651 0.001257
# 4 -0.002059 -0.011344 -0.003037 0.028386 0.007842 -0.001355
# 5 -0.002289 -0.001472 0.000651 0.007842 0.026511 -0.005983
# 6 0.005689 -0.001415 0.001257 -0.001355 -0.005983 0.022928
#
#
# Mechanical properties :
#
#
# Convention : Reuss Voigt Hill
#
# Bulk Modulus (GPa) = 33.64351 54.93045 44.28698
# Shear Modulus (GPa) = 36.28347 48.18606 42.23477
#
# Velocity S-wave (km/s) = 3.77863 4.35452 4.07675
# Velocity P-wave (km/s) = 5.68124 6.84823 6.29185
#
# Compressibility (1/GPa) = 0.02972341
#
# Stress axis : x y z
#
# Youngs Moduli (GPa) = 70.84074 69.06643 88.47818
#
# Poissons Ratio (x) = 0.03456 0.22068
# Poissons Ratio (y) = 0.03544 0.18513
# Poissons Ratio (z) = 0.17669 0.14451
#
# Static dielectric constant tensor:
#      x y z
#    x 2.051820 0.062450 0.034240 
#    y 0.062450 1.137360 0.116060 
#    z 0.034240 0.116060 2.145180 
# 
# From -- ./inp_files/60190.got.cif
#   From: 2010.05.17/outbox.cif.g08.bks.cpg/sg2_31_cif.got.tgz:60190.got - 2010.06.03 11:33:40.
