data_PCOD9070171
_publ_section_title
;
Structure prediction by ZEFSAII (Michael W. Deem and Ramdas Pophale) SiO2 
 PCOD9070171
Probable space group: P -1
;
_chemical_formula_sum "Si O2"
_cell_formula_units_Z 15
_cell_length_a 14.707510
_cell_length_b 23.262472
_cell_length_c 29.038542
_cell_angle_alpha 10.593043
_cell_angle_beta 21.534563
_cell_angle_gamma 21.613698
_cell_volume 652.830854
_symmetry_space_group_name_H-M "P -1"
_symmetry_group_IT_number 2
_symmetry_cell_setting 'triclinic'
loop_
_space_group_symop_operation_xyz
x,y,z
-x,-y,-z
loop_
_atom_site_type_symbol
_atom_site_label
_atom_site_fract_x
_atom_site_fract_y
_atom_site_fract_z
Si Si1 0.763723 0.420994 0.147028
Si Si2 0.721661 0.155331 0.754484
Si Si3 0.500000 0.500000 0.500000
Si Si4 0.030244 0.296571 0.362134
Si Si5 0.198368 0.564760 0.988926
Si Si6 0.998264 0.633736 0.275831
Si Si7 0.255736 0.356658 0.463483
Si Si8 0.288531 0.642859 0.039913
O O1 0.748987 0.524362 0.019216
O O2 0.496996 0.523073 0.220234
O O3 0.833948 0.037274 0.416459
O O4 0.000000 0.500000 0.000000
O O5 0.666316 0.242061 0.659545
O O6 0.752522 0.477749 0.513037
O O7 0.990446 0.895621 0.833301
O O8 0.500000 0.000000 0.000000
O O9 0.732896 0.409612 0.422735
O O10 0.174950 0.538026 0.129407
O O11 0.086349 0.304795 0.275066
O O12 0.461693 0.569553 0.886681
O O13 0.178402 0.409307 0.404749
O O14 0.079275 0.633103 0.185057
O O15 0.000000 0.000000 0.000000
O O16 0.000000 0.500000 0.500000
O O17 0.332499 0.995260 0.730958
#
# Coordination Sequence:
#
# PCOD9070171 Si02
#       8
#     2   2   1   2   2   2   2   2
#     4  12  29  48  70 110 151 202 250 311 385 461
#     4  12  27  46  76 112 149 199 253 314 381 455
#     4  12  24  46  72 110 152 188 252 310 378 446
#     4  12  26  46  76 109 146 196 248 317 372 453
#     4  12  25  48  77 105 145 197 254 308 378 451
#     4  12  26  47  74 110 150 199 249 313 382 450
#     4  12  27  48  75 110 150 196 254 315 384 456
#     4  12  25  47  77 112 145 191 258 313 372 451
#
# _framework density 22.976856999999999
#
# number of rings (size 3 to 8) (size 9 to 14) (size 15 to 20)
#    0.000    0.000    8.000    1.200    1.867    4.800 
#    0.000    0.000    0.000    0.000    0.000    0.000 
#    0.000    0.000    0.000    0.000    0.000    0.000 
#
# Total GULP energy -83544.593531 kJ/mol
# GULP energy per Si atom -5569.639569 kJ/mol
# Density = 2.292456 g / cm^3
# Si number density = 22.976857 Si / 1000 Ang^3
#
#
#
# Elastic Constant Matrix: (Units=GPa)
#
#
# Indices 1 2 3 4 5 6 
#
# 1 104.0056 28.6602 53.0845 14.0162 31.9546 4.4835
# 2 28.6602 115.7043 35.5491 25.8414 -3.2774 -3.2931
# 3 53.0845 35.5491 95.6954 26.5360 7.5255 -7.0343
# 4 14.0162 25.8414 26.5360 41.5502 -9.8628 14.1207
# 5 31.9546 -3.2774 7.5255 -9.8628 43.8405 -1.2247
# 6 4.4835 -3.2931 -7.0343 14.1207 -1.2247 33.7619
#
#
#
# Elastic Compliance Matrix: (Units=1/GPa)
#
#
# Indices 1 2 3 4 5 6 
#
# 1 0.018988 -0.002325 -0.008792 -0.000783 -0.012813 -0.004717
# 2 -0.002325 0.011109 -0.000772 -0.006723 0.001259 0.004089
# 3 -0.008792 -0.000772 0.019912 -0.012792 0.000351 0.010604
# 4 -0.000783 -0.006723 -0.012792 0.047252 0.012265 -0.022535
# 5 -0.012813 0.001259 0.000351 0.012265 0.034887 -0.001967
# 6 -0.004717 0.004089 0.010604 -0.022535 -0.001967 0.042208
#
#
# Mechanical properties :
#
#
# Convention : Reuss Voigt Hill
#
# Bulk Modulus (GPa) = 38.11822 61.11032 49.61427
# Shear Modulus (GPa) = 24.16900 37.03794 30.60347
#
# Velocity S-wave (km/s) = 3.24680 4.01929 3.65352
# Velocity P-wave (km/s) = 5.53908 6.94217 6.27994
#
# Compressibility (1/GPa) = 0.02623418
#
# Stress axis : x y z
#
# Youngs Moduli (GPa) = 52.66436 90.01602 50.21993
#
# Poissons Ratio (x) = 0.20925 0.44152
# Poissons Ratio (y) = 0.12242 0.03875
# Poissons Ratio (z) = 0.46301 0.06945
#
# Static dielectric constant tensor:
#      x y z
#    x 1.798030 0.022990 0.039920 
#    y 0.022990 1.938470 0.007810 
#    z 0.039920 0.007810 1.791840 
# 
# From -- ./inp_files/623705.got.cif
#   From: 2010.05.17/outbox.cif.g08.bks.cpg/sg2_312_cif.got.tgz:623705.got - 2010.06.03 11:33:40.
