data_PCOD9070351
_publ_section_title
;
Structure prediction by ZEFSAII (Michael W. Deem and Ramdas Pophale) SiO2 
 PCOD9070351
Probable space group: P -1
;
_chemical_formula_sum "Si O2"
_cell_formula_units_Z 16
_cell_length_a 14.767164
_cell_length_b 8.665979
_cell_length_c 20.266132
_cell_angle_alpha 61.254961
_cell_angle_beta 160.763332
_cell_angle_gamma 109.261900
_cell_volume 676.432109
_symmetry_space_group_name_H-M "P -1"
_symmetry_group_IT_number 2
_symmetry_cell_setting 'triclinic'
loop_
_space_group_symop_operation_xyz
x,y,z
-x,-y,-z
loop_
_atom_site_type_symbol
_atom_site_label
_atom_site_fract_x
_atom_site_fract_y
_atom_site_fract_z
Si Si1 0.808224 0.729698 0.511486
Si Si2 0.202508 0.198655 0.763602
Si Si3 0.911549 0.211083 0.425592
Si Si4 0.218348 0.658661 0.432353
Si Si5 0.547376 0.672910 0.536532
Si Si6 0.599248 0.427556 0.977237
Si Si7 0.325417 0.002012 0.213644
Si Si8 0.235126 0.444342 0.073696
O O1 0.831094 0.522604 0.592456
O O2 0.500239 0.904561 0.286761
O O3 0.861693 0.723062 0.471800
O O4 0.108036 0.729924 0.751602
O O5 0.330101 0.359152 0.806290
O O6 0.968985 0.210076 0.542916
O O7 0.043382 0.220825 0.720593
O O8 0.500000 0.000000 0.000000
O O9 0.563410 0.362342 0.141726
O O10 0.000000 0.000000 0.500000
O O11 0.289801 0.758917 0.397994
O O12 0.528663 0.558974 0.708301
O O13 0.500000 0.500000 0.500000
O O14 0.528347 0.846544 0.440259
O O15 0.880559 0.570943 0.818711
O O16 0.697079 0.468068 0.964734
O O17 0.291915 0.219597 0.150898
O O18 0.000000 0.000000 0.000000
#
# Coordination Sequence:
#
# PCOD9070351 Si02
#       8
#     2   2   2   2   2   2   2   2
#     4  12  25  44  74 106 146 195 248 302 376 443
#     4  12  28  47  71 111 154 197 254 306 367 454
#     4  12  25  44  71 107 145 195 251 301 375 445
#     4  12  26  46  75 104 152 199 242 306 382 436
#     4  12  24  50  76 107 146 194 249 312 373 442
#     4  12  24  47  76 105 154 198 242 313 376 441
#     4  12  26  46  76 110 143 191 254 309 372 451
#     4  12  25  46  78 106 149 193 245 313 381 441
#
# _framework density 23.653521000000001
#
# number of rings (size 3 to 8) (size 9 to 14) (size 15 to 20)
#    0.000    0.000    6.250    3.375    3.500    1.500 
#    0.000    1.250    0.000    0.000    0.000    0.000 
#    0.000    0.000    0.000    0.000    0.000    0.000 
#
# Total GULP energy -89592.067708 kJ/mol
# GULP energy per Si atom -5599.504232 kJ/mol
# Density = 2.359968 g / cm^3
# Si number density = 23.653521 Si / 1000 Ang^3
#
#
#
# Elastic Constant Matrix: (Units=GPa)
#
#
# Indices 1 2 3 4 5 6 
#
# 1 146.2714 18.2383 13.3658 -5.6749 29.5954 8.2647
# 2 18.2383 58.6199 17.9989 -6.0260 10.0389 4.4938
# 3 13.3658 17.9989 111.0089 -3.9680 24.2691 -11.1233
# 4 -5.6749 -6.0260 -3.9680 38.9723 -0.8926 -3.0543
# 5 29.5954 10.0389 24.2691 -0.8926 40.9926 -0.4190
# 6 8.2647 4.4938 -11.1233 -3.0543 -0.4190 25.3611
#
#
#
# Elastic Compliance Matrix: (Units=1/GPa)
#
#
# Indices 1 2 3 4 5 6 
#
# 1 0.008331 -0.001430 0.000298 0.000705 -0.005850 -0.002343
# 2 -0.001430 0.019237 -0.002832 0.002122 -0.001997 -0.003962
# 3 0.000298 -0.002832 0.011360 0.001045 -0.006169 0.005411
# 4 0.000705 0.002122 0.001045 0.026409 -0.001041 0.003016
# 5 -0.005850 -0.001997 -0.006169 -0.001041 0.032736 -0.000030
# 6 -0.002343 -0.003962 0.005411 0.003016 -0.000030 0.043632
#
#
# Mechanical properties :
#
#
# Convention : Reuss Voigt Hill
#
# Bulk Modulus (GPa) = 32.25670 46.12290 39.18980
# Shear Modulus (GPa) = 31.25689 38.81835 35.03762
#
# Velocity S-wave (km/s) = 3.63912 4.05547 3.85292
# Velocity P-wave (km/s) = 5.59681 6.43979 6.03304
#
# Compressibility (1/GPa) = 0.03100132
#
# Stress axis : x y z
#
# Youngs Moduli (GPa) = 120.03504 51.98289 88.03026
#
# Poissons Ratio (x) = 0.07432 -0.02624
# Poissons Ratio (y) = 0.17161 0.24926
# Poissons Ratio (z) = -0.03578 0.14719
#
# Static dielectric constant tensor:
#      x y z
#    x 1.936980 0.050740 -0.005010 
#    y 0.050740 1.978340 0.017390 
#    z -0.005010 0.017390 1.924900 
# 
# From -- ./inp_files/319435.got.cif
#   From: 2010.05.17/outbox.cif.g08.bks.cpg/sg2_160_cif.got.tgz:319435.got - 2010.06.03 11:33:40.
