data_PCOD9070930
_publ_section_title
;
Structure prediction by ZEFSAII (Michael W. Deem and Ramdas Pophale) SiO2 
 PCOD9070930
Probable space group: P -1
;
_chemical_formula_sum "Si O2"
_cell_formula_units_Z 16
_cell_length_a 5.298165
_cell_length_b 8.929827
_cell_length_c 20.193064
_cell_angle_alpha 111.684913
_cell_angle_beta 52.990891
_cell_angle_gamma 95.044717
_cell_volume 697.168592
_symmetry_space_group_name_H-M "P -1"
_symmetry_group_IT_number 2
_symmetry_cell_setting 'triclinic'
loop_
_space_group_symop_operation_xyz
x,y,z
-x,-y,-z
loop_
_atom_site_type_symbol
_atom_site_label
_atom_site_fract_x
_atom_site_fract_y
_atom_site_fract_z
Si Si1 0.948850 0.558338 0.340862
Si Si2 0.801712 0.889942 0.972243
Si Si3 0.588718 0.158047 0.478053
Si Si4 0.151222 0.732597 0.765137
Si Si5 0.342739 0.780805 0.252182
Si Si6 0.668505 0.605519 0.042499
Si Si7 0.893785 0.648818 0.591842
Si Si8 0.777539 0.001906 0.295975
O O1 0.633516 0.690365 0.426781
O O2 0.961768 0.439709 0.256776
O O3 0.232249 0.662790 0.306447
O O4 0.947331 0.429103 0.378453
O O5 0.044701 0.792174 0.864169
O O6 0.701880 0.763386 0.019483
O O7 0.500000 0.000000 0.000000
O O8 0.000000 0.000000 0.000000
O O9 0.942710 0.201017 0.432331
O O10 0.500000 0.000000 0.500000
O O11 0.545180 0.125887 0.401758
O O12 0.526532 0.696013 0.680357
O O13 0.028784 0.888537 0.762057
O O14 0.486682 0.671437 0.149346
O O15 0.584007 0.890624 0.263703
O O16 0.023837 0.891692 0.289144
O O17 0.500000 0.500000 0.000000
O O18 0.000000 0.500000 0.000000
O O19 0.000000 0.500000 0.500000
#
# Coordination Sequence:
#
# PCOD9070930 Si02
#       8
#     2   2   2   2   2   2   2   2
#     4  12  27  44  72 107 149 197 256 306 377 449
#     4  12  28  50  81 117 153 203 262 321 389 464
#     4  12  25  48  70 109 151 202 252 311 374 449
#     4  12  27  47  78 105 154 198 253 315 384 449
#     4  12  28  47  75 109 149 197 251 312 378 454
#     4  12  26  49  78 111 155 195 253 321 392 461
#     4  12  26  46  73 108 154 198 254 316 376 454
#     4  12  26  48  71 107 149 199 249 307 374 448
#
# _framework density 22.949973
#
# number of rings (size 3 to 8) (size 9 to 14) (size 15 to 20)
#    0.000    0.000    3.750    5.625    7.000    0.500 
#    0.000    0.000    0.000    0.000    0.000    0.000 
#    0.000    0.000    0.000    0.000    0.000    0.000 
#
# Total GULP energy -89466.475576 kJ/mol
# GULP energy per Si atom -5591.654723 kJ/mol
# Density = 2.289774 g / cm^3
# Si number density = 22.949973 Si / 1000 Ang^3
#
#
#
# Elastic Constant Matrix: (Units=GPa)
#
#
# Indices 1 2 3 4 5 6 
#
# 1 129.7095 37.9639 29.8364 27.1198 5.1804 13.0011
# 2 37.9639 101.8865 -3.7802 6.5623 -12.0920 21.0325
# 3 29.8364 -3.7802 147.0560 20.2972 13.9701 16.5131
# 4 27.1198 6.5623 20.2972 42.9301 8.0701 8.7842
# 5 5.1804 -12.0920 13.9701 8.0701 38.0464 11.1621
# 6 13.0011 21.0325 16.5131 8.7842 11.1621 37.8626
#
#
#
# Elastic Compliance Matrix: (Units=1/GPa)
#
#
# Indices 1 2 3 4 5 6 
#
# 1 0.010200 -0.003837 -0.001436 -0.005111 -0.001233 0.000805
# 2 -0.003837 0.014052 0.001485 0.000129 0.007135 -0.009269
# 3 -0.001436 0.001485 0.007859 -0.002263 -0.000864 -0.002979
# 4 -0.005111 0.000129 -0.002263 0.028868 -0.003693 -0.002938
# 5 -0.001233 0.007135 -0.000864 -0.003693 0.033384 -0.012148
# 6 0.000805 -0.009269 -0.002979 -0.002938 -0.012148 0.036846
#
#
# Mechanical properties :
#
#
# Convention : Reuss Voigt Hill
#
# Bulk Modulus (GPa) = 40.75980 56.29913 48.52946
# Shear Modulus (GPa) = 34.02203 44.74327 39.38265
#
# Velocity S-wave (km/s) = 3.85443 4.42022 4.14698
# Velocity P-wave (km/s) = 6.13251 7.11587 6.64241
#
# Compressibility (1/GPa) = 0.02453398
#
# Stress axis : x y z
#
# Youngs Moduli (GPa) = 98.03787 71.16623 127.24786
#
# Poissons Ratio (x) = 0.27308 0.18272
# Poissons Ratio (y) = 0.37619 -0.18895
# Poissons Ratio (z) = 0.14078 -0.10568
#
# Static dielectric constant tensor:
#      x y z
#    x 1.910960 -0.034230 0.023310 
#    y -0.034230 1.933280 0.158760 
#    z 0.023310 0.158760 2.176770 
# 
# From -- ./inp_files/323572.got.cif
#   From: 2010.05.17/outbox.cif.g08.bks.cpg/sg2_162_cif.got.tgz:323572.got - 2010.06.03 11:33:40.
