data_PCOD9070112
_publ_section_title
;
Structure prediction by ZEFSAII (Michael W. Deem and Ramdas Pophale) SiO2 
 PCOD9070112
Probable space group: P -1
;
_chemical_formula_sum "Si O2"
_cell_formula_units_Z 14
_cell_length_a 28.060591
_cell_length_b 5.258879
_cell_length_c 5.017373
_cell_angle_alpha 89.163834
_cell_angle_beta 74.627250
_cell_angle_gamma 56.699363
_cell_volume 588.756288
_symmetry_space_group_name_H-M "P -1"
_symmetry_group_IT_number 2
_symmetry_cell_setting 'triclinic'
loop_
_space_group_symop_operation_xyz
x,y,z
-x,-y,-z
loop_
_atom_site_type_symbol
_atom_site_label
_atom_site_fract_x
_atom_site_fract_y
_atom_site_fract_z
Si Si1 0.784479 0.506709 0.591599
Si Si2 0.037694 0.986181 0.194246
Si Si3 0.541264 0.630133 0.939541
Si Si4 0.628111 0.349983 0.317369
Si Si5 0.885999 0.863703 0.651175
Si Si6 0.859835 0.650848 0.183316
Si Si7 0.706962 0.619196 0.217425
O O1 0.849195 0.197183 0.563629
O O2 0.746776 0.472267 0.424702
O O3 0.801432 0.721609 0.421741
O O4 0.747652 0.601975 0.914423
O O5 0.056916 0.211919 0.259310
O O6 0.101653 0.673789 0.025814
O O7 0.000000 0.000000 0.500000
O O8 0.000000 0.000000 0.000000
O O9 0.584640 0.526489 0.625443
O O10 0.500000 0.500000 0.000000
O O11 0.585349 0.474153 0.124985
O O12 0.500000 0.000000 0.000000
O O13 0.674922 0.445040 0.211784
O O14 0.659685 0.985955 0.321612
O O15 0.897967 0.655191 0.376612
O O16 0.845117 0.870522 0.949044
#
# Coordination Sequence:
#
# PCOD9070112 Si02
#       7
#     2   2   2   2   2   2   2
#     4  12  27  47  70 103 138 194 240 295 374 438
#     4  12  26  46  68 104 142 176 234 306 378 442
#     4  12  24  45  76 104 147 202 246 302 364 434
#     4  12  26  47  68 116 147 190 256 302 368 434
#     4  12  26  46  73 102 138 186 247 298 361 471
#     4  12  26  46  73 102 138 186 247 298 361 471
#     4  12  27  45  74 103 156 194 240 321 368 438
#
# _framework density 23.778938
#
# number of rings (size 3 to 8) (size 9 to 14) (size 15 to 20)
#    0.000    0.000    0.000   11.143    6.000    3.429 
#    0.000    0.000    0.000    0.000    0.000    0.000 
#    0.000    0.000    0.000    0.000    0.000    0.000 
#
# Total GULP energy -78333.717076 kJ/mol
# GULP energy per Si atom -5595.265505 kJ/mol
# Density = 2.372482 g / cm^3
# Si number density = 23.778938 Si / 1000 Ang^3
#
#
#
# Elastic Constant Matrix: (Units=GPa)
#
#
# Indices 1 2 3 4 5 6 
#
# 1 126.7726 10.7967 23.1039 -8.2784 31.7930 8.0359
# 2 10.7967 83.3614 19.0591 4.3290 5.8940 11.8374
# 3 23.1039 19.0591 179.2516 13.7273 15.2175 -4.8677
# 4 -8.2784 4.3290 13.7273 46.8105 -2.0811 -2.1736
# 5 31.7930 5.8940 15.2175 -2.0811 63.4045 -0.2532
# 6 8.0359 11.8374 -4.8677 -2.1736 -0.2532 27.9801
#
#
#
# Elastic Compliance Matrix: (Units=1/GPa)
#
#
# Indices 1 2 3 4 5 6 
#
# 1 0.009496 -0.000399 -0.001006 0.001691 -0.004438 -0.002643
# 2 -0.000399 0.013308 -0.001365 -0.001207 -0.000773 -0.005854
# 3 -0.001006 -0.001365 0.006115 -0.001802 -0.000888 0.001782
# 4 0.001691 -0.001207 -0.001802 0.022389 0.000437 0.001455
# 5 -0.004438 -0.000773 -0.000888 0.000437 0.018303 0.001647
# 6 -0.002643 -0.005854 0.001782 0.001455 0.001647 0.039413
#
#
# Mechanical properties :
#
#
# Convention : Reuss Voigt Hill
#
# Bulk Modulus (GPa) = 42.76926 55.03387 48.90157
# Shear Modulus (GPa) = 40.86383 50.06743 45.46563
#
# Velocity S-wave (km/s) = 4.14996 4.59359 4.37740
# Velocity P-wave (km/s) = 6.40220 7.16442 6.79401
#
# Compressibility (1/GPa) = 0.02338128
#
# Stress axis : x y z
#
# Youngs Moduli (GPa) = 105.30206 75.14187 163.52396
#
# Poissons Ratio (x) = 0.02996 0.16452
# Poissons Ratio (y) = 0.04198 0.22313
# Poissons Ratio (z) = 0.10595 0.10253
#
# Static dielectric constant tensor:
#      x y z
#    x 1.928410 0.030180 -0.009040 
#    y 0.030180 1.938300 -0.018000 
#    z -0.009040 -0.018000 1.823770 
# 
# From -- ./inp_files/121089.got.cif
#   From: 2010.05.17/outbox.cif.g08.bks.cpg/sg2_61_cif.got.tgz:121089.got - 2010.06.03 11:33:40.
