data_PCOD9070655
_publ_section_title
;
Structure prediction by ZEFSAII (Michael W. Deem and Ramdas Pophale) SiO2 
 PCOD9070655
Probable space group: P -1
;
_chemical_formula_sum "Si O2"
_cell_formula_units_Z 13
_cell_length_a 15.185686
_cell_length_b 8.529885
_cell_length_c 11.664979
_cell_angle_alpha 50.446288
_cell_angle_beta 29.985054
_cell_angle_gamma 69.211809
_cell_volume 500.713894
_symmetry_space_group_name_H-M "P -1"
_symmetry_group_IT_number 2
_symmetry_cell_setting 'triclinic'
loop_
_space_group_symop_operation_xyz
x,y,z
-x,-y,-z
loop_
_atom_site_type_symbol
_atom_site_label
_atom_site_fract_x
_atom_site_fract_y
_atom_site_fract_z
Si Si1 0.689229 0.151340 0.635881
Si Si2 0.003524 0.239145 0.430555
Si Si3 0.648773 0.262433 0.264909
Si Si4 0.114807 0.908889 0.765036
Si Si5 0.000000 0.500000 0.500000
Si Si6 0.642937 0.549637 0.468084
Si Si7 0.685995 0.569071 0.672512
O O1 0.757706 0.022971 0.528402
O O2 0.632572 0.312881 0.547424
O O3 0.877905 0.273351 0.454391
O O4 0.500000 0.000000 0.000000
O O5 0.934344 0.226756 0.645459
O O6 0.204029 0.513880 0.089317
O O7 0.000000 0.000000 0.500000
O O8 0.800928 0.224092 0.190207
O O9 0.510856 0.360527 0.429619
O O10 0.500000 0.000000 0.500000
O O11 0.177744 0.153808 0.637092
O O12 0.875377 0.748020 0.089650
O O13 0.165177 0.499130 0.401806
O O14 0.605656 0.478530 0.678325
O O15 0.500000 0.500000 0.000000
#
# Coordination Sequence:
#
# PCOD9070655 Si02
#       7
#     2   2   2   2   1   2   2
#     4  12  26  50  74 109 161 204 260 335 399 475
#     4  12  27  51  77 119 161 206 275 331 396 494
#     4  12  27  48  81 115 157 207 269 328 403 483
#     4  12  27  48  76 110 157 208 262 332 402 478
#     4  12  26  46  82 108 154 210 258 326 414 456
#     4  12  25  47  75 109 153 202 257 325 395 476
#     4  12  25  44  74 110 150 202 266 320 393 478
#
# _framework density 25.962931000000001
#
# number of rings (size 3 to 8) (size 9 to 14) (size 15 to 20)
#    0.000    0.000    4.615    4.615    2.154    0.615 
#    2.769    0.000    0.000    0.000    0.000    0.000 
#    0.000    0.000    0.000    0.000    0.000    0.000 
#
# Total GULP energy -72397.330086 kJ/mol
# GULP energy per Si atom -5569.025391 kJ/mol
# Density = 2.590384 g / cm^3
# Si number density = 25.962931 Si / 1000 Ang^3
#
#
#
# Elastic Constant Matrix: (Units=GPa)
#
#
# Indices 1 2 3 4 5 6 
#
# 1 120.2503 7.9136 -10.5408 2.8466 1.5385 -25.5448
# 2 7.9136 99.5418 -0.5905 -25.0499 4.2766 -26.3133
# 3 -10.5408 -0.5905 106.0520 -19.4323 12.8463 -27.9589
# 4 2.8466 -25.0499 -19.4323 44.0968 -3.4171 -10.1096
# 5 1.5385 4.2766 12.8463 -3.4171 24.8561 12.2897
# 6 -25.5448 -26.3133 -27.9589 -10.1096 12.2897 60.5805
#
#
#
# Elastic Compliance Matrix: (Units=1/GPa)
#
#
# Indices 1 2 3 4 5 6 
#
# 1 0.011977 0.006133 0.008624 0.009145 -0.012819 0.015821
# 2 0.006133 0.025823 0.017033 0.026991 -0.025401 0.031321
# 3 0.008624 0.017033 0.028530 0.027297 -0.031872 0.035223
# 4 0.009145 0.026991 0.027297 0.057055 -0.033471 0.044489
# 5 -0.012819 -0.025401 -0.031872 -0.033471 0.083837 -0.053741
# 6 0.015821 0.031321 0.035223 0.044489 -0.053741 0.071365
#
#
# Mechanical properties :
#
#
# Convention : Reuss Voigt Hill
#
# Bulk Modulus (GPa) = 7.69769 35.48987 21.59378
# Shear Modulus (GPa) = 19.35672 47.84414 33.60043
#
# Velocity S-wave (km/s) = 2.73344 4.29743 3.60136
# Velocity P-wave (km/s) = 3.59633 6.19055 5.06244
#
# Compressibility (1/GPa) = 0.12990912
#
# Stress axis : x y z
#
# Youngs Moduli (GPa) = 83.49618 38.72573 35.05126
#
# Poissons Ratio (x) = -0.23751 -0.30227
# Poissons Ratio (y) = -0.51210 -0.59703
# Poissons Ratio (z) = -0.72005 -0.65962
#
# Static dielectric constant tensor:
#      x y z
#    x 1.755890 -0.292740 -0.462010 
#    y -0.292740 1.360700 -0.891790 
#    z -0.462010 -0.891790 0.939020 
# 
# From -- ./inp_files/205202.got.cif
#   From: 2010.05.17/outbox.cif.g08.bks.cpg/sg2_103_cif.got.tgz:205202.got - 2010.06.03 11:33:40.
