data_PCOD9070503
_publ_section_title
;
Structure prediction by ZEFSAII (Michael W. Deem and Ramdas Pophale) SiO2 
 PCOD9070503
Probable space group: P -1
;
_chemical_formula_sum "Si O2"
_cell_formula_units_Z 16
_cell_length_a 17.914640
_cell_length_b 11.945185
_cell_length_c 8.325273
_cell_angle_alpha 127.648713
_cell_angle_beta 32.035453
_cell_angle_gamma 129.996170
_cell_volume 714.364347
_symmetry_space_group_name_H-M "P -1"
_symmetry_group_IT_number 2
_symmetry_cell_setting 'triclinic'
loop_
_space_group_symop_operation_xyz
x,y,z
-x,-y,-z
loop_
_atom_site_type_symbol
_atom_site_label
_atom_site_fract_x
_atom_site_fract_y
_atom_site_fract_z
Si Si1 0.464708 0.657944 0.381232
Si Si2 0.847427 0.518920 0.358628
Si Si3 0.452943 0.063478 0.310053
Si Si4 0.859427 0.392012 0.581435
Si Si5 0.083635 0.144605 0.572374
Si Si6 0.107599 0.919231 0.818340
Si Si7 0.412400 0.164722 0.008184
Si Si8 0.432112 0.566158 0.824620
O O1 0.297302 0.563777 0.555994
O O2 0.477314 0.769617 0.606602
O O3 0.561686 0.547935 0.144939
O O4 0.539638 0.752173 0.173485
O O5 0.832989 0.440094 0.489921
O O6 0.874194 0.696753 0.456645
O O7 0.000000 0.500000 0.000000
O O8 0.275464 0.026258 0.615673
O O9 0.500000 0.000000 0.000000
O O10 0.514171 0.965764 0.236432
O O11 0.870831 0.227307 0.430953
O O12 0.000000 0.500000 0.500000
O O13 0.720747 0.419300 0.943341
O O14 0.238576 0.118949 0.312693
O O15 0.000000 0.000000 0.500000
O O16 0.976092 0.142217 0.916460
O O17 0.000000 0.000000 0.000000
O O18 0.478100 0.276480 0.131483
O O19 0.500000 0.500000 0.500000
#
# Coordination Sequence:
#
# PCOD9070503 Si02
#       8
#     2   2   2   2   2   2   2   2
#     4  12  26  47  81 108 149 199 257 321 374 451
#     4  12  26  48  76 112 152 199 261 311 384 458
#     4  12  27  48  77 111 152 200 254 313 379 456
#     4  12  29  48  77 111 155 202 252 319 384 455
#     4  12  28  47  76 110 152 197 249 315 383 450
#     4  12  28  51  71 111 158 200 251 306 386 463
#     4  12  24  49  74 109 147 197 259 311 377 455
#     4  12  26  46  75 108 148 194 258 313 378 442
#
# _framework density 22.397535000000001
#
# number of rings (size 3 to 8) (size 9 to 14) (size 15 to 20)
#    0.000    0.000    5.000    3.750    8.750    0.000 
#    0.000    0.000    0.000    0.000    0.000    0.000 
#    0.000    0.000    0.000    0.000    0.000    0.000 
#
# Total GULP energy -89476.972376 kJ/mol
# GULP energy per Si atom -5592.310773 kJ/mol
# Density = 2.234656 g / cm^3
# Si number density = 22.397535 Si / 1000 Ang^3
#
#
#
# Elastic Constant Matrix: (Units=GPa)
#
#
# Indices 1 2 3 4 5 6 
#
# 1 80.7203 59.5149 47.2861 7.1184 -30.4930 16.0012
# 2 59.5149 155.3561 53.9003 20.4719 -27.3408 16.9243
# 3 47.2861 53.9003 167.1578 2.5181 -35.5510 13.0193
# 4 7.1184 20.4719 2.5181 49.6149 -4.5943 -7.5063
# 5 -30.4930 -27.3408 -35.5510 -4.5943 53.3947 -3.5474
# 6 16.0012 16.9243 13.0193 -7.5063 -3.5474 53.8091
#
#
#
# Elastic Compliance Matrix: (Units=1/GPa)
#
#
# Indices 1 2 3 4 5 6 
#
# 1 0.021562 -0.005643 -0.002383 -0.000494 0.007554 -0.003631
# 2 -0.005643 0.009732 -0.001260 -0.003320 0.000535 -0.001506
# 3 -0.002383 -0.001260 0.007768 0.000693 0.003194 -0.000467
# 4 -0.000494 -0.003320 0.000693 0.022254 0.000671 0.004172
# 5 0.007554 0.000535 0.003194 0.000671 0.025407 -0.001419
# 6 -0.003631 -0.001506 -0.000467 0.004172 -0.001419 0.020739
#
#
# Mechanical properties :
#
#
# Convention : Reuss Voigt Hill
#
# Bulk Modulus (GPa) = 48.80790 80.51518 64.66154
# Shear Modulus (GPa) = 37.63197 47.53259 42.58228
#
# Velocity S-wave (km/s) = 4.10345 4.61176 4.36501
# Velocity P-wave (km/s) = 6.65508 8.02397 7.37137
#
# Compressibility (1/GPa) = 0.02048849
#
# Stress axis : x y z
#
# Youngs Moduli (GPa) = 46.37747 102.75623 128.72844
#
# Poissons Ratio (x) = 0.57989 0.30677
# Poissons Ratio (y) = 0.26172 0.16226
# Poissons Ratio (z) = 0.11052 0.12952
#
# Static dielectric constant tensor:
#      x y z
#    x 1.830420 -0.036770 0.082520 
#    y -0.036770 1.818810 -0.069650 
#    z 0.082520 -0.069650 1.799540 
# 
# From -- ./inp_files/333670.got.cif
#   From: 2010.05.17/outbox.cif.g08.bks.cpg/sg2_167_cif.got.tgz:333670.got - 2010.06.03 11:33:40.
