data_PCOD9070423
_publ_section_title
;
Structure prediction by ZEFSAII (Michael W. Deem and Ramdas Pophale) SiO2 
 PCOD9070423
Probable space group: P -1
;
_chemical_formula_sum "Si O2"
_cell_formula_units_Z 14
_cell_length_a 20.966555
_cell_length_b 20.945629
_cell_length_c 11.474967
_cell_angle_alpha 147.715210
_cell_angle_beta 158.553673
_cell_angle_gamma 19.934565
_cell_volume 610.251125
_symmetry_space_group_name_H-M "P -1"
_symmetry_group_IT_number 2
_symmetry_cell_setting 'triclinic'
loop_
_space_group_symop_operation_xyz
x,y,z
-x,-y,-z
loop_
_atom_site_type_symbol
_atom_site_label
_atom_site_fract_x
_atom_site_fract_y
_atom_site_fract_z
Si Si1 0.610846 0.068139 0.752474
Si Si2 0.369338 0.709940 0.728089
Si Si3 0.168505 0.362647 0.259178
Si Si4 0.817052 0.375564 0.349842
Si Si5 0.175424 0.698298 0.009032
Si Si6 0.137429 0.129090 0.738449
Si Si7 0.512927 0.700072 0.704032
O O1 0.387131 0.244358 0.554455
O O2 0.500000 0.000000 0.500000
O O3 0.648908 0.142833 0.035292
O O4 0.904396 0.887022 0.909004
O O5 0.647201 0.502407 0.937758
O O6 0.398168 0.692865 0.612116
O O7 0.098462 0.788393 0.442202
O O8 0.180096 0.484485 0.405363
O O9 0.235046 0.209499 0.060849
O O10 0.847381 0.520701 0.998839
O O11 0.986249 0.216653 0.491764
O O12 0.500000 0.500000 0.000000
O O13 0.919918 0.292539 0.266124
O O14 0.392680 0.693123 0.377500
O O15 0.386842 0.900026 0.803428
#
# Coordination Sequence:
#
# PCOD9070423 Si02
#       7
#     2   2   2   2   2   2   2
#     4  12  27  44  73 111 152 192 239 300 363 438
#     4  12  24  48  73 109 153 187 241 301 368 431
#     4  12  27  48  72 111 145 188 248 303 359 428
#     4  12  26  52  74 102 153 192 243 300 361 435
#     4  12  26  47  75 107 142 199 238 291 374 422
#     4  12  26  47  74 107 146 194 241 303 358 431
#     4  12  27  45  78 110 143 192 245 299 368 432
#
# _framework density 22.941376000000002
#
# number of rings (size 3 to 8) (size 9 to 14) (size 15 to 20)
#    0.000    0.000    5.714    3.000    6.000    2.286 
#    2.571    0.000    0.000    0.000    0.000    0.000 
#    0.000    0.000    0.000    0.000    0.000    0.000 
#
# Total GULP energy -78495.382676 kJ/mol
# GULP energy per Si atom -5606.813048 kJ/mol
# Density = 2.288916 g / cm^3
# Si number density = 22.941376 Si / 1000 Ang^3
#
#
#
# Elastic Constant Matrix: (Units=GPa)
#
#
# Indices 1 2 3 4 5 6 
#
# 1 64.5348 29.7327 15.3409 6.0414 -15.0572 11.4284
# 2 29.7327 152.4969 32.0577 4.1910 0.5523 3.8640
# 3 15.3409 32.0577 89.2582 14.9885 -1.0380 -7.6742
# 4 6.0414 4.1910 14.9885 49.4380 2.9430 -8.7195
# 5 -15.0572 0.5523 -1.0380 2.9430 33.6897 -0.6272
# 6 11.4284 3.8640 -7.6742 -8.7195 -0.6272 16.9653
#
#
#
# Elastic Compliance Matrix: (Units=1/GPa)
#
#
# Indices 1 2 3 4 5 6 
#
# 1 0.024596 -0.003408 -0.003619 -0.005807 0.011072 -0.020004
# 2 -0.003408 0.007709 -0.002317 0.000517 -0.001772 -0.000308
# 3 -0.003619 -0.002317 0.013684 -0.002036 -0.000830 0.008079
# 4 -0.005807 0.000517 -0.002036 0.024475 -0.004520 0.015285
# 5 0.011072 -0.001772 -0.000830 -0.004520 0.034872 -0.008464
# 6 -0.020004 -0.000308 0.008079 0.015285 -0.008464 0.083687
#
#
# Mechanical properties :
#
#
# Convention : Reuss Voigt Hill
#
# Bulk Modulus (GPa) = 36.62945 51.17251 43.90098
# Shear Modulus (GPa) = 23.06143 35.29582 29.17863
#
# Velocity S-wave (km/s) = 3.17398 3.92666 3.57021
# Velocity P-wave (km/s) = 5.42526 6.55075 6.01439
#
# Compressibility (1/GPa) = 0.02730044
#
# Stress axis : x y z
#
# Youngs Moduli (GPa) = 40.65765 129.71702 73.07587
#
# Poissons Ratio (x) = 0.44211 0.26448
# Poissons Ratio (y) = 0.13857 0.16930
# Poissons Ratio (z) = 0.14715 0.30053
#
# Static dielectric constant tensor:
#      x y z
#    x 1.883010 0.005550 0.012390 
#    y 0.005550 1.829590 0.025790 
#    z 0.012390 0.025790 1.864940 
# 
# From -- ./inp_files/307968.got.cif
#   From: 2010.05.17/outbox.cif.g08.bks.cpg/sg2_154_cif.got.tgz:307968.got - 2010.06.03 11:33:40.
