data_PCOD9070496
_publ_section_title
;
Structure prediction by ZEFSAII (Michael W. Deem and Ramdas Pophale) SiO2 
 PCOD9070496
Probable space group: P -1
;
_chemical_formula_sum "Si O2"
_cell_formula_units_Z 14
_cell_length_a 14.535250
_cell_length_b 8.598017
_cell_length_c 10.332728
_cell_angle_alpha 135.875816
_cell_angle_beta 110.547884
_cell_angle_gamma 100.753776
_cell_volume 622.901378
_symmetry_space_group_name_H-M "P -1"
_symmetry_group_IT_number 2
_symmetry_cell_setting 'triclinic'
loop_
_space_group_symop_operation_xyz
x,y,z
-x,-y,-z
loop_
_atom_site_type_symbol
_atom_site_label
_atom_site_fract_x
_atom_site_fract_y
_atom_site_fract_z
Si Si1 0.856963 0.882607 0.349683
Si Si2 0.924744 0.302020 0.217121
Si Si3 0.163712 0.692035 0.362896
Si Si4 0.678021 0.211932 0.943713
Si Si5 0.490468 0.575579 0.394049
Si Si6 0.197028 0.269726 0.044873
Si Si7 0.462850 0.237371 0.927624
O O1 0.842210 0.065219 0.549313
O O2 0.751973 0.529351 0.104420
O O3 0.837516 0.921276 0.214726
O O4 0.000000 0.000000 0.500000
O O5 0.000000 0.500000 0.500000
O O6 0.033336 0.478041 0.261984
O O7 0.793220 0.254414 0.102842
O O8 0.872393 0.970163 0.016529
O O9 0.155791 0.463833 0.133248
O O10 0.310701 0.924516 0.640873
O O11 0.611954 0.931154 0.648153
O O12 0.557403 0.163202 0.922516
O O13 0.500000 0.500000 0.500000
O O14 0.353880 0.500263 0.274080
O O15 0.482315 0.375993 0.161099
O O16 0.500000 0.500000 0.000000
#
# Coordination Sequence:
#
# PCOD9070496 Si02
#       7
#     2   2   2   2   2   2   2
#     4  12  25  48  71 105 145 192 244 304 363 435
#     4  12  24  49  70 101 146 194 236 302 363 433
#     4  12  25  44  75 102 141 188 243 294 371 427
#     4  12  26  44  77 106 145 190 246 301 367 439
#     4  12  26  46  71 111 149 187 242 303 365 437
#     4  12  25  46  74 101 147 191 242 303 364 435
#     4  12  26  47  75 108 145 195 242 302 372 435
#
# _framework density 22.475470000000001
#
# number of rings (size 3 to 8) (size 9 to 14) (size 15 to 20)
#    0.000    0.000    8.571    0.429    2.000    3.429 
#    5.143    0.000    0.000    0.000    0.000    0.000 
#    0.000    0.000    0.000    0.000    0.000    0.000 
#
# Total GULP energy -78176.654473 kJ/mol
# GULP energy per Si atom -5584.046748 kJ/mol
# Density = 2.242432 g / cm^3
# Si number density = 22.475470 Si / 1000 Ang^3
#
#
#
# Elastic Constant Matrix: (Units=GPa)
#
#
# Indices 1 2 3 4 5 6 
#
# 1 125.7998 1.4793 42.7418 -7.2861 5.3325 -26.8110
# 2 1.4793 51.0279 12.9006 11.2680 0.2915 -9.4724
# 3 42.7418 12.9006 103.0691 15.5717 14.6931 -8.2656
# 4 -7.2861 11.2680 15.5717 45.7450 -6.7667 2.0036
# 5 5.3325 0.2915 14.6931 -6.7667 52.0898 0.9362
# 6 -26.8110 -9.4724 -8.2656 2.0036 0.9362 29.9868
#
#
#
# Elastic Compliance Matrix: (Units=1/GPa)
#
#
# Indices 1 2 3 4 5 6 
#
# 1 0.011752 0.002087 -0.004798 0.002613 0.000305 0.009660
# 2 0.002087 0.022838 -0.002181 -0.005017 -0.000537 0.008831
# 3 -0.004798 -0.002181 0.013251 -0.005278 -0.003905 -0.000852
# 4 0.002613 -0.005017 -0.005278 0.026116 0.004688 -0.002595
# 5 0.000305 -0.000537 -0.003905 0.004688 0.020915 -0.001940
# 6 0.009660 0.008831 -0.000852 -0.002595 -0.001940 0.044774
#
#
# Mechanical properties :
#
#
# Convention : Reuss Voigt Hill
#
# Bulk Modulus (GPa) = 26.27732 43.79335 35.03533
# Shear Modulus (GPa) = 30.84216 40.41599 35.62908
#
# Velocity S-wave (km/s) = 3.70842 4.24515 3.98583
# Velocity P-wave (km/s) = 5.48210 6.59967 6.06668
#
# Compressibility (1/GPa) = 0.03805564
#
# Stress axis : x y z
#
# Youngs Moduli (GPa) = 85.09161 43.78616 75.46807
#
# Poissons Ratio (x) = -0.09137 0.36211
# Poissons Ratio (y) = -0.17757 0.16462
# Poissons Ratio (z) = 0.40828 0.09551
#
# Static dielectric constant tensor:
#      x y z
#    x 1.816480 0.003380 0.035450 
#    y 0.003380 1.905620 0.017340 
#    z 0.035450 0.017340 1.818140 
# 
# From -- ./inp_files/445385.got.cif
#   From: 2010.05.17/outbox.cif.g08.bks.cpg/sg2_223_cif.got.tgz:445385.got - 2010.06.03 11:33:40.
