data_PCOD9070892
_publ_section_title
;
Structure prediction by ZEFSAII (Michael W. Deem and Ramdas Pophale) SiO2 
 PCOD9070892
Probable space group: P -1
;
_chemical_formula_sum "Si O2"
_cell_formula_units_Z 12
_cell_length_a 12.690104
_cell_length_b 6.508139
_cell_length_c 14.828081
_cell_angle_alpha 114.904906
_cell_angle_beta 141.509430
_cell_angle_gamma 46.132025
_cell_volume 529.035203
_symmetry_space_group_name_H-M "P -1"
_symmetry_group_IT_number 2
_symmetry_cell_setting 'triclinic'
loop_
_space_group_symop_operation_xyz
x,y,z
-x,-y,-z
loop_
_atom_site_type_symbol
_atom_site_label
_atom_site_fract_x
_atom_site_fract_y
_atom_site_fract_z
Si Si1 0.908285 0.334895 0.458683
Si Si2 0.777316 0.310366 0.870721
Si Si3 0.587653 0.683776 0.469208
Si Si4 0.280458 0.320882 0.941924
Si Si5 0.908537 0.330208 0.776296
Si Si6 0.250605 0.651191 0.833541
O O1 0.771079 0.543906 0.489045
O O2 0.770240 0.356201 0.287031
O O3 0.000000 0.500000 0.500000
O O4 0.000000 0.000000 0.500000
O O5 0.611893 0.280538 0.704605
O O6 0.835333 0.426869 0.847886
O O7 0.666181 0.530368 0.921941
O O8 0.000000 0.000000 0.000000
O O9 0.706324 0.475477 0.598254
O O10 0.500000 0.000000 0.500000
O O11 0.196294 0.471674 0.816874
O O12 0.074047 0.378635 0.861037
O O13 0.500000 0.000000 0.000000
O O14 0.069232 0.977230 0.811195
O O15 0.500000 0.500000 0.000000
#
# Coordination Sequence:
#
# PCOD9070892 Si02
#       6
#     2   2   2   2   2   2
#     4  12  29  52  84 118 162 211 270 331 406 480
#     4  12  27  49  76 108 154 201 257 316 402 473
#     4  12  29  50  77 115 157 207 263 330 400 477
#     4  12  26  47  80 113 149 199 263 332 394 473
#     4  12  26  49  77 108 156 201 258 319 402 471
#     4  12  25  47  77 114 154 202 262 329 393 476
#
# _framework density 22.682798999999999
#
# number of rings (size 3 to 8) (size 9 to 14) (size 15 to 20)
#    0.000    0.000    5.000    4.000    2.333    2.667 
#    0.000    0.000    0.000    0.000    0.000    0.000 
#    0.000    0.000    0.000    0.000    0.000    0.000 
#
# Total GULP energy -66865.457699 kJ/mol
# GULP energy per Si atom -5572.121475 kJ/mol
# Density = 2.263117 g / cm^3
# Si number density = 22.682799 Si / 1000 Ang^3
#
#
#
# Elastic Constant Matrix: (Units=GPa)
#
#
# Indices 1 2 3 4 5 6 
#
# 1 173.1357 45.0926 66.6078 -3.9252 -20.9964 -1.9641
# 2 45.0926 125.8942 53.4290 -7.7569 -7.2969 -22.2574
# 3 66.6078 53.4290 187.0393 -5.0544 -19.3475 2.1677
# 4 -3.9252 -7.7569 -5.0544 30.6276 5.5658 -9.2649
# 5 -20.9964 -7.2969 -19.3475 5.5658 55.2758 9.4896
# 6 -1.9641 -22.2574 2.1677 -9.2649 9.4896 49.2405
#
#
#
# Elastic Compliance Matrix: (Units=1/GPa)
#
#
# Indices 1 2 3 4 5 6 
#
# 1 0.007194 -0.001897 -0.001808 -0.000533 0.002073 -0.000991
# 2 -0.001897 0.010967 -0.002584 0.004259 -0.001656 0.006116
# 3 -0.001808 -0.002584 0.006921 -0.000685 0.001811 -0.002023
# 4 -0.000533 0.004259 -0.000685 0.037563 -0.005386 0.010040
# 5 0.002073 -0.001656 0.001811 -0.005386 0.020827 -0.005773
# 6 -0.000991 0.006116 -0.002023 0.010040 -0.005773 0.026124
#
#
# Mechanical properties :
#
#
# Convention : Reuss Voigt Hill
#
# Bulk Modulus (GPa) = 79.98628 90.70313 85.34471
# Shear Modulus (GPa) = 39.57475 48.42478 43.99976
#
# Velocity S-wave (km/s) = 4.18150 4.62548 4.40908
# Velocity P-wave (km/s) = 7.65851 8.28258 7.97665
#
# Compressibility (1/GPa) = 0.01250214
#
# Stress axis : x y z
#
# Youngs Moduli (GPa) = 139.01148 91.18146 144.48907
#
# Poissons Ratio (x) = 0.17297 0.26129
# Poissons Ratio (y) = 0.26371 0.37342
# Poissons Ratio (z) = 0.25139 0.23565
#
# Static dielectric constant tensor:
#      x y z
#    x 1.640300 -0.052010 0.099360 
#    y -0.052010 1.855870 0.075990 
#    z 0.099360 0.075990 1.850810 
# 
# From -- ./inp_files/60057.got.cif
#   From: 2010.05.17/outbox.cif.g08.bks.cpg/sg2_31_cif.got.tgz:60057.got - 2010.06.03 11:33:40.
