data_PCOD9070936
_publ_section_title
;
Structure prediction by ZEFSAII (Michael W. Deem and Ramdas Pophale) SiO2 
 PCOD9070936
Probable space group: P -1
;
_chemical_formula_sum "Si O2"
_cell_formula_units_Z 12
_cell_length_a 14.649887
_cell_length_b 9.035762
_cell_length_c 8.463686
_cell_angle_alpha 79.488786
_cell_angle_beta 107.881685
_cell_angle_gamma 38.821601
_cell_volume 472.889578
_symmetry_space_group_name_H-M "P -1"
_symmetry_group_IT_number 2
_symmetry_cell_setting 'triclinic'
loop_
_space_group_symop_operation_xyz
x,y,z
-x,-y,-z
loop_
_atom_site_type_symbol
_atom_site_label
_atom_site_fract_x
_atom_site_fract_y
_atom_site_fract_z
Si Si1 0.662882 0.166356 0.553355
Si Si2 0.932799 0.296021 0.659280
Si Si3 0.584460 0.721994 0.152807
Si Si4 0.915218 0.234588 0.157664
Si Si5 0.723339 0.749164 0.729106
Si Si6 0.670073 0.135917 0.201960
O O1 0.500000 0.500000 0.500000
O O2 0.613963 0.173693 0.346828
O O3 0.715827 0.938064 0.719502
O O4 0.858338 0.003929 0.656158
O O5 0.703651 0.569080 0.412600
O O6 0.892824 0.476190 0.734750
O O7 0.042498 0.991323 0.845379
O O8 0.089034 0.147111 0.639984
O O9 0.779859 0.393886 0.211157
O O10 0.384350 0.902413 0.961014
O O11 0.500000 0.000000 0.000000
O O12 0.785900 0.544350 0.937691
O O13 0.500000 0.000000 0.500000
O O14 0.500000 0.500000 0.000000
#
# Coordination Sequence:
#
# PCOD9070936 Si02
#       6
#     2   2   2   2   2   2
#     4  12  28  49  76 110 152 198 253 310 377 453
#     4  12  26  50  78 112 154 194 254 315 370 453
#     4  12  26  46  77 112 155 193 250 316 372 449
#     4  12  25  48  72 108 151 201 249 308 375 444
#     4  12  28  49  73 110 151 201 253 307 379 450
#     4  12  26  46  80 113 145 199 252 306 385 439
#
# _framework density 25.375903999999998
#
# number of rings (size 3 to 8) (size 9 to 14) (size 15 to 20)
#    0.000    0.000    3.333    6.500    4.667    2.667 
#    0.000    0.000    0.000    0.000    0.000    0.000 
#    0.000    0.000    0.000    0.000    0.000    0.000 
#
# Total GULP energy -67110.003296 kJ/mol
# GULP energy per Si atom -5592.500275 kJ/mol
# Density = 2.531815 g / cm^3
# Si number density = 25.375904 Si / 1000 Ang^3
#
#
#
# Elastic Constant Matrix: (Units=GPa)
#
#
# Indices 1 2 3 4 5 6 
#
# 1 104.8085 51.6053 18.7521 -7.2361 8.4782 19.2773
# 2 51.6053 150.2683 13.5143 -6.2468 -6.8704 8.7083
# 3 18.7521 13.5143 61.0651 10.7047 3.8475 -0.9223
# 4 -7.2361 -6.2468 10.7047 32.2476 1.6340 -10.5047
# 5 8.4782 -6.8704 3.8475 1.6340 48.9202 -13.3489
# 6 19.2773 8.7083 -0.9223 -10.5047 -13.3489 60.6263
#
#
#
# Elastic Compliance Matrix: (Units=1/GPa)
#
#
# Indices 1 2 3 4 5 6 
#
# 1 0.013427 -0.004148 -0.003405 0.002167 -0.003860 -0.004200
# 2 -0.004148 0.008255 -0.000868 0.001103 0.002122 0.000778
# 3 -0.003405 -0.000868 0.018915 -0.007143 -0.000756 0.000091
# 4 0.002167 0.001103 -0.007143 0.035803 0.000614 0.005383
# 5 -0.003860 0.002122 -0.000756 0.000614 0.023114 0.006107
# 6 -0.004200 0.000778 0.000091 0.005383 0.006107 0.019997
#
#
# Mechanical properties :
#
#
# Convention : Reuss Voigt Hill
#
# Bulk Modulus (GPa) = 42.09842 53.76503 47.93173
# Shear Modulus (GPa) = 34.65652 43.84350 39.25001
#
# Velocity S-wave (km/s) = 3.69958 4.16114 3.93713
# Velocity P-wave (km/s) = 5.90552 6.65735 6.29267
#
# Compressibility (1/GPa) = 0.02375386
#
# Stress axis : x y z
#
# Youngs Moduli (GPa) = 74.47554 121.13709 52.86774
#
# Poissons Ratio (x) = 0.50247 0.18004
# Poissons Ratio (y) = 0.30892 0.04591
# Poissons Ratio (z) = 0.25362 0.10520
#
# Static dielectric constant tensor:
#      x y z
#    x 1.973350 -0.053410 -0.032220 
#    y -0.053410 1.976720 0.035040 
#    z -0.032220 0.035040 2.018790 
# 
# From -- ./inp_files/159185.got.cif
#   From: 2010.05.17/outbox.cif.g08.bks.cpg/sg2_80_cif.got.tgz:159185.got - 2010.06.03 11:33:40.
