data_PCOD9070953
_publ_section_title
;
Structure prediction by ZEFSAII (Michael W. Deem and Ramdas Pophale) SiO2 
 PCOD9070953
Probable space group: P -1
;
_chemical_formula_sum "Si O2"
_cell_formula_units_Z 16
_cell_length_a 8.766574
_cell_length_b 18.219182
_cell_length_c 5.348785
_cell_angle_alpha 117.531465
_cell_angle_beta 102.504990
_cell_angle_gamma 59.689582
_cell_volume 653.850061
_symmetry_space_group_name_H-M "P -1"
_symmetry_group_IT_number 2
_symmetry_cell_setting 'triclinic'
loop_
_space_group_symop_operation_xyz
x,y,z
-x,-y,-z
loop_
_atom_site_type_symbol
_atom_site_label
_atom_site_fract_x
_atom_site_fract_y
_atom_site_fract_z
Si Si1 0.816650 0.056055 0.896894
Si Si2 0.320720 0.344924 0.468698
Si Si3 0.496096 0.144393 0.275490
Si Si4 0.111504 0.399111 0.994072
Si Si5 0.402968 0.610914 0.578939
Si Si6 0.304293 0.074539 0.439469
Si Si7 0.316709 0.767877 0.171533
Si Si8 0.054579 0.726762 0.339728
O O1 0.791132 0.154118 0.950103
O O2 0.796379 0.983736 0.593844
O O3 0.661212 0.074890 0.065517
O O4 0.000000 0.000000 0.000000
O O5 0.385968 0.238744 0.226753
O O6 0.238573 0.350378 0.721714
O O7 0.482556 0.369958 0.564371
O O8 0.194651 0.405653 0.296913
O O9 0.377030 0.098912 0.247970
O O10 0.570677 0.186476 0.587129
O O11 0.991350 0.348848 0.924720
O O12 0.000000 0.500000 0.000000
O O13 0.500000 0.500000 0.500000
O O14 0.193566 0.663399 0.512014
O O15 0.417716 0.669920 0.910864
O O16 0.138758 0.181427 0.573768
O O17 0.500000 0.000000 0.500000
O O18 0.176920 0.761417 0.294446
#
# Coordination Sequence:
#
# PCOD9070953 Si02
#       8
#     2   2   2   2   2   2   2   2
#     4  12  27  46  76 109 149 198 261 326 394 470
#     4  12  26  50  81 109 160 208 258 325 402 466
#     4  12  25  48  75 108 151 205 260 322 397 470
#     4  12  29  51  81 115 158 207 264 330 401 477
#     4  12  28  49  79 113 154 205 264 322 399 474
#     4  12  27  48  75 109 151 206 262 319 400 472
#     4  12  25  48  74 108 160 199 259 331 392 470
#     4  12  29  47  74 114 153 200 264 327 392 472
#
# _framework density 24.470441000000001
#
# number of rings (size 3 to 8) (size 9 to 14) (size 15 to 20)
#    0.000    0.000    5.000    3.750    7.000    2.500 
#    0.000    0.000    0.000    0.000    0.000    0.000 
#    0.000    0.000    0.000    0.000    0.000    0.000 
#
# Total GULP energy -89162.924120 kJ/mol
# GULP energy per Si atom -5572.682757 kJ/mol
# Density = 2.441475 g / cm^3
# Si number density = 24.470441 Si / 1000 Ang^3
#
#
#
# Elastic Constant Matrix: (Units=GPa)
#
#
# Indices 1 2 3 4 5 6 
#
# 1 58.8746 43.4809 5.6477 1.6204 5.1826 -3.7445
# 2 43.4809 180.6983 17.7758 24.1630 2.3332 -6.4486
# 3 5.6477 17.7758 48.2966 -4.2498 2.0339 -8.5350
# 4 1.6204 24.1630 -4.2498 38.0165 0.1516 6.6212
# 5 5.1826 2.3332 2.0339 0.1516 32.4076 -8.9056
# 6 -3.7445 -6.4486 -8.5350 6.6212 -8.9056 46.9958
#
#
#
# Elastic Compliance Matrix: (Units=1/GPa)
#
#
# Indices 1 2 3 4 5 6 
#
# 1 0.021164 -0.005375 -0.000150 0.002509 -0.003000 0.000000
# 2 -0.005375 0.007801 -0.002546 -0.005201 0.000773 0.001059
# 3 -0.000150 -0.002546 0.022550 0.003596 -0.000357 0.003160
# 4 0.002509 -0.005201 0.003596 0.030695 -0.001631 -0.004494
# 5 -0.003000 0.000773 -0.000357 -0.001631 0.033040 0.006293
# 6 0.000000 0.001059 0.003160 -0.004494 0.006293 0.023823
#
#
# Mechanical properties :
#
#
# Convention : Reuss Voigt Hill
#
# Bulk Modulus (GPa) = 28.26883 46.85313 37.56098
# Shear Modulus (GPa) = 29.93916 38.21499 34.07708
#
# Velocity S-wave (km/s) = 3.50163 3.95610 3.73578
# Velocity P-wave (km/s) = 5.28449 6.32898 5.83017
#
# Compressibility (1/GPa) = 0.03537465
#
# Stress axis : x y z
#
# Youngs Moduli (GPa) = 47.24996 128.18565 44.34641
#
# Poissons Ratio (x) = 0.68897 0.00663
# Poissons Ratio (y) = 0.25396 0.11290
# Poissons Ratio (z) = 0.00707 0.32634
#
# Static dielectric constant tensor:
#      x y z
#    x 1.968810 -0.053600 0.083830 
#    y -0.053600 2.022630 -0.020370 
#    z 0.083830 -0.020370 2.266660 
# 
# From -- ./inp_files/49029.got.cif
#   From: 2010.05.17/outbox.cif.g08.bks.cpg/sg2_25_cif.got.tgz:49029.got - 2010.06.03 11:33:40.
