data_PCOD9070876
_publ_section_title
;
Structure prediction by ZEFSAII (Michael W. Deem and Ramdas Pophale) SiO2 
 PCOD9070876
Probable space group: P -1
;
_chemical_formula_sum "Si O2"
_cell_formula_units_Z 14
_cell_length_a 14.728977
_cell_length_b 7.638121
_cell_length_c 11.250184
_cell_angle_alpha 62.002360
_cell_angle_beta 27.592786
_cell_angle_gamma 64.099093
_cell_volume 516.959102
_symmetry_space_group_name_H-M "P -1"
_symmetry_group_IT_number 2
_symmetry_cell_setting 'triclinic'
loop_
_space_group_symop_operation_xyz
x,y,z
-x,-y,-z
loop_
_atom_site_type_symbol
_atom_site_label
_atom_site_fract_x
_atom_site_fract_y
_atom_site_fract_z
Si Si1 0.877341 0.886256 0.803067
Si Si2 0.139032 0.188884 0.744594
Si Si3 0.919752 0.520742 0.721427
Si Si4 0.514645 0.597920 0.080482
Si Si5 0.763010 0.248524 0.468971
Si Si6 0.520813 0.926977 0.802600
Si Si7 0.290073 0.418381 0.726577
O O1 0.935771 0.757549 0.659626
O O2 0.079358 0.921103 0.624175
O O3 0.714066 0.063005 0.942575
O O4 0.800200 0.700943 0.025833
O O5 0.250114 0.273782 0.705861
O O6 0.011148 0.354504 0.760919
O O7 0.328429 0.132357 0.457893
O O8 0.000000 0.000000 0.000000
O O9 0.685482 0.493267 0.991646
O O10 0.000000 0.500000 0.500000
O O11 0.569429 0.813579 0.903914
O O12 0.500000 0.500000 0.000000
O O13 0.308467 0.615544 0.380954
O O14 0.561654 0.154655 0.701835
O O15 0.824331 0.378121 0.246728
O O16 0.500000 0.500000 0.500000
#
# Coordination Sequence:
#
# PCOD9070876 Si02
#       7
#     2   2   2   2   2   2   2
#     4  12  27  47  83 115 162 221 279 342 423 503
#     4  12  29  51  88 131 170 215 292 356 423 507
#     4  12  25  51  81 116 167 227 275 343 431 509
#     4  12  26  47  77 112 165 219 278 345 428 503
#     4  12  25  47  75 115 163 217 276 346 414 507
#     4  12  27  49  77 122 161 210 286 353 415 502
#     4  12  25  52  82 116 167 226 277 343 434 500
#
# _framework density 27.081444999999999
#
# number of rings (size 3 to 8) (size 9 to 14) (size 15 to 20)
#    0.000    0.000    5.714    3.429    2.000    4.571 
#    0.000    0.000    0.000    0.000    0.000    0.000 
#    0.000    0.000    0.000    0.000    0.000    0.000 
#
# Total GULP energy -78193.869152 kJ/mol
# GULP energy per Si atom -5585.276368 kJ/mol
# Density = 2.701981 g / cm^3
# Si number density = 27.081445 Si / 1000 Ang^3
#
#
#
# Elastic Constant Matrix: (Units=GPa)
#
#
# Indices 1 2 3 4 5 6 
#
# 1 133.6229 47.8514 47.3327 26.0554 -17.6477 -16.9520
# 2 47.8514 104.6169 37.1257 17.7561 -6.6788 -24.4094
# 3 47.3327 37.1257 146.8191 11.3143 -7.6059 -27.0477
# 4 26.0554 17.7561 11.3143 64.3865 -5.2328 -2.9742
# 5 -17.6477 -6.6788 -7.6059 -5.2328 56.2688 6.5449
# 6 -16.9520 -24.4094 -27.0477 -2.9742 6.5449 55.8627
#
#
#
# Elastic Compliance Matrix: (Units=1/GPa)
#
#
# Indices 1 2 3 4 5 6 
#
# 1 0.010261 -0.003288 -0.002107 -0.002680 0.002265 0.000249
# 2 -0.003288 0.012717 -0.001323 -0.001791 -0.000316 0.003860
# 3 -0.002107 -0.001323 0.008353 -0.000122 -0.000029 0.002824
# 4 -0.002680 -0.001791 -0.000122 0.017144 0.000620 -0.000815
# 5 0.002265 -0.000316 -0.000029 0.000620 0.018687 -0.001621
# 6 0.000249 0.003860 0.002824 -0.000815 -0.001621 0.021177
#
#
# Mechanical properties :
#
#
# Convention : Reuss Voigt Hill
#
# Bulk Modulus (GPa) = 55.88209 72.18650 64.03430
# Shear Modulus (GPa) = 46.40876 52.15354 49.28115
#
# Velocity S-wave (km/s) = 4.14415 4.39316 4.27047
# Velocity P-wave (km/s) = 6.60138 7.24198 6.92909
#
# Compressibility (1/GPa) = 0.01789482
#
# Stress axis : x y z
#
# Youngs Moduli (GPa) = 97.45884 78.63792 119.71784
#
# Poissons Ratio (x) = 0.25857 0.25222
# Poissons Ratio (y) = 0.32046 0.15836
# Poissons Ratio (z) = 0.20533 0.10402
#
# Static dielectric constant tensor:
#      x y z
#    x 2.205800 0.122700 0.037160 
#    y 0.122700 2.515590 -0.048090 
#    z 0.037160 -0.048090 2.149950 
# 
# From -- ./inp_files/445586.got.cif
#   From: 2010.05.17/outbox.cif.g08.bks.cpg/sg2_223_cif.got.tgz:445586.got - 2010.06.03 11:33:40.
