data_PCOD9070253
_publ_section_title
;
Structure prediction by ZEFSAII (Michael W. Deem and Ramdas Pophale) SiO2 
 PCOD9070253
Probable space group: P -1
;
_chemical_formula_sum "Si O2"
_cell_formula_units_Z 12
_cell_length_a 9.498176
_cell_length_b 9.244930
_cell_length_c 10.337649
_cell_angle_alpha 96.133807
_cell_angle_beta 66.407287
_cell_angle_gamma 50.154756
_cell_volume 546.973385
_symmetry_space_group_name_H-M "P -1"
_symmetry_group_IT_number 2
_symmetry_cell_setting 'triclinic'
loop_
_space_group_symop_operation_xyz
x,y,z
-x,-y,-z
loop_
_atom_site_type_symbol
_atom_site_label
_atom_site_fract_x
_atom_site_fract_y
_atom_site_fract_z
Si Si1 0.339850 0.660427 0.454626
Si Si2 0.920392 0.893706 0.052848
Si Si3 0.416001 0.455157 0.910967
Si Si4 0.288848 0.030978 0.596285
Si Si5 0.459783 0.863940 0.977873
Si Si6 0.114282 0.557489 0.392707
O O1 0.500000 0.500000 0.500000
O O2 0.476730 0.565606 0.261586
O O3 0.288398 0.868393 0.517414
O O4 0.155432 0.662263 0.489433
O O5 0.739950 0.990378 0.244102
O O6 0.795132 0.951274 0.970994
O O7 0.144393 0.649050 0.998373
O O8 0.000000 0.000000 0.000000
O O9 0.500000 0.500000 0.000000
O O10 0.512139 0.235479 0.905126
O O11 0.063909 0.264323 0.635938
O O12 0.500000 0.000000 0.500000
O O13 0.647629 0.660304 0.789398
O O14 0.500000 0.000000 0.000000
O O15 0.000000 0.500000 0.500000
#
# Coordination Sequence:
#
# PCOD9070253 Si02
#       6
#     2   2   2   2   2   2
#     4  12  26  48  75 109 147 196 245 301 375 443
#     4  12  24  46  78 105 145 194 247 305 369 442
#     4  12  24  49  76 107 145 191 249 304 366 442
#     4  12  27  47  75 111 149 194 248 307 373 444
#     4  12  28  46  72 109 146 190 246 306 368 435
#     4  12  26  49  71 106 150 192 247 308 366 444
#
# _framework density 21.93891
#
# number of rings (size 3 to 8) (size 9 to 14) (size 15 to 20)
#    0.000    0.000    5.000    4.500    4.667    4.667 
#    0.000    0.000    0.000    0.000    0.000    0.000 
#    0.000    0.000    0.000    0.000    0.000    0.000 
#
# Total GULP energy -66941.465923 kJ/mol
# GULP energy per Si atom -5578.455494 kJ/mol
# Density = 2.188898 g / cm^3
# Si number density = 21.938910 Si / 1000 Ang^3
#
#
#
# Elastic Constant Matrix: (Units=GPa)
#
#
# Indices 1 2 3 4 5 6 
#
# 1 162.3408 84.0118 6.6489 -6.3316 -24.1129 5.4406
# 2 84.0118 165.1862 39.7510 -24.2581 2.8410 -21.7848
# 3 6.6489 39.7510 55.8742 -37.0256 -6.1211 5.5134
# 4 -6.3316 -24.2581 -37.0256 44.2510 5.6694 -4.6023
# 5 -24.1129 2.8410 -6.1211 5.6694 25.1998 -3.6817
# 6 5.4406 -21.7848 5.5134 -4.6023 -3.6817 59.5672
#
#
#
# Elastic Compliance Matrix: (Units=1/GPa)
#
#
# Indices 1 2 3 4 5 6 
#
# 1 0.012767 -0.008936 0.007356 0.000827 0.014214 -0.004173
# 2 -0.008936 0.014306 -0.011772 -0.001111 -0.011850 0.006319
# 3 0.007356 -0.011772 0.050044 0.034300 0.011895 -0.006224
# 4 0.000827 -0.001111 0.034300 0.051109 -0.002227 0.000155
# 5 0.014214 -0.011850 0.011895 -0.002227 0.057521 -0.003350
# 6 -0.004173 0.006319 -0.006224 0.000155 -0.003350 0.019861
#
#
# Mechanical properties :
#
#
# Convention : Reuss Voigt Hill
#
# Bulk Modulus (GPa) = 19.83705 71.58051 45.70878
# Shear Modulus (GPa) = 20.07101 42.66957 31.37029
#
# Velocity S-wave (km/s) = 3.02795 4.41492 3.78549
# Velocity P-wave (km/s) = 4.61369 7.66072 6.32348
#
# Compressibility (1/GPa) = 0.05041073
#
# Stress axis : x y z
#
# Youngs Moduli (GPa) = 78.32986 69.90298 19.98249
#
# Poissons Ratio (x) = 0.62467 -0.14698
# Poissons Ratio (y) = 0.69997 0.23523
# Poissons Ratio (z) = -0.57616 0.82289
#
# Static dielectric constant tensor:
#      x y z
#    x 1.783390 0.062130 -0.051960 
#    y 0.062130 1.771930 0.016860 
#    z -0.051960 0.016860 1.948190 
# 
# From -- ./inp_files/379000.got.cif
#   From: 2010.05.17/outbox.cif.g08.bks.cpg/sg2_190_cif.got.tgz:379000.got - 2010.06.03 11:33:40.
