data_PCOD9070216
_publ_section_title
;
Structure prediction by ZEFSAII (Michael W. Deem and Ramdas Pophale) SiO2 
 PCOD9070216
Probable space group: P -1
;
_chemical_formula_sum "Si O2"
_cell_formula_units_Z 16
_cell_length_a 9.753085
_cell_length_b 22.202574
_cell_length_c 13.128929
_cell_angle_alpha 26.276502
_cell_angle_beta 34.148830
_cell_angle_gamma 44.537499
_cell_volume 701.588566
_symmetry_space_group_name_H-M "P -1"
_symmetry_group_IT_number 2
_symmetry_cell_setting 'triclinic'
loop_
_space_group_symop_operation_xyz
x,y,z
-x,-y,-z
loop_
_atom_site_type_symbol
_atom_site_label
_atom_site_fract_x
_atom_site_fract_y
_atom_site_fract_z
Si Si1 0.175618 0.057108 0.398330
Si Si2 0.182708 0.618898 0.328962
Si Si3 0.373890 0.718989 0.275705
Si Si4 0.389392 0.353157 0.331769
Si Si5 0.004861 0.066974 0.786223
Si Si6 0.541497 0.174288 0.320437
Si Si7 0.374665 0.339921 0.589572
Si Si8 0.231228 0.040412 0.089381
O O1 0.304773 0.940566 0.554006
O O2 0.000000 0.000000 0.500000
O O3 0.961717 0.086768 0.562266
O O4 0.386199 0.173819 0.060391
O O5 0.308731 0.637694 0.334738
O O6 0.212546 0.465314 0.506131
O O7 0.902511 0.645680 0.476565
O O8 0.312210 0.725277 0.004337
O O9 0.441135 0.644845 0.450692
O O10 0.147003 0.803588 0.311952
O O11 0.459884 0.252541 0.352474
O O12 0.489284 0.335903 0.411695
O O13 0.500000 0.500000 0.000000
O O14 0.290102 0.106261 0.525132
O O15 0.000000 0.000000 0.000000
O O16 0.848244 0.952927 0.987455
O O17 0.223855 0.188480 0.919503
O O18 0.500000 0.000000 0.000000
#
# Coordination Sequence:
#
# PCOD9070216 Si02
#       8
#     2   2   2   2   2   2   2   2
#     4  12  26  44  74 113 149 195 254 316 385 448
#     4  12  28  51  74 113 154 203 258 308 382 464
#     4  12  26  48  75 112 158 198 248 318 384 454
#     4  12  27  48  78 108 151 202 257 315 369 456
#     4  12  24  46  75 111 149 197 255 308 383 454
#     4  12  27  49  80 113 153 203 258 315 386 453
#     4  12  26  48  76 109 152 198 251 311 382 448
#     4  12  26  46  73 108 151 195 247 319 378 447
#
# _framework density 22.805389000000002
#
# number of rings (size 3 to 8) (size 9 to 14) (size 15 to 20)
#    0.000    0.000    6.250    3.000    5.250    1.000 
#    0.000    2.500    0.000    0.000    0.000    0.000 
#    0.000    0.000    0.000    0.000    0.000    0.000 
#
# Total GULP energy -89503.952808 kJ/mol
# GULP energy per Si atom -5593.997050 kJ/mol
# Density = 2.275348 g / cm^3
# Si number density = 22.805389 Si / 1000 Ang^3
#
#
#
# Elastic Constant Matrix: (Units=GPa)
#
#
# Indices 1 2 3 4 5 6 
#
# 1 181.0301 57.1566 47.9009 10.7280 7.4847 12.6999
# 2 57.1566 110.7590 33.8001 3.2118 -8.3355 0.7155
# 3 47.9009 33.8001 116.7034 22.7126 0.1942 -11.2615
# 4 10.7280 3.2118 22.7126 38.4980 0.6845 -5.8077
# 5 7.4847 -8.3355 0.1942 0.6845 42.1922 5.4947
# 6 12.6999 0.7155 -11.2615 -5.8077 5.4947 51.4408
#
#
#
# Elastic Compliance Matrix: (Units=1/GPa)
#
#
# Indices 1 2 3 4 5 6 
#
# 1 0.007382 -0.003243 -0.002136 -0.000823 -0.001646 -0.002162
# 2 -0.003243 0.011573 -0.002265 0.001220 0.002855 -0.000023
# 3 -0.002136 -0.002265 0.011426 -0.005578 -0.000352 0.002468
# 4 -0.000823 0.001220 -0.005578 0.029757 -0.000378 0.002365
# 5 -0.001646 0.002855 -0.000352 -0.000378 0.024879 -0.002411
# 6 -0.002162 -0.000023 0.002468 0.002365 -0.002411 0.021039
#
#
# Mechanical properties :
#
#
# Convention : Reuss Voigt Hill
#
# Bulk Modulus (GPa) = 66.26277 76.24530 71.25403
# Shear Modulus (GPa) = 39.56459 44.40186 41.98322
#
# Velocity S-wave (km/s) = 4.16971 4.41726 4.29527
# Velocity P-wave (km/s) = 7.23193 7.71504 7.47739
#
# Compressibility (1/GPa) = 0.01509143
#
# Stress axis : x y z
#
# Youngs Moduli (GPa) = 135.47005 86.40607 87.52042
#
# Poissons Ratio (x) = 0.28025 0.18696
# Poissons Ratio (y) = 0.43938 0.19825
# Poissons Ratio (z) = 0.28939 0.19572
#
# Static dielectric constant tensor:
#      x y z
#    x 2.487370 0.330030 0.456710 
#    y 0.330030 1.884600 0.145010 
#    z 0.456710 0.145010 2.136810 
# 
# From -- ./inp_files/405234.got.cif
#   From: 2010.05.17/outbox.cif.g08.bks.cpg/sg2_203_cif.got.tgz:405234.got - 2010.06.03 11:33:40.
