data_PCOD9070707
_publ_section_title
;
Structure prediction by ZEFSAII (Michael W. Deem and Ramdas Pophale) SiO2 
 PCOD9070707
Probable space group: P -1
;
_chemical_formula_sum "Si O2"
_cell_formula_units_Z 13
_cell_length_a 12.978544
_cell_length_b 21.682953
_cell_length_c 9.322865
_cell_angle_alpha 151.232131
_cell_angle_beta 35.087490
_cell_angle_gamma 152.227336
_cell_volume 577.587574
_symmetry_space_group_name_H-M "P -1"
_symmetry_group_IT_number 2
_symmetry_cell_setting 'triclinic'
loop_
_space_group_symop_operation_xyz
x,y,z
-x,-y,-z
loop_
_atom_site_type_symbol
_atom_site_label
_atom_site_fract_x
_atom_site_fract_y
_atom_site_fract_z
Si Si1 0.289692 0.428962 0.702441
Si Si2 0.000000 0.500000 0.000000
Si Si3 0.597958 0.167198 0.651246
Si Si4 0.817616 0.896314 0.872896
Si Si5 0.343306 0.833144 0.750916
Si Si6 0.002331 0.884473 0.150155
Si Si7 0.511359 0.379765 0.841705
O O1 0.500000 0.500000 0.500000
O O2 0.170599 0.241198 0.482730
O O3 0.113327 0.446145 0.866323
O O4 0.374959 0.526489 0.950862
O O5 0.845376 0.315989 0.721671
O O6 0.574370 0.145937 0.464286
O O7 0.500000 0.000000 0.500000
O O8 0.426142 0.198143 0.970619
O O9 0.845233 0.007956 0.938989
O O10 0.000000 0.000000 0.000000
O O11 0.365681 0.697912 0.511936
O O12 0.102068 0.799633 0.938000
O O13 0.500000 0.000000 0.000000
O O14 0.751032 0.765193 0.134017
O O15 0.000000 0.000000 0.500000
O O16 0.500000 0.500000 0.000000
#
# Coordination Sequence:
#
# PCOD9070707 Si02
#       7
#     2   1   2   2   2   2   2
#     4  12  25  45  74 109 154 194 250 327 389 456
#     4  12  26  46  74 114 154 194 260 322 388 466
#     4  12  25  48  77 117 152 199 259 321 396 462
#     4  12  25  45  77 109 149 198 251 319 386 467
#     4  12  26  49  78 109 155 208 257 320 385 477
#     4  12  26  48  75 107 148 201 258 312 384 468
#     4  12  28  50  72 112 156 200 258 318 394 466
#
# _framework density 22.507408999999999
#
# number of rings (size 3 to 8) (size 9 to 14) (size 15 to 20)
#    0.000    0.000    6.154    3.692    2.154    0.615 
#    2.769    0.000    0.000    0.000    0.000    0.000 
#    0.000    0.000    0.000    0.000    0.000    0.000 
#
# Total GULP energy -72470.817267 kJ/mol
# GULP energy per Si atom -5574.678251 kJ/mol
# Density = 2.245618 g / cm^3
# Si number density = 22.507409 Si / 1000 Ang^3
#
#
#
# Elastic Constant Matrix: (Units=GPa)
#
#
# Indices 1 2 3 4 5 6 
#
# 1 170.8644 28.1525 74.8594 13.5571 -3.1000 24.9077
# 2 28.1525 38.2029 30.6036 16.2938 13.3123 1.5643
# 3 74.8594 30.6036 157.7663 30.0417 -8.1308 8.1426
# 4 13.5571 16.2938 30.0417 46.2611 1.4928 4.7311
# 5 -3.1000 13.3123 -8.1308 1.4928 66.2928 10.3263
# 6 24.9077 1.5643 8.1426 4.7311 10.3263 38.5116
#
#
#
# Elastic Compliance Matrix: (Units=1/GPa)
#
#
# Indices 1 2 3 4 5 6 
#
# 1 0.008764 -0.005149 -0.003115 0.001772 0.001882 -0.005523
# 2 -0.005149 0.041092 -0.004375 -0.010472 -0.009806 0.006502
# 3 -0.003115 -0.004375 0.009479 -0.003778 0.001961 0.000127
# 4 0.001772 -0.010472 -0.003778 0.027569 0.001687 -0.003761
# 5 0.001882 -0.009806 0.001961 0.001687 0.018334 -0.006357
# 6 -0.005523 0.006502 0.000127 -0.003761 -0.006357 0.031414
#
#
# Mechanical properties :
#
#
# Convention : Reuss Voigt Hill
#
# Bulk Modulus (GPa) = 29.36183 70.45161 49.90672
# Shear Modulus (GPa) = 28.85444 45.76097 37.30771
#
# Velocity S-wave (km/s) = 3.58438 4.51394 4.07575
# Velocity P-wave (km/s) = 5.49583 7.65095 6.66112
#
# Compressibility (1/GPa) = 0.03405783
#
# Stress axis : x y z
#
# Youngs Moduli (GPa) = 114.09705 24.33574 105.49270
#
# Poissons Ratio (x) = 0.12529 0.32865
# Poissons Ratio (y) = 0.58743 0.46153
# Poissons Ratio (z) = 0.35546 0.10647
#
# Static dielectric constant tensor:
#      x y z
#    x 1.801160 -0.005270 -0.074870 
#    y -0.005270 1.868040 -0.031940 
#    z -0.074870 -0.031940 1.967070 
# 
# From -- ./inp_files/282524.got.cif
#   From: 2010.05.17/outbox.cif.g08.bks.cpg/sg2_142_cif.got.tgz:282524.got - 2010.06.03 11:33:40.
