data_PCOD9070142
_publ_section_title
;
Structure prediction by ZEFSAII (Michael W. Deem and Ramdas Pophale) SiO2 
 PCOD9070142
Probable space group: P -1
;
_chemical_formula_sum "Si O2"
_cell_formula_units_Z 13
_cell_length_a 16.121795
_cell_length_b 9.943535
_cell_length_c 8.519337
_cell_angle_alpha 117.242714
_cell_angle_beta 61.492176
_cell_angle_gamma 152.982181
_cell_volume 543.360018
_symmetry_space_group_name_H-M "P -1"
_symmetry_group_IT_number 2
_symmetry_cell_setting 'triclinic'
loop_
_space_group_symop_operation_xyz
x,y,z
-x,-y,-z
loop_
_atom_site_type_symbol
_atom_site_label
_atom_site_fract_x
_atom_site_fract_y
_atom_site_fract_z
Si Si1 0.387767 0.189995 0.592468
Si Si2 0.866391 0.315300 0.672163
Si Si3 0.199500 0.329529 0.557351
Si Si4 0.384296 0.768106 0.121493
Si Si5 0.000000 0.500000 0.000000
Si Si6 0.686899 0.181920 0.299201
Si Si7 0.799930 0.749500 0.126550
O O1 0.612402 0.506363 0.561865
O O2 0.277397 0.188710 0.741030
O O3 0.310190 0.028574 0.406269
O O4 0.329965 0.977093 0.649285
O O5 0.808430 0.408808 0.797953
O O6 0.956792 0.391636 0.794729
O O7 0.000000 0.500000 0.500000
O O8 0.231475 0.543373 0.581679
O O9 0.190646 0.318193 0.748455
O O10 0.000000 0.000000 0.500000
O O11 0.482868 0.936459 0.285688
O O12 0.346272 0.541112 0.004189
O O13 0.500000 0.000000 0.000000
O O14 0.212270 0.743519 0.907755
O O15 0.000000 0.000000 0.000000
#
# Coordination Sequence:
#
# PCOD9070142 Si02
#       7
#     2   2   2   2   1   2   2
#     4  12  28  51  81 119 163 218 274 340 417 492
#     4  12  24  45  78 116 157 210 271 332 401 493
#     4  12  29  51  76 117 161 211 282 343 406 494
#     4  12  24  50  80 107 162 214 266 330 408 489
#     4  12  26  42  78 122 156 206 278 332 404 488
#     4  12  27  48  83 115 157 217 275 331 418 494
#     4  12  29  51  76 117 165 213 266 346 416 487
#
# _framework density 23.925204999999998
#
# number of rings (size 3 to 8) (size 9 to 14) (size 15 to 20)
#    0.000    0.000    6.154    1.846    6.462    1.846 
#    0.000    0.000    0.000    0.000    0.000    0.000 
#    0.000    0.000    0.000    0.000    0.000    0.000 
#
# Total GULP energy -72512.206071 kJ/mol
# GULP energy per Si atom -5577.862005 kJ/mol
# Density = 2.387075 g / cm^3
# Si number density = 23.925205 Si / 1000 Ang^3
#
#
#
# Elastic Constant Matrix: (Units=GPa)
#
#
# Indices 1 2 3 4 5 6 
#
# 1 109.3914 47.7986 48.0600 9.2149 2.0324 -0.6876
# 2 47.7986 144.0679 58.0426 6.5268 -0.2601 7.0030
# 3 48.0600 58.0426 126.1311 -10.5876 -14.6573 -2.1610
# 4 9.2149 6.5268 -10.5876 69.7060 13.0969 0.3287
# 5 2.0324 -0.2601 -14.6573 13.0969 41.6744 5.4715
# 6 -0.6876 7.0030 -2.1610 0.3287 5.4715 41.4426
#
#
#
# Elastic Compliance Matrix: (Units=1/GPa)
#
#
# Indices 1 2 3 4 5 6 
#
# 1 0.012030 -0.002432 -0.003766 -0.001658 -0.001487 0.000624
# 2 -0.002432 0.009294 -0.003523 -0.000976 -0.000530 -0.001717
# 3 -0.003766 -0.003523 0.011568 0.001916 0.003542 0.000653
# 4 -0.001658 -0.000976 0.001916 0.015751 -0.004290 0.000679
# 5 -0.001487 -0.000530 0.003542 -0.004290 0.027091 -0.003293
# 6 0.000624 -0.001717 0.000653 0.000679 -0.003293 0.024894
#
#
# Mechanical properties :
#
#
# Convention : Reuss Voigt Hill
#
# Bulk Modulus (GPa) = 74.34984 76.37699 75.36342
# Shear Modulus (GPa) = 40.14335 45.61056 42.87695
#
# Velocity S-wave (km/s) = 4.10062 4.37095 4.23794
# Velocity P-wave (km/s) = 7.31871 7.58064 7.45083
#
# Compressibility (1/GPa) = 0.01344993
#
# Stress axis : x y z
#
# Youngs Moduli (GPa) = 83.12634 107.59346 86.44326
#
# Poissons Ratio (x) = 0.26165 0.32555
# Poissons Ratio (y) = 0.20215 0.30457
# Poissons Ratio (z) = 0.31305 0.37909
#
# Static dielectric constant tensor:
#      x y z
#    x 1.829030 -0.007830 -0.035170 
#    y -0.007830 1.944590 -0.039370 
#    z -0.035170 -0.039370 1.926670 
# 
# From -- ./inp_files/299476.got.cif
#   From: 2010.05.17/outbox.cif.g08.bks.cpg/sg2_150_cif.got.tgz:299476.got - 2010.06.03 11:33:40.
