data_PCOD9070015
_publ_section_title
;
Structure prediction by ZEFSAII (Michael W. Deem and Ramdas Pophale) SiO2 
 PCOD9070015
Probable space group: P -1
;
_chemical_formula_sum "Si O2"
_cell_formula_units_Z 15
_cell_length_a 18.487574
_cell_length_b 8.980701
_cell_length_c 8.406895
_cell_angle_alpha 106.615410
_cell_angle_beta 32.675700
_cell_angle_gamma 121.527774
_cell_volume 605.197981
_symmetry_space_group_name_H-M "P -1"
_symmetry_group_IT_number 2
_symmetry_cell_setting 'triclinic'
loop_
_space_group_symop_operation_xyz
x,y,z
-x,-y,-z
loop_
_atom_site_type_symbol
_atom_site_label
_atom_site_fract_x
_atom_site_fract_y
_atom_site_fract_z
Si Si1 0.736514 0.522160 0.691456
Si Si2 0.500000 0.500000 0.500000
Si Si3 0.426035 0.038108 0.795602
Si Si4 0.131127 0.966071 0.673500
Si Si5 0.173699 0.098784 0.280500
Si Si6 0.994080 0.537439 0.709998
Si Si7 0.317424 0.545774 0.583187
Si Si8 0.473884 0.179405 0.262201
O O1 0.739501 0.680957 0.842672
O O2 0.740787 0.560287 0.508804
O O3 0.891644 0.517480 0.438964
O O4 0.581988 0.328877 0.973006
O O5 0.370268 0.449539 0.580465
O O6 0.493528 0.307596 0.414816
O O7 0.531867 0.257446 0.691186
O O8 0.500000 0.000000 0.500000
O O9 0.442297 0.930914 0.879547
O O10 0.256822 0.995160 0.037662
O O11 0.059460 0.751351 0.696306
O O12 0.175823 0.070791 0.455126
O O13 0.290122 0.044896 0.509587
O O14 0.000000 0.000000 0.000000
O O15 0.000000 0.000000 0.500000
O O16 0.000000 0.500000 0.500000
O O17 0.816626 0.431284 0.079511
#
# Coordination Sequence:
#
# PCOD9070015 Si02
#       8
#     2   1   2   2   2   2   2   2
#     4  12  27  49  80 112 157 206 261 333 397 468
#     4  12  24  44  74 106 148 206 252 322 372 474
#     4  12  28  49  80 113 153 207 260 324 391 471
#     4  12  28  49  79 115 161 209 260 331 395 468
#     4  12  29  49  76 116 158 203 264 321 394 471
#     4  12  27  50  79 114 156 215 265 329 398 475
#     4  12  27  49  76 113 158 204 267 316 404 466
#     4  12  27  50  77 112 159 202 272 319 403 466
#
# _framework density 24.785278000000002
#
# number of rings (size 3 to 8) (size 9 to 14) (size 15 to 20)
#    0.000    0.000    1.333    7.600    5.600    4.267 
#    0.000    1.333    0.000    0.000    0.000    0.000 
#    0.000    0.000    0.000    0.000    0.000    0.000 
#
# Total GULP energy -83864.766822 kJ/mol
# GULP energy per Si atom -5590.984455 kJ/mol
# Density = 2.472887 g / cm^3
# Si number density = 24.785278 Si / 1000 Ang^3
#
#
#
# Elastic Constant Matrix: (Units=GPa)
#
#
# Indices 1 2 3 4 5 6 
#
# 1 147.2189 39.0919 49.5589 15.5500 -32.2200 0.0687
# 2 39.0919 126.6759 27.8090 17.5234 -26.3631 -11.4455
# 3 49.5589 27.8090 136.4204 24.9047 -36.5025 -9.7743
# 4 15.5500 17.5234 24.9047 43.4849 -5.2747 -3.0548
# 5 -32.2200 -26.3631 -36.5025 -5.2747 51.4485 6.8571
# 6 0.0687 -11.4455 -9.7743 -3.0548 6.8571 35.8443
#
#
#
# Elastic Compliance Matrix: (Units=1/GPa)
#
#
# Indices 1 2 3 4 5 6 
#
# 1 0.008706 -0.001565 -0.001836 -0.001135 0.003468 -0.001777
# 2 -0.001565 0.009664 0.000233 -0.002881 0.003544 0.002229
# 3 -0.001836 0.000233 0.010419 -0.004613 0.005698 0.001436
# 4 -0.001135 -0.002881 -0.004613 0.026913 -0.002788 0.000651
# 5 0.003468 0.003544 0.005698 -0.002788 0.027559 -0.002831
# 6 -0.001777 0.002229 0.001436 0.000651 -0.002831 0.029602
#
#
# Mechanical properties :
#
#
# Convention : Reuss Voigt Hill
#
# Bulk Modulus (GPa) = 44.53915 71.47052 58.00483
# Shear Modulus (GPa) = 39.46832 45.74590 42.60711
#
# Velocity S-wave (km/s) = 3.99483 4.30081 4.15064
# Velocity P-wave (km/s) = 6.26795 7.31854 6.81353
#
# Compressibility (1/GPa) = 0.02245216
#
# Stress axis : x y z
#
# Youngs Moduli (GPa) = 114.86303 103.48010 95.97618
#
# Poissons Ratio (x) = 0.16199 0.17619
# Poissons Ratio (y) = 0.17981 -0.02234
# Poissons Ratio (z) = 0.21086 -0.02409
#
# Static dielectric constant tensor:
#      x y z
#    x -39.919030 -4.063230 55.255390 
#    y -4.063230 1.682850 5.270470 
#    z 55.255390 5.270470 -70.688390 
# 
# From -- ./inp_files/329243.got.cif
#   From: 2010.05.17/outbox.cif.g08.bks.cpg/sg2_165_cif.got.tgz:329243.got - 2010.06.03 11:33:40.
