data_PCOD9070459
_publ_section_title
;
Structure prediction by ZEFSAII (Michael W. Deem and Ramdas Pophale) SiO2 
 PCOD9070459
Probable space group: P -1
;
_chemical_formula_sum "Si O2"
_cell_formula_units_Z 15
_cell_length_a 12.599775
_cell_length_b 20.330762
_cell_length_c 14.999820
_cell_angle_alpha 19.681788
_cell_angle_beta 30.287070
_cell_angle_gamma 27.875905
_cell_volume 593.081594
_symmetry_space_group_name_H-M "P -1"
_symmetry_group_IT_number 2
_symmetry_cell_setting 'triclinic'
loop_
_space_group_symop_operation_xyz
x,y,z
-x,-y,-z
loop_
_atom_site_type_symbol
_atom_site_label
_atom_site_fract_x
_atom_site_fract_y
_atom_site_fract_z
Si Si1 0.415898 0.733134 0.809151
Si Si2 0.500000 0.000000 0.000000
Si Si3 0.735737 0.233601 0.459902
Si Si4 0.796595 0.826013 0.706632
Si Si5 0.828388 0.531047 0.891708
Si Si6 0.374289 0.888286 0.047534
Si Si7 0.976774 0.286696 0.754961
Si Si8 0.763674 0.435678 0.529467
O O1 0.636359 0.703973 0.746841
O O2 0.329510 0.935635 0.548086
O O3 0.500000 0.500000 0.000000
O O4 0.203304 0.758163 0.995152
O O5 0.691681 0.021832 0.761355
O O6 0.357643 0.965604 0.061711
O O7 0.487581 0.389001 0.485237
O O8 0.961742 0.206900 0.383409
O O9 0.751709 0.343700 0.214620
O O10 0.833598 0.655573 0.818755
O O11 0.628468 0.789026 0.947369
O O12 0.074424 0.453914 0.763505
O O13 0.265712 0.717108 0.328483
O O14 0.223094 0.091903 0.836992
O O15 0.882414 0.312750 0.689952
O O16 0.000000 0.500000 0.500000
#
# Coordination Sequence:
#
# PCOD9070459 Si02
#       8
#     2   1   2   2   2   2   2   2
#     4  12  26  48  75 113 156 201 255 318 383 459
#     4  12  30  48  72 108 160 200 254 316 390 458
#     4  12  28  52  74 117 152 203 254 317 389 466
#     4  12  27  49  78 113 156 200 260 317 387 464
#     4  12  26  49  80 113 153 200 259 317 385 458
#     4  12  27  49  76 112 155 205 260 319 386 459
#     4  12  24  48  76 115 156 199 261 318 386 456
#     4  12  26  49  82 112 156 202 256 322 384 460
#
# _framework density 25.291630000000001
#
# number of rings (size 3 to 8) (size 9 to 14) (size 15 to 20)
#    0.000    0.000    2.667    6.800    3.733    2.667 
#    0.000    0.000    0.000    0.000    0.000    0.000 
#    0.000    0.000    0.000    0.000    0.000    0.000 
#
# Total GULP energy -83957.604322 kJ/mol
# GULP energy per Si atom -5597.173621 kJ/mol
# Density = 2.523407 g / cm^3
# Si number density = 25.291630 Si / 1000 Ang^3
#
#
#
# Elastic Constant Matrix: (Units=GPa)
#
#
# Indices 1 2 3 4 5 6 
#
# 1 171.4960 -19.2280 85.9245 -8.2288 -0.6370 2.3242
# 2 -19.2280 173.6469 -69.1635 18.6771 10.9895 -44.6445
# 3 85.9245 -69.1635 300.1708 29.0520 3.0812 33.8982
# 4 -8.2288 18.6771 29.0520 43.3248 -8.0588 0.7365
# 5 -0.6370 10.9895 3.0812 -8.0588 41.3913 -4.9450
# 6 2.3242 -44.6445 33.8982 0.7365 -4.9450 58.2924
#
#
#
# Elastic Compliance Matrix: (Units=1/GPa)
#
#
# Indices 1 2 3 4 5 6 
#
# 1 0.007274 -0.000472 -0.002658 0.003583 0.001247 0.000955
# 2 -0.000472 0.008763 0.002166 -0.005973 -0.003026 0.005289
# 3 -0.002658 0.002166 0.005297 -0.005381 -0.002230 -0.001437
# 4 0.003583 -0.005973 -0.005381 0.031458 0.008010 -0.001306
# 5 0.001247 -0.003026 -0.002230 0.008010 0.026840 0.001105
# 6 0.000955 0.005289 -0.001437 -0.001306 0.001105 0.022114
#
#
# Mechanical properties :
#
#
# Convention : Reuss Voigt Hill
#
# Bulk Modulus (GPa) = 51.53249 71.15329 61.34289
# Shear Modulus (GPa) = 45.39565 71.78709 58.59137
#
# Velocity S-wave (km/s) = 4.24121 5.33342 4.81836
# Velocity P-wave (km/s) = 6.66358 8.13150 7.43386
#
# Compressibility (1/GPa) = 0.01940523
#
# Stress axis : x y z
#
# Youngs Moduli (GPa) = 137.48290 114.11461 188.76887
#
# Poissons Ratio (x) = 0.05390 0.50181
# Poissons Ratio (y) = 0.06494 -0.40890
# Poissons Ratio (z) = 0.36548 -0.24719
#
# Static dielectric constant tensor:
#      x y z
#    x -2.204900 -4.005630 3.865220 
#    y -4.005630 -1.926320 3.780310 
#    z 3.865220 3.780310 -1.653730 
# 
# From -- ./inp_files/389310.got.cif
#   From: 2010.05.17/outbox.cif.g08.bks.cpg/sg2_195_cif.got.tgz:389310.got - 2010.06.03 11:33:40.
