data_PCOD9070349
_publ_section_title
;
Structure prediction by ZEFSAII (Michael W. Deem and Ramdas Pophale) SiO2 
 PCOD9070349
Probable space group: P -1
;
_chemical_formula_sum "Si O2"
_cell_formula_units_Z 16
_cell_length_a 17.435992
_cell_length_b 11.974928
_cell_length_c 13.767117
_cell_angle_alpha 52.600748
_cell_angle_beta 33.772890
_cell_angle_gamma 29.684829
_cell_volume 719.271041
_symmetry_space_group_name_H-M "P -1"
_symmetry_group_IT_number 2
_symmetry_cell_setting 'triclinic'
loop_
_space_group_symop_operation_xyz
x,y,z
-x,-y,-z
loop_
_atom_site_type_symbol
_atom_site_label
_atom_site_fract_x
_atom_site_fract_y
_atom_site_fract_z
Si Si1 0.713323 0.757387 0.687611
Si Si2 0.274863 0.813970 0.806044
Si Si3 0.877941 0.452888 0.172164
Si Si4 0.470093 0.420684 0.662116
Si Si5 0.852815 0.883047 0.610196
Si Si6 0.276695 0.948387 0.125192
Si Si7 0.527026 0.074549 0.527093
Si Si8 0.624656 0.448331 0.796944
O O1 0.716785 0.868599 0.710648
O O2 0.000000 0.500000 0.500000
O O3 0.594203 0.922683 0.628759
O O4 0.541475 0.776546 0.897849
O O5 0.397514 0.584622 0.738156
O O6 0.279503 0.965248 0.675418
O O7 0.418910 0.695007 0.818559
O O8 0.000000 0.000000 0.000000
O O9 0.727719 0.525236 0.198391
O O10 0.701529 0.637064 0.351371
O O11 0.076793 0.170244 0.141581
O O12 0.000000 0.500000 0.000000
O O13 0.500000 0.500000 0.500000
O O14 0.716591 0.134195 0.579519
O O15 0.135896 0.654591 0.401306
O O16 0.804893 0.917225 0.757313
O O17 0.281181 0.778239 0.226191
O O18 0.500000 0.000000 0.500000
O O19 0.500000 0.500000 0.000000
#
# Coordination Sequence:
#
# PCOD9070349 Si02
#       8
#     2   2   2   2   2   2   2   2
#     4  12  28  48  73 106 151 197 241 302 371 441
#     4  12  30  49  74 110 147 195 247 302 372 442
#     4  12  25  46  75 106 145 193 244 298 363 432
#     4  12  24  47  76 103 144 191 248 304 358 432
#     4  12  25  49  74 107 145 193 249 305 363 438
#     4  12  26  47  76 108 144 192 249 299 367 436
#     4  12  29  50  72 109 151 194 242 301 375 442
#     4  12  29  46  75 109 151 192 240 306 375 436
#
# _framework density 22.244744000000001
#
# number of rings (size 3 to 8) (size 9 to 14) (size 15 to 20)
#    0.000    0.000    5.000    3.000   14.000    0.000 
#    0.000    0.000    0.000    0.000    0.000    0.000 
#    0.000    0.000    0.000    0.000    0.000    0.000 
#
# Total GULP energy -89491.655583 kJ/mol
# GULP energy per Si atom -5593.228474 kJ/mol
# Density = 2.219411 g / cm^3
# Si number density = 22.244744 Si / 1000 Ang^3
#
#
#
# Elastic Constant Matrix: (Units=GPa)
#
#
# Indices 1 2 3 4 5 6 
#
# 1 102.7879 -6.3416 14.3855 -1.8098 -6.2728 -1.0584
# 2 -6.3416 56.2223 -4.5813 7.8252 -12.7816 -15.0043
# 3 14.3855 -4.5813 108.3164 -4.5519 -20.7961 -9.8526
# 4 -1.8098 7.8252 -4.5519 42.5230 7.7983 -5.3932
# 5 -6.2728 -12.7816 -20.7961 7.7983 38.4278 -2.7621
# 6 -1.0584 -15.0043 -9.8526 -5.3932 -2.7621 47.0284
#
#
#
# Elastic Compliance Matrix: (Units=1/GPa)
#
#
# Indices 1 2 3 4 5 6 
#
# 1 0.010069 0.001692 -0.000862 -0.000227 0.001834 0.000667
# 2 0.001692 0.023950 0.003629 -0.005033 0.011843 0.008558
# 3 -0.000862 0.003629 0.011285 -0.000383 0.007531 0.003901
# 4 -0.000227 -0.005033 -0.000383 0.025801 -0.007093 0.000851
# 5 0.001834 0.011843 0.007531 -0.007093 0.036259 0.006714
# 6 0.000667 0.008558 0.003901 0.000851 0.006714 0.025318
#
#
# Mechanical properties :
#
#
# Convention : Reuss Voigt Hill
#
# Bulk Modulus (GPa) = 18.44329 30.47241 24.45785
# Shear Modulus (GPa) = 35.25140 43.18677 39.21909
#
# Velocity S-wave (km/s) = 3.98516 4.41095 4.20345
# Velocity P-wave (km/s) = 5.42995 6.29845 5.88026
#
# Compressibility (1/GPa) = 0.05422026
#
# Stress axis : x y z
#
# Youngs Moduli (GPa) = 99.31833 41.75398 88.61325
#
# Poissons Ratio (x) = -0.07065 0.07642
# Poissons Ratio (y) = -0.16804 -0.32157
# Poissons Ratio (z) = 0.08566 -0.15152
#
# Static dielectric constant tensor:
#      x y z
#    x 1.609480 -0.035510 0.065300 
#    y -0.035510 1.738970 -0.030890 
#    z 0.065300 -0.030890 1.730270 
# 
# From -- ./inp_files/186639.got.cif
#   From: 2010.05.17/outbox.cif.g08.bks.cpg/sg2_94_cif.got.tgz:186639.got - 2010.06.03 11:33:40.
