data_PCOD9070770
_publ_section_title
;
Structure prediction by ZEFSAII (Michael W. Deem and Ramdas Pophale) SiO2 
 PCOD9070770
Probable space group: P -1
;
_chemical_formula_sum "Si O2"
_cell_formula_units_Z 16
_cell_length_a 17.397689
_cell_length_b 6.664311
_cell_length_c 15.242278
_cell_angle_alpha 102.038997
_cell_angle_beta 23.812624
_cell_angle_gamma 102.826138
_cell_volume 695.648478
_symmetry_space_group_name_H-M "P -1"
_symmetry_group_IT_number 2
_symmetry_cell_setting 'triclinic'
loop_
_space_group_symop_operation_xyz
x,y,z
-x,-y,-z
loop_
_atom_site_type_symbol
_atom_site_label
_atom_site_fract_x
_atom_site_fract_y
_atom_site_fract_z
Si Si1 0.661269 0.618416 0.399520
Si Si2 0.146267 0.002918 0.183340
Si Si3 0.800433 0.593927 0.729215
Si Si4 0.590892 0.189781 0.980439
Si Si5 0.441637 0.012530 0.721232
Si Si6 0.220630 0.265245 0.432249
Si Si7 0.218447 0.647682 0.585268
Si Si8 0.884421 0.834601 0.045080
O O1 0.500000 0.500000 0.500000
O O2 0.730201 0.488566 0.396687
O O3 0.827763 0.659411 0.158628
O O4 0.569220 0.826502 0.545900
O O5 0.182897 0.240425 0.194747
O O6 0.279672 0.959071 0.958431
O O7 0.926965 0.915907 0.395073
O O8 0.218684 0.875661 0.178689
O O9 0.772972 0.711250 0.677413
O O10 0.000000 0.500000 0.500000
O O11 0.647615 0.402220 0.890460
O O12 0.438592 0.223223 0.219405
O O13 0.500000 0.000000 0.000000
O O14 0.595701 0.194969 0.608607
O O15 0.310536 0.087612 0.784628
O O16 0.177660 0.484103 0.535842
O O17 0.029493 0.763262 0.813918
O O18 0.000000 0.000000 0.000000
#
# Coordination Sequence:
#
# PCOD9070770 Si02
#       8
#     2   2   2   2   2   2   2   2
#     4  12  25  50  78 101 146 189 238 294 363 432
#     4  12  28  47  71 106 146 187 240 297 351 421
#     4  12  25  48  74 100 146 192 236 295 355 417
#     4  12  25  46  73 101 138 191 242 287 353 421
#     4  12  28  48  71 110 150 185 237 304 355 425
#     4  12  27  46  73 107 143 188 242 291 357 422
#     4  12  28  47  72 111 146 187 240 298 359 430
#     4  12  26  48  78 105 143 191 237 291 366 432
#
# _framework density 23.000122000000001
#
# number of rings (size 3 to 8) (size 9 to 14) (size 15 to 20)
#    0.000    0.000    5.000    4.500    7.000    2.000 
#    0.000    0.000    0.000    0.000    0.000    0.000 
#    0.000    0.000    0.000    0.000    0.000    0.000 
#
# Total GULP energy -89541.683682 kJ/mol
# GULP energy per Si atom -5596.355230 kJ/mol
# Density = 2.294777 g / cm^3
# Si number density = 23.000122 Si / 1000 Ang^3
#
#
#
# Elastic Constant Matrix: (Units=GPa)
#
#
# Indices 1 2 3 4 5 6 
#
# 1 42.6314 6.9940 -0.6797 -2.7309 2.5795 -3.0291
# 2 6.9940 104.5786 37.2806 -16.7140 2.9765 17.7416
# 3 -0.6797 37.2806 129.3498 -18.6023 0.8377 7.1373
# 4 -2.7309 -16.7140 -18.6023 59.6654 -5.2192 -0.3796
# 5 2.5795 2.9765 0.8377 -5.2192 34.9919 8.4018
# 6 -3.0291 17.7416 7.1373 -0.3796 8.4018 45.9434
#
#
#
# Elastic Compliance Matrix: (Units=1/GPa)
#
#
# Indices 1 2 3 4 5 6 
#
# 1 0.024187 -0.002181 0.000697 0.000539 -0.002190 0.002734
# 2 -0.002181 0.011820 -0.002843 0.002351 0.000621 -0.004361
# 3 0.000697 -0.002843 0.008859 0.002026 0.000348 -0.000279
# 4 0.000539 0.002351 0.002026 0.018311 0.002815 -0.001551
# 5 -0.002190 0.000621 0.000348 0.002815 0.030539 -0.006000
# 6 0.002734 -0.004361 -0.000279 -0.001551 -0.006000 0.024758
#
#
# Mechanical properties :
#
#
# Convention : Reuss Voigt Hill
#
# Bulk Modulus (GPa) = 27.61705 40.41662 34.01684
# Shear Modulus (GPa) = 35.91980 43.65113 39.78547
#
# Velocity S-wave (km/s) = 3.95615 4.36118 4.16359
# Velocity P-wave (km/s) = 5.73599 6.55517 6.15922
#
# Compressibility (1/GPa) = 0.03620952
#
# Stress axis : x y z
#
# Youngs Moduli (GPa) = 41.34427 84.60586 112.88431
#
# Poissons Ratio (x) = 0.18454 -0.07864
# Poissons Ratio (y) = 0.09018 0.32096
# Poissons Ratio (z) = -0.02880 0.24056
#
# Static dielectric constant tensor:
#      x y z
#    x 2.052500 -0.093570 -0.071670 
#    y -0.093570 1.866620 0.066090 
#    z -0.071670 0.066090 1.862350 
# 
# From -- ./inp_files/51804.got.cif
#   From: 2010.05.17/outbox.cif.g08.bks.cpg/sg2_26_cif.got.tgz:51804.got - 2010.06.03 11:33:40.
