data_PCOD9070511
_publ_section_title
;
Structure prediction by ZEFSAII (Michael W. Deem and Ramdas Pophale) SiO2 
 PCOD9070511
Probable space group: P -1
;
_chemical_formula_sum "Si O2"
_cell_formula_units_Z 16
_cell_length_a 15.661989
_cell_length_b 9.471869
_cell_length_c 12.329512
_cell_angle_alpha 61.448511
_cell_angle_beta 134.656377
_cell_angle_gamma 144.554308
_cell_volume 734.408598
_symmetry_space_group_name_H-M "P -1"
_symmetry_group_IT_number 2
_symmetry_cell_setting 'triclinic'
loop_
_space_group_symop_operation_xyz
x,y,z
-x,-y,-z
loop_
_atom_site_type_symbol
_atom_site_label
_atom_site_fract_x
_atom_site_fract_y
_atom_site_fract_z
Si Si1 0.707283 0.150308 0.147818
Si Si2 0.727133 0.847232 0.594203
Si Si3 0.589553 0.695835 0.289972
Si Si4 0.022962 0.483473 0.902987
Si Si5 0.169263 0.278767 0.096307
Si Si6 0.621952 0.970289 0.654863
Si Si7 0.910287 0.569912 0.342904
Si Si8 0.580341 0.456156 0.185620
O O1 0.832563 0.243760 0.120954
O O2 0.819872 0.404171 0.215557
O O3 0.682298 0.963545 0.260451
O O4 0.500000 0.000000 0.000000
O O5 0.614911 0.693542 0.441192
O O6 0.794413 0.751279 0.741430
O O7 0.633558 0.858132 0.603913
O O8 0.915545 0.135995 0.627503
O O9 0.369127 0.469328 0.146248
O O10 0.670506 0.658479 0.286859
O O11 0.824745 0.255082 0.752889
O O12 0.119269 0.410368 0.008866
O O13 0.000000 0.500000 0.000000
O O14 0.000000 0.000000 0.000000
O O15 0.500000 0.000000 0.500000
O O16 0.557630 0.803408 0.767733
O O17 0.740291 0.497983 0.269976
O O18 0.000000 0.500000 0.500000
O O19 0.500000 0.500000 0.000000
#
# Coordination Sequence:
#
# PCOD9070511 Si02
#       8
#     2   2   2   2   2   2   2   2
#     4  12  25  47  75 104 153 199 255 311 391 462
#     4  12  26  48  81 105 153 202 256 315 389 460
#     4  12  27  47  77 114 148 202 253 319 388 464
#     4  12  29  45  75 114 147 197 260 319 375 459
#     4  12  24  49  75 107 150 197 252 310 384 455
#     4  12  28  49  78 112 157 204 258 321 392 462
#     4  12  26  50  75 108 153 204 249 319 391 459
#     4  12  30  48  79 116 159 201 264 322 391 467
#
# _framework density 21.786237
#
# number of rings (size 3 to 8) (size 9 to 14) (size 15 to 20)
#    0.000    0.000    6.250    1.875    8.750    0.500 
#    0.000    0.000    0.000    0.000    0.000    0.000 
#    0.000    0.000    0.000    0.000    0.000    0.000 
#
# Total GULP energy -89277.530330 kJ/mol
# GULP energy per Si atom -5579.845646 kJ/mol
# Density = 2.173665 g / cm^3
# Si number density = 21.786237 Si / 1000 Ang^3
#
#
#
# Elastic Constant Matrix: (Units=GPa)
#
#
# Indices 1 2 3 4 5 6 
#
# 1 126.0639 21.4120 59.6216 -7.7002 -6.6925 11.5379
# 2 21.4120 97.8515 47.7341 -6.5036 1.3988 20.6288
# 3 59.6216 47.7341 150.1055 -16.8184 -3.6586 5.1091
# 4 -7.7002 -6.5036 -16.8184 49.7050 -7.6954 -2.1055
# 5 -6.6925 1.3988 -3.6586 -7.6954 41.6607 0.7369
# 6 11.5379 20.6288 5.1091 -2.1055 0.7369 37.0579
#
#
#
# Elastic Compliance Matrix: (Units=1/GPa)
#
#
# Indices 1 2 3 4 5 6 
#
# 1 0.010092 0.000301 -0.003935 0.000368 0.001383 -0.002774
# 2 0.000301 0.013750 -0.004265 -0.000003 -0.000662 -0.007147
# 3 -0.003935 -0.004265 0.009784 0.002362 0.000765 0.002369
# 4 0.000368 -0.000003 0.002362 0.021663 0.004256 0.000708
# 5 0.001383 -0.000662 0.000765 0.004256 0.025109 -0.000425
# 6 -0.002774 -0.007147 0.002369 0.000708 -0.000425 0.031549
#
#
# Mechanical properties :
#
#
# Convention : Reuss Voigt Hill
#
# Bulk Modulus (GPa) = 56.09363 70.17291 63.13327
# Shear Modulus (GPa) = 37.40041 42.03494 39.71767
#
# Velocity S-wave (km/s) = 4.14780 4.39729 4.27437
# Velocity P-wave (km/s) = 6.98156 7.61979 7.30765
#
# Compressibility (1/GPa) = 0.01782734
#
# Stress axis : x y z
#
# Youngs Moduli (GPa) = 99.08715 72.72492 102.20942
#
# Poissons Ratio (x) = -0.02186 0.40217
# Poissons Ratio (y) = -0.02978 0.43595
# Poissons Ratio (z) = 0.38989 0.31019
#
# Static dielectric constant tensor:
#      x y z
#    x 1.752150 0.025930 0.051910 
#    y 0.025930 1.829830 -0.022790 
#    z 0.051910 -0.022790 1.770970 
# 
# From -- ./inp_files/447230.got.cif
#   From: 2010.05.17/outbox.cif.g08.bks.cpg/sg2_224_cif.got.tgz:447230.got - 2010.06.03 11:33:40.
