data_PCOD9070168
_publ_section_title
;
Structure prediction by ZEFSAII (Michael W. Deem and Ramdas Pophale) SiO2 
 PCOD9070168
Probable space group: P -1
;
_chemical_formula_sum "Si O2"
_cell_formula_units_Z 12
_cell_length_a 9.763815
_cell_length_b 19.804460
_cell_length_c 6.730183
_cell_angle_alpha 37.366002
_cell_angle_beta 52.995139
_cell_angle_gamma 42.614809
_cell_volume 534.305007
_symmetry_space_group_name_H-M "P -1"
_symmetry_group_IT_number 2
_symmetry_cell_setting 'triclinic'
loop_
_space_group_symop_operation_xyz
x,y,z
-x,-y,-z
loop_
_atom_site_type_symbol
_atom_site_label
_atom_site_fract_x
_atom_site_fract_y
_atom_site_fract_z
Si Si1 0.288755 0.060771 0.166680
Si Si2 0.211616 0.472515 0.802913
Si Si3 0.132975 0.743846 0.103322
Si Si4 0.620076 0.752799 0.137915
Si Si5 0.514062 0.606339 0.870168
Si Si6 0.787715 0.096014 0.065400
O O1 0.272014 0.171507 0.072155
O O2 0.094765 0.138911 0.011211
O O3 0.262986 0.961675 0.560901
O O4 0.500000 0.000000 0.000000
O O5 0.162263 0.601932 0.424779
O O6 0.300845 0.342744 0.895722
O O7 0.366403 0.450580 0.895231
O O8 0.000000 0.500000 0.000000
O O9 0.208581 0.778445 0.155153
O O10 0.286768 0.725056 0.838581
O O11 0.628096 0.663871 0.519284
O O12 0.389715 0.862436 0.032804
O O13 0.500000 0.500000 0.000000
O O14 0.000000 0.000000 0.000000
#
# Coordination Sequence:
#
# PCOD9070168 Si02
#       6
#     2   2   2   2   2   2
#     4  12  28  47  74 105 145 195 243 294 358 427
#     4  12  28  44  73 111 143 186 234 300 370 421
#     4  12  25  47  74 104 144 183 243 298 355 433
#     4  12  26  47  74 104 148 183 238 301 359 430
#     4  12  24  46  72 108 144 183 235 292 365 430
#     4  12  26  47  73 104 143 193 246 295 352 426
#
# _framework density 22.459081999999999
#
# number of rings (size 3 to 8) (size 9 to 14) (size 15 to 20)
#    0.000    0.000    3.333    6.500    7.000    1.333 
#    0.000    0.000    0.000    0.000    0.000    0.000 
#    0.000    0.000    0.000    0.000    0.000    0.000 
#
# Total GULP energy -67186.613585 kJ/mol
# GULP energy per Si atom -5598.884465 kJ/mol
# Density = 2.240796 g / cm^3
# Si number density = 22.459082 Si / 1000 Ang^3
#
#
#
# Elastic Constant Matrix: (Units=GPa)
#
#
# Indices 1 2 3 4 5 6 
#
# 1 61.8450 8.6226 8.0989 0.2359 -7.8257 8.0070
# 2 8.6226 119.3125 14.2693 15.5720 -15.0339 -1.4290
# 3 8.0989 14.2693 73.0277 -2.3481 -0.2353 -6.0430
# 4 0.2359 15.5720 -2.3481 30.0503 1.2608 -7.8980
# 5 -7.8257 -15.0339 -0.2353 1.2608 36.7254 -8.1772
# 6 8.0070 -1.4290 -6.0430 -7.8980 -8.1772 50.9885
#
#
#
# Elastic Compliance Matrix: (Units=1/GPa)
#
#
# Indices 1 2 3 4 5 6 
#
# 1 0.017221 -0.000565 -0.002034 -0.000812 0.002868 -0.002627
# 2 -0.000565 0.009895 -0.002039 -0.005472 0.004090 -0.000067
# 3 -0.002034 -0.002039 0.014598 0.002853 -0.000757 0.002313
# 4 -0.000812 -0.005472 0.002853 0.037969 -0.002405 0.005808
# 5 0.002868 0.004090 -0.000757 -0.002405 0.030504 0.004094
# 6 -0.002627 -0.000067 0.002313 0.005808 0.004094 0.021853
#
#
# Mechanical properties :
#
#
# Convention : Reuss Voigt Hill
#
# Bulk Modulus (GPa) = 30.82854 35.12964 32.97909
# Shear Modulus (GPa) = 32.86699 38.43247 35.64973
#
# Velocity S-wave (km/s) = 3.82961 4.14118 3.98844
# Velocity P-wave (km/s) = 5.77156 6.20817 5.99384
#
# Compressibility (1/GPa) = 0.03243748
#
# Stress axis : x y z
#
# Youngs Moduli (GPa) = 58.06965 101.06409 68.50237
#
# Poissons Ratio (x) = 0.05715 0.13930
# Poissons Ratio (y) = 0.03284 0.13968
# Poissons Ratio (z) = 0.11809 0.20607
#
# Static dielectric constant tensor:
#      x y z
#    x 1.793580 -0.002210 -0.029190 
#    y -0.002210 1.865420 -0.004870 
#    z -0.029190 -0.004870 1.863160 
# 
# From -- ./inp_files/42998.got.cif
#   From: 2010.05.17/outbox.cif.g08.bks.cpg/sg2_22_cif.got.tgz:42998.got - 2010.06.03 11:33:40.
