data_PCOD9070947
_publ_section_title
;
Structure prediction by ZEFSAII (Michael W. Deem and Ramdas Pophale) SiO2 
 PCOD9070947
Probable space group: P -1
;
_chemical_formula_sum "Si O2"
_cell_formula_units_Z 16
_cell_length_a 11.984708
_cell_length_b 18.765144
_cell_length_c 15.925207
_cell_angle_alpha 153.978015
_cell_angle_beta 42.842673
_cell_angle_gamma 152.113224
_cell_volume 701.641367
_symmetry_space_group_name_H-M "P -1"
_symmetry_group_IT_number 2
_symmetry_cell_setting 'triclinic'
loop_
_space_group_symop_operation_xyz
x,y,z
-x,-y,-z
loop_
_atom_site_type_symbol
_atom_site_label
_atom_site_fract_x
_atom_site_fract_y
_atom_site_fract_z
Si Si1 0.897475 0.868607 0.827688
Si Si2 0.986986 0.416436 0.512294
Si Si3 0.581852 0.973322 0.539185
Si Si4 0.828466 0.504106 0.980603
Si Si5 0.383366 0.270430 0.878499
Si Si6 0.223774 0.729830 0.875047
Si Si7 0.022661 0.858996 0.393463
Si Si8 0.610408 0.470272 0.335356
O O1 0.626995 0.739057 0.816012
O O2 0.886893 0.664845 0.627768
O O3 0.102369 0.070752 0.857646
O O4 0.000000 0.000000 0.000000
O O5 0.697084 0.184868 0.452117
O O6 0.000000 0.500000 0.500000
O O7 0.108447 0.622641 0.733334
O O8 0.594305 0.879225 0.347057
O O9 0.755393 0.261516 0.752478
O O10 0.699721 0.949474 0.521222
O O11 0.570517 0.401131 0.992641
O O12 0.036261 0.696340 0.999046
O O13 0.939147 0.643060 0.154638
O O14 0.500000 0.500000 0.000000
O O15 0.265296 0.592709 0.757023
O O16 0.500000 0.000000 0.000000
O O17 0.828910 0.723020 0.432508
O O18 0.000000 0.000000 0.500000
O O19 0.500000 0.500000 0.500000
#
# Coordination Sequence:
#
# PCOD9070947 Si02
#       8
#     2   2   2   2   2   2   2   2
#     4  12  28  45  73 108 154 192 240 306 370 440
#     4  12  29  49  76 109 147 195 250 311 373 442
#     4  12  25  48  77 101 145 194 253 302 361 437
#     4  12  25  48  74 106 146 193 252 302 363 436
#     4  12  26  46  74 106 143 193 246 300 367 438
#     4  12  29  48  76 109 146 197 249 308 373 446
#     4  12  29  46  73 112 152 196 246 308 369 441
#     4  12  27  48  73 104 155 199 243 298 381 440
#
# _framework density 22.803671999999999
#
# number of rings (size 3 to 8) (size 9 to 14) (size 15 to 20)
#    0.000    0.000    5.000    3.750   10.500    0.000 
#    0.000    0.000    0.000    0.000    0.000    0.000 
#    0.000    0.000    0.000    0.000    0.000    0.000 
#
# Total GULP energy -89606.689623 kJ/mol
# GULP energy per Si atom -5600.418101 kJ/mol
# Density = 2.275177 g / cm^3
# Si number density = 22.803672 Si / 1000 Ang^3
#
#
#
# Elastic Constant Matrix: (Units=GPa)
#
#
# Indices 1 2 3 4 5 6 
#
# 1 114.8569 12.3848 -0.6810 9.9545 16.6790 -5.3001
# 2 12.3848 90.1601 21.8463 10.9181 -4.1639 -13.1286
# 3 -0.6810 21.8463 70.2829 -4.3769 17.6389 -10.7915
# 4 9.9545 10.9181 -4.3769 34.9282 -7.6720 3.0237
# 5 16.6790 -4.1639 17.6389 -7.6720 48.3699 10.0858
# 6 -5.3001 -13.1286 -10.7915 3.0237 10.0858 43.7990
#
#
#
# Elastic Compliance Matrix: (Units=1/GPa)
#
#
# Indices 1 2 3 4 5 6 
#
# 1 0.010118 -0.001290 0.002108 -0.003687 -0.005556 0.002891
# 2 -0.001290 0.013334 -0.004545 -0.004135 0.002066 0.002531
# 3 0.002108 -0.004545 0.018826 0.000714 -0.009029 0.005561
# 4 -0.003687 -0.004135 0.000714 0.033076 0.007029 -0.005412
# 5 -0.005556 0.002066 -0.009029 0.007029 0.029151 -0.009476
# 6 0.002891 0.002531 0.005561 -0.005412 -0.009476 0.027866
#
#
# Mechanical properties :
#
#
# Convention : Reuss Voigt Hill
#
# Bulk Modulus (GPa) = 28.71556 38.04446 33.38001
# Shear Modulus (GPa) = 33.01796 41.53608 37.27702
#
# Velocity S-wave (km/s) = 3.80929 4.27249 4.04752
# Velocity P-wave (km/s) = 5.65397 6.40770 6.04260
#
# Compressibility (1/GPa) = 0.03482432
#
# Stress axis : x y z
#
# Youngs Moduli (GPa) = 98.83551 74.99346 53.11862
#
# Poissons Ratio (x) = 0.09672 -0.11195
# Poissons Ratio (y) = 0.12746 0.24142
# Poissons Ratio (z) = -0.20831 0.34083
#
# Static dielectric constant tensor:
#      x y z
#    x 2.784440 0.265580 -0.130420 
#    y 0.265580 1.920560 -0.028450 
#    z -0.130420 -0.028450 1.879020 
# 
# From -- ./inp_files/207407.got.cif
#   From: 2010.05.17/outbox.cif.g08.bks.cpg/sg2_104_cif.got.tgz:207407.got - 2010.06.03 11:33:40.
