data_PCOD9070050
_publ_section_title
;
Structure prediction by ZEFSAII (Michael W. Deem and Ramdas Pophale) SiO2 
 PCOD9070050
Probable space group: P -1
;
_chemical_formula_sum "Si O2"
_cell_formula_units_Z 8
_cell_length_a 5.510843
_cell_length_b 5.624623
_cell_length_c 11.587662
_cell_angle_alpha 93.810328
_cell_angle_beta 58.668366
_cell_angle_gamma 78.683472
_cell_volume 294.683282
_symmetry_space_group_name_H-M "P -1"
_symmetry_group_IT_number 2
_symmetry_cell_setting 'triclinic'
loop_
_space_group_symop_operation_xyz
x,y,z
-x,-y,-z
loop_
_atom_site_type_symbol
_atom_site_label
_atom_site_fract_x
_atom_site_fract_y
_atom_site_fract_z
Si Si1 0.844663 0.404068 0.882411
Si Si2 0.133281 0.837120 0.807600
Si Si3 0.266617 0.485105 0.344998
Si Si4 0.740396 0.135198 0.482467
O O1 0.850204 0.387903 0.741009
O O2 0.995770 0.623206 0.884568
O O3 0.500000 0.500000 0.000000
O O4 0.980016 0.123378 0.884229
O O5 0.482667 0.767357 0.748185
O O6 0.116451 0.814391 0.671249
O O7 0.438163 0.638610 0.386710
O O8 0.000000 0.500000 0.500000
O O9 0.500000 0.000000 0.500000
O O10 0.000000 0.000000 0.500000
#
# Coordination Sequence:
#
# PCOD9070050 Si02
#       4
#     2   2   2   2
#     4  12  29  51  76 112 159 212 269 324 398 483
#     4  12  27  47  79 112 159 206 267 330 401 476
#     4  12  26  47  80 118 160 204 266 337 407 479
#     4  12  24  44  79 121 161 202 264 338 412 476
#
# _framework density 27.147791000000002
#
# number of rings (size 3 to 8) (size 9 to 14) (size 15 to 20)
#    0.000    0.000    5.000    4.500    0.000    4.000 
#    0.000    0.000    0.000    0.000    0.000    0.000 
#    0.000    0.000    0.000    0.000    0.000    0.000 
#
# Total GULP energy -44846.411821 kJ/mol
# GULP energy per Si atom -5605.801478 kJ/mol
# Density = 2.708600 g / cm^3
# Si number density = 27.147791 Si / 1000 Ang^3
#
#
#
# Elastic Constant Matrix: (Units=GPa)
#
#
# Indices 1 2 3 4 5 6 
#
# 1 141.0142 76.8262 49.1126 2.4775 -27.0301 -9.9119
# 2 76.8262 243.0892 72.2607 15.5346 -33.6495 -14.2004
# 3 49.1126 72.2607 127.0141 -2.5306 -19.9277 5.4436
# 4 2.4775 15.5346 -2.5306 54.6322 -4.5544 -5.4595
# 5 -27.0301 -33.6495 -19.9277 -4.5544 69.1003 9.6359
# 6 -9.9119 -14.2004 5.4436 -5.4595 9.6359 61.8689
#
#
#
# Elastic Compliance Matrix: (Units=1/GPa)
#
#
# Indices 1 2 3 4 5 6 
#
# 1 0.009391 -0.002001 -0.002223 0.000298 0.001943 0.000965
# 2 -0.002001 0.005759 -0.002398 -0.001475 0.001106 0.000910
# 3 -0.002223 -0.002398 0.010409 0.001182 0.001310 -0.001922
# 4 0.000298 -0.001475 0.001182 0.018949 0.000828 0.001148
# 5 0.001943 0.001106 0.001310 0.000828 0.016488 -0.002045
# 6 0.000965 0.000910 -0.001922 0.001148 -0.002045 0.017116
#
#
# Mechanical properties :
#
#
# Convention : Reuss Voigt Hill
#
# Bulk Modulus (GPa) = 81.20275 100.83516 91.01896
# Shear Modulus (GPa) = 52.37795 57.98148 55.17972
#
# Velocity S-wave (km/s) = 4.39722 4.62645 4.51329
# Velocity P-wave (km/s) = 7.46706 8.10941 7.79485
#
# Compressibility (1/GPa) = 0.01231485
#
# Stress axis : x y z
#
# Youngs Moduli (GPa) = 106.48585 173.63105 96.07506
#
# Poissons Ratio (x) = 0.34739 0.21362
# Poissons Ratio (y) = 0.21305 0.23037
# Poissons Ratio (z) = 0.23677 0.41633
#
# Static dielectric constant tensor:
#      x y z
#    x 2.153420 0.145760 -0.019870 
#    y 0.145760 2.534330 0.021030 
#    z -0.019870 0.021030 2.144440 
# 
# From -- ./inp_files/1822.got.cif
#   From: 2010.05.17/outbox.cif.g08.bks.cpg/sg2_1_cif.got.tgz:1822.got - 2010.06.03 11:33:40.
