data_PCOD9070153
_publ_section_title
;
Structure prediction by ZEFSAII (Michael W. Deem and Ramdas Pophale) SiO2 
 PCOD9070153
Probable space group: P -1
;
_chemical_formula_sum "Si O2"
_cell_formula_units_Z 15
_cell_length_a 9.064178
_cell_length_b 18.538643
_cell_length_c 9.459338
_cell_angle_alpha 125.791977
_cell_angle_beta 147.901238
_cell_angle_gamma 49.007318
_cell_volume 635.843271
_symmetry_space_group_name_H-M "P -1"
_symmetry_group_IT_number 2
_symmetry_cell_setting 'triclinic'
loop_
_space_group_symop_operation_xyz
x,y,z
-x,-y,-z
loop_
_atom_site_type_symbol
_atom_site_label
_atom_site_fract_x
_atom_site_fract_y
_atom_site_fract_z
Si Si1 0.294738 0.826232 0.859161
Si Si2 0.874400 0.181124 0.767363
Si Si3 0.633284 0.950301 0.401126
Si Si4 0.256922 0.718134 0.962550
Si Si5 0.197838 0.488600 0.286514
Si Si6 0.000000 0.000000 0.500000
Si Si7 0.346204 0.271949 0.237998
Si Si8 0.114005 0.403371 0.571880
O O1 0.450086 0.786578 0.792509
O O2 0.939973 0.863446 0.592854
O O3 0.399920 0.910012 0.094527
O O4 0.383832 0.742174 0.948684
O O5 0.854731 0.184065 0.924088
O O6 0.067744 0.084905 0.732826
O O7 0.548921 0.222165 0.479351
O O8 0.038218 0.255527 0.960046
O O9 0.500000 0.000000 0.500000
O O10 0.758071 0.003476 0.442658
O O11 0.529611 0.640781 0.178382
O O12 0.010693 0.673564 0.680581
O O13 0.500000 0.500000 0.500000
O O14 0.280210 0.383392 0.299366
O O15 0.024046 0.566763 0.350853
O O16 0.000000 0.500000 0.000000
O O17 0.000000 0.500000 0.500000
#
# Coordination Sequence:
#
# PCOD9070153 Si02
#       8
#     2   2   2   2   2   1   2   2
#     4  12  24  48  69 104 140 190 241 300 377 441
#     4  12  26  45  71 102 139 191 240 304 367 440
#     4  12  27  47  74 108 146 190 249 316 376 447
#     4  12  26  45  72 103 144 196 240 303 379 442
#     4  12  25  43  71 106 139 187 238 293 357 440
#     4  12  26  50  74 110 146 194 260 310 384 440
#     4  12  24  46  69 102 144 185 238 297 367 432
#     4  12  25  46  69 106 148 190 243 303 368 451
#
# _framework density 23.590717999999999
#
# number of rings (size 3 to 8) (size 9 to 14) (size 15 to 20)
#    0.000    0.000    2.667    8.000    0.000    3.200 
#    0.000    0.000    0.000    0.000    0.000    0.000 
#    0.000    0.000    0.000    0.000    0.000    0.000 
#
# Total GULP energy -83774.083695 kJ/mol
# GULP energy per Si atom -5584.938913 kJ/mol
# Density = 2.353702 g / cm^3
# Si number density = 23.590718 Si / 1000 Ang^3
#
#
#
# Elastic Constant Matrix: (Units=GPa)
#
#
# Indices 1 2 3 4 5 6 
#
# 1 126.6349 15.0115 37.4787 14.2141 -10.7947 -26.7101
# 2 15.0115 47.3228 34.4242 12.4545 -3.9324 -15.1533
# 3 37.4787 34.4242 114.0458 12.5579 -12.2155 -13.7868
# 4 14.2141 12.4545 12.5579 44.9235 -6.3825 -3.6365
# 5 -10.7947 -3.9324 -12.2155 -6.3825 44.6878 14.2710
# 6 -26.7101 -15.1533 -13.7868 -3.6365 14.2710 59.6947
#
#
#
# Elastic Compliance Matrix: (Units=1/GPa)
#
#
# Indices 1 2 3 4 5 6 
#
# 1 0.009644 0.000641 -0.002660 -0.002162 0.000171 0.003691
# 2 0.000641 0.030302 -0.008169 -0.006138 -0.002289 0.006266
# 3 -0.002660 -0.008169 0.012242 -0.000070 0.002291 -0.000988
# 4 -0.002162 -0.006138 -0.000070 0.024956 0.003041 -0.001749
# 5 0.000171 -0.002289 0.002291 0.003041 0.025129 -0.005798
# 6 0.003691 0.006266 -0.000988 -0.001749 -0.005798 0.021045
#
#
# Mechanical properties :
#
#
# Convention : Reuss Voigt Hill
#
# Bulk Modulus (GPa) = 31.43505 51.31469 41.37487
# Shear Modulus (GPa) = 32.40468 43.26713 37.83591
#
# Velocity S-wave (km/s) = 3.71026 4.28726 4.00915
# Velocity P-wave (km/s) = 5.63106 6.80490 6.24562
#
# Compressibility (1/GPa) = 0.03181162
#
# Stress axis : x y z
#
# Youngs Moduli (GPa) = 103.69369 33.00095 81.68608
#
# Poissons Ratio (x) = -0.02116 0.21729
# Poissons Ratio (y) = -0.06647 0.66730
# Poissons Ratio (z) = 0.27584 0.26959
#
# Static dielectric constant tensor:
#      x y z
#    x 1.933290 -0.013020 -0.032880 
#    y -0.013020 1.910240 -0.001360 
#    z -0.032880 -0.001360 1.853830 
# 
# From -- ./inp_files/137266.got.cif
#   From: 2010.05.17/outbox.cif.g08.bks.cpg/sg2_69_cif.got.tgz:137266.got - 2010.06.03 11:33:40.
