data_PCOD9070645
_publ_section_title
;
Structure prediction by ZEFSAII (Michael W. Deem and Ramdas Pophale) SiO2 
 PCOD9070645
Probable space group: P -1
;
_chemical_formula_sum "Si O2"
_cell_formula_units_Z 16
_cell_length_a 8.898120
_cell_length_b 13.354637
_cell_length_c 8.122873
_cell_angle_alpha 118.981323
_cell_angle_beta 79.060767
_cell_angle_gamma 61.498008
_cell_volume 620.891055
_symmetry_space_group_name_H-M "P -1"
_symmetry_group_IT_number 2
_symmetry_cell_setting 'triclinic'
loop_
_space_group_symop_operation_xyz
x,y,z
-x,-y,-z
loop_
_atom_site_type_symbol
_atom_site_label
_atom_site_fract_x
_atom_site_fract_y
_atom_site_fract_z
Si Si1 0.183769 0.183084 0.938304
Si Si2 0.023016 0.366156 0.807479
Si Si3 0.640667 0.906298 0.684876
Si Si4 0.534310 0.605606 0.493466
Si Si5 0.217955 0.903296 0.277145
Si Si6 0.225195 0.337175 0.291665
Si Si7 0.587629 0.578936 0.085341
Si Si8 0.134521 0.830006 0.888700
O O1 0.078507 0.241338 0.828985
O O2 0.406962 0.014266 0.757242
O O3 0.220392 0.296585 0.072959
O O4 0.006781 0.212109 0.107321
O O5 0.216118 0.258057 0.565616
O O6 0.802281 0.462270 0.850016
O O7 0.000000 0.500000 0.000000
O O8 0.679324 0.833070 0.798268
O O9 0.730193 0.990180 0.703772
O O10 0.500000 0.500000 0.500000
O O11 0.633397 0.638777 0.634829
O O12 0.634668 0.558429 0.256237
O O13 0.299001 0.753869 0.648540
O O14 0.415698 0.758110 0.220735
O O15 0.211842 0.826314 0.052686
O O16 0.000000 0.000000 0.500000
O O17 0.000000 0.500000 0.500000
O O18 0.500000 0.500000 0.000000
O O19 0.000000 0.000000 0.000000
#
# Coordination Sequence:
#
# PCOD9070645 Si02
#       8
#     2   2   2   2   2   2   2   2
#     4  12  25  46  71 104 144 189 245 306 374 451
#     4  12  26  45  70 102 139 188 244 303 374 447
#     4  12  26  46  71 103 146 195 245 312 380 451
#     4  12  26  46  71 103 142 190 244 307 373 444
#     4  12  26  46  74 110 150 197 249 309 380 455
#     4  12  26  46  72 105 146 195 249 308 380 460
#     4  12  26  47  72 105 147 191 247 309 373 452
#     4  12  25  44  71 104 141 187 240 298 366 446
#
# _framework density 25.769414000000001
#
# number of rings (size 3 to 8) (size 9 to 14) (size 15 to 20)
#    0.000    0.000    0.000   11.250    0.000    7.000 
#    0.000    0.000    0.000    0.000    0.000    0.000 
#    0.000    0.000    0.000    0.000    0.000    0.000 
#
# Total GULP energy -89384.969119 kJ/mol
# GULP energy per Si atom -5586.560570 kJ/mol
# Density = 2.571076 g / cm^3
# Si number density = 25.769414 Si / 1000 Ang^3
#
#
#
# Elastic Constant Matrix: (Units=GPa)
#
#
# Indices 1 2 3 4 5 6 
#
# 1 151.6074 26.7890 17.7801 8.8618 0.2697 10.1535
# 2 26.7890 138.1449 7.5479 23.9963 -10.4984 -5.5017
# 3 17.7801 7.5479 99.8238 24.7006 -16.9839 -12.3797
# 4 8.8618 23.9963 24.7006 50.8072 -10.1009 -5.4701
# 5 0.2697 -10.4984 -16.9839 -10.1009 53.7851 12.2494
# 6 10.1535 -5.5017 -12.3797 -5.4701 12.2494 36.6722
#
#
#
# Elastic Compliance Matrix: (Units=1/GPa)
#
#
# Indices 1 2 3 4 5 6 
#
# 1 0.007210 -0.001405 -0.001497 -0.000196 -0.000212 -0.002671
# 2 -0.001405 0.008230 0.000845 -0.003755 0.000939 0.001035
# 3 -0.001497 0.000845 0.012326 -0.005327 0.002353 0.003122
# 4 -0.000196 -0.003755 -0.005327 0.024558 0.002045 0.000673
# 5 -0.000212 0.000939 0.002353 0.002045 0.021223 -0.005790
# 6 -0.002671 0.001035 0.003122 0.000673 -0.005790 0.031252
#
#
# Mechanical properties :
#
#
# Convention : Reuss Voigt Hill
#
# Bulk Modulus (GPa) = 42.27736 54.86781 48.57259
# Shear Modulus (GPa) = 42.80961 50.75017 46.77989
#
# Velocity S-wave (km/s) = 4.08027 4.44260 4.26529
# Velocity P-wave (km/s) = 6.21609 6.90316 6.56862
#
# Compressibility (1/GPa) = 0.02365332
#
# Stress axis : x y z
#
# Youngs Moduli (GPa) = 138.68693 121.50910 81.13006
#
# Poissons Ratio (x) = 0.17070 0.12143
# Poissons Ratio (y) = 0.19484 -0.06857
# Poissons Ratio (z) = 0.20759 -0.10270
#
# Static dielectric constant tensor:
#      x y z
#    x 2.126160 0.146730 -0.242570 
#    y 0.146730 2.359040 -0.329370 
#    z -0.242570 -0.329370 2.229650 
# 
# From -- ./inp_files/208679.got.cif
#   From: 2010.05.17/outbox.cif.g08.bks.cpg/sg2_105_cif.got.tgz:208679.got - 2010.06.03 11:33:40.
