data_PCOD9070912
_publ_section_title
;
Structure prediction by ZEFSAII (Michael W. Deem and Ramdas Pophale) SiO2 
 PCOD9070912
Probable space group: P -1
;
_chemical_formula_sum "Si O2"
_cell_formula_units_Z 12
_cell_length_a 8.344312
_cell_length_b 7.100344
_cell_length_c 14.671380
_cell_angle_alpha 112.906578
_cell_angle_beta 39.806374
_cell_angle_gamma 125.294020
_cell_volume 451.713225
_symmetry_space_group_name_H-M "P -1"
_symmetry_group_IT_number 2
_symmetry_cell_setting 'triclinic'
loop_
_space_group_symop_operation_xyz
x,y,z
-x,-y,-z
loop_
_atom_site_type_symbol
_atom_site_label
_atom_site_fract_x
_atom_site_fract_y
_atom_site_fract_z
Si Si1 0.192259 0.297303 0.265241
Si Si2 0.656980 0.038447 0.199895
Si Si3 0.339051 0.130723 0.640171
Si Si4 0.321090 0.330419 0.424713
Si Si5 0.851066 0.509463 0.973929
Si Si6 0.853767 0.303709 0.745810
O O1 0.184882 0.304585 0.379009
O O2 0.095290 0.467170 0.290170
O O3 0.518358 0.396418 0.113763
O O4 0.989440 0.039782 0.269816
O O5 0.508267 0.198170 0.321186
O O6 0.984082 0.219426 0.073725
O O7 0.621695 0.873563 0.268937
O O8 0.468381 0.889913 0.170050
O O9 0.479967 0.394981 0.596597
O O10 0.500000 0.000000 0.500000
O O11 0.070238 0.233531 0.589347
O O12 0.895167 0.373006 0.845355
O O13 0.000000 0.500000 0.000000
#
# Coordination Sequence:
#
# PCOD9070912 Si02
#       6
#     2   2   2   2   2   2
#     4  12  25  49  78 111 154 204 255 314 384 453
#     4  12  27  48  78 116 155 202 257 313 385 457
#     4  12  25  47  80 113 157 201 247 318 389 447
#     4  12  26  51  77 119 157 194 259 320 378 461
#     4  12  28  52  72 114 155 205 264 313 380 458
#     4  12  26  48  83 109 155 205 256 316 389 454
#
# _framework density 26.565526999999999
#
# number of rings (size 3 to 8) (size 9 to 14) (size 15 to 20)
#    0.000    0.000    6.667    2.500    0.000    6.667 
#    0.000    0.000    0.000    0.000    0.000    0.000 
#    0.000    0.000    0.000    0.000    0.000    0.000 
#
# Total GULP energy -67481.082147 kJ/mol
# GULP energy per Si atom -5623.423512 kJ/mol
# Density = 2.650506 g / cm^3
# Si number density = 26.565527 Si / 1000 Ang^3
#
#
#
# Elastic Constant Matrix: (Units=GPa)
#
#
# Indices 1 2 3 4 5 6 
#
# 1 111.1311 33.3992 59.5533 4.6430 5.1712 24.3999
# 2 33.3992 166.0235 40.7861 -20.5671 -11.0759 20.9525
# 3 59.5533 40.7861 135.9950 -7.2542 7.3847 24.9741
# 4 4.6430 -20.5671 -7.2542 45.9601 15.3361 -1.3237
# 5 5.1712 -11.0759 7.3847 15.3361 43.8940 -2.1083
# 6 24.3999 20.9525 24.9741 -1.3237 -2.1083 65.4333
#
#
#
# Elastic Compliance Matrix: (Units=1/GPa)
#
#
# Indices 1 2 3 4 5 6 
#
# 1 0.012659 -0.001397 -0.004794 -0.002656 -0.000230 -0.002505
# 2 -0.001397 0.007178 -0.001236 0.002732 0.001171 -0.001213
# 3 -0.004794 -0.001236 0.010411 0.002322 -0.002397 -0.001821
# 4 -0.002656 0.002732 0.002322 0.026494 -0.008670 -0.000514
# 5 -0.000230 0.001171 -0.002397 -0.008670 0.026600 0.001308
# 6 -0.002505 -0.001213 -0.001821 -0.000514 0.001308 0.017332
#
#
# Mechanical properties :
#
#
# Convention : Reuss Voigt Hill
#
# Bulk Modulus (GPa) = 64.95926 75.62519 70.29222
# Shear Modulus (GPa) = 41.43957 49.68487 45.56222
#
# Velocity S-wave (km/s) = 3.95384 4.32936 4.14586
# Velocity P-wave (km/s) = 6.73419 7.31576 7.03099
#
# Compressibility (1/GPa) = 0.01539426
#
# Stress axis : x y z
#
# Youngs Moduli (GPa) = 78.99739 139.32271 96.04838
#
# Poissons Ratio (x) = 0.19467 0.46041
# Poissons Ratio (y) = 0.11038 0.11871
# Poissons Ratio (z) = 0.37868 0.17219
#
# Static dielectric constant tensor:
#      x y z
#    x 2.109110 -0.023710 -0.049670 
#    y -0.023710 2.054010 0.021540 
#    z -0.049670 0.021540 2.050520 
# 
# From -- ./inp_files/326744.got.cif
#   From: 2010.05.17/outbox.cif.g08.bks.cpg/sg2_164_cif.got.tgz:326744.got - 2010.06.03 11:33:40.
