data_PCOD9070714
_publ_section_title
;
Structure prediction by ZEFSAII (Michael W. Deem and Ramdas Pophale) SiO2 
 PCOD9070714
Probable space group: P -1
;
_chemical_formula_sum "Si O2"
_cell_formula_units_Z 13
_cell_length_a 7.986081
_cell_length_b 4.987918
_cell_length_c 14.588483
_cell_angle_alpha 116.579968
_cell_angle_beta 104.266613
_cell_angle_gamma 77.855484
_cell_volume 500.299736
_symmetry_space_group_name_H-M "P -1"
_symmetry_group_IT_number 2
_symmetry_cell_setting 'triclinic'
loop_
_space_group_symop_operation_xyz
x,y,z
-x,-y,-z
loop_
_atom_site_type_symbol
_atom_site_label
_atom_site_fract_x
_atom_site_fract_y
_atom_site_fract_z
Si Si1 0.393906 0.828288 0.530428
Si Si2 0.846192 0.612703 0.929663
Si Si3 0.371468 0.273212 0.913158
Si Si4 0.191006 0.471629 0.725648
Si Si5 0.000000 0.000000 0.500000
Si Si6 0.498989 0.769077 0.726350
Si Si7 0.866359 0.922119 0.794697
O O1 0.500000 0.500000 0.500000
O O2 0.407969 0.934961 0.652617
O O3 0.195039 0.841835 0.478845
O O4 0.500000 0.000000 0.500000
O O5 0.890212 0.834172 0.890531
O O6 0.807558 0.283775 0.831092
O O7 0.721120 0.789153 0.014321
O O8 0.000000 0.500000 0.000000
O O9 0.247174 0.394858 0.828191
O O10 0.486867 0.984623 0.844796
O O11 0.500000 0.500000 0.000000
O O12 0.364263 0.538216 0.702891
O O13 0.048405 0.779273 0.751968
O O14 0.088139 0.236485 0.619347
O O15 0.701894 0.737144 0.720716
#
# Coordination Sequence:
#
# PCOD9070714 Si02
#       7
#     2   2   2   2   1   2   2
#     4  12  29  54  85 120 164 215 280 347 419 501
#     4  12  25  45  74 115 162 211 272 331 396 490
#     4  12  25  47  77 110 163 208 264 328 403 479
#     4  12  28  50  80 117 159 215 269 337 409 491
#     4  12  28  56  84 120 164 216 280 348 426 492
#     4  12  28  50  79 120 160 212 272 337 415 491
#     4  12  28  48  81 117 165 215 271 336 409 489
#
# _framework density 25.984425000000002
#
# number of rings (size 3 to 8) (size 9 to 14) (size 15 to 20)
#    0.000    0.000    4.615    4.154    2.154    6.154 
#    0.000    0.000    0.000    0.000    0.000    0.000 
#    0.000    0.000    0.000    0.000    0.000    0.000 
#
# Total GULP energy -72392.698054 kJ/mol
# GULP energy per Si atom -5568.669081 kJ/mol
# Density = 2.592528 g / cm^3
# Si number density = 25.984425 Si / 1000 Ang^3
#
#
#
# Elastic Constant Matrix: (Units=GPa)
#
#
# Indices 1 2 3 4 5 6 
#
# 1 128.6859 39.9723 37.5710 11.7855 38.3789 -10.2697
# 2 39.9723 123.6097 42.7225 4.6409 -0.0508 19.5726
# 3 37.5710 42.7225 159.8479 21.2302 27.6434 16.2440
# 4 11.7855 4.6409 21.2302 35.5802 -16.3540 -11.8697
# 5 38.3789 -0.0508 27.6434 -16.3540 65.6210 -1.2369
# 6 -10.2697 19.5726 16.2440 -11.8697 -1.2369 32.3684
#
#
#
# Elastic Compliance Matrix: (Units=1/GPa)
#
#
# Indices 1 2 3 4 5 6 
#
# 1 0.012793 -0.004608 0.000345 -0.006826 -0.009260 0.003815
# 2 -0.004608 0.011340 -0.001874 0.000382 0.003454 -0.007106
# 3 0.000345 -0.001874 0.010800 -0.013206 -0.008220 -0.009334
# 4 -0.006826 0.000382 -0.013206 0.058371 0.024603 0.026576
# 5 -0.009260 0.003454 -0.008220 0.024603 0.030427 0.009283
# 6 0.003815 -0.007106 -0.009334 0.026576 0.009283 0.051186
#
#
# Mechanical properties :
#
#
# Convention : Reuss Voigt Hill
#
# Bulk Modulus (GPa) = 44.13208 72.51944 58.32576
# Shear Modulus (GPa) = 25.67503 46.17244 35.92374
#
# Velocity S-wave (km/s) = 3.14681 4.21993 3.72225
# Velocity P-wave (km/s) = 5.49764 7.19119 6.40068
#
# Compressibility (1/GPa) = 0.02265925
#
# Stress axis : x y z
#
# Youngs Moduli (GPa) = 78.17027 88.18415 92.59595
#
# Poissons Ratio (x) = 0.40632 -0.03194
# Poissons Ratio (y) = 0.36018 0.17350
# Poissons Ratio (z) = -0.02696 0.16523
#
# Static dielectric constant tensor:
#      x y z
#    x 2.249970 -0.107780 0.005740 
#    y -0.107780 2.123580 0.103480 
#    z 0.005740 0.103480 2.061210 
# 
# From -- ./inp_files/487435.got.cif
#   From: 2010.05.17/outbox.cif.g08.bks.cpg/sg2_244_cif.got.tgz:487435.got - 2010.06.03 11:33:40.
