data_PCOD9070497
_publ_section_title
;
Structure prediction by ZEFSAII (Michael W. Deem and Ramdas Pophale) SiO2 
 PCOD9070497
Probable space group: P -1
;
_chemical_formula_sum "Si O2"
_cell_formula_units_Z 16
_cell_length_a 12.751880
_cell_length_b 18.763687
_cell_length_c 9.312385
_cell_angle_alpha 150.083084
_cell_angle_beta 122.258269
_cell_angle_gamma 46.656047
_cell_volume 796.607947
_symmetry_space_group_name_H-M "P -1"
_symmetry_group_IT_number 2
_symmetry_cell_setting 'triclinic'
loop_
_space_group_symop_operation_xyz
x,y,z
-x,-y,-z
loop_
_atom_site_type_symbol
_atom_site_label
_atom_site_fract_x
_atom_site_fract_y
_atom_site_fract_z
Si Si1 0.062514 0.093333 0.799486
Si Si2 0.580882 0.540468 0.253676
Si Si3 0.374514 0.000412 0.320126
Si Si4 0.397334 0.937308 0.882755
Si Si5 0.099241 0.353748 0.705985
Si Si6 0.385261 0.657399 0.785052
Si Si7 0.942329 0.169758 0.165135
Si Si8 0.101526 0.534295 0.740086
O O1 0.235504 0.013405 0.824556
O O2 0.000000 0.000000 0.500000
O O3 0.980898 0.128090 0.953740
O O4 0.001878 0.265783 0.969275
O O5 0.481910 0.735221 0.571698
O O6 0.597935 0.413307 0.167703
O O7 0.741736 0.507022 0.277325
O O8 0.500000 0.500000 0.000000
O O9 0.236636 0.185942 0.579330
O O10 0.500000 0.000000 0.500000
O O11 0.380414 0.987020 0.126374
O O12 0.382662 0.830188 0.076846
O O13 0.500000 0.000000 0.000000
O O14 0.135904 0.432628 0.735774
O O15 0.011033 0.276512 0.442807
O O16 0.000000 0.500000 0.000000
O O17 0.500000 0.500000 0.500000
O O18 0.225511 0.712809 0.714673
O O19 0.000000 0.000000 0.000000
O O20 0.000000 0.500000 0.500000
#
# Coordination Sequence:
#
# PCOD9070497 Si02
#       8
#     2   2   2   2   2   2   2   2
#     4  12  26  46  76 109 141 196 246 305 372 436
#     4  12  27  45  73 111 146 191 241 307 366 439
#     4  12  28  49  71 108 151 194 246 303 370 440
#     4  12  26  48  74 108 154 193 243 308 369 437
#     4  12  28  47  74 107 143 196 246 305 365 435
#     4  12  26  48  75 105 146 195 244 298 371 442
#     4  12  25  49  73 103 150 190 244 307 364 433
#     4  12  24  49  72 102 147 189 248 298 366 443
#
# _framework density 20.085160999999999
#
# number of rings (size 3 to 8) (size 9 to 14) (size 15 to 20)
#    0.000    0.000    6.250    2.250    7.000    2.000 
#    0.000    0.000    0.000    0.000    0.000    0.000 
#    0.000    0.000    0.000    0.000    0.000    0.000 
#
# Total GULP energy -89326.038528 kJ/mol
# GULP energy per Si atom -5582.877408 kJ/mol
# Density = 2.003945 g / cm^3
# Si number density = 20.085161 Si / 1000 Ang^3
#
#
#
# Elastic Constant Matrix: (Units=GPa)
#
#
# Indices 1 2 3 4 5 6 
#
# 1 134.8709 76.2454 55.1138 8.5135 4.2974 -8.0355
# 2 76.2454 134.4713 75.7451 24.2198 1.8407 -17.9040
# 3 55.1138 75.7451 149.0839 6.6693 3.9161 -5.7087
# 4 8.5135 24.2198 6.6693 50.3219 -1.8292 9.1352
# 5 4.2974 1.8407 3.9161 -1.8292 36.5293 7.7285
# 6 -8.0355 -17.9040 -5.7087 9.1352 7.7285 54.9464
#
#
#
# Elastic Compliance Matrix: (Units=1/GPa)
#
#
# Indices 1 2 3 4 5 6 
#
# 1 0.011172 -0.005959 -0.001157 0.001201 -0.000718 -0.000527
# 2 -0.005959 0.015650 -0.005233 -0.006760 -0.000909 0.004936
# 3 -0.001157 -0.005233 0.009689 0.001617 -0.000327 -0.001091
# 4 0.001201 -0.006760 0.001617 0.023925 0.002534 -0.006193
# 5 -0.000718 -0.000909 -0.000327 0.002534 0.028703 -0.004894
# 6 -0.000527 0.004936 -0.001091 -0.006193 -0.004894 0.021336
#
#
# Mechanical properties :
#
#
# Convention : Reuss Voigt Hill
#
# Bulk Modulus (GPa) = 84.66244 92.51495 88.58869
# Shear Modulus (GPa) = 35.94246 42.44765 39.19506
#
# Velocity S-wave (km/s) = 4.23484 4.60214 4.42231
# Velocity P-wave (km/s) = 8.13358 8.62560 8.38320
#
# Compressibility (1/GPa) = 0.01181161
#
# Stress axis : x y z
#
# Youngs Moduli (GPa) = 89.50919 63.89632 103.21148
#
# Poissons Ratio (x) = 0.38077 0.11946
# Poissons Ratio (y) = 0.53341 0.54012
# Poissons Ratio (z) = 0.10360 0.33438
#
# Static dielectric constant tensor:
#      x y z
#    x 1.724340 -0.025350 -0.006730 
#    y -0.025350 1.655560 -0.009920 
#    z -0.006730 -0.009920 1.701320 
# 
# From -- ./inp_files/280277.got.cif
#   From: 2010.05.17/outbox.cif.g08.bks.cpg/sg2_141_cif.got.tgz:280277.got - 2010.06.03 11:33:40.
