data_PCOD9070419
_publ_section_title
;
Structure prediction by ZEFSAII (Michael W. Deem and Ramdas Pophale) SiO2 
 PCOD9070419
Probable space group: P -1
;
_chemical_formula_sum "Si O2"
_cell_formula_units_Z 15
_cell_length_a 10.309302
_cell_length_b 12.825690
_cell_length_c 16.480322
_cell_angle_alpha 141.451414
_cell_angle_beta 33.065520
_cell_angle_gamma 118.995446
_cell_volume 640.784677
_symmetry_space_group_name_H-M "P -1"
_symmetry_group_IT_number 2
_symmetry_cell_setting 'triclinic'
loop_
_space_group_symop_operation_xyz
x,y,z
-x,-y,-z
loop_
_atom_site_type_symbol
_atom_site_label
_atom_site_fract_x
_atom_site_fract_y
_atom_site_fract_z
Si Si1 0.169902 0.908184 0.990187
Si Si2 0.555068 0.020427 0.683453
Si Si3 0.337900 0.734911 0.573998
Si Si4 0.251694 0.496196 0.914750
Si Si5 0.764019 0.842633 0.633830
Si Si6 0.500000 0.500000 0.500000
Si Si7 0.255448 0.455455 0.079715
Si Si8 0.984351 0.077862 0.746060
O O1 0.004301 0.905745 0.153995
O O2 0.468426 0.878456 0.835695
O O3 0.245771 0.723080 0.783195
O O4 0.985940 0.118649 0.175112
O O5 0.444978 0.873202 0.638575
O O6 0.730246 0.952061 0.632606
O O7 0.338399 0.244982 0.939656
O O8 0.737954 0.995879 0.494212
O O9 0.472048 0.661248 0.369909
O O10 0.466120 0.545001 0.446877
O O11 0.228300 0.461235 0.000207
O O12 0.217532 0.707784 0.051945
O O13 0.000000 0.500000 0.000000
O O14 0.971266 0.618960 0.367571
O O15 0.882118 0.928314 0.688753
O O16 0.500000 0.500000 0.000000
#
# Coordination Sequence:
#
# PCOD9070419 Si02
#       8
#     2   2   2   2   2   1   2   2
#     4  12  29  46  73 107 148 200 243 304 380 453
#     4  12  25  45  79 110 144 194 249 312 368 446
#     4  12  27  47  78 109 148 189 254 308 382 442
#     4  12  25  46  75 113 147 195 244 319 379 430
#     4  12  26  49  70 108 152 198 245 305 371 454
#     4  12  26  50  70 104 148 196 236 314 372 444
#     4  12  26  45  78 112 150 197 253 305 380 445
#     4  12  24  48  73 102 154 193 247 308 368 442
#
# _framework density 23.408799999999999
#
# number of rings (size 3 to 8) (size 9 to 14) (size 15 to 20)
#    0.000    0.000    6.667    2.800    3.733    1.067 
#    0.000    0.667    0.000    0.000    0.000    0.000 
#    0.000    0.000    0.000    0.000    0.000    0.000 
#
# Total GULP energy -83813.349826 kJ/mol
# GULP energy per Si atom -5587.556655 kJ/mol
# Density = 2.335552 g / cm^3
# Si number density = 23.408800 Si / 1000 Ang^3
#
#
#
# Elastic Constant Matrix: (Units=GPa)
#
#
# Indices 1 2 3 4 5 6 
#
# 1 58.0501 -1.1797 15.8282 -3.5974 9.2900 4.3549
# 2 -1.1797 52.8871 31.7799 11.5936 -10.8551 -2.9821
# 3 15.8282 31.7799 171.4074 25.0262 -1.2570 -3.8294
# 4 -3.5974 11.5936 25.0262 48.5430 -2.9152 -2.9467
# 5 9.2900 -10.8551 -1.2570 -2.9152 40.6671 -0.5539
# 6 4.3549 -2.9821 -3.8294 -2.9467 -0.5539 28.3371
#
#
#
# Elastic Compliance Matrix: (Units=1/GPa)
#
#
# Indices 1 2 3 4 5 6 
#
# 1 0.018853 0.000254 -0.002182 0.002025 -0.004202 -0.003037
# 2 0.000254 0.023155 -0.003782 -0.003111 0.005805 0.001676
# 3 -0.002182 -0.003782 0.007177 -0.002952 -0.000493 0.000591
# 4 0.002025 -0.003111 -0.002952 0.023116 0.000292 0.001372
# 5 -0.004202 0.005805 -0.000493 0.000292 0.027129 0.001751
# 6 -0.003037 0.001676 0.000591 0.001372 0.001751 0.036189
#
#
# Mechanical properties :
#
#
# Convention : Reuss Voigt Hill
#
# Bulk Modulus (GPa) = 26.48024 41.68906 34.08465
# Shear Modulus (GPa) = 31.32279 39.23717 35.27998
#
# Velocity S-wave (km/s) = 3.66194 4.09855 3.88638
# Velocity P-wave (km/s) = 5.40522 6.34392 5.89329
#
# Compressibility (1/GPa) = 0.03776401
#
# Stress axis : x y z
#
# Youngs Moduli (GPa) = 53.04316 43.18781 139.32460
#
# Poissons Ratio (x) = -0.01098 0.30405
# Poissons Ratio (y) = -0.01348 0.52696
# Poissons Ratio (z) = 0.11576 0.16335
#
# Static dielectric constant tensor:
#      x y z
#    x 2.130150 0.135780 -0.168610 
#    y 0.135780 1.929160 -0.079240 
#    z -0.168610 -0.079240 1.942760 
# 
# From -- ./inp_files/514323.got.cif
#   From: 2010.05.17/outbox.cif.g08.bks.cpg/sg2_258_cif.got.tgz:514323.got - 2010.06.03 11:33:40.
