data_PCOD9070467
_publ_section_title
;
Structure prediction by ZEFSAII (Michael W. Deem and Ramdas Pophale) SiO2 
 PCOD9070467
Probable space group: P -1
;
_chemical_formula_sum "Si O2"
_cell_formula_units_Z 16
_cell_length_a 8.619130
_cell_length_b 23.296965
_cell_length_c 9.526680
_cell_angle_alpha 139.581113
_cell_angle_beta 84.764015
_cell_angle_gamma 125.910970
_cell_volume 739.753337
_symmetry_space_group_name_H-M "P -1"
_symmetry_group_IT_number 2
_symmetry_cell_setting 'triclinic'
loop_
_space_group_symop_operation_xyz
x,y,z
-x,-y,-z
loop_
_atom_site_type_symbol
_atom_site_label
_atom_site_fract_x
_atom_site_fract_y
_atom_site_fract_z
Si Si1 0.537765 0.591815 0.553014
Si Si2 0.926319 0.056860 0.272469
Si Si3 0.954423 0.397660 0.209057
Si Si4 0.607501 0.954702 0.851594
Si Si5 0.410178 0.056125 0.652329
Si Si6 0.965973 0.073721 0.815692
Si Si7 0.754812 0.641638 0.324502
Si Si8 0.891892 0.360471 0.811996
O O1 0.500000 0.500000 0.500000
O O2 0.240836 0.483881 0.346452
O O3 0.673592 0.618129 0.448840
O O4 0.736530 0.756748 0.905844
O O5 0.138152 0.218453 0.489805
O O6 0.754424 0.027501 0.348448
O O7 0.025453 0.015437 0.268028
O O8 0.733736 0.955487 0.968625
O O9 0.000000 0.500000 0.500000
O O10 0.682852 0.231211 0.975201
O O11 0.902480 0.380150 0.014382
O O12 0.397344 0.797069 0.502177
O O13 0.819726 0.072028 0.933457
O O14 0.500000 0.000000 0.000000
O O15 0.500000 0.000000 0.500000
O O16 0.210527 0.005777 0.458089
O O17 0.950901 0.651484 0.288034
O O18 0.500000 0.500000 0.000000
O O19 0.000000 0.500000 0.000000
#
# Coordination Sequence:
#
# PCOD9070467 Si02
#       8
#     2   2   2   2   2   2   2   2
#     4  12  28  49  77 111 158 200 253 319 397 465
#     4  12  27  46  79 110 153 196 260 324 378 468
#     4  12  28  50  72 111 155 202 253 311 390 457
#     4  12  24  48  77 109 148 199 263 316 384 454
#     4  12  26  49  79 108 151 202 259 315 377 462
#     4  12  26  47  76 114 148 199 257 315 388 454
#     4  12  27  48  75 110 152 204 253 319 400 454
#     4  12  28  47  76 113 155 203 262 321 384 467
#
# _framework density 21.628830000000001
#
# number of rings (size 3 to 8) (size 9 to 14) (size 15 to 20)
#    0.000    0.000    5.000    3.750    8.750    0.000 
#    0.000    0.000    0.000    0.000    0.000    0.000 
#    0.000    0.000    0.000    0.000    0.000    0.000 
#
# Total GULP energy -89393.610539 kJ/mol
# GULP energy per Si atom -5587.100659 kJ/mol
# Density = 2.157960 g / cm^3
# Si number density = 21.628830 Si / 1000 Ang^3
#
#
#
# Elastic Constant Matrix: (Units=GPa)
#
#
# Indices 1 2 3 4 5 6 
#
# 1 72.1787 35.7298 63.6166 7.5282 6.9123 -12.2818
# 2 35.7298 157.9878 71.0312 -0.3798 1.2766 -4.5036
# 3 63.6166 71.0312 192.6243 0.8748 24.3551 -22.5196
# 4 7.5282 -0.3798 0.8748 38.6939 3.1348 -10.7590
# 5 6.9123 1.2766 24.3551 3.1348 44.0749 -0.1418
# 6 -12.2818 -4.5036 -22.5196 -10.7590 -0.1418 36.8209
#
#
#
# Elastic Compliance Matrix: (Units=1/GPa)
#
#
# Indices 1 2 3 4 5 6 
#
# 1 0.020699 -0.001987 -0.005884 -0.003360 0.000308 0.002082
# 2 -0.001987 0.007897 -0.002595 0.000049 0.001509 -0.001264
# 3 -0.005884 -0.002595 0.009068 0.002346 -0.004167 0.003935
# 4 -0.003360 0.000049 0.002346 0.029125 -0.002814 0.008820
# 5 0.000308 0.001509 -0.004167 -0.002814 0.025090 -0.002987
# 6 0.002082 -0.001264 0.003935 0.008820 -0.002987 0.032671
#
#
# Mechanical properties :
#
#
# Convention : Reuss Voigt Hill
#
# Bulk Modulus (GPa) = 59.76105 84.83843 72.29974
# Shear Modulus (GPa) = 33.09966 40.74552 36.92259
#
# Velocity S-wave (km/s) = 3.91621 4.34505 4.13619
# Velocity P-wave (km/s) = 6.93824 8.03009 7.50405
#
# Compressibility (1/GPa) = 0.01673331
#
# Stress axis : x y z
#
# Youngs Moduli (GPa) = 48.31135 126.62247 110.28165
#
# Poissons Ratio (x) = 0.25162 0.64885
# Poissons Ratio (y) = 0.09600 0.28615
# Poissons Ratio (z) = 0.28424 0.32855
#
# Static dielectric constant tensor:
#      x y z
#    x 2.199310 -0.350070 0.126520 
#    y -0.350070 2.214410 -0.031840 
#    z 0.126520 -0.031840 1.800920 
# 
# From -- ./inp_files/226649.got.cif
#   From: 2010.05.17/outbox.cif.g08.bks.cpg/sg2_114_cif.got.tgz:226649.got - 2010.06.03 11:33:40.
