data_PCOD9070865
_publ_section_title
;
Structure prediction by ZEFSAII (Michael W. Deem and Ramdas Pophale) SiO2 
 PCOD9070865
Probable space group: P -1
;
_chemical_formula_sum "Si O2"
_cell_formula_units_Z 12
_cell_length_a 8.426051
_cell_length_b 9.297766
_cell_length_c 17.411417
_cell_angle_alpha 120.771022
_cell_angle_beta 145.838139
_cell_angle_gamma 80.559172
_cell_volume 555.007373
_symmetry_space_group_name_H-M "P -1"
_symmetry_group_IT_number 2
_symmetry_cell_setting 'triclinic'
loop_
_space_group_symop_operation_xyz
x,y,z
-x,-y,-z
loop_
_atom_site_type_symbol
_atom_site_label
_atom_site_fract_x
_atom_site_fract_y
_atom_site_fract_z
Si Si1 0.262680 0.641687 0.708790
Si Si2 0.269745 0.141438 0.708053
Si Si3 0.863034 0.542737 0.682030
Si Si4 0.752917 0.058879 0.953049
Si Si5 0.246141 0.440889 0.049317
Si Si6 0.137147 0.808399 0.317129
O O1 0.572801 0.611384 0.828679
O O2 0.000000 0.500000 0.500000
O O3 0.075612 0.585981 0.700609
O O4 0.451548 0.874183 0.828751
O O5 0.556345 0.094804 0.817854
O O6 0.452349 0.368123 0.819164
O O7 0.078852 0.124747 0.704766
O O8 0.000000 0.000000 0.500000
O O9 0.500000 0.500000 0.500000
O O10 0.843908 0.361610 0.673477
O O11 0.048004 0.741390 0.862392
O O12 0.000000 0.000000 0.000000
O O13 0.000000 0.500000 0.000000
O O14 0.044511 0.276723 0.859765
O O15 0.500000 0.000000 0.500000
#
# Coordination Sequence:
#
# PCOD9070865 Si02
#       6
#     2   2   2   2   2   2
#     4  12  27  47  74 108 149 190 240 297 366 431
#     4  12  25  47  75 104 144 189 245 302 358 428
#     4  12  28  48  76 108 148 192 245 301 362 433
#     4  12  27  47  74 108 149 190 240 297 366 431
#     4  12  25  47  75 104 144 189 245 302 358 428
#     4  12  28  49  76 108 144 194 248 301 362 427
#
# _framework density 21.621334000000001
#
# number of rings (size 3 to 8) (size 9 to 14) (size 15 to 20)
#    0.000    0.000    3.333    6.000    9.333    0.000 
#    0.000    0.000    0.000    0.000    0.000    0.000 
#    0.000    0.000    0.000    0.000    0.000    0.000 
#
# Total GULP energy -67190.470217 kJ/mol
# GULP energy per Si atom -5599.205851 kJ/mol
# Density = 2.157212 g / cm^3
# Si number density = 21.621334 Si / 1000 Ang^3
#
#
#
# Elastic Constant Matrix: (Units=GPa)
#
#
# Indices 1 2 3 4 5 6 
#
# 1 122.4683 21.8983 59.7314 8.8100 -17.0468 -20.9658
# 2 21.8983 128.5751 67.1158 -6.2050 1.5659 -4.4593
# 3 59.7314 67.1158 220.3921 1.1821 -24.3956 -9.7856
# 4 8.8100 -6.2050 1.1821 51.7740 11.3466 15.5137
# 5 -17.0468 1.5659 -24.3956 11.3466 34.2597 4.9126
# 6 -20.9658 -4.4593 -9.7856 15.5137 4.9126 40.1481
#
#
#
# Elastic Compliance Matrix: (Units=1/GPa)
#
#
# Indices 1 2 3 4 5 6 
#
# 1 0.011553 -0.001053 -0.001904 -0.005236 0.005194 0.006840
# 2 -0.001053 0.009754 -0.003168 0.002503 -0.003951 -0.000722
# 3 -0.001904 -0.003168 0.006496 -0.001175 0.004187 0.000179
# 4 -0.005236 0.002503 -0.001175 0.026341 -0.010614 -0.011623
# 5 0.005194 -0.003951 0.004187 -0.010614 0.038058 0.002739
# 6 0.006840 -0.000722 0.000179 -0.011623 0.002739 0.032599
#
#
# Mechanical properties :
#
#
# Convention : Reuss Voigt Hill
#
# Bulk Modulus (GPa) = 64.29164 85.43628 74.86396
# Shear Modulus (GPa) = 35.15319 46.74903 40.95111
#
# Velocity S-wave (km/s) = 4.03657 4.65496 4.35675
# Velocity P-wave (km/s) = 7.17809 8.27600 7.74652
#
# Compressibility (1/GPa) = 0.01555412
#
# Stress axis : x y z
#
# Youngs Moduli (GPa) = 86.55939 102.51813 153.94666
#
# Poissons Ratio (x) = 0.10791 0.29308
# Poissons Ratio (y) = 0.09111 0.48771
# Poissons Ratio (z) = 0.16479 0.32478
#
# Static dielectric constant tensor:
#      x y z
#    x 1.801080 0.051780 0.038960 
#    y 0.051780 1.848410 0.013160 
#    z 0.038960 0.013160 1.740250 
# 
# From -- ./inp_files/148659.got.cif
#   From: 2010.05.17/outbox.cif.g08.bks.cpg/sg2_75_cif.got.tgz:148659.got - 2010.06.03 11:33:40.
