data_PCOD9070965
_publ_section_title
;
Structure prediction by ZEFSAII (Michael W. Deem and Ramdas Pophale) SiO2 
 PCOD9070965
Probable space group: P -1
;
_chemical_formula_sum "Si O2"
_cell_formula_units_Z 16
_cell_length_a 18.972786
_cell_length_b 10.018103
_cell_length_c 9.014280
_cell_angle_alpha 108.043989
_cell_angle_beta 69.978031
_cell_angle_gamma 153.919821
_cell_volume 707.705085
_symmetry_space_group_name_H-M "P -1"
_symmetry_group_IT_number 2
_symmetry_cell_setting 'triclinic'
loop_
_space_group_symop_operation_xyz
x,y,z
-x,-y,-z
loop_
_atom_site_type_symbol
_atom_site_label
_atom_site_fract_x
_atom_site_fract_y
_atom_site_fract_z
Si Si1 0.866735 0.626667 0.234135
Si Si2 0.581432 0.285950 0.501975
Si Si3 0.877510 0.358752 0.665892
Si Si4 0.694857 0.319997 0.930161
Si Si5 0.885646 0.335279 0.165104
Si Si6 0.226763 0.294717 0.206038
Si Si7 0.363030 0.298268 0.909965
Si Si8 0.544895 0.705453 0.637089
O O1 0.735701 0.501211 0.368320
O O2 0.873990 0.481898 0.248601
O O3 0.800506 0.499139 0.068280
O O4 0.036218 0.985259 0.266856
O O5 0.653403 0.488313 0.663943
O O6 0.474067 0.199094 0.434814
O O7 0.500000 0.000000 0.500000
O O8 0.768309 0.317043 0.770817
O O9 0.000000 0.500000 0.500000
O O10 0.013901 0.590139 0.768908
O O11 0.730808 0.004042 0.659403
O O12 0.721658 0.500663 0.874968
O O13 0.500000 0.000000 0.000000
O O14 0.709498 0.973570 0.169495
O O15 0.000000 0.500000 0.000000
O O16 0.234198 0.166158 0.057785
O O17 0.428809 0.499568 0.794166
O O18 0.500000 0.500000 0.000000
O O19 0.500000 0.500000 0.500000
#
# Coordination Sequence:
#
# PCOD9070965 Si02
#       8
#     2   2   2   2   2   2   2   2
#     4  12  27  47  76 106 153 196 255 310 384 459
#     4  12  29  50  75 110 155 203 253 315 386 456
#     4  12  27  46  74 109 152 197 247 313 384 455
#     4  12  26  49  77 111 148 202 254 313 386 463
#     4  12  25  48  75 110 149 200 247 314 387 453
#     4  12  26  46  75 108 148 196 252 315 382 456
#     4  12  26  46  76 110 149 194 255 317 381 454
#     4  12  28  48  74 112 151 200 256 314 378 458
#
# _framework density 22.608288000000002
#
# number of rings (size 3 to 8) (size 9 to 14) (size 15 to 20)
#    0.000    0.000    2.500    6.750   10.500    2.000 
#    0.000    0.000    0.000    0.000    0.000    0.000 
#    0.000    0.000    0.000    0.000    0.000    0.000 
#
# Total GULP energy -89175.165891 kJ/mol
# GULP energy per Si atom -5573.447868 kJ/mol
# Density = 2.255683 g / cm^3
# Si number density = 22.608288 Si / 1000 Ang^3
#
#
#
# Elastic Constant Matrix: (Units=GPa)
#
#
# Indices 1 2 3 4 5 6 
#
# 1 67.8738 11.3729 12.0868 1.9226 9.5519 -5.7956
# 2 11.3729 143.6758 31.2754 11.4530 18.6486 -5.9439
# 3 12.0868 31.2754 93.8014 -17.6974 -11.0097 -0.5213
# 4 1.9226 11.4530 -17.6974 33.1716 4.0600 -3.1825
# 5 9.5519 18.6486 -11.0097 4.0600 31.2839 -5.6678
# 6 -5.7956 -5.9439 -0.5213 -3.1825 -5.6678 37.1658
#
#
#
# Elastic Compliance Matrix: (Units=1/GPa)
#
#
# Indices 1 2 3 4 5 6 
#
# 1 0.016253 0.000402 -0.003276 -0.001972 -0.005828 0.001495
# 2 0.000402 0.009256 -0.004866 -0.004993 -0.006701 0.000025
# 3 -0.003276 -0.004866 0.015417 0.009172 0.008314 0.000980
# 4 -0.001972 -0.004993 0.009172 0.036818 0.002491 0.002555
# 5 -0.005828 -0.006701 0.008314 0.002491 0.041181 0.004629
# 6 0.001495 0.000025 0.000980 0.002555 0.004629 0.028082
#
#
# Mechanical properties :
#
#
# Convention : Reuss Voigt Hill
#
# Bulk Modulus (GPa) = 39.29925 46.09125 42.69525
# Shear Modulus (GPa) = 29.24479 37.03200 33.13839
#
# Velocity S-wave (km/s) = 3.60049 4.05159 3.83268
# Velocity P-wave (km/s) = 5.89110 6.50525 6.20578
#
# Compressibility (1/GPa) = 0.02544578
#
# Stress axis : x y z
#
# Youngs Moduli (GPa) = 61.52699 108.03334 64.86207
#
# Poissons Ratio (x) = -0.04345 0.21250
# Poissons Ratio (y) = -0.02475 0.31565
# Poissons Ratio (z) = 0.20158 0.52574
#
# Static dielectric constant tensor:
#      x y z
#    x 2.079670 -0.001350 -0.080570 
#    y -0.001350 1.834470 0.057210 
#    z -0.080570 0.057210 1.847310 
# 
# From -- ./inp_files/346228.got.cif
#   From: 2010.05.17/outbox.cif.g08.bks.cpg/sg2_174_cif.got.tgz:346228.got - 2010.06.03 11:33:40.
