data_PCOD9070964
_publ_section_title
;
Structure prediction by ZEFSAII (Michael W. Deem and Ramdas Pophale) SiO2 
 PCOD9070964
Probable space group: P -1
;
_chemical_formula_sum "Si O2"
_cell_formula_units_Z 16
_cell_length_a 18.081470
_cell_length_b 5.311004
_cell_length_c 8.729123
_cell_angle_alpha 116.263241
_cell_angle_beta 86.448557
_cell_angle_gamma 119.341360
_cell_volume 642.304846
_symmetry_space_group_name_H-M "P -1"
_symmetry_group_IT_number 2
_symmetry_cell_setting 'triclinic'
loop_
_space_group_symop_operation_xyz
x,y,z
-x,-y,-z
loop_
_atom_site_type_symbol
_atom_site_label
_atom_site_fract_x
_atom_site_fract_y
_atom_site_fract_z
Si Si1 0.666738 0.910216 0.213073
Si Si2 0.155276 0.882335 0.611223
Si Si3 0.486695 0.723800 0.807173
Si Si4 0.856054 0.166472 0.899366
Si Si5 0.910317 0.869051 0.565273
Si Si6 0.594462 0.261115 0.493909
Si Si7 0.668466 0.854044 0.836401
Si Si8 0.087468 0.110199 0.927989
O O1 0.570780 0.600135 0.171809
O O2 0.751336 0.917124 0.265099
O O3 0.660629 0.167438 0.390849
O O4 0.675114 0.951545 0.040035
O O5 0.127694 0.507215 0.478831
O O6 0.155142 0.102329 0.533220
O O7 0.082910 0.870236 0.731640
O O8 0.431597 0.635236 0.634478
O O9 0.584532 0.844947 0.779506
O O10 0.500000 0.000000 0.000000
O O11 0.886744 0.534757 0.045138
O O12 0.917955 0.122046 0.763174
O O13 0.763342 0.062775 0.811165
O O14 0.848186 0.919981 0.968547
O O15 0.000000 0.000000 0.500000
O O16 0.640931 0.487878 0.695257
O O17 0.500000 0.000000 0.500000
O O18 0.000000 0.000000 0.000000
#
# Coordination Sequence:
#
# PCOD9070964 Si02
#       8
#     2   2   2   2   2   2   2   2
#     4  12  27  48  70 106 150 196 250 313 374 448
#     4  12  27  45  78 108 151 196 251 310 383 455
#     4  12  26  44  76 101 148 200 244 310 374 449
#     4  12  27  46  75 112 148 195 250 315 376 453
#     4  12  26  50  77 112 151 197 249 317 388 458
#     4  12  26  46  72 105 144 197 254 304 377 443
#     4  12  26  48  70 109 146 193 254 312 375 448
#     4  12  25  48  75 109 148 195 247 305 381 462
#
# _framework density 24.910288999999999
#
# number of rings (size 3 to 8) (size 9 to 14) (size 15 to 20)
#    0.000    0.000    3.750    6.000    5.250    1.000 
#    0.000    0.000    0.000    0.000    0.000    0.000 
#    0.000    0.000    0.000    0.000    0.000    0.000 
#
# Total GULP energy -89321.339586 kJ/mol
# GULP energy per Si atom -5582.583724 kJ/mol
# Density = 2.485359 g / cm^3
# Si number density = 24.910289 Si / 1000 Ang^3
#
#
#
# Elastic Constant Matrix: (Units=GPa)
#
#
# Indices 1 2 3 4 5 6 
#
# 1 135.3533 24.9477 17.4986 2.0601 -10.2928 2.7952
# 2 24.9477 57.7565 2.6093 15.0906 -14.0445 -3.0005
# 3 17.4986 2.6093 66.0055 0.5010 -32.4576 -12.5508
# 4 2.0601 15.0906 0.5010 33.0136 5.8244 -3.9184
# 5 -10.2928 -14.0445 -32.4576 5.8244 45.6830 6.0294
# 6 2.7952 -3.0005 -12.5508 -3.9184 6.0294 36.6441
#
#
#
# Elastic Compliance Matrix: (Units=1/GPa)
#
#
# Indices 1 2 3 4 5 6 
#
# 1 0.008515 -0.004496 -0.003295 0.001693 -0.001801 -0.001669
# 2 -0.004496 0.025997 0.007271 -0.014000 0.013772 0.001199
# 3 -0.003295 0.007271 0.027178 -0.006490 0.020833 0.006033
# 4 0.001693 -0.014000 -0.006490 0.039507 -0.013970 0.003025
# 5 -0.001801 0.013772 0.020833 -0.013970 0.042309 -0.000055
# 6 -0.001669 0.001199 0.006033 0.003025 -0.000055 0.029914
#
#
# Mechanical properties :
#
#
# Convention : Reuss Voigt Hill
#
# Bulk Modulus (GPa) = 16.48866 38.80292 27.64579
# Shear Modulus (GPa) = 25.68386 37.33878 31.51132
#
# Velocity S-wave (km/s) = 3.21449 3.87580 3.56053
# Velocity P-wave (km/s) = 4.51783 5.96992 5.29390
#
# Compressibility (1/GPa) = 0.06064774
#
# Stress axis : x y z
#
# Youngs Moduli (GPa) = 117.44655 38.46629 36.79511
#
# Poissons Ratio (x) = 0.17294 0.12125
# Poissons Ratio (y) = 0.52803 -0.26752
# Poissons Ratio (z) = 0.38701 -0.27967
#
# Static dielectric constant tensor:
#      x y z
#    x 2.050180 -0.014180 0.052120 
#    y -0.014180 2.041050 0.003970 
#    z 0.052120 0.003970 2.033620 
# 
# From -- ./inp_files/138900.got.cif
#   From: 2010.05.17/outbox.cif.g08.bks.cpg/sg2_70_cif.got.tgz:138900.got - 2010.06.03 11:33:40.
