data_PCOD9070304
_publ_section_title
;
Structure prediction by ZEFSAII (Michael W. Deem and Ramdas Pophale) SiO2 
 PCOD9070304
Probable space group: P -1
;
_chemical_formula_sum "Si O2"
_cell_formula_units_Z 14
_cell_length_a 8.886773
_cell_length_b 8.137367
_cell_length_c 11.215134
_cell_angle_alpha 43.420901
_cell_angle_beta 79.643145
_cell_angle_gamma 73.068765
_cell_volume 532.672950
_symmetry_space_group_name_H-M "P -1"
_symmetry_group_IT_number 2
_symmetry_cell_setting 'triclinic'
loop_
_space_group_symop_operation_xyz
x,y,z
-x,-y,-z
loop_
_atom_site_type_symbol
_atom_site_label
_atom_site_fract_x
_atom_site_fract_y
_atom_site_fract_z
Si Si1 0.754558 0.348275 0.711633
Si Si2 0.830360 0.706945 0.356449
Si Si3 0.553442 0.175383 0.625109
Si Si4 0.887099 0.228924 0.141444
Si Si5 0.828443 0.815959 0.038731
Si Si6 0.645307 0.621842 0.810359
Si Si7 0.346628 0.553178 0.762716
O O1 0.867326 0.443653 0.555183
O O2 0.632818 0.256308 0.689279
O O3 0.708748 0.575909 0.689637
O O4 0.810225 0.104554 0.910489
O O5 0.634773 0.772887 0.354767
O O6 0.868012 0.953744 0.271433
O O7 0.888288 0.683193 0.223998
O O8 0.605018 0.328702 0.426616
O O9 0.619605 0.892425 0.725947
O O10 0.827221 0.305075 0.243034
O O11 0.058587 0.238608 0.063479
O O12 0.767028 0.423621 0.973810
O O13 0.667893 0.727688 0.090885
O O14 0.473451 0.574353 0.833938
#
# Coordination Sequence:
#
# PCOD9070304 Si02
#       7
#     2   2   2   2   2   2   2
#     4  12  26  46  75 112 145 197 243 304 375 432
#     4  12  24  47  73 103 152 186 246 307 359 441
#     4  12  25  47  75 117 145 187 256 311 371 428
#     4  12  27  47  72 110 150 197 246 302 371 448
#     4  12  28  48  71 109 153 196 245 299 374 446
#     4  12  25  45  77 111 143 193 251 303 371 429
#     4  12  24  48  76 105 153 191 246 316 362 440
#
# _framework density 26.282543
#
# number of rings (size 3 to 8) (size 9 to 14) (size 15 to 20)
#    0.000    0.000    5.714    4.714    2.000    1.714 
#    2.571    1.429    0.000    0.000    0.000    0.000 
#    0.000    0.000    0.000    0.000    0.000    0.000 
#
# Total GULP energy -78349.840702 kJ/mol
# GULP energy per Si atom -5596.417193 kJ/mol
# Density = 2.622272 g / cm^3
# Si number density = 26.282543 Si / 1000 Ang^3
#
#
#
# Elastic Constant Matrix: (Units=GPa)
#
#
# Indices 1 2 3 4 5 6 
#
# 1 73.6426 25.1858 44.6058 -10.8328 -37.7160 5.0320
# 2 25.1858 141.5960 44.8342 -18.7812 -6.0398 -0.6973
# 3 44.6058 44.8342 156.5854 -15.7839 -23.1388 7.8573
# 4 -10.8328 -18.7812 -15.7839 62.9808 0.6124 -9.1077
# 5 -37.7160 -6.0398 -23.1388 0.6124 50.8204 3.2758
# 6 5.0320 -0.6973 7.8573 -9.1077 3.2758 39.5601
#
#
#
# Elastic Compliance Matrix: (Units=1/GPa)
#
#
# Indices 1 2 3 4 5 6 
#
# 1 0.026380 -0.002468 -0.003783 0.002157 0.017769 -0.003623
# 2 -0.002468 0.008243 -0.001809 0.001797 -0.001786 0.001380
# 3 -0.003783 -0.001809 0.008223 0.000706 0.000783 -0.001086
# 4 0.002157 0.001797 0.000706 0.017450 0.001700 0.003494
# 5 0.017769 -0.001786 0.000783 0.001700 0.033299 -0.004813
# 6 -0.003623 0.001380 -0.001086 0.003494 -0.004813 0.027182
#
#
# Mechanical properties :
#
#
# Convention : Reuss Voigt Hill
#
# Bulk Modulus (GPa) = 37.41733 66.78619 52.10176
# Shear Modulus (GPa) = 34.29196 47.81883 41.05539
#
# Velocity S-wave (km/s) = 3.61604 4.27009 3.95660
# Velocity P-wave (km/s) = 5.63044 7.05532 6.38276
#
# Compressibility (1/GPa) = 0.02672558
#
# Stress axis : x y z
#
# Youngs Moduli (GPa) = 37.90750 121.31210 121.60470
#
# Poissons Ratio (x) = 0.29942 0.46004
# Poissons Ratio (y) = 0.09356 0.22001
# Poissons Ratio (z) = 0.14341 0.21948
#
# Static dielectric constant tensor:
#      x y z
#    x 2.206260 -0.065540 0.051890 
#    y -0.065540 2.107050 0.020010 
#    z 0.051890 0.020010 2.071330 
# 
# From -- ./inp_files/186577.got.cif
#   From: 2010.05.17/outbox.cif.g08.bks.cpg/sg2_94_cif.got.tgz:186577.got - 2010.06.03 11:33:40.
