data_PCOD9070017
_publ_section_title
;
Structure prediction by ZEFSAII (Michael W. Deem and Ramdas Pophale) SiO2 
 PCOD9070017
Probable space group: P -1
;
_chemical_formula_sum "Si O2"
_cell_formula_units_Z 16
_cell_length_a 8.959254
_cell_length_b 19.475993
_cell_length_c 22.495455
_cell_angle_alpha 161.631059
_cell_angle_beta 30.650284
_cell_angle_gamma 148.619553
_cell_volume 613.405533
_symmetry_space_group_name_H-M "P -1"
_symmetry_group_IT_number 2
_symmetry_cell_setting 'triclinic'
loop_
_space_group_symop_operation_xyz
x,y,z
-x,-y,-z
loop_
_atom_site_type_symbol
_atom_site_label
_atom_site_fract_x
_atom_site_fract_y
_atom_site_fract_z
Si Si1 0.224329 0.333292 0.289914
Si Si2 0.479436 0.789436 0.456633
Si Si3 0.849969 0.516328 0.159892
Si Si4 0.755269 0.226983 0.657964
Si Si5 0.794668 0.565809 0.828795
Si Si6 0.799444 0.015397 0.759352
Si Si7 0.493157 0.715574 0.719501
Si Si8 0.664914 0.005922 0.201761
O O1 0.514913 0.424022 0.225602
O O2 0.341171 0.301657 0.289672
O O3 0.000000 0.500000 0.500000
O O4 0.016398 0.102927 0.148448
O O5 0.780342 0.689680 0.276662
O O6 0.227047 0.596717 0.354224
O O7 0.413009 0.870924 0.611439
O O8 0.521591 0.009478 0.582465
O O9 0.060256 0.657581 0.253625
O O10 0.937078 0.281266 0.924950
O O11 0.652831 0.414517 0.808696
O O12 0.975107 0.131848 0.460601
O O13 0.135987 0.689671 0.830091
O O14 0.610523 0.746775 0.023280
O O15 0.528853 0.955232 0.755357
O O16 0.664521 0.933096 0.802535
O O17 0.500000 0.500000 0.500000
#
# Coordination Sequence:
#
# PCOD9070017 Si02
#       8
#     2   2   2   2   2   2   2   2
#     4  12  24  44  75 108 144 184 231 294 366 428
#     4  12  27  48  74 102 143 193 241 299 349 416
#     4  12  25  45  75 106 142 185 238 294 357 420
#     4  12  27  49  72 104 145 186 247 298 349 419
#     4  12  27  48  72 108 144 186 239 296 359 425
#     4  12  27  45  75 109 143 191 236 291 361 426
#     4  12  24  44  74 107 146 185 230 296 363 425
#     4  12  27  45  74 107 145 189 238 289 361 426
#
# _framework density 26.083884999999999
#
# number of rings (size 3 to 8) (size 9 to 14) (size 15 to 20)
#    0.000    0.000    6.250    3.000    3.500    4.000 
#    0.000    0.000    0.000    0.000    0.000    0.000 
#    0.000    0.000    0.000    0.000    0.000    0.000 
#
# Total GULP energy -89821.416472 kJ/mol
# GULP energy per Si atom -5613.838529 kJ/mol
# Density = 2.602452 g / cm^3
# Si number density = 26.083885 Si / 1000 Ang^3
#
#
#
# Elastic Constant Matrix: (Units=GPa)
#
#
# Indices 1 2 3 4 5 6 
#
# 1 165.8791 36.0011 18.4976 -1.1549 9.0066 -4.0806
# 2 36.0011 88.8909 33.2618 10.9258 -3.8929 -17.3356
# 3 18.4976 33.2618 85.7922 18.5810 10.7897 0.3223
# 4 -1.1549 10.9258 18.5810 31.3474 0.0263 -1.6637
# 5 9.0066 -3.8929 10.7897 0.0263 41.3411 12.3067
# 6 -4.0806 -17.3356 0.3223 -1.6637 12.3067 44.8045
#
#
#
# Elastic Compliance Matrix: (Units=1/GPa)
#
#
# Indices 1 2 3 4 5 6 
#
# 1 0.006796 -0.002818 -0.000500 0.001532 -0.001627 0.000036
# 2 -0.002818 0.015748 -0.005285 -0.002182 0.001909 0.005269
# 3 -0.000500 -0.005285 0.016018 -0.007739 -0.004162 -0.001350
# 4 0.001532 -0.002182 -0.007739 0.037323 0.001348 0.000367
# 5 -0.001627 0.001909 -0.004162 0.001348 0.027890 -0.006990
# 6 0.000036 0.005269 -0.001350 0.000367 -0.006990 0.026305
#
#
# Mechanical properties :
#
#
# Convention : Reuss Voigt Hill
#
# Bulk Modulus (GPa) = 46.82748 57.34257 52.08503
# Shear Modulus (GPa) = 32.38274 40.35204 36.36739
#
# Velocity S-wave (km/s) = 3.52729 3.93747 3.73801
# Velocity P-wave (km/s) = 5.88053 6.53477 6.21627
#
# Compressibility (1/GPa) = 0.02135498
#
# Stress axis : x y z
#
# Youngs Moduli (GPa) = 147.15231 63.50017 62.43081
#
# Poissons Ratio (x) = 0.17892 0.03123
# Poissons Ratio (y) = 0.41462 0.32997
# Poissons Ratio (z) = 0.07360 0.33562
#
# Static dielectric constant tensor:
#      x y z
#    x 1.968070 -0.015970 -0.042080 
#    y -0.015970 2.105050 0.014280 
#    z -0.042080 0.014280 2.095230 
# 
# From -- ./inp_files/187097.got.cif
#   From: 2010.05.17/outbox.cif.g08.bks.cpg/sg2_94_cif.got.tgz:187097.got - 2010.06.03 11:33:40.
