data_PCOD9070333
_publ_section_title
;
Structure prediction by ZEFSAII (Michael W. Deem and Ramdas Pophale) SiO2 
 PCOD9070333
Probable space group: P -1
;
_chemical_formula_sum "Si O2"
_cell_formula_units_Z 16
_cell_length_a 10.998694
_cell_length_b 9.716081
_cell_length_c 9.737614
_cell_angle_alpha 136.413757
_cell_angle_beta 81.610395
_cell_angle_gamma 92.001808
_cell_volume 705.932345
_symmetry_space_group_name_H-M "P -1"
_symmetry_group_IT_number 2
_symmetry_cell_setting 'triclinic'
loop_
_space_group_symop_operation_xyz
x,y,z
-x,-y,-z
loop_
_atom_site_type_symbol
_atom_site_label
_atom_site_fract_x
_atom_site_fract_y
_atom_site_fract_z
Si Si1 0.711796 0.877569 0.482119
Si Si2 0.985165 0.731515 0.211684
Si Si3 0.758470 0.311615 0.738604
Si Si4 0.780241 0.725720 0.650978
Si Si5 0.989709 0.043491 0.195829
Si Si6 0.596350 0.666375 0.110752
Si Si7 0.267247 0.708886 0.577533
Si Si8 0.393949 0.040261 0.934650
O O1 0.849942 0.807765 0.348268
O O2 0.706963 0.798605 0.579463
O O3 0.612261 0.791758 0.336935
O O4 0.699351 0.118258 0.664337
O O5 0.094177 0.746763 0.316596
O O6 0.016013 0.858741 0.163236
O O7 0.000000 0.500000 0.000000
O O8 0.700166 0.349061 0.625146
O O9 0.724488 0.520066 0.971845
O O10 0.774286 0.489139 0.490269
O O11 0.719377 0.840295 0.876699
O O12 0.917206 0.792330 0.666754
O O13 0.849254 0.127184 0.301956
O O14 0.000000 0.000000 0.000000
O O15 0.500000 0.500000 0.000000
O O16 0.579588 0.820549 0.098204
O O17 0.363702 0.824444 0.727852
O O18 0.500000 0.000000 0.000000
#
# Coordination Sequence:
#
# PCOD9070333 Si02
#       8
#     2   2   2   2   2   2   2   2
#     4  12  26  48  73 109 144 187 236 289 354 423
#     4  12  25  42  74 108 149 187 227 290 356 424
#     4  12  24  47  75 103 144 186 233 288 355 423
#     4  12  28  46  74 109 143 190 233 288 360 423
#     4  12  25  43  72 108 149 187 230 286 356 427
#     4  12  29  49  75 104 138 189 244 296 351 414
#     4  12  26  47  75 103 148 189 231 288 358 424
#     4  12  29  51  72 103 144 185 242 302 347 415
#
# _framework density 22.665063
#
# number of rings (size 3 to 8) (size 9 to 14) (size 15 to 20)
#    0.000    0.000    7.500    1.500    7.000    2.000 
#    0.000    0.000    0.000    0.000    0.000    0.000 
#    0.000    0.000    0.000    0.000    0.000    0.000 
#
# Total GULP energy -89554.693381 kJ/mol
# GULP energy per Si atom -5597.168336 kJ/mol
# Density = 2.261348 g / cm^3
# Si number density = 22.665063 Si / 1000 Ang^3
#
#
#
# Elastic Constant Matrix: (Units=GPa)
#
#
# Indices 1 2 3 4 5 6 
#
# 1 76.6129 18.7001 12.1677 -0.1942 32.8910 2.6663
# 2 18.7001 161.5508 47.2577 9.5407 38.8937 1.5332
# 3 12.1677 47.2577 109.4116 2.2100 36.3104 1.1368
# 4 -0.1942 9.5407 2.2100 48.0824 -1.2789 2.6567
# 5 32.8910 38.8937 36.3104 -1.2789 50.2406 -3.2580
# 6 2.6663 1.5332 1.1368 2.6567 -3.2580 25.4809
#
#
#
# Elastic Compliance Matrix: (Units=1/GPa)
#
#
# Indices 1 2 3 4 5 6 
#
# 1 0.019175 0.000751 0.002688 -0.000377 -0.015353 -0.004095
# 2 0.000751 0.008047 -0.001643 -0.001611 -0.005643 -0.001043
# 3 0.002688 -0.001643 0.012876 -0.000409 -0.009933 -0.001984
# 4 -0.000377 -0.001611 -0.000409 0.021292 0.002216 -0.001782
# 5 -0.015353 -0.005643 -0.009933 0.002216 0.042048 0.007534
# 6 -0.004095 -0.001043 -0.001984 -0.001782 0.007534 0.040974
#
#
# Mechanical properties :
#
#
# Convention : Reuss Voigt Hill
#
# Bulk Modulus (GPa) = 22.88778 55.98068 39.43423
# Shear Modulus (GPa) = 32.17860 42.72410 37.45135
#
# Velocity S-wave (km/s) = 3.77204 4.34639 4.06936
# Velocity P-wave (km/s) = 5.39363 7.06689 6.28618
#
# Compressibility (1/GPa) = 0.04369144
#
# Stress axis : x y z
#
# Youngs Moduli (GPa) = 52.15055 124.26601 77.66456
#
# Poissons Ratio (x) = -0.09338 -0.20880
# Poissons Ratio (y) = -0.03919 0.12763
# Poissons Ratio (z) = -0.14020 0.20422
#
# Static dielectric constant tensor:
#      x y z
#    x 1.901230 0.007000 -0.030330 
#    y 0.007000 1.814320 -0.007280 
#    z -0.030330 -0.007280 1.913560 
# 
# From -- ./inp_files/188030.got.cif
#   From: 2010.05.17/outbox.cif.g08.bks.cpg/sg2_95_cif.got.tgz:188030.got - 2010.06.03 11:33:40.
