data_PCOD9070810
_publ_section_title
;
Structure prediction by ZEFSAII (Michael W. Deem and Ramdas Pophale) SiO2 
 PCOD9070810
Probable space group: P -1
;
_chemical_formula_sum "Si O2"
_cell_formula_units_Z 15
_cell_length_a 8.196503
_cell_length_b 12.027320
_cell_length_c 11.100829
_cell_angle_alpha 44.087928
_cell_angle_beta 56.658721
_cell_angle_gamma 66.785995
_cell_volume 636.082602
_symmetry_space_group_name_H-M "P -1"
_symmetry_group_IT_number 2
_symmetry_cell_setting 'triclinic'
loop_
_space_group_symop_operation_xyz
x,y,z
-x,-y,-z
loop_
_atom_site_type_symbol
_atom_site_label
_atom_site_fract_x
_atom_site_fract_y
_atom_site_fract_z
Si Si1 0.609529 0.531397 0.305970
Si Si2 0.658051 0.316700 0.257616
Si Si3 0.508389 0.871006 0.991339
Si Si4 0.930110 0.183482 0.872278
Si Si5 0.500000 0.000000 0.500000
Si Si6 0.816540 0.074510 0.581796
Si Si7 0.938217 0.466462 0.839034
Si Si8 0.113400 0.215226 0.528148
O O1 0.500000 0.500000 0.500000
O O2 0.525285 0.434487 0.300355
O O3 0.837637 0.490523 0.257993
O O4 0.600456 0.715123 0.132726
O O5 0.572589 0.185724 0.303514
O O6 0.730431 0.198528 0.425957
O O7 0.815783 0.422030 0.041847
O O8 0.647952 0.946769 0.774634
O O9 0.296234 0.828971 0.061633
O O10 0.500000 0.000000 0.000000
O O11 0.946343 0.306047 0.880309
O O12 0.063166 0.253311 0.656454
O O13 0.000000 0.000000 0.000000
O O14 0.278448 0.077861 0.559574
O O15 0.909212 0.146484 0.608881
O O16 0.000000 0.000000 0.500000
O O17 0.847608 0.621676 0.688736
#
# Coordination Sequence:
#
# PCOD9070810 Si02
#       8
#     2   2   2   2   1   2   2   2
#     4  12  27  48  79 114 152 203 261 320 382 464
#     4  12  28  49  75 115 152 200 256 316 388 461
#     4  12  26  48  78 112 148 207 264 313 385 461
#     4  12  28  49  78 110 158 201 263 323 389 462
#     4  12  30  46  78 110 160 200 258 312 394 456
#     4  12  25  46  78 107 151 195 257 310 377 459
#     4  12  28  50  79 112 156 203 252 325 397 455
#     4  12  27  51  75 112 153 208 254 325 386 463
#
# _framework density 23.581844
#
# number of rings (size 3 to 8) (size 9 to 14) (size 15 to 20)
#    0.000    0.000    4.000    4.800    9.333    0.533 
#    0.000    0.000    0.000    0.000    0.000    0.000 
#    0.000    0.000    0.000    0.000    0.000    0.000 
#
# Total GULP energy -83695.295946 kJ/mol
# GULP energy per Si atom -5579.686396 kJ/mol
# Density = 2.352817 g / cm^3
# Si number density = 23.581844 Si / 1000 Ang^3
#
#
#
# Elastic Constant Matrix: (Units=GPa)
#
#
# Indices 1 2 3 4 5 6 
#
# 1 37.0532 -2.4298 27.2999 15.0669 -3.7714 -15.3092
# 2 -2.4298 123.7980 62.8311 -4.9071 12.7117 1.2879
# 3 27.2999 62.8311 196.4314 15.0119 -1.5530 -11.1222
# 4 15.0669 -4.9071 15.0119 47.8810 -7.1162 4.7026
# 5 -3.7714 12.7117 -1.5530 -7.1162 37.1159 -3.0822
# 6 -15.3092 1.2879 -11.1222 4.7026 -3.0822 36.1151
#
#
#
# Elastic Compliance Matrix: (Units=1/GPa)
#
#
# Indices 1 2 3 4 5 6 
#
# 1 0.044483 0.002274 -0.004741 -0.013805 0.002501 0.019326
# 2 0.002274 0.010475 -0.003841 0.001161 -0.003380 -0.001032
# 3 -0.004741 -0.003841 0.007095 -0.001033 0.000976 0.000530
# 4 -0.013805 0.001161 -0.001033 0.026983 0.002540 -0.009508
# 5 0.002501 -0.003380 0.000976 0.002540 0.029185 0.003641
# 6 0.019326 -0.001032 0.000530 -0.009508 0.003641 0.037631
#
#
# Mechanical properties :
#
#
# Convention : Reuss Voigt Hill
#
# Bulk Modulus (GPa) = 20.22696 59.18721 39.70708
# Shear Modulus (GPa) = 27.03488 42.19449 34.61469
#
# Velocity S-wave (km/s) = 3.38957 4.23458 3.83541
# Velocity P-wave (km/s) = 4.89028 7.00442 6.04056
#
# Compressibility (1/GPa) = 0.04943897
#
# Stress axis : x y z
#
# Youngs Moduli (GPa) = 22.48045 95.46173 140.94727
#
# Poissons Ratio (x) = -0.21707 0.66816
# Poissons Ratio (y) = -0.05112 0.54133
# Poissons Ratio (z) = 0.10657 0.36663
#
# Static dielectric constant tensor:
#      x y z
#    x 2.071760 0.033900 0.016400 
#    y 0.033900 2.004950 -0.000450 
#    z 0.016400 -0.000450 1.875960 
# 
# From -- ./inp_files/183255.got.cif
#   From: 2010.05.17/outbox.cif.g08.bks.cpg/sg2_92_cif.got.tgz:183255.got - 2010.06.03 11:33:40.
