data_PCOD9070209
_publ_section_title
;
Structure prediction by ZEFSAII (Michael W. Deem and Ramdas Pophale) SiO2 
 PCOD9070209
Probable space group: P -1
;
_chemical_formula_sum "Si O2"
_cell_formula_units_Z 16
_cell_length_a 21.238614
_cell_length_b 13.156781
_cell_length_c 9.153286
_cell_angle_alpha 143.470369
_cell_angle_beta 63.381656
_cell_angle_gamma 143.579204
_cell_volume 747.746369
_symmetry_space_group_name_H-M "P -1"
_symmetry_group_IT_number 2
_symmetry_cell_setting 'triclinic'
loop_
_space_group_symop_operation_xyz
x,y,z
-x,-y,-z
loop_
_atom_site_type_symbol
_atom_site_label
_atom_site_fract_x
_atom_site_fract_y
_atom_site_fract_z
Si Si1 0.128552 0.737848 0.236794
Si Si2 0.129022 0.295735 0.124879
Si Si3 0.262610 0.904771 0.761572
Si Si4 0.652539 0.767276 0.656839
Si Si5 0.764520 0.841411 0.131158
Si Si6 0.871443 0.662301 0.170109
Si Si7 0.613523 0.312239 0.146858
Si Si8 0.517361 0.215883 0.812261
O O1 0.258205 0.028555 0.342324
O O2 0.136913 0.887298 0.535537
O O3 0.126725 0.539106 0.063182
O O4 0.000000 0.500000 0.000000
O O5 0.161039 0.553416 0.430298
O O6 0.215893 0.315706 0.114524
O O7 0.131861 0.285691 0.935036
O O8 0.000000 0.000000 0.000000
O O9 0.234749 0.022541 0.842488
O O10 0.391116 0.072895 0.767148
O O11 0.283782 0.986413 0.002760
O O12 0.500000 0.500000 0.500000
O O13 0.658808 0.581812 0.481528
O O14 0.627287 0.553998 0.018695
O O15 0.740612 0.458154 0.150951
O O16 0.000000 0.000000 0.500000
O O17 0.554446 0.246090 0.974917
O O18 0.500000 0.000000 0.000000
O O19 0.500000 0.000000 0.500000
#
# Coordination Sequence:
#
# PCOD9070209 Si02
#       8
#     2   2   2   2   2   2   2   2
#     4  12  26  47  76 104 145 194 242 302 367 438
#     4  12  28  49  73 107 150 191 249 304 364 439
#     4  12  27  46  74 108 145 195 241 303 370 435
#     4  12  25  47  69 108 146 188 247 303 361 439
#     4  12  25  49  74 106 146 192 245 301 363 443
#     4  12  26  49  75 106 148 196 245 302 371 438
#     4  12  26  45  75 109 145 191 249 304 367 440
#     4  12  24  46  75 103 148 191 241 300 374 434
#
# _framework density 21.397631000000001
#
# number of rings (size 3 to 8) (size 9 to 14) (size 15 to 20)
#    0.000    0.000    6.250    2.625    5.250    2.500 
#    0.000    0.000    0.000    0.000    0.000    0.000 
#    0.000    0.000    0.000    0.000    0.000    0.000 
#
# Total GULP energy -89471.537715 kJ/mol
# GULP energy per Si atom -5591.971107 kJ/mol
# Density = 2.134893 g / cm^3
# Si number density = 21.397631 Si / 1000 Ang^3
#
#
#
# Elastic Constant Matrix: (Units=GPa)
#
#
# Indices 1 2 3 4 5 6 
#
# 1 89.7477 21.8136 1.0105 9.5711 -16.1148 -12.7508
# 2 21.8136 99.0270 17.5822 21.7013 0.8029 3.9307
# 3 1.0105 17.5822 91.7558 2.7588 -9.6724 -15.6498
# 4 9.5711 21.7013 2.7588 44.7311 -0.1364 -4.5195
# 5 -16.1148 0.8029 -9.6724 -0.1364 43.0115 6.6120
# 6 -12.7508 3.9307 -15.6498 -4.5195 6.6120 22.9177
#
#
#
# Elastic Compliance Matrix: (Units=1/GPa)
#
#
# Indices 1 2 3 4 5 6 
#
# 1 0.014200 -0.003899 0.002614 -0.000390 0.004604 0.008950
# 2 -0.003899 0.013314 -0.003811 -0.006190 -0.001375 -0.007880
# 3 0.002614 -0.003811 0.013697 0.001571 0.002434 0.011069
# 4 -0.000390 -0.006190 0.001571 0.026077 -0.000711 0.007265
# 5 0.004604 -0.001375 0.002434 -0.000711 0.026036 -0.003192
# 6 0.008950 -0.007880 0.011069 0.007265 -0.003192 0.059878
#
#
# Mechanical properties :
#
#
# Convention : Reuss Voigt Hill
#
# Bulk Modulus (GPa) = 32.23761 40.14923 36.19342
# Shear Modulus (GPa) = 28.77934 38.14034 33.45984
#
# Velocity S-wave (km/s) = 3.67137 4.22649 3.95868
# Velocity P-wave (km/s) = 5.75071 6.52854 6.15193
#
# Compressibility (1/GPa) = 0.03101967
#
# Stress axis : x y z
#
# Youngs Moduli (GPa) = 70.42044 75.10672 73.00709
#
# Poissons Ratio (x) = 0.29287 -0.19086
# Poissons Ratio (y) = 0.27460 0.27824
# Poissons Ratio (z) = -0.18410 0.28624
#
# Static dielectric constant tensor:
#      x y z
#    x 1.800580 0.043170 -0.014980 
#    y 0.043170 1.739090 -0.007340 
#    z -0.014980 -0.007340 1.783020 
# 
# From -- ./inp_files/346481.got.cif
#   From: 2010.05.17/outbox.cif.g08.bks.cpg/sg2_174_cif.got.tgz:346481.got - 2010.06.03 11:33:40.
