data_PCOD9070901
_publ_section_title
;
Structure prediction by ZEFSAII (Michael W. Deem and Ramdas Pophale) SiO2 
 PCOD9070901
Probable space group: P -1
;
_chemical_formula_sum "Si O2"
_cell_formula_units_Z 13
_cell_length_a 8.837050
_cell_length_b 11.533170
_cell_length_c 8.760394
_cell_angle_alpha 44.821596
_cell_angle_beta 79.874812
_cell_angle_gamma 99.703017
_cell_volume 561.533841
_symmetry_space_group_name_H-M "P -1"
_symmetry_group_IT_number 2
_symmetry_cell_setting 'triclinic'
loop_
_space_group_symop_operation_xyz
x,y,z
-x,-y,-z
loop_
_atom_site_type_symbol
_atom_site_label
_atom_site_fract_x
_atom_site_fract_y
_atom_site_fract_z
Si Si1 0.369893 0.752294 0.962631
Si Si2 0.736320 0.511616 0.211064
Si Si3 0.500000 0.500000 0.000000
Si Si4 0.704942 0.108061 0.617942
Si Si5 0.168072 0.461153 0.495091
Si Si6 0.988485 0.081790 0.763241
Si Si7 0.077541 0.816401 0.790216
O O1 0.317324 0.635236 0.234851
O O2 0.418362 0.643890 0.923740
O O3 0.203431 0.774016 0.917218
O O4 0.522259 0.947016 0.779337
O O5 0.705224 0.304515 0.433973
O O6 0.780135 0.589403 0.303144
O O7 0.585419 0.528325 0.131282
O O8 0.906326 0.633706 0.972485
O O9 0.822302 0.112265 0.449729
O O10 0.803874 0.076302 0.773287
O O11 0.120181 0.292667 0.545309
O O12 0.000000 0.500000 0.500000
O O13 0.032499 0.968546 0.733663
O O14 0.000000 0.000000 0.000000
#
# Coordination Sequence:
#
# PCOD9070901 Si02
#       7
#     2   2   1   2   2   2   2
#     4  12  28  48  74 113 155 193 253 313 379 437
#     4  12  26  51  79 108 154 197 257 305 380 442
#     4  12  30  48  74 114 152 196 252 316 372 438
#     4  12  27  47  73 115 150 199 247 318 373 444
#     4  12  25  51  78 110 148 204 250 310 371 457
#     4  12  25  47  78 111 148 196 261 302 379 451
#     4  12  25  49  78 111 147 203 252 308 372 456
#
# _framework density 23.150876
#
# number of rings (size 3 to 8) (size 9 to 14) (size 15 to 20)
#    0.000    0.000    6.154    2.308    4.308    1.231 
#    0.000    0.000    0.000    0.000    0.000    0.000 
#    0.000    0.000    0.000    0.000    0.000    0.000 
#
# Total GULP energy -72607.196790 kJ/mol
# GULP energy per Si atom -5585.168984 kJ/mol
# Density = 2.309818 g / cm^3
# Si number density = 23.150876 Si / 1000 Ang^3
#
#
#
# Elastic Constant Matrix: (Units=GPa)
#
#
# Indices 1 2 3 4 5 6 
#
# 1 106.7158 23.9716 29.2340 -13.7307 30.3332 18.5359
# 2 23.9716 68.7116 18.0157 -25.4030 -2.3405 6.1282
# 3 29.2340 18.0157 97.7458 -16.8421 -12.3602 8.8685
# 4 -13.7307 -25.4030 -16.8421 49.7536 12.4305 18.4673
# 5 30.3332 -2.3405 -12.3602 12.4305 40.2371 10.9022
# 6 18.5359 6.1282 8.8685 18.4673 10.9022 35.6702
#
#
#
# Elastic Compliance Matrix: (Units=1/GPa)
#
#
# Indices 1 2 3 4 5 6 
#
# 1 0.018261 -0.001285 -0.004823 0.009837 -0.016131 -0.008232
# 2 -0.001285 0.021229 -0.000041 0.014216 0.000652 -0.010528
# 3 -0.004823 -0.000041 0.013712 0.003091 0.008250 -0.005017
# 4 0.009837 0.014216 0.003091 0.044344 -0.011844 -0.027660
# 5 -0.016131 0.000652 0.008250 -0.011844 0.043500 -0.000944
# 6 -0.008232 -0.010528 -0.005017 -0.027660 -0.000944 0.049978
#
#
# Mechanical properties :
#
#
# Convention : Reuss Voigt Hill
#
# Bulk Modulus (GPa) = 24.44750 46.17952 35.31351
# Shear Modulus (GPa) = 23.04608 38.59564 30.82086
#
# Velocity S-wave (km/s) = 3.15854 4.08749 3.65266
# Velocity P-wave (km/s) = 4.88721 6.50133 5.75117
#
# Compressibility (1/GPa) = 0.04090399
#
# Stress axis : x y z
#
# Youngs Moduli (GPa) = 54.76141 47.10427 72.93085
#
# Poissons Ratio (x) = 0.06052 0.35172
# Poissons Ratio (y) = 0.07036 0.00303
# Poissons Ratio (z) = 0.26410 0.00195
#
# Static dielectric constant tensor:
#      x y z
#    x 1.829420 0.003160 -0.000250 
#    y 0.003160 1.902810 0.012560 
#    z -0.000250 0.012560 1.859800 
# 
# From -- ./inp_files/174220.got.cif
#   From: 2010.05.17/outbox.cif.g08.bks.cpg/sg2_88_cif.got.tgz:174220.got - 2010.06.03 11:33:40.
