data_PCOD9070210
_publ_section_title
;
Structure prediction by ZEFSAII (Michael W. Deem and Ramdas Pophale) SiO2 
 PCOD9070210
Probable space group: P -1
;
_chemical_formula_sum "Si O2"
_cell_formula_units_Z 12
_cell_length_a 25.063002
_cell_length_b 25.540559
_cell_length_c 8.278366
_cell_angle_alpha 147.971127
_cell_angle_beta 149.967167
_cell_angle_gamma 11.293755
_cell_volume 519.369497
_symmetry_space_group_name_H-M "P -1"
_symmetry_group_IT_number 2
_symmetry_cell_setting 'triclinic'
loop_
_space_group_symop_operation_xyz
x,y,z
-x,-y,-z
loop_
_atom_site_type_symbol
_atom_site_label
_atom_site_fract_x
_atom_site_fract_y
_atom_site_fract_z
Si Si1 0.184766 0.747499 0.381236
Si Si2 0.198665 0.105070 0.732742
Si Si3 0.189825 0.424915 0.876400
Si Si4 0.918672 0.388107 0.248869
Si Si5 0.523305 0.088522 0.369890
Si Si6 0.176401 0.755318 0.764065
O O1 0.500000 0.500000 0.500000
O O2 0.166053 0.757911 0.551669
O O3 0.118852 0.692869 0.007691
O O4 0.000000 0.000000 0.500000
O O5 0.986844 0.198480 0.469270
O O6 0.316328 0.991767 0.564389
O O7 0.999466 0.372114 0.939075
O O8 0.483678 0.870879 0.980415
O O9 0.192012 0.501200 0.933934
O O10 0.000000 0.500000 0.500000
O O11 0.748996 0.613739 0.504903
O O12 0.260341 0.111695 0.436113
O O13 0.500000 0.000000 0.000000
O O14 0.500000 0.500000 0.000000
O O15 0.000000 0.000000 0.000000
#
# Coordination Sequence:
#
# PCOD9070210 Si02
#       6
#     2   2   2   2   2   2
#     4  12  28  48  73 105 141 189 244 298 360 423
#     4  12  26  46  71 105 147 183 238 295 357 432
#     4  12  24  46  75 104 140 188 235 296 362 430
#     4  12  26  46  73 104 147 185 238 298 354 429
#     4  12  26  46  73 109 146 189 236 290 362 432
#     4  12  28  48  73 104 143 187 242 300 361 425
#
# _framework density 23.104937
#
# number of rings (size 3 to 8) (size 9 to 14) (size 15 to 20)
#    0.000    0.000    1.667    8.000    9.333    0.000 
#    0.000    0.000    0.000    0.000    0.000    0.000 
#    0.000    0.000    0.000    0.000    0.000    0.000 
#
# Total GULP energy -67170.329981 kJ/mol
# GULP energy per Si atom -5597.527498 kJ/mol
# Density = 2.305235 g / cm^3
# Si number density = 23.104937 Si / 1000 Ang^3
#
#
#
# Elastic Constant Matrix: (Units=GPa)
#
#
# Indices 1 2 3 4 5 6 
#
# 1 100.9978 10.4574 9.7315 -3.2100 6.3551 6.5687
# 2 10.4574 166.2957 53.8472 2.5716 14.2455 0.6226
# 3 9.7315 53.8472 126.3751 10.5544 21.4491 5.1934
# 4 -3.2100 2.5716 10.5544 53.9075 -2.5950 -5.7989
# 5 6.3551 14.2455 21.4491 -2.5950 39.0409 -2.0173
# 6 6.5687 0.6226 5.1934 -5.7989 -2.0173 24.8295
#
#
#
# Elastic Compliance Matrix: (Units=1/GPa)
#
#
# Indices 1 2 3 4 5 6 
#
# 1 0.010250 -0.000424 -0.000274 0.000324 -0.001481 -0.002688
# 2 -0.000424 0.007035 -0.002852 0.000209 -0.000891 0.000509
# 3 -0.000274 -0.002852 0.010308 -0.002455 -0.004895 -0.002983
# 4 0.000324 0.000209 -0.002455 0.019741 0.002804 0.005261
# 5 -0.001481 -0.000891 -0.004895 0.002804 0.029287 0.004472
# 6 -0.002688 0.000509 -0.002983 0.005261 0.004472 0.043189
#
#
# Mechanical properties :
#
#
# Convention : Reuss Voigt Hill
#
# Bulk Modulus (GPa) = 48.79828 60.19342 54.49585
# Shear Modulus (GPa) = 37.38597 44.86441 41.12519
#
# Velocity S-wave (km/s) = 4.02692 4.41133 4.22350
# Velocity P-wave (km/s) = 6.54122 7.21493 6.88632
#
# Compressibility (1/GPa) = 0.02049253
#
# Stress axis : x y z
#
# Youngs Moduli (GPa) = 97.56291 142.15268 97.01494
#
# Poissons Ratio (x) = 0.06027 0.02657
# Poissons Ratio (y) = 0.04136 0.27668
# Poissons Ratio (z) = 0.02672 0.40542
#
# Static dielectric constant tensor:
#      x y z
#    x 1.842130 0.032570 -0.073400 
#    y 0.032570 1.810210 -0.010020 
#    z -0.073400 -0.010020 1.670830 
# 
# From -- ./inp_files/87548.got.cif
#   From: 2010.05.17/outbox.cif.g08.bks.cpg/sg2_44_cif.got.tgz:87548.got - 2010.06.03 11:33:40.
