data_PCOD9070355
_publ_section_title
;
Structure prediction by ZEFSAII (Michael W. Deem and Ramdas Pophale) SiO2 
 PCOD9070355
Probable space group: P -1
;
_chemical_formula_sum "Si O2"
_cell_formula_units_Z 16
_cell_length_a 14.392211
_cell_length_b 7.833927
_cell_length_c 24.576705
_cell_angle_alpha 53.861785
_cell_angle_beta 28.690433
_cell_angle_gamma 36.544922
_cell_volume 725.167910
_symmetry_space_group_name_H-M "P -1"
_symmetry_group_IT_number 2
_symmetry_cell_setting 'triclinic'
loop_
_space_group_symop_operation_xyz
x,y,z
-x,-y,-z
loop_
_atom_site_type_symbol
_atom_site_label
_atom_site_fract_x
_atom_site_fract_y
_atom_site_fract_z
Si Si1 0.703316 0.723007 0.077574
Si Si2 0.955021 0.795971 0.082993
Si Si3 0.256532 0.730367 0.335898
Si Si4 0.371004 0.436565 0.119437
Si Si5 0.654057 0.656524 0.735292
Si Si6 0.744744 0.415923 0.424150
Si Si7 0.749350 0.580401 0.508749
Si Si8 0.168780 0.226842 0.728545
O O1 0.501714 0.708940 0.210882
O O2 0.532782 0.081062 0.095257
O O3 0.000000 0.500000 0.000000
O O4 0.800899 0.550198 0.001776
O O5 0.930451 0.800032 0.159575
O O6 0.641312 0.976532 0.187976
O O7 0.000000 0.000000 0.000000
O O8 0.318225 0.491745 0.306938
O O9 0.233013 0.649493 0.422574
O O10 0.972399 0.066685 0.395374
O O11 0.393391 0.462628 0.167088
O O12 0.037363 0.690651 0.228227
O O13 0.500000 0.500000 0.000000
O O14 0.939324 0.560103 0.619775
O O15 0.500000 0.500000 0.500000
O O16 0.661697 0.606384 0.486627
O O17 0.876467 0.485268 0.303235
O O18 0.499077 0.914987 0.603740
#
# Coordination Sequence:
#
# PCOD9070355 Si02
#       8
#     2   2   2   2   2   2   2   2
#     4  12  26  47  74 106 147 192 247 301 359 436
#     4  12  25  46  76 107 143 193 249 297 359 440
#     4  12  26  47  76 108 145 195 247 300 362 441
#     4  12  28  47  74 106 147 193 242 305 374 427
#     4  12  24  47  76 108 145 192 248 297 361 448
#     4  12  28  46  69 109 149 185 241 305 367 431
#     4  12  26  48  74 104 148 196 241 295 373 441
#     4  12  26  48  70 105 145 189 240 301 370 427
#
# _framework density 22.063856999999999
#
# number of rings (size 3 to 8) (size 9 to 14) (size 15 to 20)
#    0.000    0.000    6.250    2.625    5.250    2.500 
#    0.000    0.000    0.000    0.000    0.000    0.000 
#    0.000    0.000    0.000    0.000    0.000    0.000 
#
# Total GULP energy -89518.932146 kJ/mol
# GULP energy per Si atom -5594.933259 kJ/mol
# Density = 2.201364 g / cm^3
# Si number density = 22.063857 Si / 1000 Ang^3
#
#
#
# Elastic Constant Matrix: (Units=GPa)
#
#
# Indices 1 2 3 4 5 6 
#
# 1 102.9066 21.2475 35.1961 -13.0856 -3.8442 -15.5567
# 2 21.2475 104.8514 42.7438 -12.3541 8.4989 -17.1105
# 3 35.1961 42.7438 103.9862 -14.5738 -7.4493 -8.6755
# 4 -13.0856 -12.3541 -14.5738 42.2215 -4.3657 2.8661
# 5 -3.8442 8.4989 -7.4493 -4.3657 49.1273 5.4434
# 6 -15.5567 -17.1105 -8.6755 2.8661 5.4434 39.1393
#
#
#
# Elastic Compliance Matrix: (Units=1/GPa)
#
#
# Indices 1 2 3 4 5 6 
#
# 1 0.011715 -0.000216 -0.003242 0.002228 0.000257 0.003644
# 2 -0.000216 0.012761 -0.004828 0.001327 -0.003370 0.004794
# 3 -0.003242 -0.004828 0.013169 0.002503 0.002919 -0.001069
# 4 0.002228 0.001327 0.002503 0.025918 0.002655 -0.000247
# 5 0.000257 -0.003370 0.002919 0.002655 0.022079 -0.003989
# 6 0.003644 0.004794 -0.001069 -0.000247 -0.003989 0.029430
#
#
# Mechanical properties :
#
#
# Convention : Reuss Voigt Hill
#
# Bulk Modulus (GPa) = 47.45236 56.67990 52.06613
# Shear Modulus (GPa) = 36.05742 40.26807 38.16274
#
# Velocity S-wave (km/s) = 4.04695 4.27672 4.16342
# Velocity P-wave (km/s) = 6.58715 7.08039 6.83822
#
# Compressibility (1/GPa) = 0.02107377
#
# Stress axis : x y z
#
# Youngs Moduli (GPa) = 85.36322 78.36355 75.93579
#
# Poissons Ratio (x) = 0.01693 0.24615
# Poissons Ratio (y) = 0.01844 0.36661
# Poissons Ratio (z) = 0.27671 0.37833
#
# Static dielectric constant tensor:
#      x y z
#    x 2.327600 0.159250 0.195000 
#    y 0.159250 1.834490 0.071090 
#    z 0.195000 0.071090 1.905380 
# 
# From -- ./inp_files/611746.got.cif
#   From: 2010.05.17/outbox.cif.g08.bks.cpg/sg2_306_cif.got.tgz:611746.got - 2010.06.03 11:33:40.
