data_PCOD9070061
_publ_section_title
;
Structure prediction by ZEFSAII (Michael W. Deem and Ramdas Pophale) SiO2 
 PCOD9070061
Probable space group: P -1
;
_chemical_formula_sum "Si O2"
_cell_formula_units_Z 13
_cell_length_a 12.935591
_cell_length_b 8.471697
_cell_length_c 9.685189
_cell_angle_alpha 66.893277
_cell_angle_beta 35.056465
_cell_angle_gamma 84.080664
_cell_volume 510.700484
_symmetry_space_group_name_H-M "P -1"
_symmetry_group_IT_number 2
_symmetry_cell_setting 'triclinic'
loop_
_space_group_symop_operation_xyz
x,y,z
-x,-y,-z
loop_
_atom_site_type_symbol
_atom_site_label
_atom_site_fract_x
_atom_site_fract_y
_atom_site_fract_z
Si Si1 0.089295 0.660518 0.169296
Si Si2 0.578147 0.398748 0.062605
Si Si3 0.634414 0.975348 0.739949
Si Si4 0.253158 0.385628 0.623853
Si Si5 0.000000 0.000000 0.500000
Si Si6 0.808033 0.923023 0.013066
Si Si7 0.336634 0.730090 0.598800
O O1 0.188848 0.544221 0.186465
O O2 0.233677 0.729807 0.854981
O O3 0.104426 0.850032 0.162427
O O4 0.872169 0.565767 0.373760
O O5 0.493729 0.185405 0.171734
O O6 0.460632 0.408898 0.324318
O O7 0.500000 0.500000 0.000000
O O8 0.799847 0.928749 0.648187
O O9 0.731689 0.165218 0.480620
O O10 0.500000 0.000000 0.000000
O O11 0.139601 0.174572 0.879677
O O12 0.283497 0.522045 0.672403
O O13 0.872266 0.871666 0.815050
O O14 0.571771 0.842491 0.307537
#
# Coordination Sequence:
#
# PCOD9070061 Si02
#       7
#     2   2   2   2   1   2   2
#     4  12  25  48  72 103 145 189 238 295 353 428
#     4  12  27  44  72 102 146 190 235 296 356 422
#     4  12  24  45  68 103 141 189 236 290 354 420
#     4  12  27  45  73 111 141 186 243 293 358 427
#     4  12  26  42  76 102 142 184 244 288 348 426
#     4  12  24  47  76 105 142 193 237 291 363 420
#     4  12  24  46  76 103 145 187 238 297 360 416
#
# _framework density 25.455233
#
# number of rings (size 3 to 8) (size 9 to 14) (size 15 to 20)
#    0.000    0.000    4.615    5.538    0.000    1.846 
#    0.000    0.000    0.000    0.000    0.000    0.000 
#    0.000    0.000    0.000    0.000    0.000    0.000 
#
# Total GULP energy -72607.105568 kJ/mol
# GULP energy per Si atom -5585.161967 kJ/mol
# Density = 2.539730 g / cm^3
# Si number density = 25.455233 Si / 1000 Ang^3
#
#
#
# Elastic Constant Matrix: (Units=GPa)
#
#
# Indices 1 2 3 4 5 6 
#
# 1 139.4160 25.3125 3.1587 13.8368 -9.2314 -22.8079
# 2 25.3125 74.0460 7.4726 -9.7196 -4.7272 -18.6142
# 3 3.1587 7.4726 63.2991 25.8732 -3.1184 -9.3738
# 4 13.8368 -9.7196 25.8732 25.0849 -8.9217 -9.2064
# 5 -9.2314 -4.7272 -3.1184 -8.9217 59.4918 -11.4026
# 6 -22.8079 -18.6142 -9.3738 -9.2064 -11.4026 27.2942
#
#
#
# Elastic Compliance Matrix: (Units=1/GPa)
#
#
# Indices 1 2 3 4 5 6 
#
# 1 0.009435 -0.004179 0.004769 -0.010326 0.000483 0.003391
# 2 -0.004179 0.037579 -0.022513 0.062763 0.018902 0.043471
# 3 0.004769 -0.022513 0.041984 -0.069412 -0.014306 -0.026339
# 4 -0.010326 0.062763 -0.069412 0.193042 0.046914 0.095048
# 5 0.000483 0.018902 -0.014306 0.046914 0.031862 0.037517
# 6 0.003391 0.043471 -0.026339 0.095048 0.037517 0.107806
#
#
# Mechanical properties :
#
#
# Convention : Reuss Voigt Hill
#
# Bulk Modulus (GPa) = 22.14685 38.73875 30.44280
# Shear Modulus (GPa) = 10.40356 38.42865 24.41611
#
# Velocity S-wave (km/s) = 2.02383 3.88964 3.10042
# Velocity P-wave (km/s) = 3.76568 5.95180 4.98017
#
# Compressibility (1/GPa) = 0.04515315
#
# Stress axis : x y z
#
# Youngs Moduli (GPa) = 105.98744 26.61060 23.81835
#
# Poissons Ratio (x) = 0.11120 -0.11359
# Poissons Ratio (y) = 0.44289 0.53623
# Poissons Ratio (z) = -0.50548 0.59909
#
# Static dielectric constant tensor:
#      x y z
#    x 2.019580 -0.076780 0.013510 
#    y -0.076780 2.050800 -0.008030 
#    z 0.013510 -0.008030 1.979190 
# 
# From -- ./inp_files/156413.got.cif
#   From: 2010.05.17/outbox.cif.g08.bks.cpg/sg2_79_cif.got.tgz:156413.got - 2010.06.03 11:33:40.
