data_PCOD9070564
_publ_section_title
;
Structure prediction by ZEFSAII (Michael W. Deem and Ramdas Pophale) SiO2 
 PCOD9070564
Probable space group: P -1
;
_chemical_formula_sum "Si O2"
_cell_formula_units_Z 16
_cell_length_a 9.776916
_cell_length_b 8.128466
_cell_length_c 22.707373
_cell_angle_alpha 51.882567
_cell_angle_beta 62.503195
_cell_angle_gamma 106.235225
_cell_volume 740.276925
_symmetry_space_group_name_H-M "P -1"
_symmetry_group_IT_number 2
_symmetry_cell_setting 'triclinic'
loop_
_space_group_symop_operation_xyz
x,y,z
-x,-y,-z
loop_
_atom_site_type_symbol
_atom_site_label
_atom_site_fract_x
_atom_site_fract_y
_atom_site_fract_z
Si Si1 0.363806 0.551877 0.791148
Si Si2 0.954434 0.176432 0.048875
Si Si3 0.545758 0.124352 0.783832
Si Si4 0.556247 0.907924 0.562163
Si Si5 0.993945 0.338008 0.656418
Si Si6 0.775468 0.783749 0.285184
Si Si7 0.146243 0.196324 0.365363
Si Si8 0.294332 0.483136 0.458377
O O1 0.197047 0.176137 0.879382
O O2 0.394515 0.756698 0.688155
O O3 0.652831 0.773945 0.693729
O O4 0.225069 0.488530 0.890609
O O5 0.763536 0.168347 0.086290
O O6 0.960520 0.103922 0.131074
O O7 0.668938 0.401949 0.750402
O O8 0.640222 0.326406 0.657878
O O9 0.688128 0.057841 0.775733
O O10 0.444174 0.567669 0.635623
O O11 0.500000 0.000000 0.500000
O O12 0.856357 0.289688 0.431988
O O13 0.073881 0.226405 0.705291
O O14 0.134967 0.452217 0.541396
O O15 0.576625 0.715426 0.375324
O O16 0.000000 0.000000 0.500000
O O17 0.918686 0.934473 0.420159
#
# Coordination Sequence:
#
# PCOD9070564 Si02
#       8
#     2   2   2   2   2   2   2   2
#     4   9  15  28  51  71  90 119 161 194 220 275
#     4   8  16  30  50  70  87 122 165 192 218 268
#     4   9  17  29  46  69  96 120 154 197 233 271
#     4   9  17  28  46  72  97 118 145 190 243 274
#     4  11  19  28  47  72  99 122 147 195 246 276
#     4   9  18  32  48  67  96 127 155 188 230 282
#     4   9  16  28  48  70  91 118 155 193 229 270
#     4  10  18  29  46  70  95 123 159 191 228 282
#
# _framework density 21.613536
#
# number of rings (size 3 to 8) (size 9 to 14) (size 15 to 20)
#    0.000    2.750    0.000    5.250    0.000    0.000 
#    0.000    0.000    0.000   30.750    0.000    0.000 
#    0.000    0.000    0.000    0.000    0.000    0.125 
#
# Total GULP energy -89143.134126 kJ/mol
# GULP energy per Si atom -5571.445883 kJ/mol
# Density = 2.156434 g / cm^3
# Si number density = 21.613536 Si / 1000 Ang^3
#
#
#
# Elastic Constant Matrix: (Units=GPa)
#
#
# Indices 1 2 3 4 5 6 
#
# 1 131.8900 19.1507 63.6861 21.5067 -21.8450 -8.3999
# 2 19.1507 51.2921 22.2066 5.7689 -7.0432 -6.8065
# 3 63.6861 22.2066 125.1016 30.0382 -21.7893 -3.2443
# 4 21.5067 5.7689 30.0382 36.3139 -11.6772 -6.0988
# 5 -21.8450 -7.0432 -21.7893 -11.6772 32.2528 4.2638
# 6 -8.3999 -6.8065 -3.2443 -6.0988 4.2638 19.3657
#
#
#
# Elastic Compliance Matrix: (Units=1/GPa)
#
#
# Indices 1 2 3 4 5 6 
#
# 1 0.010746 -0.001227 -0.004343 -0.001090 0.003362 0.002419
# 2 -0.001227 0.022318 -0.003266 0.001518 0.001471 0.006919
# 3 -0.004343 -0.003266 0.012957 -0.007318 0.002954 -0.003816
# 4 -0.001090 0.001518 -0.007318 0.037830 0.007133 0.009178
# 5 0.003362 0.001471 0.002954 0.007133 0.038684 -0.003801
# 6 0.002419 0.006919 -0.003816 0.009178 -0.003801 0.058206
#
#
# Mechanical properties :
#
#
# Convention : Reuss Voigt Hill
#
# Bulk Modulus (GPa) = 35.27398 57.59671 46.43534
# Shear Modulus (GPa) = 24.05459 31.13584 27.59521
#
# Velocity S-wave (km/s) = 3.33970 3.79960 3.57705
# Velocity P-wave (km/s) = 5.58813 6.77906 6.21220
#
# Compressibility (1/GPa) = 0.02834951
#
# Stress axis : x y z
#
# Youngs Moduli (GPa) = 93.05969 44.80774 77.18121
#
# Poissons Ratio (x) = 0.05497 0.33517
# Poissons Ratio (y) = 0.11416 0.25206
# Poissons Ratio (z) = 0.40413 0.14633
#
# Static dielectric constant tensor:
#      x y z
#    x 1.800900 -0.041500 -0.021180 
#    y -0.041500 1.947810 -0.054430 
#    z -0.021180 -0.054430 1.815220 
# 
# From -- ./inp_files/258504.got.cif
#   From: 2010.05.17/outbox.cif.g08.bks.cpg/sg2_130_cif.got.tgz:258504.got - 2010.06.03 11:33:40.
