data_PCOD9070148
_publ_section_title
;
Structure prediction by ZEFSAII (Michael W. Deem and Ramdas Pophale) SiO2 
 PCOD9070148
Probable space group: P -1
;
_chemical_formula_sum "Si O2"
_cell_formula_units_Z 14
_cell_length_a 12.236174
_cell_length_b 23.557854
_cell_length_c 5.317596
_cell_angle_alpha 101.275700
_cell_angle_beta 84.483878
_cell_angle_gamma 26.417176
_cell_volume 523.866469
_symmetry_space_group_name_H-M "P -1"
_symmetry_group_IT_number 2
_symmetry_cell_setting 'triclinic'
loop_
_space_group_symop_operation_xyz
x,y,z
-x,-y,-z
loop_
_atom_site_type_symbol
_atom_site_label
_atom_site_fract_x
_atom_site_fract_y
_atom_site_fract_z
Si Si1 0.801610 0.889086 0.371373
Si Si2 0.767883 0.458329 0.717277
Si Si3 0.317309 0.741633 0.424970
Si Si4 0.723344 0.593561 0.565155
Si Si5 0.412087 0.184790 0.534991
Si Si6 0.858709 0.287568 0.344686
Si Si7 0.367519 0.864166 0.074870
O O1 0.878094 0.853057 0.617605
O O2 0.500000 0.000000 0.500000
O O3 0.697232 0.001880 0.382920
O O4 0.044345 0.745961 0.988951
O O5 0.829010 0.477748 0.517467
O O6 0.086289 0.309804 0.685783
O O7 0.725069 0.414315 0.591215
O O8 0.456941 0.633786 0.078188
O O9 0.590803 0.651169 0.365199
O O10 0.289651 0.703295 0.605325
O O11 0.991071 0.937171 0.642548
O O12 0.000000 0.500000 0.500000
O O13 0.420869 0.769523 0.932301
O O14 0.422879 0.221221 0.805722
O O15 0.503794 0.170203 0.241026
#
# Coordination Sequence:
#
# PCOD9070148 Si02
#       7
#     2   2   2   2   2   2   2
#     4  12  24  45  82 117 158 208 265 320 391 475
#     4  12  30  47  82 114 166 210 262 325 401 474
#     4  12  29  52  77 119 157 212 263 333 399 469
#     4  12  29  52  81 114 160 211 270 328 395 474
#     4  12  25  49  81 117 155 207 263 324 394 469
#     4  12  28  48  80 119 161 206 262 326 397 473
#     4  12  28  51  83 113 158 205 269 328 391 465
#
# _framework density 26.724366
#
# number of rings (size 3 to 8) (size 9 to 14) (size 15 to 20)
#    0.000    0.000    5.714    2.143   10.000    2.286 
#    0.000    0.000    0.000    0.000    0.000    0.000 
#    0.000    0.000    0.000    0.000    0.000    0.000 
#
# Total GULP energy -78316.257352 kJ/mol
# GULP energy per Si atom -5594.018382 kJ/mol
# Density = 2.666354 g / cm^3
# Si number density = 26.724366 Si / 1000 Ang^3
#
#
#
# Elastic Constant Matrix: (Units=GPa)
#
#
# Indices 1 2 3 4 5 6 
#
# 1 112.7760 55.4592 12.7651 0.1823 19.9113 -16.4089
# 2 55.4592 113.5550 22.9262 17.1512 6.5629 -15.9070
# 3 12.7651 22.9262 91.6261 -2.0590 17.0579 -11.1898
# 4 0.1823 17.1512 -2.0590 51.5806 9.2308 13.5806
# 5 19.9113 6.5629 17.0579 9.2308 54.4950 -0.5516
# 6 -16.4089 -15.9070 -11.1898 13.5806 -0.5516 61.0057
#
#
#
# Elastic Compliance Matrix: (Units=1/GPa)
#
#
# Indices 1 2 3 4 5 6 
#
# 1 0.012949 -0.006442 0.000900 0.002613 -0.004666 0.001344
# 2 -0.006442 0.013604 -0.002801 -0.005763 0.002595 0.002607
# 3 0.000900 -0.002801 0.012476 0.001819 -0.004191 0.001357
# 4 0.002613 -0.005763 0.001819 0.023774 -0.004916 -0.005803
# 5 -0.004666 0.002595 -0.004191 -0.004916 0.021887 -0.000055
# 6 0.001344 0.002607 0.001357 -0.005803 -0.000055 0.018974
#
#
# Mechanical properties :
#
#
# Convention : Reuss Voigt Hill
#
# Bulk Modulus (GPa) = 44.75904 55.58423 50.17163
# Shear Modulus (GPa) = 39.12448 48.53670 43.83059
#
# Velocity S-wave (km/s) = 3.83038 4.26631 4.05421
# Velocity P-wave (km/s) = 6.02886 6.71660 6.38200
#
# Compressibility (1/GPa) = 0.02234186
#
# Stress axis : x y z
#
# Youngs Moduli (GPa) = 77.22867 73.50878 80.15252
#
# Poissons Ratio (x) = 0.47357 -0.07210
# Poissons Ratio (y) = 0.49753 0.22447
# Poissons Ratio (z) = -0.06947 0.20586
#
# Static dielectric constant tensor:
#      x y z
#    x 2.135070 0.017950 -0.002080 
#    y 0.017950 2.160400 0.005190 
#    z -0.002080 0.005190 2.151630 
# 
# From -- ./inp_files/84429.got.cif
#   From: 2010.05.17/outbox.cif.g08.bks.cpg/sg2_43_cif.got.tgz:84429.got - 2010.06.03 11:33:40.
