data_PCOD9070482
_publ_section_title
;
Structure prediction by ZEFSAII (Michael W. Deem and Ramdas Pophale) SiO2 
 PCOD9070482
Probable space group: P -1
;
_chemical_formula_sum "Si O2"
_cell_formula_units_Z 10
_cell_length_a 23.348293
_cell_length_b 10.824001
_cell_length_c 20.644583
_cell_angle_alpha 23.872637
_cell_angle_beta 168.690522
_cell_angle_gamma 156.470270
_cell_volume 400.494892
_symmetry_space_group_name_H-M "P -1"
_symmetry_group_IT_number 2
_symmetry_cell_setting 'triclinic'
loop_
_space_group_symop_operation_xyz
x,y,z
-x,-y,-z
loop_
_atom_site_type_symbol
_atom_site_label
_atom_site_fract_x
_atom_site_fract_y
_atom_site_fract_z
Si Si1 0.748549 0.431763 0.126743
Si Si2 0.154727 0.038789 0.721679
Si Si3 0.754388 0.299940 0.370088
Si Si4 0.465548 0.604871 0.337824
Si Si5 0.659811 0.784596 0.737246
O O1 0.926936 0.161768 0.455088
O O2 0.030776 0.726650 0.317513
O O3 0.458406 0.316047 0.906616
O O4 0.656874 0.494569 0.922121
O O5 0.000000 0.000000 0.500000
O O6 0.181779 0.710479 0.940395
O O7 0.000000 0.500000 0.500000
O O8 0.654720 0.964389 0.386175
O O9 0.500000 0.500000 0.000000
O O10 0.500000 0.500000 0.500000
O O11 0.504371 0.353094 0.446841
O O12 0.500000 0.000000 0.500000
O O13 0.000000 0.000000 0.000000
#
# Coordination Sequence:
#
# PCOD9070482 Si02
#       5
#     2   2   2   2   2
#     4  12  24  48  79 109 158 208 268 324 396 485
#     4  12  25  46  82 114 152 208 272 326 391 483
#     4  12  25  47  76 117 159 206 261 329 402 480
#     4  12  28  51  84 122 167 209 270 343 414 472
#     4  12  29  51  78 115 164 215 269 335 406 482
#
# _framework density 24.969109
#
# number of rings (size 3 to 8) (size 9 to 14) (size 15 to 20)
#    0.000    0.000    6.000    3.000    0.000    3.200 
#    0.000    6.000    0.000    0.000    0.000    0.000 
#    0.000    0.000    0.000    0.000    0.000    0.000 
#
# Total GULP energy -55685.969170 kJ/mol
# GULP energy per Si atom -5568.596917 kJ/mol
# Density = 2.491228 g / cm^3
# Si number density = 24.969109 Si / 1000 Ang^3
#
#
#
# Elastic Constant Matrix: (Units=GPa)
#
#
# Indices 1 2 3 4 5 6 
#
# 1 211.3413 71.1431 73.8265 -1.9107 -15.5629 -18.6615
# 2 71.1431 132.0312 42.2461 10.5629 10.1819 -18.8746
# 3 73.8265 42.2461 116.2521 3.7958 12.9524 -4.7613
# 4 -1.9107 10.5629 3.7958 44.4137 -1.8588 -12.9539
# 5 -15.5629 10.1819 12.9524 -1.8588 70.4557 -0.7077
# 6 -18.6615 -18.8746 -4.7613 -12.9539 -0.7077 68.0357
#
#
#
# Elastic Compliance Matrix: (Units=1/GPa)
#
#
# Indices 1 2 3 4 5 6 
#
# 1 0.007458 -0.002917 -0.004002 0.001868 0.002867 0.001342
# 2 -0.002917 0.010148 -0.001498 -0.002052 -0.001875 0.001500
# 3 -0.004002 -0.001498 0.012015 -0.001239 -0.002918 -0.000939
# 4 0.001868 -0.002052 -0.001239 0.024586 0.001631 0.004555
# 5 0.002867 -0.001875 -0.002918 0.001631 0.015683 0.000536
# 6 0.001342 0.001500 -0.000939 0.004555 0.000536 0.016290
#
#
# Mechanical properties :
#
#
# Convention : Reuss Voigt Hill
#
# Bulk Modulus (GPa) = 78.20144 92.67290 85.43717
# Shear Modulus (GPa) = 46.60875 54.74161 50.67518
#
# Velocity S-wave (km/s) = 4.32517 4.68736 4.50990
# Velocity P-wave (km/s) = 7.50534 8.15418 7.83648
#
# Compressibility (1/GPa) = 0.01278749
#
# Stress axis : x y z
#
# Youngs Moduli (GPa) = 134.08356 98.53882 83.22992
#
# Poissons Ratio (x) = 0.28743 0.33307
# Poissons Ratio (y) = 0.39112 0.12469
# Poissons Ratio (z) = 0.53657 0.14763
#
# Static dielectric constant tensor:
#      x y z
#    x 2.199890 -0.157760 -0.179930 
#    y -0.157760 2.084760 -0.018320 
#    z -0.179930 -0.018320 2.272160 
# 
# From -- ./inp_files/614364.got.cif
#   From: 2010.05.17/outbox.cif.g08.bks.cpg/sg2_308_cif.got.tgz:614364.got - 2010.06.03 11:33:40.
