data_PCOD9070170
_publ_section_title
;
Structure prediction by ZEFSAII (Michael W. Deem and Ramdas Pophale) SiO2 
 PCOD9070170
Probable space group: P -1
;
_chemical_formula_sum "Si O2"
_cell_formula_units_Z 15
_cell_length_a 11.940420
_cell_length_b 8.514906
_cell_length_c 14.074414
_cell_angle_alpha 120.887221
_cell_angle_beta 148.948017
_cell_angle_gamma 71.341342
_cell_volume 609.773791
_symmetry_space_group_name_H-M "P -1"
_symmetry_group_IT_number 2
_symmetry_cell_setting 'triclinic'
loop_
_space_group_symop_operation_xyz
x,y,z
-x,-y,-z
loop_
_atom_site_type_symbol
_atom_site_label
_atom_site_fract_x
_atom_site_fract_y
_atom_site_fract_z
Si Si1 0.692795 0.183303 0.666049
Si Si2 0.747157 0.372294 0.270441
Si Si3 0.608642 0.437163 0.830898
Si Si4 0.367869 0.829520 0.062880
Si Si5 0.500000 0.500000 0.500000
Si Si6 0.806832 0.102655 0.376907
Si Si7 0.892263 0.352898 0.684378
Si Si8 0.134853 0.123566 0.050663
O O1 0.600479 0.362094 0.690957
O O2 0.755040 0.185219 0.601916
O O3 0.500000 0.000000 0.500000
O O4 0.939112 0.212151 0.898023
O O5 0.578394 0.464161 0.236686
O O6 0.747080 0.167637 0.251013
O O7 0.000000 0.500000 0.500000
O O8 0.687389 0.340674 0.106408
O O9 0.603177 0.257065 0.839537
O O10 0.855135 0.576097 0.071038
O O11 0.593327 0.968726 0.230516
O O12 0.192097 0.957570 0.977155
O O13 0.746407 0.500226 0.635873
O O14 0.368299 0.282227 0.289930
O O15 0.890136 0.294446 0.557079
O O16 0.000000 0.000000 0.500000
O O17 0.000000 0.000000 0.000000
#
# Coordination Sequence:
#
# PCOD9070170 Si02
#       8
#     2   2   2   2   1   2   2   2
#     4  12  27  43  71 109 149 199 245 314 379 467
#     4  12  29  48  75 105 143 200 256 312 382 454
#     4  12  26  48  72 108 149 195 249 316 382 454
#     4  12  25  48  73 105 148 191 247 312 374 453
#     4  12  24  46  72 110 150 196 246 308 392 446
#     4  12  27  48  73 103 140 194 246 312 373 447
#     4  12  26  44  73 105 150 187 248 310 377 461
#     4  12  25  47  75 111 153 196 254 311 395 457
#
# _framework density 24.599287
#
# number of rings (size 3 to 8) (size 9 to 14) (size 15 to 20)
#    0.000    0.000    4.000    5.200    7.467    0.000 
#    0.000    0.000    0.000    0.000    0.000    0.000 
#    0.000    0.000    0.000    0.000    0.000    0.000 
#
# Total GULP energy -83711.739855 kJ/mol
# GULP energy per Si atom -5580.782657 kJ/mol
# Density = 2.454330 g / cm^3
# Si number density = 24.599287 Si / 1000 Ang^3
#
#
#
# Elastic Constant Matrix: (Units=GPa)
#
#
# Indices 1 2 3 4 5 6 
#
# 1 108.4216 27.4108 33.1733 1.0295 25.3098 -13.9558
# 2 27.4108 85.7366 13.8325 -10.8998 25.3494 -23.0371
# 3 33.1733 13.8325 130.2076 4.0597 33.6807 -10.5377
# 4 1.0295 -10.8998 4.0597 38.0967 -10.6439 15.3652
# 5 25.3098 25.3494 33.6807 -10.6439 52.3338 2.7211
# 6 -13.9558 -23.0371 -10.5377 15.3652 2.7211 74.0056
#
#
#
# Elastic Compliance Matrix: (Units=1/GPa)
#
#
# Indices 1 2 3 4 5 6 
#
# 1 0.011447 -0.001921 -0.001300 -0.002821 -0.004453 0.002125
# 2 -0.001921 0.015702 0.001183 0.000305 -0.007631 0.004911
# 3 -0.001300 0.001183 0.010126 -0.003827 -0.007376 0.002631
# 4 -0.002821 0.000305 -0.003827 0.033191 0.010861 -0.008273
# 5 -0.004453 -0.007631 -0.007376 0.010861 0.032315 -0.007709
# 6 0.002125 0.004911 0.002631 -0.008273 -0.007709 0.017818
#
#
# Mechanical properties :
#
#
# Convention : Reuss Voigt Hill
#
# Bulk Modulus (GPa) = 30.12249 52.57767 41.35008
# Shear Modulus (GPa) = 36.83511 49.55048 43.19280
#
# Velocity S-wave (km/s) = 3.87383 4.49297 4.19484
# Velocity P-wave (km/s) = 5.68160 6.95239 6.34887
#
# Compressibility (1/GPa) = 0.03319778
#
# Stress axis : x y z
#
# Youngs Moduli (GPa) = 87.36257 63.68766 98.75668
#
# Poissons Ratio (x) = 0.12234 0.12843
# Poissons Ratio (y) = 0.16782 -0.11686
# Poissons Ratio (z) = 0.11361 -0.07536
#
# Static dielectric constant tensor:
#      x y z
#    x 1.887200 -0.009920 -0.058100 
#    y -0.009920 2.065420 0.000760 
#    z -0.058100 0.000760 1.910090 
# 
# From -- ./inp_files/516336.got.cif
#   From: 2010.05.17/outbox.cif.g08.bks.cpg/sg2_259_cif.got.tgz:516336.got - 2010.06.03 11:33:40.
