data_PCOD9070605
_publ_section_title
;
Structure prediction by ZEFSAII (Michael W. Deem and Ramdas Pophale) SiO2 
 PCOD9070605
Probable space group: P -1
;
_chemical_formula_sum "Si O2"
_cell_formula_units_Z 14
_cell_length_a 11.290814
_cell_length_b 21.035674
_cell_length_c 15.338693
_cell_angle_alpha 160.675691
_cell_angle_beta 41.823358
_cell_angle_gamma 148.209647
_cell_volume 600.331684
_symmetry_space_group_name_H-M "P -1"
_symmetry_group_IT_number 2
_symmetry_cell_setting 'triclinic'
loop_
_space_group_symop_operation_xyz
x,y,z
-x,-y,-z
loop_
_atom_site_type_symbol
_atom_site_label
_atom_site_fract_x
_atom_site_fract_y
_atom_site_fract_z
Si Si1 0.652274 0.628630 0.321483
Si Si2 0.860763 0.762049 0.833873
Si Si3 0.053431 0.562593 0.381611
Si Si4 0.995410 0.092609 0.867900
Si Si5 0.673886 0.998079 0.462769
Si Si6 0.445528 0.085672 0.383764
Si Si7 0.038041 0.480673 0.084358
O O1 0.410027 0.374995 0.170171
O O2 0.587340 0.759722 0.462700
O O3 0.800296 0.582401 0.120359
O O4 0.808482 0.834377 0.580276
O O5 0.848300 0.546440 0.513650
O O6 0.022584 0.875985 0.979600
O O7 0.000000 0.000000 0.000000
O O8 0.285769 0.793048 0.607181
O O9 0.089666 0.606422 0.314959
O O10 0.018447 0.312562 0.093012
O O11 0.235844 0.139947 0.797890
O O12 0.500000 0.000000 0.500000
O O13 0.581482 0.880897 0.456729
O O14 0.901768 0.303204 0.734362
O O15 0.232547 0.782370 0.097071
#
# Coordination Sequence:
#
# PCOD9070605 Si02
#       7
#     2   2   2   2   2   2   2
#     4  12  27  47  81 107 145 201 244 309 368 440
#     4  12  30  51  74 107 151 198 249 306 371 439
#     4  12  27  47  77 108 151 201 245 303 366 445
#     4  12  26  49  76 108 147 193 257 294 370 447
#     4  12  25  42  73 113 153 192 234 312 371 430
#     4  12  25  44  75 109 150 189 243 303 372 434
#     4  12  25  46  74 115 148 185 249 303 375 430
#
# _framework density 23.320442
#
# number of rings (size 3 to 8) (size 9 to 14) (size 15 to 20)
#    0.000    0.000    5.714    3.857    2.000    3.429 
#    0.000    0.000    0.000    0.000    0.000    0.000 
#    0.000    0.000    0.000    0.000    0.000    0.000 
#
# Total GULP energy -78206.317541 kJ/mol
# GULP energy per Si atom -5586.165539 kJ/mol
# Density = 2.326736 g / cm^3
# Si number density = 23.320442 Si / 1000 Ang^3
#
#
#
# Elastic Constant Matrix: (Units=GPa)
#
#
# Indices 1 2 3 4 5 6 
#
# 1 209.5114 -241.1498 -149.1724 -54.6043 -10.0980 -103.5048
# 2 -241.1498 665.9586 366.3510 78.9869 74.9653 194.2172
# 3 -149.1724 366.3510 267.7746 32.8763 47.2356 129.4169
# 4 -54.6043 78.9869 32.8763 65.3131 5.6825 33.2179
# 5 -10.0980 74.9653 47.2356 5.6825 48.5535 26.0386
# 6 -103.5048 194.2172 129.4169 33.2179 26.0386 111.5207
#
#
#
# Elastic Compliance Matrix: (Units=1/GPa)
#
#
# Indices 1 2 3 4 5 6 
#
# 1 0.011801 0.001467 0.002184 0.004518 -0.005586 0.005822
# 2 0.001467 0.007217 -0.008085 -0.003042 -0.002427 -0.000353
# 3 0.002184 -0.008085 0.019393 0.005909 -0.002568 -0.007558
# 4 0.004518 -0.003042 0.005909 0.021722 -0.000683 -0.003678
# 5 -0.005586 -0.002427 -0.002568 -0.000683 0.028083 -0.004331
# 6 0.005822 -0.000353 -0.007558 -0.003678 -0.004331 0.025863
#
#
# Mechanical properties :
#
#
# Convention : Reuss Voigt Hill
#
# Bulk Modulus (GPa) = 33.84880 121.70024 77.77452
# Shear Modulus (GPa) = 37.65257 122.89186 80.27221
#
# Velocity S-wave (km/s) = 4.02253 7.26715 5.87334
# Velocity P-wave (km/s) = 6.01004 11.07766 8.91165
#
# Compressibility (1/GPa) = 0.02954315
#
# Stress axis : x y z
#
# Youngs Moduli (GPa) = 84.73879 138.56123 51.56572
#
# Poissons Ratio (x) = -0.20321 -0.11264
# Poissons Ratio (y) = -0.12427 0.41690
# Poissons Ratio (z) = -0.18511 1.12024
#
# Static dielectric constant tensor:
#      x y z
#    x 1.989750 0.104280 0.088280 
#    y 0.104280 1.947650 0.017340 
#    z 0.088280 0.017340 1.938940 
# 
# From -- ./inp_files/263818.got.cif
#   From: 2010.05.17/outbox.cif.g08.bks.cpg/sg2_132_cif.got.tgz:263818.got - 2010.06.03 11:33:40.
