data_PCOD9070048
_publ_section_title
;
Structure prediction by ZEFSAII (Michael W. Deem and Ramdas Pophale) SiO2 
 PCOD9070048
Probable space group: P -1
;
_chemical_formula_sum "Si O2"
_cell_formula_units_Z 14
_cell_length_a 7.794842
_cell_length_b 11.854256
_cell_length_c 7.017664
_cell_angle_alpha 50.772274
_cell_angle_beta 104.019683
_cell_angle_gamma 98.048314
_cell_volume 487.274006
_symmetry_space_group_name_H-M "P -1"
_symmetry_group_IT_number 2
_symmetry_cell_setting 'triclinic'
loop_
_space_group_symop_operation_xyz
x,y,z
-x,-y,-z
loop_
_atom_site_type_symbol
_atom_site_label
_atom_site_fract_x
_atom_site_fract_y
_atom_site_fract_z
Si Si1 0.529033 0.145317 0.234364
Si Si2 0.861925 0.702630 0.398287
Si Si3 0.244465 0.287186 0.257144
Si Si4 0.669383 0.440117 0.500811
Si Si5 0.000000 0.000000 0.500000
Si Si6 0.257590 0.871190 0.029181
Si Si7 0.000000 0.000000 0.000000
Si Si8 0.776265 0.377417 0.207178
O O1 0.379014 0.252572 0.158192
O O2 0.565872 0.103683 0.069990
O O3 0.711574 0.233106 0.233028
O O4 0.500000 0.000000 0.500000
O O5 0.710078 0.735277 0.481500
O O6 0.805968 0.569218 0.399600
O O7 0.033879 0.657873 0.614812
O O8 0.913888 0.838106 0.145898
O O9 0.210731 0.462734 0.053224
O O10 0.103841 0.154611 0.340621
O O11 0.500000 0.500000 0.500000
O O12 0.637845 0.395835 0.323430
O O13 0.751538 0.302368 0.779116
O O14 0.096654 0.968162 0.778926
O O15 0.207513 0.924455 0.168471
#
# Coordination Sequence:
#
# PCOD9070048 Si02
#       8
#     2   2   2   2   1   2   1   2
#     4  12  25  48  74 109 151 191 260 315 383 449
#     4  12  25  48  72 110 149 199 255 309 380 461
#     4  12  25  45  75 108 152 199 255 312 378 452
#     4  12  27  50  76 110 158 201 252 311 390 456
#     4  12  24  44  78 110 150 202 254 314 370 452
#     4  12  26  49  74 112 150 199 252 315 377 459
#     4  12  26  46  74 106 152 192 256 310 378 454
#     4  12  26  46  75 110 149 202 256 317 375 458
#
# _framework density 28.731266999999999
#
# number of rings (size 3 to 8) (size 9 to 14) (size 15 to 20)
#    0.000    0.000    4.286    5.571    2.000    0.000 
#    2.571    1.429    0.000    0.000    0.000    0.000 
#    0.000    0.000    0.000    0.000    0.000    0.000 
#
# Total GULP energy -77966.877474 kJ/mol
# GULP energy per Si atom -5569.062677 kJ/mol
# Density = 2.866587 g / cm^3
# Si number density = 28.731267 Si / 1000 Ang^3
#
#
#
# Elastic Constant Matrix: (Units=GPa)
#
#
# Indices 1 2 3 4 5 6 
#
# 1 140.0376 42.2374 43.2211 -17.8777 -23.5850 -29.2578
# 2 42.2374 112.7601 46.9555 -19.2931 -5.0574 4.2692
# 3 43.2211 46.9555 230.4437 -38.8340 -29.8713 14.8528
# 4 -17.8777 -19.2931 -38.8340 57.2356 3.4508 -11.7469
# 5 -23.5850 -5.0574 -29.8713 3.4508 52.1727 -0.6789
# 6 -29.2578 4.2692 14.8528 -11.7469 -0.6789 66.0264
#
#
#
# Elastic Compliance Matrix: (Units=1/GPa)
#
#
# Indices 1 2 3 4 5 6 
#
# 1 0.010474 -0.003212 -0.000721 0.002595 0.003911 0.005513
# 2 -0.003212 0.010924 -0.001452 0.001455 -0.001341 -0.001558
# 3 -0.000721 -0.001452 0.005629 0.002750 0.002562 -0.000976
# 4 0.002595 0.001455 0.002750 0.021422 0.001527 0.004264
# 5 0.003911 -0.001341 0.002562 0.001527 0.022193 0.001743
# 6 0.005513 -0.001558 -0.000976 0.004264 0.001743 0.018685
#
#
# Mechanical properties :
#
#
# Convention : Reuss Voigt Hill
#
# Bulk Modulus (GPa) = 61.51173 83.11882 72.31528
# Shear Modulus (GPa) = 47.38602 58.47543 52.93072
#
# Velocity S-wave (km/s) = 4.06554 4.51627 4.29682
# Velocity P-wave (km/s) = 6.59500 7.49588 7.05982
#
# Compressibility (1/GPa) = 0.01625706
#
# Stress axis : x y z
#
# Youngs Moduli (GPa) = 95.47232 91.54193 177.65762
#
# Poissons Ratio (x) = 0.29407 0.12808
# Poissons Ratio (y) = 0.30670 0.25788
# Poissons Ratio (z) = 0.06883 0.13288
#
# Static dielectric constant tensor:
#      x y z
#    x 2.385130 0.075550 0.173910 
#    y 0.075550 2.017830 -0.073650 
#    z 0.173910 -0.073650 2.063090 
# 
# From -- ./inp_files/183862.got.cif
#   From: 2010.05.17/outbox.cif.g08.bks.cpg/sg2_92_cif.got.tgz:183862.got - 2010.06.03 11:33:40.
