data_PCOD9070609
_publ_section_title
;
Structure prediction by ZEFSAII (Michael W. Deem and Ramdas Pophale) SiO2 
 PCOD9070609
Probable space group: P -1
;
_chemical_formula_sum "Si O2"
_cell_formula_units_Z 14
_cell_length_a 9.299046
_cell_length_b 9.618500
_cell_length_c 8.147041
_cell_angle_alpha 68.999150
_cell_angle_beta 74.602552
_cell_angle_gamma 72.389459
_cell_volume 638.225572
_symmetry_space_group_name_H-M "P -1"
_symmetry_group_IT_number 2
_symmetry_cell_setting 'triclinic'
loop_
_space_group_symop_operation_xyz
x,y,z
-x,-y,-z
loop_
_atom_site_type_symbol
_atom_site_label
_atom_site_fract_x
_atom_site_fract_y
_atom_site_fract_z
Si Si1 0.473859 0.178827 0.907768
Si Si2 0.988813 0.909974 0.868905
Si Si3 0.738873 0.320390 0.265907
Si Si4 0.564254 0.632103 0.832638
Si Si5 0.100986 0.530894 0.304527
Si Si6 0.796959 0.208559 0.661557
Si Si7 0.831202 0.633531 0.100553
O O1 0.626130 0.208774 0.769455
O O2 0.325148 0.266068 0.813049
O O3 0.443273 0.245707 0.072720
O O4 0.500000 0.000000 0.000000
O O5 0.158423 0.818702 0.808249
O O6 0.906527 0.040391 0.711121
O O7 0.891985 0.776726 0.945319
O O8 0.000000 0.000000 0.000000
O O9 0.561488 0.320249 0.292017
O O10 0.788202 0.288756 0.453320
O O11 0.771039 0.482754 0.126624
O O12 0.736187 0.582930 0.731456
O O13 0.500000 0.500000 0.000000
O O14 0.140377 0.691138 0.265680
O O15 0.000000 0.500000 0.500000
O O16 0.983071 0.548480 0.185128
#
# Coordination Sequence:
#
# PCOD9070609 Si02
#       7
#     2   2   2   2   2   2   2
#     4  12  27  47  73 106 143 192 242 295 361 436
#     4  12  25  45  73 105 147 190 237 299 360 430
#     4  12  27  45  74 107 142 191 241 297 365 427
#     4  12  25  47  74 104 144 192 247 295 354 435
#     4  12  26  43  73 113 147 182 242 308 359 420
#     4  12  25  47  71 106 152 186 234 305 369 418
#     4  12  25  42  77 102 138 188 248 287 352 434
#
# _framework density 21.935818999999999
#
# number of rings (size 3 to 8) (size 9 to 14) (size 15 to 20)
#    0.000    0.000    7.143    2.571    4.000    1.143 
#    2.571    0.714    0.000    0.000    0.000    0.000 
#    0.000    0.000    0.000    0.000    0.000    0.000 
#
# Total GULP energy -78127.742651 kJ/mol
# GULP energy per Si atom -5580.553046 kJ/mol
# Density = 2.188589 g / cm^3
# Si number density = 21.935819 Si / 1000 Ang^3
#
#
#
# Elastic Constant Matrix: (Units=GPa)
#
#
# Indices 1 2 3 4 5 6 
#
# 1 163.4345 59.7261 33.7902 1.5253 -10.6543 -22.9869
# 2 59.7261 155.5465 35.7088 5.8282 -13.3219 -16.7362
# 3 33.7902 35.7088 70.9213 1.2230 -10.4462 -4.2882
# 4 1.5253 5.8282 1.2230 27.5429 -1.0447 0.9550
# 5 -10.6543 -13.3219 -10.4462 -1.0447 39.9002 3.1832
# 6 -22.9869 -16.7362 -4.2882 0.9550 3.1832 43.3292
#
#
#
# Elastic Compliance Matrix: (Units=1/GPa)
#
#
# Indices 1 2 3 4 5 6 
#
# 1 0.007848 -0.002081 -0.002429 0.000026 0.000520 0.003081
# 2 -0.002081 0.008231 -0.002834 -0.001513 0.001272 0.001735
# 3 -0.002429 -0.002834 0.017062 0.000120 0.002948 -0.000914
# 4 0.000026 -0.001513 0.000120 0.036692 0.000607 -0.001412
# 5 0.000520 0.001272 0.002948 0.000607 0.026486 -0.000900
# 6 0.003081 0.001735 -0.000914 -0.001412 -0.000900 0.025390
#
#
# Mechanical properties :
#
#
# Convention : Reuss Voigt Hill
#
# Bulk Modulus (GPa) = 54.19552 72.03917 63.11735
# Shear Modulus (GPa) = 35.07577 39.53294 37.30435
#
# Velocity S-wave (km/s) = 4.00311 4.24985 4.12832
# Velocity P-wave (km/s) = 6.79165 7.54942 7.18054
#
# Compressibility (1/GPa) = 0.01845171
#
# Stress axis : x y z
#
# Youngs Moduli (GPa) = 127.41643 121.49256 58.61143
#
# Poissons Ratio (x) = 0.25281 0.14238
# Poissons Ratio (y) = 0.26514 0.16613
# Poissons Ratio (z) = 0.30952 0.34437
#
# Static dielectric constant tensor:
#      x y z
#    x 1.828120 -0.006090 0.072920 
#    y -0.006090 1.794550 0.012610 
#    z 0.072920 0.012610 1.814280 
# 
# From -- ./inp_files/157098.got.cif
#   From: 2010.05.17/outbox.cif.g08.bks.cpg/sg2_79_cif.got.tgz:157098.got - 2010.06.03 11:33:40.
