data_PCOD9070422
_publ_section_title
;
Structure prediction by ZEFSAII (Michael W. Deem and Ramdas Pophale) SiO2 
 PCOD9070422
Probable space group: P -1
;
_chemical_formula_sum "Si O2"
_cell_formula_units_Z 16
_cell_length_a 8.148362
_cell_length_b 11.315046
_cell_length_c 9.746302
_cell_angle_alpha 50.272316
_cell_angle_beta 100.334912
_cell_angle_gamma 97.676668
_cell_volume 679.680001
_symmetry_space_group_name_H-M "P -1"
_symmetry_group_IT_number 2
_symmetry_cell_setting 'triclinic'
loop_
_space_group_symop_operation_xyz
x,y,z
-x,-y,-z
loop_
_atom_site_type_symbol
_atom_site_label
_atom_site_fract_x
_atom_site_fract_y
_atom_site_fract_z
Si Si1 0.373868 0.809459 0.793532
Si Si2 0.861523 0.413687 0.952483
Si Si3 0.176208 0.028570 0.432275
Si Si4 0.338065 0.189766 0.935525
Si Si5 0.031695 0.373007 0.717335
Si Si6 0.374654 0.322781 0.271867
Si Si7 0.185907 0.877785 0.249207
Si Si8 0.496134 0.319786 0.593563
O O1 0.326288 0.965876 0.595079
O O2 0.456869 0.706754 0.763526
O O3 0.198680 0.748548 0.875206
O O4 0.512228 0.818095 0.926136
O O5 0.921946 0.406749 0.810193
O O6 0.692760 0.507682 0.873869
O O7 0.000000 0.500000 0.000000
O O8 0.172485 0.935746 0.359118
O O9 0.231081 0.204677 0.282706
O O10 0.000000 0.000000 0.500000
O O11 0.414791 0.218731 0.776651
O O12 0.218130 0.337084 0.825854
O O13 0.242525 0.026615 0.060513
O O14 0.977883 0.209972 0.763599
O O15 0.000000 0.500000 0.500000
O O16 0.397483 0.297422 0.455001
O O17 0.322274 0.746290 0.354855
O O18 0.500000 0.500000 0.500000
#
# Coordination Sequence:
#
# PCOD9070422 Si02
#       8
#     2   2   2   2   2   2   2   2
#     4  12  25  49  77 108 150 198 257 320 379 457
#     4  12  28  46  74 111 152 198 260 316 387 459
#     4  12  28  47  79 111 153 202 253 320 393 460
#     4  12  26  48  78 112 152 199 259 322 382 461
#     4  12  29  50  76 111 158 206 254 321 398 466
#     4  12  24  48  73 107 148 201 257 311 385 460
#     4  12  26  50  75 112 154 198 266 316 390 466
#     4  12  26  47  75 111 151 203 255 316 392 462
#
# _framework density 23.540490999999999
#
# number of rings (size 3 to 8) (size 9 to 14) (size 15 to 20)
#    0.000    0.000    2.500    7.500    7.000    2.000 
#    0.000    0.000    0.000    0.000    0.000    0.000 
#    0.000    0.000    0.000    0.000    0.000    0.000 
#
# Total GULP energy -89622.253491 kJ/mol
# GULP energy per Si atom -5601.390843 kJ/mol
# Density = 2.348691 g / cm^3
# Si number density = 23.540491 Si / 1000 Ang^3
#
#
#
# Elastic Constant Matrix: (Units=GPa)
#
#
# Indices 1 2 3 4 5 6 
#
# 1 86.0825 30.2665 30.3944 2.5746 -6.1429 -10.4969
# 2 30.2665 116.2126 70.6847 13.7510 -10.0767 -0.2398
# 3 30.3944 70.6847 127.1174 13.7128 -12.9210 1.9604
# 4 2.5746 13.7510 13.7128 30.8910 -9.0448 -0.4921
# 5 -6.1429 -10.0767 -12.9210 -9.0448 52.1603 -0.2451
# 6 -10.4969 -0.2398 1.9604 -0.4921 -0.2451 44.6470
#
#
#
# Elastic Compliance Matrix: (Units=1/GPa)
#
#
# Indices 1 2 3 4 5 6 
#
# 1 0.013589 -0.002362 -0.002021 0.001118 0.000853 0.003288
# 2 -0.002362 0.013644 -0.006690 -0.002850 0.000205 -0.000218
# 3 -0.002021 -0.006690 0.012428 -0.002039 0.001189 -0.001073
# 4 0.001118 -0.002850 -0.002039 0.036024 0.005326 0.000763
# 5 0.000853 0.000205 0.001189 0.005326 0.020532 0.000321
# 6 0.003288 -0.000218 -0.001073 0.000763 0.000321 0.023227
#
#
# Mechanical properties :
#
#
# Convention : Reuss Voigt Hill
#
# Bulk Modulus (GPa) = 57.09376 65.78932 61.44154
# Shear Modulus (GPa) = 33.91512 38.74412 36.32962
#
# Velocity S-wave (km/s) = 3.79979 4.06131 3.93272
# Velocity P-wave (km/s) = 6.59980 7.07109 6.83950
#
# Compressibility (1/GPa) = 0.01751505
#
# Stress axis : x y z
#
# Youngs Moduli (GPa) = 73.58951 73.29246 80.46637
#
# Poissons Ratio (x) = 0.17309 0.16259
# Poissons Ratio (y) = 0.17379 0.53836
# Poissons Ratio (z) = 0.14869 0.49036
#
# Static dielectric constant tensor:
#      x y z
#    x 1.899860 0.016440 0.033410 
#    y 0.016440 1.860380 -0.011030 
#    z 0.033410 -0.011030 1.867450 
# 
# From -- ./inp_files/184389.got.cif
#   From: 2010.05.17/outbox.cif.g08.bks.cpg/sg2_93_cif.got.tgz:184389.got - 2010.06.03 11:33:40.
