data_PCOD9070994
_publ_section_title
;
Structure prediction by ZEFSAII (Michael W. Deem and Ramdas Pophale) SiO2 
 PCOD9070994
Probable space group: P -1
;
_chemical_formula_sum "Si O2"
_cell_formula_units_Z 10
_cell_length_a 13.699446
_cell_length_b 4.924733
_cell_length_c 13.329261
_cell_angle_alpha 126.663037
_cell_angle_beta 34.673395
_cell_angle_gamma 108.209776
_cell_volume 377.658521
_symmetry_space_group_name_H-M "P -1"
_symmetry_group_IT_number 2
_symmetry_cell_setting 'triclinic'
loop_
_space_group_symop_operation_xyz
x,y,z
-x,-y,-z
loop_
_atom_site_type_symbol
_atom_site_label
_atom_site_fract_x
_atom_site_fract_y
_atom_site_fract_z
Si Si1 0.569304 0.885021 0.609836
Si Si2 0.533290 0.863077 0.051635
Si Si3 0.366946 0.402937 0.746462
Si Si4 0.951454 0.441051 0.644261
Si Si5 0.981552 0.399651 0.144837
O O1 0.466031 0.302851 0.750735
O O2 0.500000 0.000000 0.500000
O O3 0.578457 0.314240 0.303650
O O4 0.609083 0.878593 0.692487
O O5 0.740538 0.744286 0.888967
O O6 0.500000 0.500000 0.000000
O O7 0.500000 0.000000 0.000000
O O8 0.225586 0.324817 0.655138
O O9 0.152941 0.478618 0.967598
O O10 0.010322 0.546380 0.728594
O O11 0.000000 0.500000 0.500000
O O12 0.000000 0.000000 0.500000
O O13 0.000000 0.000000 0.000000
#
# Coordination Sequence:
#
# PCOD9070994 Si02
#       5
#     2   2   2   2   2
#     4  12  27  49  77 112 159 207 266 330 398 470
#     4  12  25  48  78 111 155 209 266 329 396 475
#     4  12  27  49  76 112 161 207 264 327 398 479
#     4  12  28  52  79 118 160 208 270 329 401 489
#     4  12  28  52  84 120 162 214 266 335 406 477
#
# _framework density 26.478946000000001
#
# number of rings (size 3 to 8) (size 9 to 14) (size 15 to 20)
#    0.000    0.000    4.000    5.400    2.800    4.000 
#    0.000    0.000    0.000    0.000    0.000    0.000 
#    0.000    0.000    0.000    0.000    0.000    0.000 
#
# Total GULP energy -55783.859689 kJ/mol
# GULP energy per Si atom -5578.385969 kJ/mol
# Density = 2.641868 g / cm^3
# Si number density = 26.478946 Si / 1000 Ang^3
#
#
#
# Elastic Constant Matrix: (Units=GPa)
#
#
# Indices 1 2 3 4 5 6 
#
# 1 149.0924 36.9361 68.8404 -13.7763 -7.3788 -1.5228
# 2 36.9361 150.9236 31.9567 -18.3710 0.5702 -18.9499
# 3 68.8404 31.9567 190.2529 -32.4960 -13.9798 7.4962
# 4 -13.7763 -18.3710 -32.4960 44.6156 -1.5770 3.4174
# 5 -7.3788 0.5702 -13.9798 -1.5770 90.2113 -1.7883
# 6 -1.5228 -18.9499 7.4962 3.4174 -1.7883 44.2311
#
#
#
# Elastic Compliance Matrix: (Units=1/GPa)
#
#
# Indices 1 2 3 4 5 6 
#
# 1 0.008357 -0.001444 -0.002774 -0.000037 0.000265 0.000153
# 2 -0.001444 0.007755 -0.000561 0.002088 -0.000154 0.003200
# 3 -0.002774 -0.000561 0.007242 0.004363 0.000938 -0.001862
# 4 -0.000037 0.002088 0.004363 0.026621 0.001088 -0.001859
# 5 0.000265 -0.000154 0.000938 0.001088 0.011275 0.000156
# 6 0.000153 0.003200 -0.001862 -0.001859 0.000156 0.024450
#
#
# Mechanical properties :
#
#
# Convention : Reuss Voigt Hill
#
# Bulk Modulus (GPa) = 72.48917 85.08171 78.78544
# Shear Modulus (GPa) = 50.07194 59.31399 54.69297
#
# Velocity S-wave (km/s) = 4.35329 4.73804 4.54974
# Velocity P-wave (km/s) = 7.25974 7.88249 7.57751
#
# Compressibility (1/GPa) = 0.01379516
#
# Stress axis : x y z
#
# Youngs Moduli (GPa) = 119.65665 128.95575 138.08985
#
# Poissons Ratio (x) = 0.18624 0.38309
# Poissons Ratio (y) = 0.17281 0.07743
# Poissons Ratio (z) = 0.33196 0.07231
#
# Static dielectric constant tensor:
#      x y z
#    x 2.422420 -0.247090 0.199610 
#    y -0.247090 2.179230 -0.092310 
#    z 0.199610 -0.092310 2.181200 
# 
# From -- ./inp_files/155111.got.cif
#   From: 2010.05.17/outbox.cif.g08.bks.cpg/sg2_78_cif.got.tgz:155111.got - 2010.06.03 11:33:40.
