data_PCOD9070397
_publ_section_title
;
Structure prediction by ZEFSAII (Michael W. Deem and Ramdas Pophale) SiO2 
 PCOD9070397
Probable space group: P -1
;
_chemical_formula_sum "Si O2"
_cell_formula_units_Z 14
_cell_length_a 9.811359
_cell_length_b 22.072963
_cell_length_c 18.920172
_cell_angle_alpha 163.238147
_cell_angle_beta 149.231884
_cell_angle_gamma 32.761538
_cell_volume 599.894353
_symmetry_space_group_name_H-M "P -1"
_symmetry_group_IT_number 2
_symmetry_cell_setting 'triclinic'
loop_
_space_group_symop_operation_xyz
x,y,z
-x,-y,-z
loop_
_atom_site_type_symbol
_atom_site_label
_atom_site_fract_x
_atom_site_fract_y
_atom_site_fract_z
Si Si1 0.890090 0.897876 0.714254
Si Si2 0.484502 0.712036 0.776866
Si Si3 0.477740 0.916033 0.139457
Si Si4 0.297440 0.384766 0.997142
Si Si5 0.129479 0.188635 0.047827
Si Si6 0.390576 0.500467 0.872898
Si Si7 0.282820 0.347413 0.445298
O O1 0.669220 0.738541 0.436580
O O2 0.172219 0.774265 0.723640
O O3 0.796659 0.081932 0.934079
O O4 0.966231 0.998825 0.787308
O O5 0.500000 0.500000 0.500000
O O6 0.640123 0.860130 0.961626
O O7 0.594927 0.749832 0.945757
O O8 0.389134 0.135298 0.301680
O O9 0.681489 0.851922 0.224459
O O10 0.418718 0.408566 0.999046
O O11 0.494400 0.505801 0.268715
O O12 0.000000 0.500000 0.000000
O O13 0.259476 0.274830 0.272779
O O14 0.900888 0.362909 0.109924
O O15 0.500000 0.500000 0.000000
O O16 0.000000 0.500000 0.500000
#
# Coordination Sequence:
#
# PCOD9070397 Si02
#       7
#     2   2   2   2   2   2   2
#     4  12  24  48  77 107 150 202 260 322 397 470
#     4  12  26  42  74 121 156 193 247 334 399 460
#     4  12  26  47  80 112 158 207 261 323 399 471
#     4  12  29  50  74 117 161 213 267 324 398 482
#     4  12  25  46  75 117 150 195 264 326 403 464
#     4  12  28  50  73 106 157 207 262 327 401 475
#     4  12  24  47  85 118 153 202 267 327 394 479
#
# _framework density 23.337443
#
# number of rings (size 3 to 8) (size 9 to 14) (size 15 to 20)
#    0.000    0.000    7.143    1.714    4.000    2.286 
#    0.000    0.000    0.000    0.000    0.000    0.000 
#    0.000    0.000    0.000    0.000    0.000    0.000 
#
# Total GULP energy -78037.019710 kJ/mol
# GULP energy per Si atom -5574.072836 kJ/mol
# Density = 2.328433 g / cm^3
# Si number density = 23.337443 Si / 1000 Ang^3
#
#
#
# Elastic Constant Matrix: (Units=GPa)
#
#
# Indices 1 2 3 4 5 6 
#
# 1 163.9249 32.7655 13.4568 -9.9700 -13.4389 25.0005
# 2 32.7655 132.7294 16.1698 -2.7479 2.0521 16.3445
# 3 13.4568 16.1698 56.5731 5.7115 -2.4544 14.0668
# 4 -9.9700 -2.7479 5.7115 33.7909 5.1759 1.7132
# 5 -13.4389 2.0521 -2.4544 5.1759 33.1875 8.7310
# 6 25.0005 16.3445 14.0668 1.7132 8.7310 56.5538
#
#
#
# Elastic Compliance Matrix: (Units=1/GPa)
#
#
# Indices 1 2 3 4 5 6 
#
# 1 0.007325 -0.001351 -0.000552 0.001760 0.003608 -0.003321
# 2 -0.001351 0.008275 -0.001871 0.000806 -0.001008 -0.001198
# 3 -0.000552 -0.001871 0.020016 -0.003955 0.003191 -0.004567
# 4 0.001760 0.000806 -0.003955 0.031547 -0.004473 -0.000292
# 5 0.003608 -0.001008 0.003191 -0.004473 0.034506 -0.007289
# 6 -0.003321 -0.001198 -0.004567 -0.000292 -0.007289 0.021766
#
#
# Mechanical properties :
#
#
# Convention : Reuss Voigt Hill
#
# Bulk Modulus (GPa) = 35.62818 53.11240 44.37029
# Shear Modulus (GPa) = 35.62771 44.09546 39.86159
#
# Velocity S-wave (km/s) = 3.91145 4.35152 4.13734
# Velocity P-wave (km/s) = 5.97486 6.93221 6.47126
#
# Compressibility (1/GPa) = 0.02806767
#
# Stress axis : x y z
#
# Youngs Moduli (GPa) = 136.51719 120.83953 49.96127
#
# Poissons Ratio (x) = 0.16331 0.02756
# Poissons Ratio (y) = 0.18450 0.09348
# Poissons Ratio (z) = 0.07530 0.22610
#
# Static dielectric constant tensor:
#      x y z
#    x 1.906370 0.038970 0.018650 
#    y 0.038970 1.917730 0.073860 
#    z 0.018650 0.073860 2.051120 
# 
# From -- ./inp_files/562838.got.cif
#   From: 2010.05.17/outbox.cif.g08.bks.cpg/sg2_282_cif.got.tgz:562838.got - 2010.06.03 11:33:40.
