data_PCOD9070725
_publ_section_title
;
Structure prediction by ZEFSAII (Michael W. Deem and Ramdas Pophale) SiO2 
 PCOD9070725
Probable space group: P -1
;
_chemical_formula_sum "Si O2"
_cell_formula_units_Z 14
_cell_length_a 25.974057
_cell_length_b 11.384207
_cell_length_c 8.985140
_cell_angle_alpha 142.082595
_cell_angle_beta 37.954058
_cell_angle_gamma 158.390137
_cell_volume 583.235770
_symmetry_space_group_name_H-M "P -1"
_symmetry_group_IT_number 2
_symmetry_cell_setting 'triclinic'
loop_
_space_group_symop_operation_xyz
x,y,z
-x,-y,-z
loop_
_atom_site_type_symbol
_atom_site_label
_atom_site_fract_x
_atom_site_fract_y
_atom_site_fract_z
Si Si1 0.607133 0.164448 0.286077
Si Si2 0.611138 0.315050 0.950874
Si Si3 0.341757 0.229635 0.528780
Si Si4 0.940986 0.462539 0.437444
Si Si5 0.907737 0.700482 0.530990
Si Si6 0.366479 0.342050 0.245055
Si Si7 0.152731 0.668823 0.961240
O O1 0.644092 0.457300 0.477314
O O2 0.741980 0.288039 0.154164
O O3 0.500000 0.000000 0.500000
O O4 0.506260 0.874887 0.103929
O O5 0.750926 0.489539 0.722378
O O6 0.687835 0.617153 0.181564
O O7 0.500000 0.000000 0.000000
O O8 0.500000 0.500000 0.500000
O O9 0.346535 0.215453 0.327483
O O10 0.230316 0.872798 0.493550
O O11 0.975712 0.737829 0.566096
O O12 0.000000 0.500000 0.500000
O O13 0.008035 0.428505 0.142101
O O14 0.874546 0.451780 0.260970
O O15 0.000000 0.000000 0.500000
O O16 0.500000 0.500000 0.000000
O O17 0.232439 0.020742 0.133123
#
# Coordination Sequence:
#
# PCOD9070725 Si02
#       7
#     2   2   2   2   2   2   2
#     4  12  25  45  77 116 156 206 268 331 401 478
#     4  12  25  47  77 119 157 205 273 336 402 475
#     4  12  27  47  78 111 156 209 265 333 402 476
#     4  12  29  51  79 118 162 210 264 335 410 476
#     4  12  29  53  80 113 160 216 271 331 407 495
#     4  12  25  45  75 114 155 207 266 328 397 480
#     4  12  27  49  78 112 159 208 268 327 403 488
#
# _framework density 24.004014000000002
#
# number of rings (size 3 to 8) (size 9 to 14) (size 15 to 20)
#    0.000    0.000    5.714    3.000    6.000    0.000 
#    0.000    2.143    0.000    0.000    0.000    0.000 
#    0.000    0.000    0.000    0.000    0.000    0.000 
#
# Total GULP energy -78009.260418 kJ/mol
# GULP energy per Si atom -5572.090030 kJ/mol
# Density = 2.394938 g / cm^3
# Si number density = 24.004014 Si / 1000 Ang^3
#
#
#
# Elastic Constant Matrix: (Units=GPa)
#
#
# Indices 1 2 3 4 5 6 
#
# 1 118.4845 36.0267 32.7938 -18.1478 -2.3242 -9.5919
# 2 36.0267 124.8899 21.3052 -26.6340 -7.2971 -16.1254
# 3 32.7938 21.3052 120.3664 -12.9203 9.8151 -8.7597
# 4 -18.1478 -26.6340 -12.9203 57.4889 6.6978 1.2228
# 5 -2.3242 -7.2971 9.8151 6.6978 47.5586 -1.5880
# 6 -9.5919 -16.1254 -8.7597 1.2228 -1.5880 37.4646
#
#
#
# Elastic Compliance Matrix: (Units=1/GPa)
#
#
# Indices 1 2 3 4 5 6 
#
# 1 0.009996 -0.001984 -0.002142 0.001680 0.000429 0.001168
# 2 -0.001984 0.010001 -0.000675 0.003642 0.001183 0.003570
# 3 -0.002142 -0.000675 0.009436 0.001374 -0.002308 0.001224
# 4 0.001680 0.003642 0.001374 0.020171 -0.002432 0.001558
# 5 0.000429 0.001183 -0.002308 -0.002432 0.022085 0.001095
# 6 0.001168 0.003570 0.001224 0.001558 0.001095 0.028809
#
#
# Mechanical properties :
#
#
# Convention : Reuss Voigt Hill
#
# Bulk Modulus (GPa) = 50.42683 60.44358 55.43520
# Shear Modulus (GPa) = 42.84048 46.74342 44.79195
#
# Velocity S-wave (km/s) = 4.22918 4.41763 4.32443
# Velocity P-wave (km/s) = 6.70084 7.15932 6.93387
#
# Compressibility (1/GPa) = 0.01983071
#
# Stress axis : x y z
#
# Youngs Moduli (GPa) = 100.03659 99.98668 105.97738
#
# Poissons Ratio (x) = 0.19838 0.22699
# Poissons Ratio (y) = 0.19848 0.07159
# Poissons Ratio (z) = 0.21427 0.06754
#
# Static dielectric constant tensor:
#      x y z
#    x 19.356750 5.713690 33.316750 
#    y 5.713690 3.799650 10.984040 
#    z 33.316750 10.984040 66.159050 
# 
# From -- ./inp_files/332717.got.cif
#   From: 2010.05.17/outbox.cif.g08.bks.cpg/sg2_167_cif.got.tgz:332717.got - 2010.06.03 11:33:40.
