data_PCOD9070126
_publ_section_title
;
Structure prediction by ZEFSAII (Michael W. Deem and Ramdas Pophale) SiO2 
 PCOD9070126
Probable space group: P -1
;
_chemical_formula_sum "Si O2"
_cell_formula_units_Z 14
_cell_length_a 27.209385
_cell_length_b 26.200339
_cell_length_c 5.080252
_cell_angle_alpha 118.647488
_cell_angle_beta 117.155537
_cell_angle_gamma 10.251058
_cell_volume 562.881219
_symmetry_space_group_name_H-M "P -1"
_symmetry_group_IT_number 2
_symmetry_cell_setting 'triclinic'
loop_
_space_group_symop_operation_xyz
x,y,z
-x,-y,-z
loop_
_atom_site_type_symbol
_atom_site_label
_atom_site_fract_x
_atom_site_fract_y
_atom_site_fract_z
Si Si1 0.999846 0.616735 0.482627
Si Si2 0.836918 0.854358 0.169769
Si Si3 0.722755 0.318028 0.520189
Si Si4 0.582237 0.293871 0.627043
Si Si5 0.011814 0.130767 0.932086
Si Si6 0.450376 0.010969 0.655339
Si Si7 0.273940 0.493613 0.494422
O O1 0.965433 0.676623 0.253587
O O2 0.320649 0.276332 0.492312
O O3 0.857362 0.806763 0.813013
O O4 0.152851 0.287480 0.623091
O O5 0.018164 0.725909 0.305429
O O6 0.530301 0.185300 0.342032
O O7 0.500000 0.500000 0.500000
O O8 0.629324 0.435150 0.289029
O O9 0.204959 0.928880 0.649792
O O10 0.000000 0.000000 0.500000
O O11 0.225355 0.673324 0.191347
O O12 0.399270 0.424101 0.514639
O O13 0.782573 0.093167 0.872335
O O14 0.852933 0.354849 0.161501
O O15 0.500000 0.000000 0.500000
O O16 0.500000 0.000000 0.000000
#
# Coordination Sequence:
#
# PCOD9070126 Si02
#       7
#     2   2   2   2   2   2   2
#     4  12  26  47  69 116 150 190 258 304 368 434
#     4  12  28  45  76 105 156 194 241 321 370 438
#     4  12  28  50  78 112 150 194 246 320 398 452
#     4  12  28  53  79 112 151 196 260 314 372 488
#     4  12  28  53  79 112 151 196 260 314 372 488
#     4  12  24  45  77 104 150 204 248 302 364 434
#     4  12  28  51  76 111 144 206 251 299 392 444
#
# _framework density 24.872035
#
# number of rings (size 3 to 8) (size 9 to 14) (size 15 to 20)
#    0.000    0.000    2.857    6.000    2.000    3.429 
#    0.000    0.000    0.000    0.000    0.000    0.000 
#    0.000    0.000    0.000    0.000    0.000    0.000 
#
# Total GULP energy -78454.246839 kJ/mol
# GULP energy per Si atom -5603.874774 kJ/mol
# Density = 2.481542 g / cm^3
# Si number density = 24.872035 Si / 1000 Ang^3
#
#
#
# Elastic Constant Matrix: (Units=GPa)
#
#
# Indices 1 2 3 4 5 6 
#
# 1 126.9677 -2.1984 25.5333 -27.1669 -8.5390 -18.1800
# 2 -2.1984 125.6837 -2.3981 3.1515 -12.8621 -18.6289
# 3 25.5333 -2.3981 128.5375 -15.3117 0.4342 -25.7043
# 4 -27.1669 3.1515 -15.3117 44.3058 -2.4750 8.1712
# 5 -8.5390 -12.8621 0.4342 -2.4750 48.5070 -11.4619
# 6 -18.1800 -18.6289 -25.7043 8.1712 -11.4619 49.5818
#
#
#
# Elastic Compliance Matrix: (Units=1/GPa)
#
#
# Indices 1 2 3 4 5 6 
#
# 1 0.009847 0.000848 -0.000633 0.005296 0.003045 0.003432
# 2 0.000848 0.009163 0.000968 -0.000549 0.003776 0.005219
# 3 -0.000633 0.000968 0.009112 0.001870 0.001305 0.004849
# 4 0.005296 -0.000549 0.001870 0.026844 0.001834 -0.001295
# 5 0.003045 0.003776 0.001305 0.001834 0.024247 0.008514
# 6 0.003432 0.005219 0.004849 -0.001295 0.008514 0.028083
#
#
# Mechanical properties :
#
#
# Convention : Reuss Voigt Hill
#
# Bulk Modulus (GPa) = 32.80054 47.00694 39.90374
# Shear Modulus (GPa) = 43.44249 52.49573 47.96911
#
# Velocity S-wave (km/s) = 4.18382 4.59915 4.39639
# Velocity P-wave (km/s) = 6.04611 6.86611 6.46911
#
# Compressibility (1/GPa) = 0.03048730
#
# Stress axis : x y z
#
# Youngs Moduli (GPa) = 101.54877 109.12898 109.74896
#
# Poissons Ratio (x) = -0.09251 0.06952
# Poissons Ratio (y) = -0.08608 -0.10624
# Poissons Ratio (z) = 0.06432 -0.10564
#
# Static dielectric constant tensor:
#      x y z
#    x 1.933750 0.041330 -0.031550 
#    y 0.041330 1.988230 0.060580 
#    z -0.031550 0.060580 1.969970 
# 
# From -- ./inp_files/128899.got.cif
#   From: 2010.05.17/outbox.cif.g08.bks.cpg/sg2_65_cif.got.tgz:128899.got - 2010.06.03 11:33:40.
