data_PCOD9070083
_publ_section_title
;
Structure prediction by ZEFSAII (Michael W. Deem and Ramdas Pophale) SiO2 
 PCOD9070083
Probable space group: P -1
;
_chemical_formula_sum "Si O2"
_cell_formula_units_Z 16
_cell_length_a 8.466205
_cell_length_b 12.262413
_cell_length_c 9.975266
_cell_angle_alpha 122.349525
_cell_angle_beta 123.617562
_cell_angle_gamma 75.473782
_cell_volume 727.028126
_symmetry_space_group_name_H-M "P -1"
_symmetry_group_IT_number 2
_symmetry_cell_setting 'triclinic'
loop_
_space_group_symop_operation_xyz
x,y,z
-x,-y,-z
loop_
_atom_site_type_symbol
_atom_site_label
_atom_site_fract_x
_atom_site_fract_y
_atom_site_fract_z
Si Si1 0.817398 0.255923 0.460978
Si Si2 0.433555 0.551939 0.646213
Si Si3 0.897744 0.356553 0.860833
Si Si4 0.391382 0.008337 0.765245
Si Si5 0.212703 0.059937 0.166493
Si Si6 0.747048 0.777481 0.960465
Si Si7 0.501288 0.613384 0.183638
Si Si8 0.221793 0.140881 0.530952
O O1 0.752440 0.368012 0.407017
O O2 0.833673 0.317658 0.656122
O O3 0.012956 0.192470 0.479075
O O4 0.656429 0.139057 0.309982
O O5 0.500000 0.500000 0.500000
O O6 0.602766 0.654609 0.838103
O O7 0.415014 0.440748 0.674333
O O8 0.713451 0.354106 0.865655
O O9 0.000000 0.500000 0.000000
O O10 0.047632 0.258025 0.916081
O O11 0.268442 0.032756 0.590074
O O12 0.615543 0.027766 0.853217
O O13 0.321749 0.102797 0.908268
O O14 0.238552 0.184462 0.163554
O O15 0.243850 0.093422 0.358577
O O16 0.000000 0.000000 0.000000
O O17 0.629178 0.739519 0.285901
O O18 0.500000 0.500000 0.000000
#
# Coordination Sequence:
#
# PCOD9070083 Si02
#       8
#     2   2   2   2   2   2   2   2
#     4  12  25  46  77 100 137 191 241 282 340 435
#     4  12  24  46  75  99 138 187 236 287 342 416
#     4  12  24  45  73 102 136 187 240 279 344 424
#     4  12  26  49  73 101 142 191 234 282 357 429
#     4  12  28  43  68 109 144 177 229 294 361 412
#     4  12  25  46  73 102 138 188 239 288 341 430
#     4  12  26  45  72 108 143 181 235 298 356 405
#     4  12  27  46  70 107 143 184 231 295 359 412
#
# _framework density 22.007401000000002
#
# number of rings (size 3 to 8) (size 9 to 14) (size 15 to 20)
#    0.000    0.000    5.000    4.875    5.250    1.500 
#    0.000    0.000    0.000    0.000    0.000    0.000 
#    0.000    0.000    0.000    0.000    0.000    0.000 
#
# Total GULP energy -89666.445583 kJ/mol
# GULP energy per Si atom -5604.152849 kJ/mol
# Density = 2.195731 g / cm^3
# Si number density = 22.007401 Si / 1000 Ang^3
#
#
#
# Elastic Constant Matrix: (Units=GPa)
#
#
# Indices 1 2 3 4 5 6 
#
# 1 116.9945 13.6483 14.5223 0.8622 10.9199 -35.3621
# 2 13.6483 61.6803 2.9959 -6.2358 1.9198 -21.6037
# 3 14.5223 2.9959 97.7453 7.4218 -14.9785 -13.0823
# 4 0.8622 -6.2358 7.4218 41.9774 -0.2304 8.3545
# 5 10.9199 1.9198 -14.9785 -0.2304 43.3635 -4.8041
# 6 -35.3621 -21.6037 -13.0823 8.3545 -4.8041 44.1103
#
#
#
# Elastic Compliance Matrix: (Units=1/GPa)
#
#
# Indices 1 2 3 4 5 6 
#
# 1 0.011676 0.000696 -0.000644 -0.001955 -0.002135 0.009648
# 2 0.000696 0.019698 0.000664 0.000747 0.000327 0.010296
# 3 -0.000644 0.000664 0.011821 -0.002820 0.004684 0.004360
# 4 -0.001955 0.000747 -0.002820 0.025872 -0.001160 -0.007064
# 5 -0.002135 0.000327 0.004684 -0.001160 0.025510 0.002836
# 6 0.009648 0.010296 0.004360 -0.007064 0.002836 0.038387
#
#
# Mechanical properties :
#
#
# Convention : Reuss Voigt Hill
#
# Bulk Modulus (GPa) = 22.40726 37.63922 30.02324
# Shear Modulus (GPa) = 34.15127 42.24046 38.19587
#
# Velocity S-wave (km/s) = 3.94357 4.38582 4.17056
# Velocity P-wave (km/s) = 5.56233 6.54120 6.07152
#
# Compressibility (1/GPa) = 0.04462839
#
# Stress axis : x y z
#
# Youngs Moduli (GPa) = 85.64645 50.76632 84.59287
#
# Poissons Ratio (x) = -0.03532 0.05444
# Poissons Ratio (y) = -0.05959 -0.05620
# Poissons Ratio (z) = 0.05511 -0.03373
#
# Static dielectric constant tensor:
#      x y z
#    x 1.780350 -0.013880 0.010360 
#    y -0.013880 1.790880 -0.013770 
#    z 0.010360 -0.013770 1.806190 
# 
# From -- ./inp_files/190350.got.cif
#   From: 2010.05.17/outbox.cif.g08.bks.cpg/sg2_96_cif.got.tgz:190350.got - 2010.06.03 11:33:40.
