data_PCOD9070319
_publ_section_title
;
Structure prediction by ZEFSAII (Michael W. Deem and Ramdas Pophale) SiO2 
 PCOD9070319
Probable space group: P -1
;
_chemical_formula_sum "Si O2"
_cell_formula_units_Z 14
_cell_length_a 9.187622
_cell_length_b 8.398274
_cell_length_c 9.596874
_cell_angle_alpha 128.238234
_cell_angle_beta 103.263527
_cell_angle_gamma 74.681793
_cell_volume 558.827702
_symmetry_space_group_name_H-M "P -1"
_symmetry_group_IT_number 2
_symmetry_cell_setting 'triclinic'
loop_
_space_group_symop_operation_xyz
x,y,z
-x,-y,-z
loop_
_atom_site_type_symbol
_atom_site_label
_atom_site_fract_x
_atom_site_fract_y
_atom_site_fract_z
Si Si1 0.614744 0.784565 0.629019
Si Si2 0.624734 0.128830 0.165043
Si Si3 0.332901 0.819190 0.279356
Si Si4 0.113400 0.585550 0.966583
Si Si5 0.626341 0.524338 0.215356
Si Si6 0.087575 0.445654 0.345814
Si Si7 0.160158 0.897623 0.553407
O O1 0.477906 0.738598 0.667700
O O2 0.651505 0.649514 0.426724
O O3 0.769176 0.731174 0.717519
O O4 0.592369 0.018658 0.703287
O O5 0.658643 0.285814 0.137763
O O6 0.773505 0.040225 0.246344
O O7 0.500000 0.000000 0.000000
O O8 0.451521 0.609727 0.193754
O O9 0.288440 0.907871 0.470146
O O10 0.179010 0.771316 0.152161
O O11 0.261522 0.432921 0.860067
O O12 0.023736 0.628729 0.828711
O O13 0.000000 0.500000 0.000000
O O14 0.142604 0.658106 0.431046
O O15 0.000000 0.500000 0.500000
O O16 0.000000 0.000000 0.500000
#
# Coordination Sequence:
#
# PCOD9070319 Si02
#       7
#     2   2   2   2   2   2   2
#     4  12  25  46  79 105 151 200 257 305 380 466
#     4  12  27  48  77 113 150 203 260 316 384 461
#     4  12  27  46  73 115 149 200 255 314 380 456
#     4  12  27  46  76 114 151 198 257 323 383 450
#     4  12  25  50  78 104 154 202 256 312 382 462
#     4  12  24  47  74 104 150 204 247 312 390 454
#     4  12  26  44  74 111 154 198 256 316 388 457
#
# _framework density 25.052443
#
# number of rings (size 3 to 8) (size 9 to 14) (size 15 to 20)
#    0.000    0.000    5.714    3.857    0.000    2.857 
#    0.000    0.000    0.000    0.000    0.000    0.000 
#    0.000    0.000    0.000    0.000    0.000    0.000 
#
# Total GULP energy -78297.492771 kJ/mol
# GULP energy per Si atom -5592.678055 kJ/mol
# Density = 2.499542 g / cm^3
# Si number density = 25.052443 Si / 1000 Ang^3
#
#
#
# Elastic Constant Matrix: (Units=GPa)
#
#
# Indices 1 2 3 4 5 6 
#
# 1 143.6558 42.3768 34.2465 -24.3521 5.3073 -4.2485
# 2 42.3768 97.9007 26.9828 -19.4066 11.8794 2.0198
# 3 34.2465 26.9828 112.3072 -8.9205 28.9587 -6.7966
# 4 -24.3521 -19.4066 -8.9205 22.7868 0.8992 11.5529
# 5 5.3073 11.8794 28.9587 0.8992 70.6390 -14.9741
# 6 -4.2485 2.0198 -6.7966 11.5529 -14.9741 49.2190
#
#
#
# Elastic Compliance Matrix: (Units=1/GPa)
#
#
# Indices 1 2 3 4 5 6 
#
# 1 0.009314 -0.001845 -0.001804 0.008360 -0.000042 -0.001344
# 2 -0.001845 0.014234 -0.001463 0.012030 -0.002787 -0.004617
# 3 -0.001804 -0.001463 0.010981 0.001378 -0.004174 -0.000173
# 4 0.008360 0.012030 0.001378 0.073774 -0.008271 -0.019414
# 5 -0.000042 -0.002787 -0.004174 -0.008271 0.017913 0.006925
# 6 -0.001344 -0.004617 -0.000173 -0.019414 0.006925 0.027031
#
#
# Mechanical properties :
#
#
# Convention : Reuss Voigt Hill
#
# Bulk Modulus (GPa) = 41.13940 62.34176 51.74058
# Shear Modulus (GPa) = 29.14250 45.21280 37.17765
#
# Velocity S-wave (km/s) = 3.41436 4.25282 3.85644
# Velocity P-wave (km/s) = 5.65692 7.00384 6.36610
#
# Compressibility (1/GPa) = 0.02430760
#
# Stress axis : x y z
#
# Youngs Moduli (GPa) = 107.36334 70.25421 91.06727
#
# Poissons Ratio (x) = 0.12959 0.16425
# Poissons Ratio (y) = 0.19804 0.13319
# Poissons Ratio (z) = 0.19364 0.10275
#
# Static dielectric constant tensor:
#      x y z
#    x 2.206600 -0.094140 -0.013730 
#    y -0.094140 2.008020 -0.052340 
#    z -0.013730 -0.052340 2.087280 
# 
# From -- ./inp_files/160224.got.cif
#   From: 2010.05.17/outbox.cif.g08.bks.cpg/sg2_81_cif.got.tgz:160224.got - 2010.06.03 11:33:40.
