data_PCOD9070247
_publ_section_title
;
Structure prediction by ZEFSAII (Michael W. Deem and Ramdas Pophale) SiO2 
 PCOD9070247
Probable space group: P -1
;
_chemical_formula_sum "Si O2"
_cell_formula_units_Z 11
_cell_length_a 5.553625
_cell_length_b 12.831841
_cell_length_c 8.801492
_cell_angle_alpha 111.023675
_cell_angle_beta 126.157493
_cell_angle_gamma 92.358445
_cell_volume 445.316553
_symmetry_space_group_name_H-M "P -1"
_symmetry_group_IT_number 2
_symmetry_cell_setting 'triclinic'
loop_
_space_group_symop_operation_xyz
x,y,z
-x,-y,-z
loop_
_atom_site_type_symbol
_atom_site_label
_atom_site_fract_x
_atom_site_fract_y
_atom_site_fract_z
Si Si1 0.071754 0.878508 0.987228
Si Si2 0.720813 0.035753 0.341447
Si Si3 0.000000 0.500000 0.500000
Si Si4 0.852097 0.742698 0.555136
Si Si5 0.121766 0.462247 0.863238
Si Si6 0.749371 0.208992 0.688338
O O1 0.067117 0.829140 0.128921
O O2 0.449470 0.922732 0.116716
O O3 0.839114 0.776660 0.744960
O O4 0.000000 0.000000 0.000000
O O5 0.597197 0.095824 0.465635
O O6 0.862753 0.142857 0.335055
O O7 0.000000 0.000000 0.500000
O O8 0.093400 0.380853 0.495774
O O9 0.989348 0.511310 0.693222
O O10 0.541760 0.747009 0.354016
O O11 0.986083 0.319159 0.744996
O O12 0.500000 0.500000 0.000000
O O13 0.000000 0.500000 0.000000
#
# Coordination Sequence:
#
# PCOD9070247 Si02
#       6
#     2   2   1   2   2   2
#     4  12  25  46  79 116 155 210 273 334 418 506
#     4  12  24  46  77 110 155 204 262 337 414 487
#     4  12  28  52  82 118 162 224 286 340 414 510
#     4  12  26  48  75 113 161 211 274 338 417 498
#     4  12  29  52  82 117 164 222 283 349 419 506
#     4  12  26  49  73 111 160 205 263 348 419 481
#
# _framework density 24.701528
#
# number of rings (size 3 to 8) (size 9 to 14) (size 15 to 20)
#    0.000    0.000    5.455    4.364    0.000    7.273 
#    0.000    0.000    0.000    0.000    0.000    0.000 
#    0.000    0.000    0.000    0.000    0.000    0.000 
#
# Total GULP energy -61284.838472 kJ/mol
# GULP energy per Si atom -5571.348952 kJ/mol
# Density = 2.464531 g / cm^3
# Si number density = 24.701528 Si / 1000 Ang^3
#
#
#
# Elastic Constant Matrix: (Units=GPa)
#
#
# Indices 1 2 3 4 5 6 
#
# 1 87.7247 40.7645 24.4962 -10.8107 -4.4079 -6.1215
# 2 40.7645 174.1189 38.8318 -43.0261 2.2272 -6.8653
# 3 24.4962 38.8318 90.7949 -27.5800 -14.4162 -3.9794
# 4 -10.8107 -43.0261 -27.5800 55.7573 11.3279 -7.4840
# 5 -4.4079 2.2272 -14.4162 11.3279 46.3801 2.7014
# 6 -6.1215 -6.8653 -3.9794 -7.4840 2.7014 60.3659
#
#
#
# Elastic Compliance Matrix: (Units=1/GPa)
#
#
# Indices 1 2 3 4 5 6 
#
# 1 0.013373 -0.002757 -0.002530 -0.000845 0.000781 0.000736
# 2 -0.002757 0.008226 -0.001342 0.005864 -0.002589 0.001410
# 3 -0.002530 -0.001342 0.014337 0.005100 0.002974 0.001035
# 4 -0.000845 0.005864 0.005100 0.026538 -0.005518 0.004454
# 5 0.000781 -0.002589 0.002974 -0.005518 0.024136 -0.001783
# 6 0.000736 0.001410 0.001035 0.004454 -0.001783 0.017501
#
#
# Mechanical properties :
#
#
# Convention : Reuss Voigt Hill
#
# Bulk Modulus (GPa) = 44.09299 62.31375 53.20337
# Shear Modulus (GPa) = 40.02333 49.07041 44.54687
#
# Velocity S-wave (km/s) = 4.02963 4.46189 4.25126
# Velocity P-wave (km/s) = 6.28806 7.19903 6.75891
#
# Compressibility (1/GPa) = 0.02267934
#
# Stress axis : x y z
#
# Youngs Moduli (GPa) = 74.77738 121.56944 69.74828
#
# Poissons Ratio (x) = 0.33512 0.17644
# Poissons Ratio (y) = 0.20613 0.09361
# Poissons Ratio (z) = 0.18916 0.16317
#
# Static dielectric constant tensor:
#      x y z
#    x 2.118150 0.024350 -0.065570 
#    y 0.024350 1.919120 0.010450 
#    z -0.065570 0.010450 2.057070 
# 
# From -- ./inp_files/23813.got.cif
#   From: 2010.05.17/outbox.cif.g08.bks.cpg/sg2_12_cif.got.tgz:23813.got - 2010.06.03 11:33:40.
