data_PCOD9070172
_publ_section_title
;
Structure prediction by ZEFSAII (Michael W. Deem and Ramdas Pophale) SiO2 
 PCOD9070172
Probable space group: P -1
;
_chemical_formula_sum "Si O2"
_cell_formula_units_Z 14
_cell_length_a 12.542415
_cell_length_b 13.086701
_cell_length_c 6.824240
_cell_angle_alpha 81.233560
_cell_angle_beta 136.009966
_cell_angle_gamma 123.279177
_cell_volume 591.007768
_symmetry_space_group_name_H-M "P -1"
_symmetry_group_IT_number 2
_symmetry_cell_setting 'triclinic'
loop_
_space_group_symop_operation_xyz
x,y,z
-x,-y,-z
loop_
_atom_site_type_symbol
_atom_site_label
_atom_site_fract_x
_atom_site_fract_y
_atom_site_fract_z
Si Si1 0.836663 0.516368 0.725173
Si Si2 0.568782 0.639710 0.958426
Si Si3 0.607096 0.991131 0.832067
Si Si4 0.479286 0.196020 0.888539
Si Si5 0.830933 0.010423 0.788146
Si Si6 0.864027 0.287777 0.258503
Si Si7 0.101962 0.307067 0.910939
O O1 0.622866 0.391760 0.394571
O O2 0.959001 0.627074 0.685929
O O3 0.792136 0.576425 0.823575
O O4 0.000000 0.500000 0.000000
O O5 0.500000 0.500000 0.000000
O O6 0.613220 0.739836 0.161969
O O7 0.746303 0.692537 0.025022
O O8 0.500000 0.000000 0.500000
O O9 0.745380 0.970884 0.904677
O O10 0.492311 0.876016 0.877848
O O11 0.737894 0.132394 0.076003
O O12 0.335481 0.085116 0.567280
O O13 0.696819 0.305162 0.046188
O O14 0.939847 0.165155 0.844241
O O15 0.000000 0.000000 0.000000
O O16 0.973052 0.325116 0.596761
#
# Coordination Sequence:
#
# PCOD9070172 Si02
#       7
#     2   2   2   2   2   2   2
#     4  12  29  49  77 105 142 196 248 294 358 433
#     4  12  29  50  71 104 149 194 240 299 354 431
#     4  12  24  46  72 112 146 183 237 300 372 430
#     4  12  28  46  74 110 149 187 242 300 366 434
#     4  12  27  43  74 108 145 189 235 301 365 429
#     4  12  25  46  77 108 144 186 241 302 362 429
#     4  12  26  49  76 104 144 191 241 299 362 424
#
# _framework density 23.68835
#
# number of rings (size 3 to 8) (size 9 to 14) (size 15 to 20)
#    0.000    0.000    5.714    3.429    8.000    3.429 
#    0.000    0.000    0.000    0.000    0.000    0.000 
#    0.000    0.000    0.000    0.000    0.000    0.000 
#
# Total GULP energy -78378.517383 kJ/mol
# GULP energy per Si atom -5598.465527 kJ/mol
# Density = 2.363443 g / cm^3
# Si number density = 23.688350 Si / 1000 Ang^3
#
#
#
# Elastic Constant Matrix: (Units=GPa)
#
#
# Indices 1 2 3 4 5 6 
#
# 1 150.2391 -7.6089 9.2564 14.2120 -2.6294 8.5044
# 2 -7.6089 42.1728 0.4542 8.4363 -14.3009 4.1138
# 3 9.2564 0.4542 69.0484 5.1224 2.0037 10.8216
# 4 14.2120 8.4363 5.1224 32.0660 -5.1323 2.3208
# 5 -2.6294 -14.3009 2.0037 -5.1323 50.3033 4.4856
# 6 8.5044 4.1138 10.8216 2.3208 4.4856 28.0639
#
#
#
# Elastic Compliance Matrix: (Units=1/GPa)
#
#
# Indices 1 2 3 4 5 6 
#
# 1 0.007292 0.002580 -0.000401 -0.003524 0.000976 -0.002298
# 2 0.002580 0.028944 0.000698 -0.007132 0.008143 -0.006006
# 3 -0.000401 0.000698 0.015601 -0.002101 -0.000141 -0.005800
# 4 -0.003524 -0.007132 -0.002101 0.035213 0.001485 -0.000226
# 5 0.000976 0.008143 -0.000141 0.001485 0.022867 -0.005213
# 6 -0.002298 -0.006006 -0.005800 -0.000226 -0.005213 0.040298
#
#
# Mechanical properties :
#
#
# Convention : Reuss Voigt Hill
#
# Bulk Modulus (GPa) = 17.36428 29.51819 23.44124
# Shear Modulus (GPa) = 30.55128 39.37722 34.96425
#
# Velocity S-wave (km/s) = 3.59516 4.08156 3.84606
# Velocity P-wave (km/s) = 4.95780 5.89069 5.44427
#
# Compressibility (1/GPa) = 0.05758947
#
# Stress axis : x y z
#
# Youngs Moduli (GPa) = 137.13747 34.54958 64.09943
#
# Poissons Ratio (x) = -0.08914 0.02572
# Poissons Ratio (y) = -0.35381 -0.04472
# Poissons Ratio (z) = 0.05503 -0.02411
#
# Static dielectric constant tensor:
#      x y z
#    x 1.734970 -0.550910 0.063970 
#    y -0.550910 0.152230 0.093860 
#    z 0.063970 0.093860 1.884940 
# 
# From -- ./inp_files/25824.got.cif
#   From: 2010.05.17/outbox.cif.g08.bks.cpg/sg2_13_cif.got.tgz:25824.got - 2010.06.03 11:33:40.
