data_PCOD9070581
_publ_section_title
;
Structure prediction by ZEFSAII (Michael W. Deem and Ramdas Pophale) SiO2 
 PCOD9070581
Probable space group: P -1
;
_chemical_formula_sum "Si O2"
_cell_formula_units_Z 13
_cell_length_a 9.514236
_cell_length_b 8.440029
_cell_length_c 10.325798
_cell_angle_alpha 44.870073
_cell_angle_beta 116.088227
_cell_angle_gamma 113.755140
_cell_volume 519.911982
_symmetry_space_group_name_H-M "P -1"
_symmetry_group_IT_number 2
_symmetry_cell_setting 'triclinic'
loop_
_space_group_symop_operation_xyz
x,y,z
-x,-y,-z
loop_
_atom_site_type_symbol
_atom_site_label
_atom_site_fract_x
_atom_site_fract_y
_atom_site_fract_z
Si Si1 0.332205 0.066007 0.359805
Si Si2 0.045212 0.265598 0.829245
Si Si3 0.500000 0.000000 0.000000
Si Si4 0.323147 0.508924 0.981119
Si Si5 0.725159 0.684828 0.330338
Si Si6 0.699128 0.248518 0.705296
Si Si7 0.179471 0.955491 0.621688
O O1 0.500000 0.000000 0.500000
O O2 0.295629 0.967610 0.259809
O O3 0.228852 0.939717 0.503004
O O4 0.315510 0.331053 0.199135
O O5 0.186070 0.399926 0.891273
O O6 0.108250 0.297812 0.689043
O O7 0.880889 0.354549 0.744807
O O8 0.000000 0.000000 0.000000
O O9 0.616879 0.814820 0.119819
O O10 0.405563 0.821263 0.173205
O O11 0.265326 0.753759 0.843046
O O12 0.500000 0.500000 0.000000
O O13 0.645211 0.435829 0.479719
O O14 0.746624 0.832581 0.384348
O O15 0.000000 0.000000 0.500000
#
# Coordination Sequence:
#
# PCOD9070581 Si02
#       7
#     2   2   1   2   2   2   2
#     4  12  25  47  76 109 153 208 259 309 392 483
#     4  12  24  51  81 109 150 203 269 316 385 468
#     4  12  26  44  72 114 158 186 264 316 386 450
#     4  12  27  50  81 109 153 212 258 322 394 474
#     4  12  27  46  75 111 155 201 256 325 388 458
#     4  12  26  49  79 113 151 210 261 325 385 470
#     4  12  28  47  73 115 155 195 257 327 391 462
#
# _framework density 25.004231999999998
#
# number of rings (size 3 to 8) (size 9 to 14) (size 15 to 20)
#    0.000    0.000    4.615    4.615    2.154    1.846 
#    0.000    0.000    0.000    0.000    0.000    0.000 
#    0.000    0.000    0.000    0.000    0.000    0.000 
#
# Total GULP energy -72416.800345 kJ/mol
# GULP energy per Si atom -5570.523103 kJ/mol
# Density = 2.494732 g / cm^3
# Si number density = 25.004232 Si / 1000 Ang^3
#
#
#
# Elastic Constant Matrix: (Units=GPa)
#
#
# Indices 1 2 3 4 5 6 
#
# 1 168.6986 30.8408 42.0896 9.7053 9.1710 15.4162
# 2 30.8408 74.3567 -4.7485 1.6399 -2.4954 0.2629
# 3 42.0896 -4.7485 159.9030 -25.1854 8.2729 4.8907
# 4 9.7053 1.6399 -25.1854 37.4177 -0.5274 8.7655
# 5 9.1710 -2.4954 8.2729 -0.5274 59.8328 6.2535
# 6 15.4162 0.2629 4.8907 8.7655 6.2535 30.2959
#
#
#
# Elastic Compliance Matrix: (Units=1/GPa)
#
#
# Indices 1 2 3 4 5 6 
#
# 1 0.007555 -0.003240 -0.002428 -0.002891 -0.000728 -0.002437
# 2 -0.003240 0.014885 0.001370 0.000921 0.000847 0.000857
# 3 -0.002428 0.001370 0.008018 0.006389 -0.000432 -0.001830
# 4 -0.002891 0.000921 0.006389 0.033994 0.000900 -0.009590
# 5 -0.000728 0.000847 -0.000432 0.000900 0.017283 -0.003395
# 6 -0.002437 0.000857 -0.001830 -0.009590 -0.003395 0.038011
#
#
# Mechanical properties :
#
#
# Convention : Reuss Voigt Hill
#
# Bulk Modulus (GPa) = 45.74231 59.92467 52.83349
# Shear Modulus (GPa) = 36.86496 47.82771 42.34634
#
# Velocity S-wave (km/s) = 3.84389 4.37828 4.11976
# Velocity P-wave (km/s) = 6.16719 7.04109 6.61858
#
# Compressibility (1/GPa) = 0.02186160
#
# Stress axis : x y z
#
# Youngs Moduli (GPa) = 132.37131 67.18039 124.71640
#
# Poissons Ratio (x) = 0.21770 0.30279
# Poissons Ratio (y) = 0.42895 -0.17087
# Poissons Ratio (z) = 0.32137 -0.09204
#
# Static dielectric constant tensor:
#      x y z
#    x 1.940990 0.146350 0.146990 
#    y 0.146350 1.833110 0.012730 
#    z 0.146990 0.012730 2.125230 
# 
# From -- ./inp_files/377518.got.cif
#   From: 2010.05.17/outbox.cif.g08.bks.cpg/sg2_189_cif.got.tgz:377518.got - 2010.06.03 11:33:40.
