data_PCOD9070111
_publ_section_title
;
Structure prediction by ZEFSAII (Michael W. Deem and Ramdas Pophale) SiO2 
 PCOD9070111
Probable space group: P -1
;
_chemical_formula_sum "Si O2"
_cell_formula_units_Z 15
_cell_length_a 13.629530
_cell_length_b 9.880884
_cell_length_c 20.637452
_cell_angle_alpha 146.710609
_cell_angle_beta 26.018792
_cell_angle_gamma 139.024523
_cell_volume 669.083751
_symmetry_space_group_name_H-M "P -1"
_symmetry_group_IT_number 2
_symmetry_cell_setting 'triclinic'
loop_
_space_group_symop_operation_xyz
x,y,z
-x,-y,-z
loop_
_atom_site_type_symbol
_atom_site_label
_atom_site_fract_x
_atom_site_fract_y
_atom_site_fract_z
Si Si1 0.474287 0.108818 0.487297
Si Si2 0.265214 0.996973 0.175971
Si Si3 0.739084 0.020769 0.677508
Si Si4 0.046566 0.427594 0.871404
Si Si5 0.073377 0.280895 0.053093
Si Si6 0.309617 0.499560 0.556946
Si Si7 0.398565 0.702760 0.258625
Si Si8 0.000000 0.500000 0.500000
O O1 0.684778 0.260297 0.396140
O O2 0.289343 0.315922 0.680058
O O3 0.500000 0.000000 0.500000
O O4 0.402602 0.910967 0.396729
O O5 0.303928 0.933225 0.203137
O O6 0.128450 0.253710 0.354985
O O7 0.115451 0.784357 0.145898
O O8 0.500000 0.000000 0.000000
O O9 0.648476 0.746764 0.605606
O O10 0.655074 0.201324 0.743235
O O11 0.000000 0.000000 0.500000
O O12 0.014463 0.672381 0.947828
O O13 0.000000 0.500000 0.000000
O O14 0.931409 0.477088 0.257193
O O15 0.335831 0.348630 0.924749
O O16 0.000000 0.000000 0.000000
O O17 0.500000 0.500000 0.500000
O O18 0.204073 0.524132 0.331390
#
# Coordination Sequence:
#
# PCOD9070111 Si02
#       8
#     2   2   2   2   2   2   2   1
#     4  12  25  44  74 111 153 203 263 322 394 473
#     4  12  29  52  78 117 161 211 268 327 412 482
#     4  12  25  50  77 106 156 213 258 330 404 485
#     4  12  27  49  75 107 158 198 258 331 394 474
#     4  12  24  45  75 118 152 196 266 332 392 480
#     4  12  24  46  78 108 153 208 260 324 399 472
#     4  12  25  48  73 114 157 205 271 324 403 483
#     4  12  26  52  78 108 162 210 266 326 400 492
#
# _framework density 22.418717000000001
#
# number of rings (size 3 to 8) (size 9 to 14) (size 15 to 20)
#    0.000    0.000    6.667    2.400    3.733    0.000 
#    2.400    2.000    0.000    0.000    0.000    0.000 
#    0.000    0.000    0.000    0.000    0.000    0.000 
#
# Total GULP energy -83564.651055 kJ/mol
# GULP energy per Si atom -5570.976737 kJ/mol
# Density = 2.236769 g / cm^3
# Si number density = 22.418717 Si / 1000 Ang^3
#
#
#
# Elastic Constant Matrix: (Units=GPa)
#
#
# Indices 1 2 3 4 5 6 
#
# 1 158.2906 66.2644 60.6339 -4.1228 15.6587 -42.1260
# 2 66.2644 98.8620 20.8897 -10.9434 2.3291 -39.6883
# 3 60.6339 20.8897 140.7634 -28.9679 -12.1761 -13.7023
# 4 -4.1228 -10.9434 -28.9679 43.9850 -4.4478 2.8978
# 5 15.6587 2.3291 -12.1761 -4.4478 50.2160 2.8755
# 6 -42.1260 -39.6883 -13.7023 2.8978 2.8755 49.8687
#
#
#
# Elastic Compliance Matrix: (Units=1/GPa)
#
#
# Indices 1 2 3 4 5 6 
#
# 1 0.012654 -0.005549 -0.005598 -0.004818 -0.005779 0.005348
# 2 -0.005549 0.017810 0.001717 0.004526 0.001170 0.009628
# 3 -0.005598 0.001717 0.011228 0.007886 0.005146 -0.001032
# 4 -0.004818 0.004526 0.007886 0.029212 0.005811 -0.000334
# 5 -0.005779 0.001170 0.005146 0.005811 0.023667 -0.004239
# 6 0.005348 0.009628 -0.001032 -0.000334 -0.004239 0.032214
#
#
# Mechanical properties :
#
#
# Convention : Reuss Voigt Hill
#
# Bulk Modulus (GPa) = 43.79720 77.05465 60.42593
# Shear Modulus (GPa) = 32.62484 45.48914 39.05699
#
# Velocity S-wave (km/s) = 3.81891 4.50941 4.17845
# Velocity P-wave (km/s) = 6.24691 7.84591 7.09162
#
# Compressibility (1/GPa) = 0.02283251
#
# Stress axis : x y z
#
# Youngs Moduli (GPa) = 79.02352 56.14688 89.06171
#
# Poissons Ratio (x) = 0.31156 0.49859
# Poissons Ratio (y) = 0.43851 -0.15292
# Poissons Ratio (z) = 0.44239 -0.09640
#
# Static dielectric constant tensor:
#      x y z
#    x 1.903580 0.032030 0.027550 
#    y 0.032030 2.016070 -0.098370 
#    z 0.027550 -0.098370 1.935070 
# 
# From -- ./inp_files/185669.got.cif
#   From: 2010.05.17/outbox.cif.g08.bks.cpg/sg2_93_cif.got.tgz:185669.got - 2010.06.03 11:33:40.
