data_PCOD9070002
_publ_section_title
;
Structure prediction by ZEFSAII (Michael W. Deem and Ramdas Pophale) SiO2 
 PCOD9070002
Probable space group: P -1
;
_chemical_formula_sum "Si O2"
_cell_formula_units_Z 14
_cell_length_a 11.110929
_cell_length_b 9.076641
_cell_length_c 8.340405
_cell_angle_alpha 71.917573
_cell_angle_beta 50.637143
_cell_angle_gamma 71.569259
_cell_volume 609.997284
_symmetry_space_group_name_H-M "P -1"
_symmetry_group_IT_number 2
_symmetry_cell_setting 'triclinic'
loop_
_space_group_symop_operation_xyz
x,y,z
-x,-y,-z
loop_
_atom_site_type_symbol
_atom_site_label
_atom_site_fract_x
_atom_site_fract_y
_atom_site_fract_z
Si Si1 0.631934 0.886479 0.832702
Si Si2 0.132213 0.547375 0.484598
Si Si3 0.068781 0.235975 0.162942
Si Si4 0.457721 0.684783 0.435888
Si Si5 0.811166 0.052955 0.359560
Si Si6 0.767758 0.755811 0.294233
Si Si7 0.578187 0.339339 0.909336
O O1 0.768184 0.799303 0.863377
O O2 0.726622 0.979989 0.602147
O O3 0.517888 0.780190 0.880563
O O4 0.500000 0.000000 0.000000
O O5 0.221998 0.383252 0.536579
O O6 0.237169 0.650042 0.257242
O O7 0.000000 0.500000 0.500000
O O8 0.052508 0.649833 0.664212
O O9 0.984638 0.084444 0.249657
O O10 0.109771 0.299141 0.933941
O O11 0.500000 0.500000 0.500000
O O12 0.298299 0.775504 0.623291
O O13 0.595490 0.772392 0.356119
O O14 0.451674 0.685219 0.247108
O O15 0.805242 0.921406 0.273486
O O16 0.500000 0.500000 0.000000
#
# Coordination Sequence:
#
# PCOD9070002 Si02
#       7
#     2   2   2   2   2   2   2
#     4  12  24  44  73 100 141 189 236 290 351 422
#     4  12  26  47  71 106 143 190 238 295 354 423
#     4  12  24  46  68 102 145 186 239 293 357 418
#     4  12  24  47  72  99 143 186 237 296 352 421
#     4  12  25  46  67 106 143 186 237 296 356 417
#     4  12  25  44  71 103 142 189 236 296 354 422
#     4  12  24  46  70 105 136 184 239 282 355 421
#
# _framework density 22.950921999999998
#
# number of rings (size 3 to 8) (size 9 to 14) (size 15 to 20)
#    0.000    0.000    5.714    4.286    0.000    1.143 
#    0.000    0.000    0.000    0.000    0.000    0.000 
#    0.000    0.000    0.000    0.000    0.000    0.000 
#
# Total GULP energy -78219.850640 kJ/mol
# GULP energy per Si atom -5587.132189 kJ/mol
# Density = 2.289869 g / cm^3
# Si number density = 22.950922 Si / 1000 Ang^3
#
#
#
# Elastic Constant Matrix: (Units=GPa)
#
#
# Indices 1 2 3 4 5 6 
#
# 1 83.2165 12.1063 8.7875 -4.1912 -25.1566 32.7725
# 2 12.1063 106.4090 1.9650 12.5438 -9.7359 19.8333
# 3 8.7875 1.9650 96.9383 -2.2596 -20.9018 7.6597
# 4 -4.1912 12.5438 -2.2596 54.5625 11.2134 -2.3619
# 5 -25.1566 -9.7359 -20.9018 11.2134 39.1708 -9.2959
# 6 32.7725 19.8333 7.6597 -2.3619 -9.2959 43.6978
#
#
#
# Elastic Compliance Matrix: (Units=1/GPa)
#
#
# Indices 1 2 3 4 5 6 
#
# 1 0.020580 0.001508 0.001684 -0.001697 0.011647 -0.014028
# 2 0.001508 0.011011 0.000822 -0.003402 0.003776 -0.005653
# 3 0.001684 0.000822 0.011900 -0.001194 0.007455 -0.002200
# 4 -0.001697 -0.003402 -0.001194 0.020661 -0.007903 0.002462
# 5 0.011647 0.003776 0.007455 -0.007903 0.039280 -0.003827
# 6 -0.014028 -0.005653 -0.002200 0.002462 -0.003827 0.035676
#
#
# Mechanical properties :
#
#
# Convention : Reuss Voigt Hill
#
# Bulk Modulus (GPa) = 19.41066 36.92015 28.16540
# Shear Modulus (GPa) = 33.72612 45.06655 39.39634
#
# Velocity S-wave (km/s) = 3.83755 4.43607 4.14762
# Velocity P-wave (km/s) = 5.30203 6.50844 5.93596
#
# Compressibility (1/GPa) = 0.05151810
#
# Stress axis : x y z
#
# Youngs Moduli (GPa) = 48.59188 90.81629 84.03293
#
# Poissons Ratio (x) = -0.13694 -0.14152
# Poissons Ratio (y) = -0.07327 -0.06905
# Poissons Ratio (z) = -0.08183 -0.07462
#
# Static dielectric constant tensor:
#      x y z
#    x 1.805270 -0.126090 0.026870 
#    y -0.126090 1.729620 -0.003970 
#    z 0.026870 -0.003970 1.871900 
# 
# From -- ./inp_files/222864.got.cif
#   From: 2010.05.17/outbox.cif.g08.bks.cpg/sg2_112_cif.got.tgz:222864.got - 2010.06.03 11:33:40.
