data_PCOD9070950
_publ_section_title
;
Structure prediction by ZEFSAII (Michael W. Deem and Ramdas Pophale) SiO2 
 PCOD9070950
Probable space group: P -1
;
_chemical_formula_sum "Si O2"
_cell_formula_units_Z 14
_cell_length_a 11.098804
_cell_length_b 8.754654
_cell_length_c 9.466935
_cell_angle_alpha 69.362098
_cell_angle_beta 111.116147
_cell_angle_gamma 63.018847
_cell_volume 599.625894
_symmetry_space_group_name_H-M "P -1"
_symmetry_group_IT_number 2
_symmetry_cell_setting 'triclinic'
loop_
_space_group_symop_operation_xyz
x,y,z
-x,-y,-z
loop_
_atom_site_type_symbol
_atom_site_label
_atom_site_fract_x
_atom_site_fract_y
_atom_site_fract_z
Si Si1 0.116621 0.197791 0.410779
Si Si2 0.360635 0.757514 0.505504
Si Si3 0.256616 0.343890 0.926096
Si Si4 0.148374 0.118028 0.780221
Si Si5 0.142285 0.765009 0.202246
Si Si6 0.309315 0.321420 0.284324
Si Si7 0.477336 0.631964 0.084738
O O1 0.153400 0.163806 0.603990
O O2 0.218147 0.259916 0.357772
O O3 0.914042 0.398641 0.234695
O O4 0.194280 0.969565 0.448117
O O5 0.298333 0.740344 0.336499
O O6 0.500929 0.784843 0.548508
O O7 0.445969 0.540620 0.701535
O O8 0.207705 0.215348 0.874309
O O9 0.408546 0.303862 0.917480
O O10 0.310443 0.278031 0.133603
O O11 0.953567 0.238615 0.703926
O O12 0.280686 0.856896 0.943576
O O13 0.198255 0.578602 0.178980
O O14 0.000000 0.000000 0.000000
O O15 0.500000 0.500000 0.000000
#
# Coordination Sequence:
#
# PCOD9070950 Si02
#       7
#     2   2   2   2   2   2   2
#     4  12  26  46  75 108 147 194 246 296 366 434
#     4  12  27  47  75 108 147 194 240 309 360 432
#     4  12  26  47  78 104 149 193 244 303 360 436
#     4  12  27  49  74 108 147 194 245 299 363 439
#     4  12  28  48  76 109 147 190 247 302 365 430
#     4  12  26  49  70 111 150 193 244 294 369 434
#     4  12  25  48  74 108 146 188 246 301 364 427
#
# _framework density 23.347892000000002
#
# number of rings (size 3 to 8) (size 9 to 14) (size 15 to 20)
#    0.000    0.000    4.286    4.714    6.000    1.143 
#    0.000    0.000    0.000    0.000    0.000    0.000 
#    0.000    0.000    0.000    0.000    0.000    0.000 
#
# Total GULP energy -78529.351461 kJ/mol
# GULP energy per Si atom -5609.239390 kJ/mol
# Density = 2.329475 g / cm^3
# Si number density = 23.347892 Si / 1000 Ang^3
#
#
#
# Elastic Constant Matrix: (Units=GPa)
#
#
# Indices 1 2 3 4 5 6 
#
# 1 67.0660 -1.9406 5.5039 15.8411 2.9983 -5.1666
# 2 -1.9406 110.9779 13.3406 3.0644 1.2279 -0.7792
# 3 5.5039 13.3406 106.3473 9.3408 -6.3103 9.5544
# 4 15.8411 3.0644 9.3408 45.8100 -5.7407 12.5462
# 5 2.9983 1.2279 -6.3103 -5.7407 33.6023 1.9794
# 6 -5.1666 -0.7792 9.5544 12.5462 1.9794 33.4117
#
#
#
# Elastic Compliance Matrix: (Units=1/GPa)
#
#
# Indices 1 2 3 4 5 6 
#
# 1 0.017568 0.000742 -0.001068 -0.008071 -0.003544 0.006280
# 2 0.000742 0.009221 -0.001258 -0.001037 -0.000883 0.001131
# 3 -0.001068 -0.001258 0.010057 -0.000509 0.002120 -0.003005
# 4 -0.008071 -0.001037 -0.000509 0.028980 0.006343 -0.012385
# 5 -0.003544 -0.000883 0.002120 0.006343 0.031911 -0.005447
# 6 0.006280 0.001131 -0.003005 -0.012385 -0.005447 0.036760
#
#
# Mechanical properties :
#
#
# Convention : Reuss Voigt Hill
#
# Bulk Modulus (GPa) = 29.69296 35.35545 32.52420
# Shear Modulus (GPa) = 33.58144 40.39728 36.98936
#
# Velocity S-wave (km/s) = 3.79662 4.16412 3.98461
# Velocity P-wave (km/s) = 5.65370 6.18834 5.92705
#
# Compressibility (1/GPa) = 0.03367801
#
# Stress axis : x y z
#
# Youngs Moduli (GPa) = 56.92028 108.44372 99.43649
#
# Poissons Ratio (x) = -0.08044 0.10619
# Poissons Ratio (y) = -0.04222 0.12510
# Poissons Ratio (z) = 0.06078 0.13643
#
# Static dielectric constant tensor:
#      x y z
#    x 1.914070 -0.016450 -0.008910 
#    y -0.016450 1.853310 -0.032550 
#    z -0.008910 -0.032550 1.840800 
# 
# From -- ./inp_files/158166.got.cif
#   From: 2010.05.17/outbox.cif.g08.bks.cpg/sg2_80_cif.got.tgz:158166.got - 2010.06.03 11:33:40.
