data_PCOD9070297
_publ_section_title
;
Structure prediction by ZEFSAII (Michael W. Deem and Ramdas Pophale) SiO2 
 PCOD9070297
Probable space group: P -1
;
_chemical_formula_sum "Si O2"
_cell_formula_units_Z 16
_cell_length_a 9.510434
_cell_length_b 17.578999
_cell_length_c 13.352886
_cell_angle_alpha 153.857075
_cell_angle_beta 45.832896
_cell_angle_gamma 136.139054
_cell_volume 672.543283
_symmetry_space_group_name_H-M "P -1"
_symmetry_group_IT_number 2
_symmetry_cell_setting 'triclinic'
loop_
_space_group_symop_operation_xyz
x,y,z
-x,-y,-z
loop_
_atom_site_type_symbol
_atom_site_label
_atom_site_fract_x
_atom_site_fract_y
_atom_site_fract_z
Si Si1 0.412023 0.665893 0.218485
Si Si2 0.202113 0.140537 0.843453
Si Si3 0.132968 0.081275 0.373525
Si Si4 0.173008 0.410808 0.338642
Si Si5 0.169268 0.687272 0.162270
Si Si6 0.574751 0.093445 0.881053
Si Si7 0.818862 0.147337 0.313968
Si Si8 0.506430 0.337423 0.376178
O O1 0.611943 0.836306 0.298507
O O2 0.276100 0.653846 0.172088
O O3 0.280504 0.702027 0.418409
O O4 0.500000 0.500000 0.000000
O O5 0.180357 0.976842 0.737201
O O6 0.248015 0.319748 0.099772
O O7 0.990854 0.098346 0.837989
O O8 0.286923 0.226459 0.397453
O O9 0.958557 0.169235 0.596295
O O10 0.274387 0.029964 0.326209
O O11 0.346515 0.563414 0.489947
O O12 0.000000 0.500000 0.500000
O O13 0.046473 0.241845 0.271712
O O14 0.338357 0.762863 0.081146
O O15 0.000000 0.500000 0.000000
O O16 0.343654 0.972619 0.826600
O O17 0.579346 0.197887 0.106484
O O18 0.500000 0.500000 0.500000
#
# Coordination Sequence:
#
# PCOD9070297 Si02
#       8
#     2   2   2   2   2   2   2   2
#     4  12  28  47  74 104 140 184 236 291 348 421
#     4  12  24  47  72 101 139 183 235 288 348 414
#     4  12  26  46  73 105 144 185 234 288 350 417
#     4  12  26  44  72 104 138 181 237 288 349 414
#     4  12  28  46  72 106 144 182 233 289 358 415
#     4  12  26  46  73 105 144 185 234 288 350 417
#     4  12  24  47  72 101 139 183 235 288 348 414
#     4  12  26  46  70 104 146 185 234 289 346 415
#
# _framework density 23.790289000000001
#
# number of rings (size 3 to 8) (size 9 to 14) (size 15 to 20)
#    0.000    0.000    2.500    7.500    7.000    0.000 
#    0.000    0.000    0.000    0.000    0.000    0.000 
#    0.000    0.000    0.000    0.000    0.000    0.000 
#
# Total GULP energy -89705.257673 kJ/mol
# GULP energy per Si atom -5606.578605 kJ/mol
# Density = 2.373614 g / cm^3
# Si number density = 23.790289 Si / 1000 Ang^3
#
#
#
# Elastic Constant Matrix: (Units=GPa)
#
#
# Indices 1 2 3 4 5 6 
#
# 1 76.7216 1.3785 -2.7948 6.3346 7.7974 19.3652
# 2 1.3785 112.4120 6.0430 -9.3833 17.4537 14.3434
# 3 -2.7948 6.0430 86.2856 -9.6247 7.9765 12.5772
# 4 6.3346 -9.3833 -9.6247 30.8695 3.1452 -4.0787
# 5 7.7974 17.4537 7.9765 3.1452 46.2133 19.2123
# 6 19.3652 14.3434 12.5772 -4.0787 19.2123 45.6398
#
#
#
# Elastic Compliance Matrix: (Units=1/GPa)
#
#
# Indices 1 2 3 4 5 6 
#
# 1 0.015186 0.000317 0.001089 -0.003698 0.000441 -0.007360
# 2 0.000317 0.009869 0.000213 0.003133 -0.003366 -0.001597
# 3 0.001089 0.000213 0.012580 0.003495 -0.001384 -0.003101
# 4 -0.003698 0.003133 0.003495 0.036501 -0.005873 0.005356
# 5 0.000441 -0.003366 -0.001384 -0.005873 0.028087 -0.011096
# 6 -0.007360 -0.001597 -0.003101 0.005356 -0.011096 0.031540
#
#
# Mechanical properties :
#
#
# Convention : Reuss Voigt Hill
#
# Bulk Modulus (GPa) = 24.46650 31.63027 28.04839
# Shear Modulus (GPa) = 34.68645 42.59736 38.64190
#
# Velocity S-wave (km/s) = 3.82253 4.23606 4.03460
# Velocity P-wave (km/s) = 5.45792 6.10327 5.78960
#
# Compressibility (1/GPa) = 0.04087221
#
# Stress axis : x y z
#
# Youngs Moduli (GPa) = 65.84920 101.33191 79.49431
#
# Poissons Ratio (x) = -0.03214 -0.08658
# Poissons Ratio (y) = -0.02088 -0.01690
# Poissons Ratio (z) = -0.07172 -0.02155
#
# Static dielectric constant tensor:
#      x y z
#    x 1.827510 -0.060150 -0.056370 
#    y -0.060150 1.832070 -0.032600 
#    z -0.056370 -0.032600 1.898830 
# 
# From -- ./inp_files/403493.got.cif
#   From: 2010.05.17/outbox.cif.g08.bks.cpg/sg2_202_cif.got.tgz:403493.got - 2010.06.03 11:33:40.
