data_PCOD9070856
_publ_section_title
;
Structure prediction by ZEFSAII (Michael W. Deem and Ramdas Pophale) SiO2 
 PCOD9070856
Probable space group: P -1
;
_chemical_formula_sum "Si O2"
_cell_formula_units_Z 16
_cell_length_a 18.885652
_cell_length_b 9.439873
_cell_length_c 21.904621
_cell_angle_alpha 145.607093
_cell_angle_beta 160.347717
_cell_angle_gamma 33.514906
_cell_volume 708.133596
_symmetry_space_group_name_H-M "P -1"
_symmetry_group_IT_number 2
_symmetry_cell_setting 'triclinic'
loop_
_space_group_symop_operation_xyz
x,y,z
-x,-y,-z
loop_
_atom_site_type_symbol
_atom_site_label
_atom_site_fract_x
_atom_site_fract_y
_atom_site_fract_z
Si Si1 0.532494 0.851968 0.408645
Si Si2 0.102178 0.234938 0.026868
Si Si3 0.446558 0.814507 0.575135
Si Si4 0.069817 0.208344 0.481551
Si Si5 0.310329 0.026205 0.904243
Si Si6 0.614394 0.688938 0.125465
Si Si7 0.996610 0.282279 0.224850
Si Si8 0.119219 0.634939 0.976014
O O1 0.346741 0.709306 0.195318
O O2 0.784425 0.664908 0.552569
O O3 0.500000 0.000000 0.500000
O O4 0.523661 0.054051 0.418268
O O5 0.366217 0.150401 0.213870
O O6 0.000000 0.500000 0.000000
O O7 0.024518 0.289786 0.053352
O O8 0.020765 0.987041 0.854382
O O9 0.500000 0.500000 0.500000
O O10 0.208654 0.981018 0.467285
O O11 0.231417 0.211372 0.669111
O O12 0.000000 0.500000 0.500000
O O13 0.850853 0.145003 0.302135
O O14 0.172169 0.325818 0.902582
O O15 0.500000 0.000000 0.000000
O O16 0.428280 0.921651 0.026306
O O17 0.776325 0.511587 0.143178
O O18 0.500000 0.500000 0.000000
O O19 0.000945 0.245664 0.142001
#
# Coordination Sequence:
#
# PCOD9070856 Si02
#       8
#     2   2   2   2   2   2   2   2
#     4  12  26  46  77 110 147 203 251 308 389 462
#     4  12  26  45  75 109 148 195 250 318 380 458
#     4  12  27  48  77 113 154 194 260 321 384 454
#     4  12  28  51  81 114 157 204 262 321 385 463
#     4  12  29  50  76 115 153 201 257 322 381 461
#     4  12  27  46  80 109 149 205 258 309 386 456
#     4  12  25  47  74 106 148 198 250 308 385 454
#     4  12  27  50  73 109 160 194 252 320 390 457
#
# _framework density 22.594605000000001
#
# number of rings (size 3 to 8) (size 9 to 14) (size 15 to 20)
#    0.000    0.000    5.000    4.125    7.000    1.500 
#    0.000    0.000    0.000    0.000    0.000    0.000 
#    0.000    0.000    0.000    0.000    0.000    0.000 
#
# Total GULP energy -89649.861391 kJ/mol
# GULP energy per Si atom -5603.116337 kJ/mol
# Density = 2.254318 g / cm^3
# Si number density = 22.594605 Si / 1000 Ang^3
#
#
#
# Elastic Constant Matrix: (Units=GPa)
#
#
# Indices 1 2 3 4 5 6 
#
# 1 93.4504 19.7522 26.6335 0.8635 5.8070 14.3496
# 2 19.7522 112.9181 22.2849 0.6196 5.6644 19.8711
# 3 26.6335 22.2849 169.0538 -0.8775 4.6403 25.9187
# 4 0.8635 0.6196 -0.8775 40.7662 3.3422 -3.9166
# 5 5.8070 5.6644 4.6403 3.3422 41.7108 -10.0416
# 6 14.3496 19.8711 25.9187 -3.9166 -10.0416 46.4570
#
#
#
# Elastic Compliance Matrix: (Units=1/GPa)
#
#
# Indices 1 2 3 4 5 6 
#
# 1 0.011885 -0.001218 -0.001206 -0.000376 -0.002035 -0.002949
# 2 -0.001218 0.009991 -0.000434 -0.000361 -0.002107 -0.004141
# 3 -0.001206 -0.000434 0.006736 -0.000047 -0.001361 -0.003498
# 4 -0.000376 -0.000361 -0.000047 0.024857 -0.001381 0.002094
# 5 -0.002035 -0.002107 -0.001361 -0.001381 0.026719 0.007948
# 6 -0.002949 -0.004141 -0.003498 0.002094 0.007948 0.028053
#
#
# Mechanical properties :
#
#
# Convention : Reuss Voigt Hill
#
# Bulk Modulus (GPa) = 43.67668 56.97370 50.32519
# Shear Modulus (GPa) = 41.12207 46.23692 43.67950
#
# Velocity S-wave (km/s) = 4.27077 4.52859 4.40157
# Velocity P-wave (km/s) = 6.60998 7.25359 6.93925
#
# Compressibility (1/GPa) = 0.02289551
#
# Stress axis : x y z
#
# Youngs Moduli (GPa) = 84.14210 100.08916 148.45843
#
# Poissons Ratio (x) = 0.12190 0.17901
# Poissons Ratio (y) = 0.10248 0.06448
# Poissons Ratio (z) = 0.10146 0.04347
#
# Static dielectric constant tensor:
#      x y z
#    x 1.864870 -0.036660 0.021450 
#    y -0.036660 1.827520 -0.014040 
#    z 0.021450 -0.014040 1.838820 
# 
# From -- ./inp_files/226555.got.cif
#   From: 2010.05.17/outbox.cif.g08.bks.cpg/sg2_114_cif.got.tgz:226555.got - 2010.06.03 11:33:40.
