data_PCOD9070651
_publ_section_title
;
Structure prediction by ZEFSAII (Michael W. Deem and Ramdas Pophale) SiO2 
 PCOD9070651
Probable space group: P -1
;
_chemical_formula_sum "Si O2"
_cell_formula_units_Z 14
_cell_length_a 24.409357
_cell_length_b 14.835676
_cell_length_c 6.697914
_cell_angle_alpha 117.818868
_cell_angle_beta 61.715069
_cell_angle_gamma 162.673469
_cell_volume 635.160715
_symmetry_space_group_name_H-M "P -1"
_symmetry_group_IT_number 2
_symmetry_cell_setting 'triclinic'
loop_
_space_group_symop_operation_xyz
x,y,z
-x,-y,-z
loop_
_atom_site_type_symbol
_atom_site_label
_atom_site_fract_x
_atom_site_fract_y
_atom_site_fract_z
Si Si1 0.737111 0.757575 0.336679
Si Si2 0.184845 0.716130 0.384058
Si Si3 0.013327 0.251717 0.045218
Si Si4 0.405644 0.141332 0.090812
Si Si5 0.683287 0.802843 0.866733
Si Si6 0.180707 0.315122 0.631698
Si Si7 0.532767 0.929363 0.405755
O O1 0.584419 0.488991 0.162534
O O2 0.671259 0.731294 0.597173
O O3 0.778736 0.715421 0.325729
O O4 0.910083 0.071019 0.245542
O O5 0.000000 0.500000 0.500000
O O6 0.127362 0.530286 0.159938
O O7 0.326602 0.001085 0.302069
O O8 0.291513 0.833795 0.514429
O O9 0.137571 0.348794 0.868341
O O10 0.856330 0.022826 0.912337
O O11 0.278160 0.017453 0.047079
O O12 0.445550 0.097606 0.866990
O O13 0.500000 0.500000 0.000000
O O14 0.351605 0.604144 0.491410
O O15 0.000000 0.000000 0.500000
O O16 0.500000 0.000000 0.500000
#
# Coordination Sequence:
#
# PCOD9070651 Si02
#       7
#     2   2   2   2   2   2   2
#     4  12  25  45  74 106 141 187 236 294 361 426
#     4  12  29  49  72 105 147 191 243 293 360 430
#     4  12  27  44  73 106 143 188 238 296 355 426
#     4  12  26  46  76 102 142 192 236 294 361 422
#     4  12  25  44  73 106 142 180 240 298 355 421
#     4  12  25  47  73 107 144 184 241 298 357 424
#     4  12  29  49  74 106 148 192 243 296 355 428
#
# _framework density 22.041668000000001
#
# number of rings (size 3 to 8) (size 9 to 14) (size 15 to 20)
#    0.000    0.000    4.286    5.143    6.000    5.714 
#    0.000    0.000    0.000    0.000    0.000    0.000 
#    0.000    0.000    0.000    0.000    0.000    0.000 
#
# Total GULP energy -78344.108976 kJ/mol
# GULP energy per Si atom -5596.007784 kJ/mol
# Density = 2.199150 g / cm^3
# Si number density = 22.041668 Si / 1000 Ang^3
#
#
#
# Elastic Constant Matrix: (Units=GPa)
#
#
# Indices 1 2 3 4 5 6 
#
# 1 148.6521 10.0659 22.3553 -3.7379 -10.9666 5.5417
# 2 10.0659 70.4820 8.6671 3.2903 5.2091 5.9549
# 3 22.3553 8.6671 104.2222 -2.5227 -20.6774 13.1007
# 4 -3.7379 3.2903 -2.5227 31.3844 -5.5809 -0.6441
# 5 -10.9666 5.2091 -20.6774 -5.5809 48.7857 -1.5918
# 6 5.5417 5.9549 13.1007 -0.6441 -1.5918 34.3688
#
#
#
# Elastic Compliance Matrix: (Units=1/GPa)
#
#
# Indices 1 2 3 4 5 6 
#
# 1 0.007103 -0.000991 -0.001087 0.001093 0.001351 -0.000476
# 2 -0.000991 0.014985 -0.001371 -0.002329 -0.002739 -0.002084
# 3 -0.001087 -0.001371 0.011400 0.001710 0.004810 -0.003678
# 4 0.001093 -0.002329 0.001710 0.033280 0.005041 0.000432
# 5 0.001351 -0.002739 0.004810 0.005041 0.023697 -0.000385
# 6 -0.000476 -0.002084 -0.003678 0.000432 -0.000385 0.030926
#
#
# Mechanical properties :
#
#
# Convention : Reuss Voigt Hill
#
# Bulk Modulus (GPa) = 37.60886 45.05921 41.33404
# Shear Modulus (GPa) = 36.45577 41.72564 39.09071
#
# Velocity S-wave (km/s) = 4.07129 4.35562 4.21585
# Velocity P-wave (km/s) = 6.26100 6.76627 6.51853
#
# Compressibility (1/GPa) = 0.02658948
#
# Stress axis : x y z
#
# Youngs Moduli (GPa) = 140.79357 66.73133 87.72011
#
# Poissons Ratio (x) = 0.06616 0.09532
# Poissons Ratio (y) = 0.13958 0.12028
# Poissons Ratio (z) = 0.15299 0.09150
#
# Static dielectric constant tensor:
#      x y z
#    x 2.069910 0.286720 0.076570 
#    y 0.286720 1.988720 0.068180 
#    z 0.076570 0.068180 1.805300 
# 
# From -- ./inp_files/77960.got.cif
#   From: 2010.05.17/outbox.cif.g08.bks.cpg/sg2_39_cif.got.tgz:77960.got - 2010.06.03 11:33:40.
