data_PCOD9070495
_publ_section_title
;
Structure prediction by ZEFSAII (Michael W. Deem and Ramdas Pophale) SiO2 
 PCOD9070495
Probable space group: P -1
;
_chemical_formula_sum "Si O2"
_cell_formula_units_Z 14
_cell_length_a 9.370377
_cell_length_b 21.293046
_cell_length_c 20.839500
_cell_angle_alpha 160.135487
_cell_angle_beta 29.815741
_cell_angle_gamma 151.261855
_cell_volume 655.395247
_symmetry_space_group_name_H-M "P -1"
_symmetry_group_IT_number 2
_symmetry_cell_setting 'triclinic'
loop_
_space_group_symop_operation_xyz
x,y,z
-x,-y,-z
loop_
_atom_site_type_symbol
_atom_site_label
_atom_site_fract_x
_atom_site_fract_y
_atom_site_fract_z
Si Si1 0.174236 0.095887 0.591912
Si Si2 0.262274 0.487656 0.022085
Si Si3 0.418495 0.114839 0.802589
Si Si4 0.577524 0.443047 0.292251
Si Si5 0.641399 0.879240 0.023541
Si Si6 0.239589 0.090185 0.177977
Si Si7 0.271531 0.120521 0.336500
O O1 0.209227 0.304994 0.815267
O O2 0.502201 0.072807 0.433019
O O3 0.000000 0.000000 0.500000
O O4 0.986790 0.936177 0.563667
O O5 0.500000 0.500000 0.000000
O O6 0.404464 0.690142 0.120222
O O7 0.935104 0.466437 0.162941
O O8 0.504744 0.142539 0.870337
O O9 0.052460 0.053702 0.883982
O O10 0.407188 0.298816 0.278256
O O11 0.534759 0.649456 0.514042
O O12 0.412404 0.334570 0.188632
O O13 0.470934 0.985619 0.145533
O O14 0.000000 0.000000 0.000000
O O15 0.122371 0.094270 0.299700
O O16 0.500000 0.000000 0.000000
#
# Coordination Sequence:
#
# PCOD9070495 Si02
#       7
#     2   2   2   2   2   2   2
#     4  12  25  46  71 106 145 185 235 299 361 421
#     4  12  27  45  74 108 142 188 240 293 359 429
#     4  12  26  44  76 103 140 185 240 290 358 430
#     4  12  25  45  73 101 141 188 236 290 360 417
#     4  12  25  48  70 103 142 188 236 293 355 431
#     4  12  24  49  70 100 146 190 232 297 352 423
#     4  12  25  44  73 100 144 183 237 294 354 422
#
# _framework density 21.361156000000001
#
# number of rings (size 3 to 8) (size 9 to 14) (size 15 to 20)
#    0.000    0.000    7.143    2.143    4.000    2.857 
#    5.143    0.000    0.000    0.000    0.000    0.000 
#    0.000    0.000    0.000    0.000    0.000    0.000 
#
# Total GULP energy -78117.944431 kJ/mol
# GULP energy per Si atom -5579.853174 kJ/mol
# Density = 2.131254 g / cm^3
# Si number density = 21.361156 Si / 1000 Ang^3
#
#
#
# Elastic Constant Matrix: (Units=GPa)
#
#
# Indices 1 2 3 4 5 6 
#
# 1 89.6803 54.4154 48.6074 -5.4423 30.3678 -13.2626
# 2 54.4154 83.8903 -30.1881 13.1726 -13.8593 -22.2484
# 3 48.6074 -30.1881 19.5189 30.4633 -3.1456 -13.1129
# 4 -5.4423 13.1726 30.4633 37.6029 2.0236 2.1698
# 5 30.3678 -13.8593 -3.1456 2.0236 24.6832 -7.8098
# 6 -13.2626 -22.2484 -13.1129 2.1698 -7.8098 53.4446
#
#
#
# Elastic Compliance Matrix: (Units=1/GPa)
#
#
# Indices 1 2 3 4 5 6 
#
# 1 0.004584 0.002993 0.009496 -0.008339 -0.000489 0.004980
# 2 0.002993 0.005302 -0.009262 0.006202 -0.002369 0.000080
# 3 0.009496 -0.009262 0.003369 0.003042 -0.017777 -0.003394
# 4 -0.008339 0.006202 0.003042 0.019899 0.013254 0.002388
# 5 -0.000489 -0.002369 -0.017777 0.013254 0.036207 -0.000717
# 6 0.004980 0.000080 -0.003394 0.002388 -0.000717 0.018946
#
#
# Mechanical properties :
#
#
# Convention : Reuss Voigt Hill
#
# Bulk Modulus (GPa) = 50.73575 37.63987 44.18781
# Shear Modulus (GPa) = 56.54739 31.16312 43.85525
#
# Velocity S-wave (km/s) = 5.15068 3.82366 4.53596
# Velocity P-wave (km/s) = 7.69257 6.09531 6.94004
#
# Compressibility (1/GPa) = 0.01970997
#
# Stress axis : x y z
#
# Youngs Moduli (GPa) = 218.15323 188.61170 296.80706
#
# Poissons Ratio (x) = -0.56455 -2.81844
# Poissons Ratio (y) = -0.65297 2.74890
# Poissons Ratio (z) = -2.07156 1.74684
#
# Static dielectric constant tensor:
#      x y z
#    x 1.940550 0.028190 0.005660 
#    y 0.028190 1.782530 -0.054270 
#    z 0.005660 -0.054270 1.838700 
# 
# From -- ./inp_files/349677.got.cif
#   From: 2010.05.17/outbox.cif.g08.bks.cpg/sg2_175_cif.got.tgz:349677.got - 2010.06.03 11:33:40.
