data_PCOD9070043
_publ_section_title
;
Structure prediction by ZEFSAII (Michael W. Deem and Ramdas Pophale) SiO2 
 PCOD9070043
Probable space group: P -1
;
_chemical_formula_sum "Si O2"
_cell_formula_units_Z 16
_cell_length_a 27.062092
_cell_length_b 9.430684
_cell_length_c 12.875774
_cell_angle_alpha 37.266038
_cell_angle_beta 27.711227
_cell_angle_gamma 25.292365
_cell_volume 652.676447
_symmetry_space_group_name_H-M "P -1"
_symmetry_group_IT_number 2
_symmetry_cell_setting 'triclinic'
loop_
_space_group_symop_operation_xyz
x,y,z
-x,-y,-z
loop_
_atom_site_type_symbol
_atom_site_label
_atom_site_fract_x
_atom_site_fract_y
_atom_site_fract_z
Si Si1 0.011126 0.722985 0.690095
Si Si2 0.864230 0.681088 0.813584
Si Si3 0.029056 0.009398 0.820819
Si Si4 0.671868 0.953218 0.464797
Si Si5 0.457337 0.978959 0.707470
Si Si6 0.339893 0.130560 0.223206
Si Si7 0.195628 0.835440 0.009231
Si Si8 0.694111 0.245745 0.649584
O O1 0.983829 0.576392 0.736757
O O2 0.167513 0.429725 0.629117
O O3 0.870270 0.921009 0.913482
O O4 0.000000 0.000000 0.500000
O O5 0.949909 0.387236 0.742304
O O6 0.798707 0.011378 0.687425
O O7 0.717158 0.783719 0.076073
O O8 0.936423 0.985794 0.932949
O O9 0.201752 0.751628 0.616919
O O10 0.000000 0.000000 0.000000
O O11 0.539292 0.014789 0.619976
O O12 0.671492 0.954164 0.590055
O O13 0.677983 0.203595 0.258173
O O14 0.542954 0.596418 0.768220
O O15 0.500000 0.000000 0.500000
O O16 0.234357 0.515626 0.165049
O O17 0.333250 0.940732 0.259930
O O18 0.500000 0.000000 0.000000
#
# Coordination Sequence:
#
# PCOD9070043 Si02
#       8
#     2   2   2   2   2   2   2   2
#     4  12  24  44  77 109 146 191 242 300 367 436
#     4  12  25  45  75 107 143 191 243 296 364 433
#     4  12  25  46  72 107 143 188 241 299 363 435
#     4  12  27  49  75 109 148 191 245 301 367 438
#     4  12  28  49  73 108 146 193 243 303 367 435
#     4  12  28  47  73 105 146 193 243 298 365 432
#     4  12  26  46  75 107 145 189 241 300 363 435
#     4  12  26  47  74 105 148 189 242 300 365 438
#
# _framework density 24.514443
#
# number of rings (size 3 to 8) (size 9 to 14) (size 15 to 20)
#    0.000    0.000    2.500    7.875    3.500    0.500 
#    0.000    0.000    0.000    0.000    0.000    0.000 
#    0.000    0.000    0.000    0.000    0.000    0.000 
#
# Total GULP energy -89637.012773 kJ/mol
# GULP energy per Si atom -5602.313298 kJ/mol
# Density = 2.445865 g / cm^3
# Si number density = 24.514443 Si / 1000 Ang^3
#
#
#
# Elastic Constant Matrix: (Units=GPa)
#
#
# Indices 1 2 3 4 5 6 
#
# 1 110.9086 -1.4177 28.1266 -1.1627 -13.8485 5.9377
# 2 -1.4177 66.7388 7.2514 -4.0026 -4.9663 4.3872
# 3 28.1266 7.2514 124.2252 0.9726 -0.5937 -4.3113
# 4 -1.1627 -4.0026 0.9726 37.7992 -13.7501 0.6323
# 5 -13.8485 -4.9663 -0.5937 -13.7501 41.9266 -3.8127
# 6 5.9377 4.3872 -4.3113 0.6323 -3.8127 36.5569
#
#
#
# Elastic Compliance Matrix: (Units=1/GPa)
#
#
# Indices 1 2 3 4 5 6 
#
# 1 0.010252 0.001005 -0.002435 0.001952 0.003957 -0.001694
# 2 0.001005 0.015650 -0.001216 0.002812 0.002915 -0.001929
# 3 -0.002435 -0.001216 0.008725 -0.000799 -0.000952 0.001485
# 4 0.001952 0.002812 -0.000799 0.030866 0.011078 -0.000127
# 5 0.003957 0.002915 -0.000952 0.011078 0.029283 0.001758
# 6 -0.001694 -0.001929 0.001485 -0.000127 0.001758 0.028222
#
#
# Mechanical properties :
#
#
# Convention : Reuss Voigt Hill
#
# Bulk Modulus (GPa) = 34.08865 41.08815 37.58840
# Shear Modulus (GPa) = 36.21392 41.11736 38.66564
#
# Velocity S-wave (km/s) = 3.84767 4.09989 3.97578
# Velocity P-wave (km/s) = 5.80303 6.26174 6.03674
#
# Compressibility (1/GPa) = 0.02933528
#
# Stress axis : x y z
#
# Youngs Moduli (GPa) = 97.54109 63.89896 114.60689
#
# Poissons Ratio (x) = -0.06424 0.27908
# Poissons Ratio (y) = -0.09806 0.13938
# Poissons Ratio (z) = 0.23752 0.07771
#
# Static dielectric constant tensor:
#      x y z
#    x 1.845600 -0.088410 0.051910 
#    y -0.088410 2.055400 -0.094380 
#    z 0.051910 -0.094380 1.987360 
# 
# From -- ./inp_files/476367.got.cif
#   From: 2010.05.17/outbox.cif.g08.bks.cpg/sg2_239_cif.got.tgz:476367.got - 2010.06.03 11:33:40.
