data_PCOD9070750
_publ_section_title
;
Structure prediction by ZEFSAII (Michael W. Deem and Ramdas Pophale) SiO2 
 PCOD9070750
Probable space group: P -1
;
_chemical_formula_sum "Si O2"
_cell_formula_units_Z 14
_cell_length_a 9.159008
_cell_length_b 5.486119
_cell_length_c 16.392072
_cell_angle_alpha 93.142440
_cell_angle_beta 42.591083
_cell_angle_gamma 94.629726
_cell_volume 555.588971
_symmetry_space_group_name_H-M "P -1"
_symmetry_group_IT_number 2
_symmetry_cell_setting 'triclinic'
loop_
_space_group_symop_operation_xyz
x,y,z
-x,-y,-z
loop_
_atom_site_type_symbol
_atom_site_label
_atom_site_fract_x
_atom_site_fract_y
_atom_site_fract_z
Si Si1 0.780523 0.352148 0.560642
Si Si2 0.085675 0.629095 0.061894
Si Si3 0.503437 0.317736 0.221046
Si Si4 0.828092 0.060409 0.686891
Si Si5 0.247076 0.914406 0.594371
Si Si6 0.156679 0.893278 0.822335
Si Si7 0.384863 0.743261 0.076231
O O1 0.573075 0.479863 0.682207
O O2 0.807583 0.115985 0.601368
O O3 0.761982 0.307537 0.471337
O O4 0.000000 0.500000 0.500000
O O5 0.970601 0.360960 0.103442
O O6 0.157089 0.701972 0.124699
O O7 0.948491 0.860116 0.100571
O O8 0.306913 0.619087 0.919932
O O9 0.612535 0.119260 0.229910
O O10 0.290690 0.208075 0.259823
O O11 0.669492 0.226782 0.806212
O O12 0.067574 0.075643 0.626505
O O13 0.171679 0.877356 0.717823
O O14 0.500000 0.000000 0.500000
O O15 0.500000 0.500000 0.000000
O O16 0.500000 0.000000 0.000000
#
# Coordination Sequence:
#
# PCOD9070750 Si02
#       7
#     2   2   2   2   2   2   2
#     4  12  29  49  81 116 156 214 279 333 398 486
#     4  12  27  51  80 121 163 208 269 329 408 486
#     4  12  28  50  82 116 159 215 263 335 408 487
#     4  12  27  50  78 115 158 209 276 328 407 481
#     4  12  29  54  80 116 162 214 274 340 405 481
#     4  12  30  51  82 120 164 211 266 336 410 475
#     4  12  25  45  80 118 161 206 260 331 401 482
#
# _framework density 25.198485999999999
#
# number of rings (size 3 to 8) (size 9 to 14) (size 15 to 20)
#    0.000    0.000    4.286    3.857   10.000    0.571 
#    0.000    0.000    0.000    0.000    0.000    0.000 
#    0.000    0.000    0.000    0.000    0.000    0.000 
#
# Total GULP energy -78296.384538 kJ/mol
# GULP energy per Si atom -5592.598896 kJ/mol
# Density = 2.514113 g / cm^3
# Si number density = 25.198486 Si / 1000 Ang^3
#
#
#
# Elastic Constant Matrix: (Units=GPa)
#
#
# Indices 1 2 3 4 5 6 
#
# 1 133.0571 29.3278 45.6589 -7.4670 -7.6840 13.9080
# 2 29.3278 152.5754 84.8911 12.6441 -16.8276 4.5243
# 3 45.6589 84.8911 157.1192 28.5196 1.4074 5.3371
# 4 -7.4670 12.6441 28.5196 60.7343 10.1400 -9.1026
# 5 -7.6840 -16.8276 1.4074 10.1400 58.0704 7.7896
# 6 13.9080 4.5243 5.3371 -9.1026 7.7896 49.2713
#
#
#
# Elastic Compliance Matrix: (Units=1/GPa)
#
#
# Indices 1 2 3 4 5 6 
#
# 1 0.008894 -0.000119 -0.002816 0.001948 0.001141 -0.002015
# 2 -0.000119 0.009900 -0.005268 -0.000253 0.003139 -0.000848
# 3 -0.002816 -0.005268 0.010812 -0.004164 -0.001374 -0.000445
# 4 0.001948 -0.000253 -0.004164 0.019972 -0.003767 0.004210
# 5 0.001141 0.003139 -0.001374 -0.003767 0.019542 -0.004247
# 6 -0.002015 -0.000848 -0.000445 0.004210 -0.004247 0.022440
#
#
# Mechanical properties :
#
#
# Convention : Reuss Voigt Hill
#
# Bulk Modulus (GPa) = 75.74876 84.72301 80.23589
# Shear Modulus (GPa) = 44.49760 52.47348 48.48554
#
# Velocity S-wave (km/s) = 4.20680 4.56829 4.39127
# Velocity P-wave (km/s) = 7.32955 7.84353 7.59089
#
# Compressibility (1/GPa) = 0.01320154
#
# Stress axis : x y z
#
# Youngs Moduli (GPa) = 112.43801 101.00721 92.48715
#
# Poissons Ratio (x) = 0.01200 0.26042
# Poissons Ratio (y) = 0.01335 0.48722
# Poissons Ratio (z) = 0.31659 0.53210
#
# Static dielectric constant tensor:
#      x y z
#    x 2.034480 -0.053110 0.003390 
#    y -0.053110 2.161070 -0.065570 
#    z 0.003390 -0.065570 2.025300 
# 
# From -- ./inp_files/553493.got.cif
#   From: 2010.05.17/outbox.cif.g08.bks.cpg/sg2_277_cif.got.tgz:553493.got - 2010.06.03 11:33:40.
