data_PCOD9070530
_publ_section_title
;
Structure prediction by ZEFSAII (Michael W. Deem and Ramdas Pophale) SiO2 
 PCOD9070530
Probable space group: P -1
;
_chemical_formula_sum "Si O2"
_cell_formula_units_Z 11
_cell_length_a 8.460392
_cell_length_b 8.430982
_cell_length_c 11.702099
_cell_angle_alpha 142.372048
_cell_angle_beta 63.361481
_cell_angle_gamma 98.624632
_cell_volume 422.111881
_symmetry_space_group_name_H-M "P -1"
_symmetry_group_IT_number 2
_symmetry_cell_setting 'triclinic'
loop_
_space_group_symop_operation_xyz
x,y,z
-x,-y,-z
loop_
_atom_site_type_symbol
_atom_site_label
_atom_site_fract_x
_atom_site_fract_y
_atom_site_fract_z
Si Si1 0.336533 0.890457 0.954183
Si Si2 0.287400 0.850069 0.477942
Si Si3 0.793747 0.821815 0.080422
Si Si4 0.769970 0.591568 0.318113
Si Si5 0.079413 0.247570 0.420278
Si Si6 0.500000 0.500000 0.000000
O O1 0.372423 0.571238 0.734273
O O2 0.233273 0.054375 0.968068
O O3 0.500000 0.000000 0.000000
O O4 0.198253 0.974020 0.155465
O O5 0.436182 0.604309 0.214632
O O6 0.090065 0.804935 0.491413
O O7 0.267643 0.928296 0.663641
O O8 0.287914 0.134843 0.583752
O O9 0.657195 0.649955 0.038984
O O10 0.015499 0.618220 0.904077
O O11 0.784481 0.689381 0.497731
O O12 0.000000 0.500000 0.500000
#
# Coordination Sequence:
#
# PCOD9070530 Si02
#       6
#     2   2   2   2   2   1
#     4  12  29  49  79 115 156 202 259 323 389 458
#     4  12  27  47  82 114 155 205 258 321 384 463
#     4  12  26  49  79 112 155 206 257 317 387 464
#     4  12  26  48  80 114 152 206 262 313 390 462
#     4  12  24  49  79 110 155 208 254 312 390 465
#     4  12  28  48  74 114 158 198 260 314 392 442
#
# _framework density 26.059441
#
# number of rings (size 3 to 8) (size 9 to 14) (size 15 to 20)
#    0.000    0.000    5.455    3.273    5.091    0.727 
#    3.273    0.000    0.000    0.000    0.000    0.000 
#    0.000    0.000    0.000    0.000    0.000    0.000 
#
# Total GULP energy -61451.921095 kJ/mol
# GULP energy per Si atom -5586.538281 kJ/mol
# Density = 2.600013 g / cm^3
# Si number density = 26.059441 Si / 1000 Ang^3
#
#
#
# Elastic Constant Matrix: (Units=GPa)
#
#
# Indices 1 2 3 4 5 6 
#
# 1 97.6813 31.3960 58.4110 6.0290 39.1335 4.0437
# 2 31.3960 74.6134 9.8796 -0.8441 14.4428 13.1087
# 3 58.4110 9.8796 145.5424 -31.5689 39.1383 -20.9886
# 4 6.0290 -0.8441 -31.5689 56.6216 3.0924 15.3542
# 5 39.1335 14.4428 39.1383 3.0924 60.4292 6.7281
# 6 4.0437 13.1087 -20.9886 15.3542 6.7281 39.7343
#
#
#
# Elastic Compliance Matrix: (Units=1/GPa)
#
#
# Indices 1 2 3 4 5 6 
#
# 1 0.019049 -0.005900 -0.006836 -0.005470 -0.006169 -0.000445
# 2 -0.005900 0.016805 0.001279 0.003077 -0.000585 -0.005358
# 3 -0.006836 0.001279 0.013308 0.006964 -0.005471 0.005539
# 4 -0.005470 0.003077 0.006964 0.023814 -0.002299 -0.005593
# 5 -0.006169 -0.000585 -0.005471 -0.002299 0.024946 -0.005405
# 6 -0.000445 -0.005358 0.005539 -0.005593 -0.005405 0.032982
#
#
# Mechanical properties :
#
#
# Convention : Reuss Voigt Hill
#
# Bulk Modulus (GPa) = 38.09842 57.46782 47.78312
# Shear Modulus (GPa) = 30.75642 45.90039 38.32841
#
# Velocity S-wave (km/s) = 3.43919 4.20142 3.83927
# Velocity P-wave (km/s) = 5.51564 6.75547 6.16679
#
# Compressibility (1/GPa) = 0.02624781
#
# Stress axis : x y z
#
# Youngs Moduli (GPa) = 52.49606 59.50603 75.14251
#
# Poissons Ratio (x) = 0.35108 0.51370
# Poissons Ratio (y) = 0.30972 -0.09612
# Poissons Ratio (z) = 0.35888 -0.07612
#
# Static dielectric constant tensor:
#      x y z
#    x 2.139330 -0.028920 -0.068020 
#    y -0.028920 1.979990 0.020090 
#    z -0.068020 0.020090 2.018660 
# 
# From -- ./inp_files/383747.got.cif
#   From: 2010.05.17/outbox.cif.g08.bks.cpg/sg2_192_cif.got.tgz:383747.got - 2010.06.03 11:33:40.
