data_PCOD9070841
_publ_section_title
;
Structure prediction by ZEFSAII (Michael W. Deem and Ramdas Pophale) SiO2 
 PCOD9070841
Probable space group: P -1
;
_chemical_formula_sum "Si O2"
_cell_formula_units_Z 14
_cell_length_a 24.489985
_cell_length_b 15.072143
_cell_length_c 5.083059
_cell_angle_alpha 87.098532
_cell_angle_beta 76.100579
_cell_angle_gamma 21.299584
_cell_volume 576.275997
_symmetry_space_group_name_H-M "P -1"
_symmetry_group_IT_number 2
_symmetry_cell_setting 'triclinic'
loop_
_space_group_symop_operation_xyz
x,y,z
-x,-y,-z
loop_
_atom_site_type_symbol
_atom_site_label
_atom_site_fract_x
_atom_site_fract_y
_atom_site_fract_z
Si Si1 0.002649 0.104614 0.408295
Si Si2 0.501835 0.333748 0.380165
Si Si3 0.095311 0.262208 0.915279
Si Si4 0.058535 0.605432 0.431205
Si Si5 0.538108 0.042319 0.871153
Si Si6 0.410323 0.550266 0.954133
Si Si7 0.335618 0.408596 0.552892
O O1 0.869947 0.307108 0.281238
O O2 0.926852 0.308229 0.618009
O O3 0.000000 0.000000 0.500000
O O4 0.204392 0.834703 0.190721
O O5 0.505605 0.335069 0.061931
O O6 0.357227 0.477313 0.600491
O O7 0.698914 0.020623 0.294023
O O8 0.441126 0.503249 0.616300
O O9 0.028444 0.305332 0.740223
O O10 0.059615 0.252034 0.208713
O O11 0.000000 0.500000 0.000000
O O12 0.249247 0.271864 0.308996
O O13 0.455836 0.178334 0.658526
O O14 0.500000 0.000000 0.000000
O O15 0.429342 0.259876 0.182381
O O16 0.500000 0.500000 0.000000
#
# Coordination Sequence:
#
# PCOD9070841 Si02
#       7
#     2   2   2   2   2   2   2
#     4  12  28  52  76 116 163 211 261 314 381 468
#     4  12  25  47  73 103 151 192 251 315 379 455
#     4  12  26  49  78 115 150 196 259 329 395 457
#     4  12  27  47  79 114 154 201 261 320 388 466
#     4  12  25  47  74 109 151 191 247 322 391 449
#     4  12  27  49  74 107 146 205 260 315 376 447
#     4  12  27  47  77 111 151 199 256 312 392 460
#
# _framework density 24.293913
#
# number of rings (size 3 to 8) (size 9 to 14) (size 15 to 20)
#    0.000    0.000    2.857    7.286    2.000    2.857 
#    0.000    0.000    0.000    0.000    0.000    0.000 
#    0.000    0.000    0.000    0.000    0.000    0.000 
#
# Total GULP energy -78112.788243 kJ/mol
# GULP energy per Si atom -5579.484875 kJ/mol
# Density = 2.423862 g / cm^3
# Si number density = 24.293913 Si / 1000 Ang^3
#
#
#
# Elastic Constant Matrix: (Units=GPa)
#
#
# Indices 1 2 3 4 5 6 
#
# 1 175.4745 48.2635 35.7912 -16.0657 10.7496 -7.0668
# 2 48.2635 135.0561 32.7952 9.0872 1.5049 -38.5209
# 3 35.7912 32.7952 67.3224 -9.8178 4.1710 -19.0527
# 4 -16.0657 9.0872 -9.8178 42.2791 -6.7229 -9.2895
# 5 10.7496 1.5049 4.1710 -6.7229 15.2122 -2.3313
# 6 -7.0668 -38.5209 -19.0527 -9.2895 -2.3313 54.4506
#
#
#
# Elastic Compliance Matrix: (Units=1/GPa)
#
#
# Indices 1 2 3 4 5 6 
#
# 1 0.007231 -0.002481 -0.002604 0.001753 -0.003618 -0.001584
# 2 -0.002481 0.010804 -0.002655 -0.002346 0.001303 0.006048
# 3 -0.002604 -0.002655 0.019941 0.005448 -0.000086 0.005687
# 4 0.001753 -0.002346 0.005448 0.029191 0.011311 0.005939
# 5 -0.003618 0.001303 -0.000086 0.011311 0.074033 0.005521
# 6 -0.001584 0.006048 0.005687 0.005939 0.005521 0.025678
#
#
# Mechanical properties :
#
#
# Convention : Reuss Voigt Hill
#
# Bulk Modulus (GPa) = 44.45394 67.95031 56.20213
# Shear Modulus (GPa) = 26.33579 39.78859 33.06219
#
# Velocity S-wave (km/s) = 3.29606 4.05137 3.69307
# Velocity P-wave (km/s) = 5.72918 7.06509 6.43191
#
# Compressibility (1/GPa) = 0.02249519
#
# Stress axis : x y z
#
# Youngs Moduli (GPa) = 138.29923 92.55870 50.14824
#
# Poissons Ratio (x) = 0.22964 0.13058
# Poissons Ratio (y) = 0.34312 0.13315
# Poissons Ratio (z) = 0.36013 0.24576
#
# Static dielectric constant tensor:
#      x y z
#    x 2.032920 0.104790 0.001490 
#    y 0.104790 1.902660 0.057890 
#    z 0.001490 0.057890 2.032860 
# 
# From -- ./inp_files/124233.got.cif
#   From: 2010.05.17/outbox.cif.g08.bks.cpg/sg2_63_cif.got.tgz:124233.got - 2010.06.03 11:33:40.
