data_PCOD9070062
_publ_section_title
;
Structure prediction by ZEFSAII (Michael W. Deem and Ramdas Pophale) SiO2 
 PCOD9070062
Probable space group: P -1
;
_chemical_formula_sum "Si O2"
_cell_formula_units_Z 16
_cell_length_a 13.574116
_cell_length_b 13.258707
_cell_length_c 8.428621
_cell_angle_alpha 108.959951
_cell_angle_beta 87.565481
_cell_angle_gamma 146.764827
_cell_volume 705.185502
_symmetry_space_group_name_H-M "P -1"
_symmetry_group_IT_number 2
_symmetry_cell_setting 'triclinic'
loop_
_space_group_symop_operation_xyz
x,y,z
-x,-y,-z
loop_
_atom_site_type_symbol
_atom_site_label
_atom_site_fract_x
_atom_site_fract_y
_atom_site_fract_z
Si Si1 0.278237 0.317443 0.856341
Si Si2 0.627632 0.528891 0.427239
Si Si3 0.958099 0.121609 0.278991
Si Si4 0.058089 0.530528 0.194773
Si Si5 0.641672 0.140527 0.212268
Si Si6 0.405388 0.118596 0.329144
Si Si7 0.984940 0.744547 0.996632
Si Si8 0.717640 0.066102 0.445449
O O1 0.294580 0.363274 0.694193
O O2 0.162966 0.307816 0.943138
O O3 0.500000 0.500000 0.000000
O O4 0.153079 0.091443 0.774637
O O5 0.500000 0.500000 0.500000
O O6 0.809192 0.676664 0.607468
O O7 0.490753 0.296352 0.314928
O O8 0.895566 0.161535 0.414036
O O9 0.921121 0.116630 0.097314
O O10 0.866466 0.355856 0.237713
O O11 0.209922 0.761929 0.371209
O O12 0.122358 0.467262 0.153455
O O13 0.000000 0.500000 0.000000
O O14 0.560558 0.169282 0.316376
O O15 0.613217 0.016190 0.271982
O O16 0.500000 0.000000 0.000000
O O17 0.173988 0.890126 0.170003
O O18 0.396879 0.118791 0.520035
#
# Coordination Sequence:
#
# PCOD9070062 Si02
#       8
#     2   2   2   2   2   2   2   2
#     4  12  27  50  76 105 139 189 244 304 370 438
#     4  12  26  46  72 107 141 185 243 301 367 429
#     4  12  25  48  75 104 143 188 243 307 365 432
#     4  12  25  46  72 105 150 195 242 297 364 430
#     4  12  24  45  68 106 145 188 243 294 359 430
#     4  12  25  44  69 106 146 192 236 298 355 436
#     4  12  25  47  72 104 148 191 242 301 367 430
#     4  12  25  46  70 107 148 196 242 298 361 429
#
# _framework density 22.689066
#
# number of rings (size 3 to 8) (size 9 to 14) (size 15 to 20)
#    0.000    0.000    3.750    6.000    3.500    0.000 
#    2.250    0.000    0.000    0.000    0.000    0.000 
#    0.000    0.000    0.000    0.000    0.000    0.000 
#
# Total GULP energy -89560.293428 kJ/mol
# GULP energy per Si atom -5597.518339 kJ/mol
# Density = 2.263742 g / cm^3
# Si number density = 22.689066 Si / 1000 Ang^3
#
#
#
# Elastic Constant Matrix: (Units=GPa)
#
#
# Indices 1 2 3 4 5 6 
#
# 1 162.8484 36.5160 20.0802 -4.4504 -15.0695 -0.0062
# 2 36.5160 91.8991 27.6150 -28.6488 -6.7027 -11.1915
# 3 20.0802 27.6150 78.8099 -16.6594 14.7948 -1.6369
# 4 -4.4504 -28.6488 -16.6594 54.5353 -2.4742 2.0584
# 5 -15.0695 -6.7027 14.7948 -2.4742 34.4935 -11.1276
# 6 -0.0062 -11.1915 -1.6369 2.0584 -11.1276 35.1213
#
#
#
# Elastic Compliance Matrix: (Units=1/GPa)
#
#
# Indices 1 2 3 4 5 6 
#
# 1 0.007194 -0.002314 -0.001906 -0.001063 0.003552 0.000363
# 2 -0.002314 0.016955 -0.005031 0.007244 0.007231 0.007034
# 3 -0.001906 -0.005031 0.017263 0.002162 -0.010424 -0.004228
# 4 -0.001063 0.007244 0.002162 0.022749 0.002222 0.001779
# 5 0.003552 0.007231 -0.010424 0.002222 0.041349 0.014789
# 6 0.000363 0.007034 -0.004228 0.001779 0.014789 0.035099
#
#
# Mechanical properties :
#
#
# Convention : Reuss Voigt Hill
#
# Bulk Modulus (GPa) = 43.65068 55.77553 49.71310
# Shear Modulus (GPa) = 29.98506 41.45312 35.71909
#
# Velocity S-wave (km/s) = 3.63928 4.27899 3.97203
# Velocity P-wave (km/s) = 6.07779 7.00349 6.55700
#
# Compressibility (1/GPa) = 0.02290915
#
# Stress axis : x y z
#
# Youngs Moduli (GPa) = 139.00005 58.97940 57.92576
#
# Poissons Ratio (x) = 0.13649 0.11042
# Poissons Ratio (y) = 0.32167 0.29145
# Poissons Ratio (z) = 0.26496 0.29675
#
# Static dielectric constant tensor:
#      x y z
#    x 1.783410 -0.000190 0.022070 
#    y -0.000190 1.902990 0.024300 
#    z 0.022070 0.024300 1.828120 
# 
# From -- ./inp_files/259080.got.cif
#   From: 2010.05.17/outbox.cif.g08.bks.cpg/sg2_130_cif.got.tgz:259080.got - 2010.06.03 11:33:40.
