data_PCOD9070743
_publ_section_title
;
Structure prediction by ZEFSAII (Michael W. Deem and Ramdas Pophale) SiO2 
 PCOD9070743
Probable space group: P -1
;
_chemical_formula_sum "Si O2"
_cell_formula_units_Z 12
_cell_length_a 23.228761
_cell_length_b 13.674892
_cell_length_c 7.740749
_cell_angle_alpha 32.475361
_cell_angle_beta 27.039868
_cell_angle_gamma 23.299407
_cell_volume 437.646226
_symmetry_space_group_name_H-M "P -1"
_symmetry_group_IT_number 2
_symmetry_cell_setting 'triclinic'
loop_
_space_group_symop_operation_xyz
x,y,z
-x,-y,-z
loop_
_atom_site_type_symbol
_atom_site_label
_atom_site_fract_x
_atom_site_fract_y
_atom_site_fract_z
Si Si1 0.023570 0.527883 0.200889
Si Si2 0.889839 0.280599 0.803460
Si Si3 0.664386 0.522253 0.574654
Si Si4 0.870699 0.969903 0.739717
Si Si5 0.576129 0.120883 0.049788
Si Si6 0.523956 0.762753 0.238094
O O1 0.973838 0.397332 0.427116
O O2 0.000000 0.500000 0.500000
O O3 0.217033 0.412770 0.834973
O O4 0.887885 0.815974 0.080962
O O5 0.705635 0.499350 0.063623
O O6 0.933499 0.205538 0.597510
O O7 0.000000 0.000000 0.000000
O O8 0.792257 0.238009 0.599382
O O9 0.566935 0.602267 0.897348
O O10 0.525724 0.676598 0.556065
O O11 0.744852 0.006141 0.878850
O O12 0.500000 0.000000 0.500000
O O13 0.592209 0.137662 0.775937
O O14 0.500000 0.000000 0.000000
#
# Coordination Sequence:
#
# PCOD9070743 Si02
#       6
#     2   2   2   2   2   2
#     4  12  25  45  78 111 155 207 258 326 390 463
#     4  12  25  50  78 116 152 202 264 325 388 466
#     4  12  26  51  77 116 159 208 260 326 393 470
#     4  12  27  50  76 117 159 202 269 325 390 470
#     4  12  26  47  78 111 159 211 257 324 397 465
#     4  12  26  49  79 111 158 204 265 315 395 466
#
# _framework density 27.419407
#
# number of rings (size 3 to 8) (size 9 to 14) (size 15 to 20)
#    0.000    0.000    5.000    4.500    0.000    2.000 
#    0.000    0.000    0.000    0.000    0.000    0.000 
#    0.000    0.000    0.000    0.000    0.000    0.000 
#
# Total GULP energy -67122.848494 kJ/mol
# GULP energy per Si atom -5593.570708 kJ/mol
# Density = 2.735700 g / cm^3
# Si number density = 27.419407 Si / 1000 Ang^3
#
#
#
# Elastic Constant Matrix: (Units=GPa)
#
#
# Indices 1 2 3 4 5 6 
#
# 1 156.4146 8.2580 16.3195 -8.0086 30.9135 -11.1236
# 2 8.2580 147.6334 4.9994 -18.1464 19.3971 1.5489
# 3 16.3195 4.9994 55.9148 -14.2728 6.9274 -7.4684
# 4 -8.0086 -18.1464 -14.2728 61.8763 0.8160 1.5010
# 5 30.9135 19.3971 6.9274 0.8160 61.0835 6.3635
# 6 -11.1236 1.5489 -7.4684 1.5010 6.3635 48.0179
#
#
#
# Elastic Compliance Matrix: (Units=1/GPa)
#
#
# Indices 1 2 3 4 5 6 
#
# 1 0.007471 0.000210 -0.001253 0.000742 -0.003927 0.002026
# 2 0.000210 0.007361 0.000181 0.002258 -0.002505 0.000101
# 3 -0.001253 0.000181 0.020023 0.004465 -0.002061 0.002952
# 4 0.000742 0.002258 0.004465 0.017963 -0.001889 0.000482
# 5 -0.003927 -0.002505 -0.002061 -0.001889 0.019800 -0.003714
# 6 0.002026 0.000101 0.002952 0.000482 -0.003714 0.022228
#
#
# Mechanical properties :
#
#
# Convention : Reuss Voigt Hill
#
# Bulk Modulus (GPa) = 30.18185 46.56850 38.37518
# Shear Modulus (GPa) = 46.46256 56.22126 51.34191
#
# Velocity S-wave (km/s) = 4.12091 4.53307 4.33189
# Velocity P-wave (km/s) = 5.80292 6.66475 6.24871
#
# Compressibility (1/GPa) = 0.03313249
#
# Stress axis : x y z
#
# Youngs Moduli (GPa) = 133.85017 135.84501 49.94197
#
# Poissons Ratio (x) = -0.02859 0.06256
# Poissons Ratio (y) = -0.02817 -0.00903
# Poissons Ratio (z) = 0.16767 -0.02455
#
# Static dielectric constant tensor:
#      x y z
#    x 2.139410 -0.033830 0.008290 
#    y -0.033830 2.221040 0.019030 
#    z 0.008290 0.019030 2.201310 
# 
# From -- ./inp_files/357304.got.cif
#   From: 2010.05.17/outbox.cif.g08.bks.cpg/sg2_179_cif.got.tgz:357304.got - 2010.06.03 11:33:40.
