data_PCOD9070143
_publ_section_title
;
Structure prediction by ZEFSAII (Michael W. Deem and Ramdas Pophale) SiO2 
 PCOD9070143
Probable space group: P -1
;
_chemical_formula_sum "Si O2"
_cell_formula_units_Z 12
_cell_length_a 17.597511
_cell_length_b 5.266614
_cell_length_c 13.356072
_cell_angle_alpha 100.406003
_cell_angle_beta 155.221805
_cell_angle_gamma 89.227268
_cell_volume 475.023179
_symmetry_space_group_name_H-M "P -1"
_symmetry_group_IT_number 2
_symmetry_cell_setting 'triclinic'
loop_
_space_group_symop_operation_xyz
x,y,z
-x,-y,-z
loop_
_atom_site_type_symbol
_atom_site_label
_atom_site_fract_x
_atom_site_fract_y
_atom_site_fract_z
Si Si1 0.965424 0.026785 0.839810
Si Si2 0.403704 0.886864 0.628251
Si Si3 0.792778 0.239630 0.016514
Si Si4 0.899233 0.679800 0.327983
Si Si5 0.495962 0.286098 0.067779
Si Si6 0.315073 0.584976 0.293779
O O1 0.739213 0.943092 0.536110
O O2 0.049800 0.874181 0.846855
O O3 0.104062 0.346363 0.011934
O O4 0.000000 0.000000 0.000000
O O5 0.368309 0.711697 0.674937
O O6 0.327968 0.698101 0.427782
O O7 0.633471 0.065602 0.896604
O O8 0.893591 0.548136 0.202687
O O9 0.667089 0.219881 0.765476
O O10 0.000000 0.500000 0.500000
O O11 0.682270 0.665521 0.085687
O O12 0.000000 0.000000 0.500000
O O13 0.500000 0.500000 0.000000
O O14 0.500000 0.000000 0.000000
O O15 0.500000 0.500000 0.500000
#
# Coordination Sequence:
#
# PCOD9070143 Si02
#       6
#     2   2   2   2   2   2
#     4  12  27  47  77 127 167 220 277 336 429 514
#     4  12  26  51  80 118 171 220 277 350 425 507
#     4  12  27  51  80 116 170 215 279 346 426 510
#     4  12  29  54  83 117 159 220 285 345 420 497
#     4  12  29  55  81 120 163 218 286 355 420 491
#     4  12  24  45  78 117 166 212 271 342 419 512
#
# _framework density 25.261925999999999
#
# number of rings (size 3 to 8) (size 9 to 14) (size 15 to 20)
#    0.000    0.000    3.333    6.000    4.667    2.667 
#    3.000    0.000    0.000    0.000    0.000    0.000 
#    0.000    0.000    0.000    0.000    0.000    0.000 
#
# Total GULP energy -66950.144528 kJ/mol
# GULP energy per Si atom -5579.178711 kJ/mol
# Density = 2.520443 g / cm^3
# Si number density = 25.261926 Si / 1000 Ang^3
#
#
#
# Elastic Constant Matrix: (Units=GPa)
#
#
# Indices 1 2 3 4 5 6 
#
# 1 146.9532 83.1350 69.8963 -12.0388 -18.5156 -24.6383
# 2 83.1350 155.5042 45.1120 -15.0543 -21.9575 -21.9497
# 3 69.8963 45.1120 90.8294 -21.9314 -13.8179 -8.5897
# 4 -12.0388 -15.0543 -21.9314 54.8025 -11.6937 -5.3838
# 5 -18.5156 -21.9575 -13.8179 -11.6937 59.2617 -12.2686
# 6 -24.6383 -21.9497 -8.5897 -5.3838 -12.2686 69.2949
#
#
#
# Elastic Compliance Matrix: (Units=1/GPa)
#
#
# Indices 1 2 3 4 5 6 
#
# 1 0.013743 -0.004582 -0.008159 -0.001042 0.001010 0.002521
# 2 -0.004582 0.009929 -0.000072 0.002602 0.003215 0.002278
# 3 -0.008159 -0.000072 0.019558 0.006817 0.003463 0.000643
# 4 -0.001042 0.002602 0.006817 0.023572 0.007814 0.004513
# 5 0.001010 0.003215 0.003463 0.007814 0.022038 0.006316
# 6 0.002521 0.002278 0.000643 0.004513 0.006316 0.017598
#
#
# Mechanical properties :
#
#
# Convention : Reuss Voigt Hill
#
# Bulk Modulus (GPa) = 56.81196 87.73037 72.27117
# Shear Modulus (GPa) = 36.25003 49.68138 42.96571
#
# Velocity S-wave (km/s) = 3.79221 4.43950 4.12856
# Velocity P-wave (km/s) = 6.45852 7.81554 7.16921
#
# Compressibility (1/GPa) = 0.01760193
#
# Stress axis : x y z
#
# Youngs Moduli (GPa) = 72.76651 100.71533 51.13107
#
# Poissons Ratio (x) = 0.46153 0.41718
# Poissons Ratio (y) = 0.33345 0.00369
# Poissons Ratio (z) = 0.59370 0.00727
#
# Static dielectric constant tensor:
#      x y z
#    x 4.934460 0.068710 1.860040 
#    y 0.068710 1.619390 -0.185870 
#    z 1.860040 -0.185870 3.024050 
# 
# From -- ./inp_files/442106.got.cif
#   From: 2010.05.17/outbox.cif.g08.bks.cpg/sg2_222_cif.got.tgz:442106.got - 2010.06.03 11:33:40.
