data_PCOD9070102
_publ_section_title
;
Structure prediction by ZEFSAII (Michael W. Deem and Ramdas Pophale) SiO2 
 PCOD9070102
Probable space group: P -1
;
_chemical_formula_sum "Si O2"
_cell_formula_units_Z 14
_cell_length_a 8.513053
_cell_length_b 15.261531
_cell_length_c 15.129193
_cell_angle_alpha 152.929087
_cell_angle_beta 111.679787
_cell_angle_gamma 51.178039
_cell_volume 589.907272
_symmetry_space_group_name_H-M "P -1"
_symmetry_group_IT_number 2
_symmetry_cell_setting 'triclinic'
loop_
_space_group_symop_operation_xyz
x,y,z
-x,-y,-z
loop_
_atom_site_type_symbol
_atom_site_label
_atom_site_fract_x
_atom_site_fract_y
_atom_site_fract_z
Si Si1 0.453142 0.699994 0.097888
Si Si2 0.566773 0.294290 0.496067
Si Si3 0.754959 0.105966 0.077707
Si Si4 0.872022 0.719959 0.411957
Si Si5 0.828001 0.297218 0.688336
Si Si6 0.203910 0.239921 0.366191
Si Si7 0.987595 0.188263 0.953662
O O1 0.227509 0.792824 0.079152
O O2 0.371239 0.964431 0.362579
O O3 0.500000 0.500000 0.000000
O O4 0.694733 0.536135 0.946289
O O5 0.436425 0.569176 0.660767
O O6 0.612219 0.348328 0.648728
O O7 0.402530 0.241468 0.422749
O O8 0.823571 0.027395 0.274269
O O9 0.843472 0.942994 0.041537
O O10 0.686857 0.012984 0.901731
O O11 0.000000 0.000000 0.000000
O O12 0.913849 0.710044 0.518105
O O13 0.050862 0.681419 0.346642
O O14 0.882348 0.485212 0.185352
O O15 0.000000 0.000000 0.500000
O O16 0.000000 0.500000 0.500000
#
# Coordination Sequence:
#
# PCOD9070102 Si02
#       7
#     2   2   2   2   2   2   2
#     4  12  26  52  79 106 151 196 249 318 378 441
#     4  12  27  45  74 109 155 199 252 307 375 451
#     4  12  24  45  75 103 155 202 246 308 377 446
#     4  12  26  48  76 107 154 188 255 306 374 441
#     4  12  26  53  80 110 146 199 254 312 379 444
#     4  12  25  46  71 111 152 197 248 302 374 444
#     4  12  27  46  72 114 147 202 254 303 377 448
#
# _framework density 23.732543
#
# number of rings (size 3 to 8) (size 9 to 14) (size 15 to 20)
#    0.000    0.000    5.714    3.857    4.000    2.286 
#    2.571    1.429    0.000    0.000    0.000    0.000 
#    0.000    0.000    0.000    0.000    0.000    0.000 
#
# Total GULP energy -78298.344900 kJ/mol
# GULP energy per Si atom -5592.738921 kJ/mol
# Density = 2.367853 g / cm^3
# Si number density = 23.732543 Si / 1000 Ang^3
#
#
#
# Elastic Constant Matrix: (Units=GPa)
#
#
# Indices 1 2 3 4 5 6 
#
# 1 93.3795 20.2966 56.2832 -3.1804 -5.7597 13.0986
# 2 20.2966 72.3330 20.7982 14.3854 5.0179 16.3587
# 3 56.2832 20.7982 202.0904 15.7690 0.9010 10.0938
# 4 -3.1804 14.3854 15.7690 38.1596 6.2575 -0.9758
# 5 -5.7597 5.0179 0.9010 6.2575 55.2347 -4.8922
# 6 13.0986 16.3587 10.0938 -0.9758 -4.8922 37.5372
#
#
#
# Elastic Compliance Matrix: (Units=1/GPa)
#
#
# Indices 1 2 3 4 5 6 
#
# 1 0.014225 -0.003199 -0.003813 0.003710 0.001213 -0.002290
# 2 -0.003199 0.017817 -0.000048 -0.006849 -0.001800 -0.007048
# 3 -0.003813 -0.000048 0.006261 -0.002864 -0.000209 -0.000434
# 4 0.003710 -0.006849 -0.002864 0.030710 -0.002160 0.002977
# 5 0.001213 -0.001800 -0.000209 -0.002160 0.018893 0.002824
# 6 -0.002290 -0.007048 -0.000434 0.002977 0.002824 0.031073
#
#
# Mechanical properties :
#
#
# Convention : Reuss Voigt Hill
#
# Bulk Modulus (GPa) = 41.35200 62.50653 51.92927
# Shear Modulus (GPa) = 35.42043 44.21461 39.81752
#
# Velocity S-wave (km/s) = 3.86746 4.32097 4.10049
# Velocity P-wave (km/s) = 6.11596 7.16167 6.65937
#
# Compressibility (1/GPa) = 0.02418263
#
# Stress axis : x y z
#
# Youngs Moduli (GPa) = 70.29902 56.12487 159.71288
#
# Poissons Ratio (x) = 0.17956 0.60898
# Poissons Ratio (y) = 0.22491 0.00770
# Poissons Ratio (z) = 0.26805 0.00271
#
# Static dielectric constant tensor:
#      x y z
#    x 1.850220 0.061700 -0.029380 
#    y 0.061700 2.236930 -0.134270 
#    z -0.029380 -0.134270 1.976290 
# 
# From -- ./inp_files/505884.got.cif
#   From: 2010.05.17/outbox.cif.g08.bks.cpg/sg2_253_cif.got.tgz:505884.got - 2010.06.03 11:33:40.
