data_PCOD9070362
_publ_section_title
;
Structure prediction by ZEFSAII (Michael W. Deem and Ramdas Pophale) SiO2 
 PCOD9070362
Probable space group: P -1
;
_chemical_formula_sum "Si O2"
_cell_formula_units_Z 16
_cell_length_a 9.624846
_cell_length_b 11.743794
_cell_length_c 8.524447
_cell_angle_alpha 88.334881
_cell_angle_beta 55.430681
_cell_angle_gamma 67.851885
_cell_volume 712.959198
_symmetry_space_group_name_H-M "P -1"
_symmetry_group_IT_number 2
_symmetry_cell_setting 'triclinic'
loop_
_space_group_symop_operation_xyz
x,y,z
-x,-y,-z
loop_
_atom_site_type_symbol
_atom_site_label
_atom_site_fract_x
_atom_site_fract_y
_atom_site_fract_z
Si Si1 0.248602 0.435919 0.500287
Si Si2 0.516219 0.951670 0.314782
Si Si3 0.331273 0.465701 0.079867
Si Si4 0.520513 0.679773 0.333471
Si Si5 0.078174 0.105774 0.967259
Si Si6 0.892419 0.284368 0.332585
Si Si7 0.021951 0.280871 0.713160
Si Si8 0.104913 0.089362 0.422996
O O1 0.296038 0.430087 0.283293
O O2 0.393369 0.400035 0.557287
O O3 0.106164 0.582703 0.628597
O O4 0.171597 0.332051 0.572623
O O5 0.541047 0.808979 0.318987
O O6 0.700680 0.956845 0.122362
O O7 0.500000 0.000000 0.500000
O O8 0.318494 0.026808 0.346581
O O9 0.154720 0.592169 0.134502
O O10 0.500000 0.500000 0.000000
O O11 0.386851 0.378790 0.891844
O O12 0.303673 0.705661 0.477125
O O13 0.094804 0.165094 0.788621
O O14 0.917043 0.236918 0.139730
O O15 0.000000 0.000000 0.000000
O O16 0.072891 0.156388 0.274426
O O17 0.978948 0.216459 0.594627
O O18 0.000000 0.000000 0.500000
#
# Coordination Sequence:
#
# PCOD9070362 Si02
#       8
#     2   2   2   2   2   2   2   2
#     4  12  26  48  78 114 161 207 261 334 400 476
#     4  12  25  50  78 111 156 211 267 329 396 477
#     4  12  27  47  74 118 157 203 263 321 405 478
#     4  12  25  49  78 117 161 204 266 333 397 482
#     4  12  27  48  76 113 151 213 268 324 400 476
#     4  12  26  45  74 112 156 206 257 322 405 467
#     4  12  26  49  73 110 158 203 258 332 396 477
#     4  12  24  47  77 106 154 206 257 329 395 466
#
# _framework density 22.441676000000001
#
# number of rings (size 3 to 8) (size 9 to 14) (size 15 to 20)
#    0.000    0.000    6.250    3.000    3.500    1.500 
#    0.000    0.000    0.000    0.000    0.000    0.000 
#    0.000    0.000    0.000    0.000    0.000    0.000 
#
# Total GULP energy -89140.170671 kJ/mol
# GULP energy per Si atom -5571.260667 kJ/mol
# Density = 2.239060 g / cm^3
# Si number density = 22.441676 Si / 1000 Ang^3
#
#
#
# Elastic Constant Matrix: (Units=GPa)
#
#
# Indices 1 2 3 4 5 6 
#
# 1 126.6448 56.4975 42.6805 -9.1518 -18.5426 -13.3901
# 2 56.4975 127.4895 55.9629 -20.0636 -10.3958 14.8751
# 3 42.6805 55.9629 129.7585 13.5266 -3.7337 3.3622
# 4 -9.1518 -20.0636 13.5266 34.9295 1.3078 7.7586
# 5 -18.5426 -10.3958 -3.7337 1.3078 18.0370 2.7913
# 6 -13.3901 14.8751 3.3622 7.7586 2.7913 55.3740
#
#
#
# Elastic Compliance Matrix: (Units=1/GPa)
#
#
# Indices 1 2 3 4 5 6 
#
# 1 0.012191 -0.004047 -0.002153 0.000555 0.009153 0.003626
# 2 -0.004047 0.015126 -0.006103 0.011289 0.003471 -0.006428
# 3 -0.002153 -0.006103 0.011849 -0.008949 -0.002907 0.001800
# 4 0.000555 0.011289 -0.008949 0.040412 0.003563 -0.008197
# 5 0.009153 0.003471 -0.002907 0.003563 0.066360 -0.002387
# 6 0.003626 -0.006428 0.001800 -0.008197 -0.002387 0.021822
#
#
# Mechanical properties :
#
#
# Convention : Reuss Voigt Hill
#
# Bulk Modulus (GPa) = 68.67784 77.13051 72.90418
# Shear Modulus (GPa) = 25.35256 36.91821 31.13539
#
# Velocity S-wave (km/s) = 3.36476 4.06035 3.72881
# Velocity P-wave (km/s) = 6.76496 7.51172 7.14810
#
# Compressibility (1/GPa) = 0.01456074
#
# Stress axis : x y z
#
# Youngs Moduli (GPa) = 82.03069 66.11314 84.39199
#
# Poissons Ratio (x) = 0.26754 0.18169
# Poissons Ratio (y) = 0.33195 0.51503
# Poissons Ratio (z) = 0.17661 0.40348
#
# Static dielectric constant tensor:
#      x y z
#    x 1.764380 0.023220 -0.088380 
#    y 0.023220 1.769460 0.061050 
#    z -0.088380 0.061050 1.704170 
# 
# From -- ./inp_files/187248.got.cif
#   From: 2010.05.17/outbox.cif.g08.bks.cpg/sg2_94_cif.got.tgz:187248.got - 2010.06.03 11:33:40.
