data_PCOD9070682
_publ_section_title
;
Structure prediction by ZEFSAII (Michael W. Deem and Ramdas Pophale) SiO2 
 PCOD9070682
Probable space group: P -1
;
_chemical_formula_sum "Si O2"
_cell_formula_units_Z 14
_cell_length_a 9.854426
_cell_length_b 9.616694
_cell_length_c 24.504536
_cell_angle_alpha 35.775077
_cell_angle_beta 35.683662
_cell_angle_gamma 29.484006
_cell_volume 621.178260
_symmetry_space_group_name_H-M "P -1"
_symmetry_group_IT_number 2
_symmetry_cell_setting 'triclinic'
loop_
_space_group_symop_operation_xyz
x,y,z
-x,-y,-z
loop_
_atom_site_type_symbol
_atom_site_label
_atom_site_fract_x
_atom_site_fract_y
_atom_site_fract_z
Si Si1 0.735897 0.256127 0.042949
Si Si2 0.993313 0.461413 0.078203
Si Si3 0.953002 0.458002 0.635780
Si Si4 0.730677 0.749147 0.733661
Si Si5 0.423068 0.929929 0.489022
Si Si6 0.640863 0.193490 0.777695
Si Si7 0.611730 0.616648 0.320643
O O1 0.546958 0.204265 0.160927
O O2 0.500000 0.500000 0.000000
O O3 0.878565 0.378368 0.990667
O O4 0.000000 0.000000 0.000000
O O5 0.657066 0.620425 0.150488
O O6 0.166469 0.138992 0.153956
O O7 0.000000 0.500000 0.000000
O O8 0.821833 0.569639 0.703780
O O9 0.802885 0.340008 0.688458
O O10 0.302852 0.191590 0.602480
O O11 0.869509 0.755134 0.537626
O O12 0.039189 0.542838 0.733374
O O13 0.602115 0.100607 0.658306
O O14 0.394435 0.665011 0.585161
O O15 0.500000 0.000000 0.500000
O O16 0.532574 0.224894 0.741137
#
# Coordination Sequence:
#
# PCOD9070682 Si02
#       7
#     2   2   2   2   2   2   2
#     4  12  25  46  71 100 142 186 234 288 351 423
#     4  12  26  44  69 102 139 180 235 294 348 415
#     4  12  27  46  74 105 149 187 233 303 356 421
#     4  12  27  46  69 109 144 186 237 295 366 413
#     4  12  26  47  74 108 140 187 244 291 357 421
#     4  12  25  45  71 102 134 189 237 284 351 417
#     4  12  26  45  75 101 143 186 241 292 347 436
#
# _framework density 22.537814999999998
#
# number of rings (size 3 to 8) (size 9 to 14) (size 15 to 20)
#    0.000    0.000    1.429    9.429    2.000    5.714 
#    0.000    0.000    0.000    0.000    0.000    0.000 
#    0.000    0.000    0.000    0.000    0.000    0.000 
#
# Total GULP energy -78354.713467 kJ/mol
# GULP energy per Si atom -5596.765248 kJ/mol
# Density = 2.248652 g / cm^3
# Si number density = 22.537815 Si / 1000 Ang^3
#
#
#
# Elastic Constant Matrix: (Units=GPa)
#
#
# Indices 1 2 3 4 5 6 
#
# 1 -218.6858 14.2411 -32.7935 -54.0840 110.9858 4.2256
# 2 14.2411 144.1090 22.2884 -5.6038 3.6186 -7.7411
# 3 -32.7935 22.2884 60.7778 -12.2705 12.4312 2.5699
# 4 -54.0840 -5.6038 -12.2705 40.1627 17.1307 2.3054
# 5 110.9858 3.6186 12.4312 17.1307 0.3971 2.6203
# 6 4.2256 -7.7411 2.5699 2.3054 2.6203 46.3752
#
#
#
# Elastic Compliance Matrix: (Units=1/GPa)
#
#
# Indices 1 2 3 4 5 6 
#
# 1 0.000687 -0.000120 -0.001909 -0.003187 0.008273 -0.000286
# 2 -0.000120 0.007467 -0.002388 0.000747 -0.001590 0.001442
# 3 -0.001909 -0.002388 0.016201 0.001268 0.001999 -0.001298
# 4 -0.003187 0.000747 0.001268 0.019615 0.003589 -0.000833
# 5 0.008273 -0.001590 0.001999 0.003589 0.018934 -0.002378
# 6 -0.000286 0.001442 -0.001298 -0.000833 -0.002378 0.022078
#
#
# Mechanical properties :
#
#
# Convention : Reuss Voigt Hill
#
# Bulk Modulus (GPa) = 64.42499 -0.70301 31.86099
# Shear Modulus (GPa) = 50.51087 16.21798 33.36442
#
# Velocity S-wave (km/s) = 4.73923 2.68543 3.85174
# Velocity P-wave (km/s) = 7.65470 3.05004 5.82654
#
# Compressibility (1/GPa) = 0.01552193
#
# Stress axis : x y z
#
# Youngs Moduli (GPa) = 1456.02406 133.92693 61.72486
#
# Poissons Ratio (x) = 0.01602 0.11783
# Poissons Ratio (y) = 0.17420 0.14738
# Poissons Ratio (z) = 2.77947 0.31978
#
# Static dielectric constant tensor:
#      x y z
#    x 1.764260 0.048830 0.010130 
#    y 0.048830 1.806510 -0.006530 
#    z 0.010130 -0.006530 1.841970 
# 
# From -- ./inp_files/224165.got.cif
#   From: 2010.05.17/outbox.cif.g08.bks.cpg/sg2_113_cif.got.tgz:224165.got - 2010.06.03 11:33:40.
