data_PCOD9070685
_publ_section_title
;
Structure prediction by ZEFSAII (Michael W. Deem and Ramdas Pophale) SiO2 
 PCOD9070685
Probable space group: P -1
;
_chemical_formula_sum "Si O2"
_cell_formula_units_Z 10
_cell_length_a 12.267246
_cell_length_b 12.267245
_cell_length_c 12.650375
_cell_angle_alpha 21.923979
_cell_angle_beta 144.386993
_cell_angle_gamma 142.656595
_cell_volume 406.533594
_symmetry_space_group_name_H-M "P -1"
_symmetry_group_IT_number 2
_symmetry_cell_setting 'triclinic'
loop_
_space_group_symop_operation_xyz
x,y,z
-x,-y,-z
loop_
_atom_site_type_symbol
_atom_site_label
_atom_site_fract_x
_atom_site_fract_y
_atom_site_fract_z
Si Si1 0.057222 0.006670 0.661982
Si Si2 0.514597 0.395343 0.313632
Si Si3 0.144169 0.321217 0.822952
Si Si4 0.291024 0.799040 0.686362
Si Si5 0.668650 0.395238 0.661983
O O1 0.177147 0.322855 0.499996
O O2 0.204247 0.795759 0.999998
O O3 0.000000 0.000000 0.500000
O O4 0.865039 0.008967 0.572965
O O5 0.674456 0.601008 0.182627
O O6 0.581930 0.292077 0.572960
O O7 0.434333 0.065669 0.499996
O O8 0.370555 0.629449 0.999997
O O9 0.216365 0.508174 0.817370
O O10 0.000000 0.500000 0.500000
O O11 0.000000 0.000000 0.000000
O O12 0.500000 0.500000 0.500000
#
# Coordination Sequence:
#
# PCOD9070685 Si02
#       5
#     2   2   2   2   2
#     4  12  25  45  71 105 144 190 239 295 358 429
#     4  12  25  45  71 104 144 191 241 299 359 427
#     4  12  26  46  72 106 143 190 243 300 360 426
#     4  12  25  45  71 104 144 191 241 299 359 427
#     4  12  25  45  71 105 144 190 239 295 358 429
#
# _framework density 24.598212
#
# number of rings (size 3 to 8) (size 9 to 14) (size 15 to 20)
#    0.000    0.000    0.000   10.800    0.000    3.200 
#    0.000    0.000    0.000    0.000    0.000    0.000 
#    0.000    0.000    0.000    0.000    0.000    0.000 
#
# Total GULP energy -55746.071798 kJ/mol
# GULP energy per Si atom -5574.607180 kJ/mol
# Density = 2.454223 g / cm^3
# Si number density = 24.598212 Si / 1000 Ang^3
#
#
#
# Elastic Constant Matrix: (Units=GPa)
#
#
# Indices 1 2 3 4 5 6 
#
# 1 139.8028 46.0100 39.5426 7.2688 3.2756 -3.9010
# 2 46.0100 118.3951 61.8842 -21.4140 -10.2393 -5.5819
# 3 39.5426 61.8842 235.6682 8.0348 10.2207 9.6022
# 4 7.2688 -21.4140 8.0348 68.7176 15.3331 -12.1185
# 5 3.2756 -10.2393 10.2207 15.3331 31.7590 0.0933
# 6 -3.9010 -5.5819 9.6022 -12.1185 0.0933 39.6271
#
#
#
# Elastic Compliance Matrix: (Units=1/GPa)
#
#
# Indices 1 2 3 4 5 6 
#
# 1 0.008536 -0.003515 -0.000401 -0.001733 -0.001048 -0.000085
# 2 -0.003515 0.012789 -0.003217 0.004648 0.003267 0.003649
# 3 -0.000401 -0.003217 0.005386 -0.001549 -0.001975 -0.002267
# 4 -0.001733 0.004648 -0.001549 0.019131 -0.007080 0.006727
# 5 -0.001048 0.003267 -0.001975 -0.007080 0.036706 -0.001416
# 6 -0.000085 0.003649 -0.002267 0.006727 -0.001416 0.028351
#
#
# Mechanical properties :
#
#
# Convention : Reuss Voigt Hill
#
# Bulk Modulus (GPa) = 80.36330 87.63773 84.00051
# Shear Modulus (GPa) = 38.66529 51.11605 44.89067
#
# Velocity S-wave (km/s) = 3.96899 4.56350 4.27659
# Velocity P-wave (km/s) = 7.33111 7.96695 7.65563
#
# Compressibility (1/GPa) = 0.01244349
#
# Stress axis : x y z
#
# Youngs Moduli (GPa) = 117.15651 78.19018 185.65964
#
# Poissons Ratio (x) = 0.27487 0.07446
# Poissons Ratio (y) = 0.41186 0.59732
# Poissons Ratio (z) = 0.04699 0.25156
#
# Static dielectric constant tensor:
#      x y z
#    x 1.798230 0.062130 0.005430 
#    y 0.062130 1.945270 -0.001660 
#    z 0.005430 -0.001660 1.898310 
# 
# From -- ./inp_files/127619.got.cif
#   From: 2010.05.17/outbox.cif.g08.bks.cpg/sg2_64_cif.got.tgz:127619.got - 2010.06.03 11:33:40.
