data_PCOD9070985
_publ_section_title
;
Structure prediction by ZEFSAII (Michael W. Deem and Ramdas Pophale) SiO2 
 PCOD9070985
Probable space group: P -1
;
_chemical_formula_sum "Si O2"
_cell_formula_units_Z 13
_cell_length_a 20.726245
_cell_length_b 5.100728
_cell_length_c 11.636464
_cell_angle_alpha 87.176553
_cell_angle_beta 146.389322
_cell_angle_gamma 112.882997
_cell_volume 528.678606
_symmetry_space_group_name_H-M "P -1"
_symmetry_group_IT_number 2
_symmetry_cell_setting 'triclinic'
loop_
_space_group_symop_operation_xyz
x,y,z
-x,-y,-z
loop_
_atom_site_type_symbol
_atom_site_label
_atom_site_fract_x
_atom_site_fract_y
_atom_site_fract_z
Si Si1 0.007518 0.880875 0.342570
Si Si2 0.376160 0.050549 0.636479
Si Si3 0.414718 0.122087 0.423711
Si Si4 0.338870 0.223074 0.904118
Si Si5 0.945015 0.176576 0.847796
Si Si6 0.177954 0.862242 0.896925
Si Si7 0.500000 0.000000 0.000000
O O1 0.996954 0.784314 0.195848
O O2 0.907088 0.517103 0.263540
O O3 0.179543 0.104561 0.629309
O O4 0.935762 0.058733 0.259552
O O5 0.411269 0.072819 0.555220
O O6 0.232916 0.031236 0.427012
O O7 0.362632 0.774344 0.699389
O O8 0.529563 0.369736 0.922983
O O9 0.500000 0.500000 0.500000
O O10 0.500000 0.000000 0.500000
O O11 0.253123 0.918240 0.130487
O O12 0.310219 0.117590 0.997631
O O13 0.388249 0.038647 0.911822
O O14 0.000000 0.500000 0.000000
O O15 0.000000 0.000000 0.000000
#
# Coordination Sequence:
#
# PCOD9070985 Si02
#       7
#     2   2   2   2   2   2   1
#     4  12  27  49  75 111 155 203 257 312 394 458
#     4  12  28  48  79 113 154 202 260 324 387 464
#     4  12  25  48  77 110 150 195 260 320 382 455
#     4  12  28  48  76 113 152 203 263 317 390 465
#     4  12  28  50  77 111 155 203 258 317 389 468
#     4  12  27  50  77 111 153 203 257 323 383 460
#     4  12  28  48  78 110 162 200 260 326 392 466
#
# _framework density 24.58961
#
# number of rings (size 3 to 8) (size 9 to 14) (size 15 to 20)
#    0.000    0.000    3.077    6.000    6.462    0.000 
#    0.000    0.000    0.000    0.000    0.000    0.000 
#    0.000    0.000    0.000    0.000    0.000    0.000 
#
# Total GULP energy -72674.594055 kJ/mol
# GULP energy per Si atom -5590.353389 kJ/mol
# Density = 2.453364 g / cm^3
# Si number density = 24.589610 Si / 1000 Ang^3
#
#
#
# Elastic Constant Matrix: (Units=GPa)
#
#
# Indices 1 2 3 4 5 6 
#
# 1 157.8973 31.4315 36.2894 -26.0296 1.0233 10.1413
# 2 31.4315 72.9841 55.9281 -16.6465 -1.3402 -31.0696
# 3 36.2894 55.9281 183.3022 -27.1733 2.7519 -20.1490
# 4 -26.0296 -16.6465 -27.1733 52.8161 -1.9327 1.4604
# 5 1.0233 -1.3402 2.7519 -1.9327 51.6269 -20.0775
# 6 10.1413 -31.0696 -20.1490 1.4604 -20.0775 53.4905
#
#
#
# Elastic Compliance Matrix: (Units=1/GPa)
#
#
# Indices 1 2 3 4 5 6 
#
# 1 0.008204 -0.005266 -0.000262 0.002318 -0.002407 -0.005680
# 2 -0.005266 0.029204 -0.005357 0.003643 0.008719 0.019116
# 3 -0.000262 -0.005357 0.007379 0.001970 -0.000684 -0.000593
# 4 0.002318 0.003643 0.001970 0.022233 0.001734 0.002463
# 5 -0.002407 0.008719 -0.000684 0.001734 0.025495 0.014785
# 6 -0.005680 0.019116 -0.000593 0.002463 0.014785 0.036134
#
#
# Mechanical properties :
#
#
# Convention : Reuss Voigt Hill
#
# Bulk Modulus (GPa) = 43.44755 73.49797 58.47276
# Shear Modulus (GPa) = 31.62713 50.95567 41.29140
#
# Velocity S-wave (km/s) = 3.59025 4.55713 4.10228
# Velocity P-wave (km/s) = 5.90711 7.59241 6.80215
#
# Compressibility (1/GPa) = 0.02301626
#
# Stress axis : x y z
#
# Youngs Moduli (GPa) = 121.88922 34.24218 135.51705
#
# Poissons Ratio (x) = 0.18031 0.03553
# Poissons Ratio (y) = 0.64184 0.72603
# Poissons Ratio (z) = 0.03196 0.18345
#
# Static dielectric constant tensor:
#      x y z
#    x 1.900640 -0.079900 -0.018140 
#    y -0.079900 1.320560 0.149520 
#    z -0.018140 0.149520 1.932730 
# 
# From -- ./inp_files/82432.got.cif
#   From: 2010.05.17/outbox.cif.g08.bks.cpg/sg2_42_cif.got.tgz:82432.got - 2010.06.03 11:33:40.
