data_PCOD9070549
_publ_section_title
;
Structure prediction by ZEFSAII (Michael W. Deem and Ramdas Pophale) SiO2 
 PCOD9070549
Probable space group: P -1
;
_chemical_formula_sum "Si O2"
_cell_formula_units_Z 14
_cell_length_a 8.491353
_cell_length_b 10.512210
_cell_length_c 15.988041
_cell_angle_alpha 46.445483
_cell_angle_beta 34.981062
_cell_angle_gamma 57.575529
_cell_volume 591.571050
_symmetry_space_group_name_H-M "P -1"
_symmetry_group_IT_number 2
_symmetry_cell_setting 'triclinic'
loop_
_space_group_symop_operation_xyz
x,y,z
-x,-y,-z
loop_
_atom_site_type_symbol
_atom_site_label
_atom_site_fract_x
_atom_site_fract_y
_atom_site_fract_z
Si Si1 0.481703 0.475970 0.252621
Si Si2 0.784915 0.901241 0.429732
Si Si3 0.315040 0.000996 0.878069
Si Si4 0.270984 0.849618 0.137952
Si Si5 0.347216 0.407700 0.689854
Si Si6 0.227053 0.491228 0.066660
Si Si7 0.161431 0.096874 0.313992
O O1 0.298212 0.293752 0.411939
O O2 0.322340 0.653587 0.232283
O O3 0.588556 0.493551 0.294288
O O4 0.694702 0.477532 0.079995
O O5 0.954418 0.888602 0.274877
O O6 0.500000 0.000000 0.500000
O O7 0.035186 0.989014 0.337165
O O8 0.424052 0.204154 0.753607
O O9 0.538501 0.914811 0.765194
O O10 0.338478 0.868118 0.004175
O O11 0.000000 0.000000 0.000000
O O12 0.500000 0.000000 0.000000
O O13 0.500000 0.500000 0.500000
O O14 0.013640 0.398542 0.840129
O O15 0.107378 0.292126 0.224007
O O16 0.500000 0.500000 0.000000
O O17 0.000000 0.000000 0.500000
#
# Coordination Sequence:
#
# PCOD9070549 Si02
#       7
#     2   2   2   2   2   2   2
#     4  12  26  48  77 109 150 200 249 308 373 448
#     4  12  28  44  74 109 146 191 247 303 370 440
#     4  12  27  46  75 104 144 191 247 301 373 442
#     4  12  24  50  75 105 144 195 246 309 375 440
#     4  12  28  47  73 110 150 192 250 308 370 447
#     4  12  26  47  75 110 148 194 248 305 378 441
#     4  12  25  48  70 105 150 187 241 306 369 440
#
# _framework density 23.665796
#
# number of rings (size 3 to 8) (size 9 to 14) (size 15 to 20)
#    0.000    0.000    4.286    4.286    6.000    1.143 
#    0.000    0.000    0.000    0.000    0.000    0.000 
#    0.000    0.000    0.000    0.000    0.000    0.000 
#
# Total GULP energy -78013.467725 kJ/mol
# GULP energy per Si atom -5572.390552 kJ/mol
# Density = 2.361193 g / cm^3
# Si number density = 23.665796 Si / 1000 Ang^3
#
#
#
# Elastic Constant Matrix: (Units=GPa)
#
#
# Indices 1 2 3 4 5 6 
#
# 1 72.7560 3.3101 9.2190 -5.7457 1.7142 -4.8000
# 2 3.3101 113.6210 37.0346 -16.6781 -9.2510 -21.5740
# 3 9.2190 37.0346 133.9923 -2.5816 20.5427 -9.7941
# 4 -5.7457 -16.6781 -2.5816 63.6112 2.2411 -9.2450
# 5 1.7142 -9.2510 20.5427 2.2411 38.5733 11.2644
# 6 -4.8000 -21.5740 -9.7941 -9.2450 11.2644 34.8705
#
#
#
# Elastic Compliance Matrix: (Units=1/GPa)
#
#
# Indices 1 2 3 4 5 6 
#
# 1 0.014176 0.000565 -0.000714 0.001866 -0.001082 0.002944
# 2 0.000565 0.011855 -0.003076 0.003956 0.002217 0.006881
# 3 -0.000714 -0.003076 0.009601 0.000175 -0.006676 0.002898
# 4 0.001866 0.003956 0.000175 0.018265 -0.002768 0.008490
# 5 -0.001082 0.002217 -0.006676 -0.002768 0.033815 -0.012310
# 6 0.002944 0.006881 0.002898 0.008490 -0.012310 0.040382
#
#
# Mechanical properties :
#
#
# Convention : Reuss Voigt Hill
#
# Bulk Modulus (GPa) = 34.26888 46.61074 40.43981
# Shear Modulus (GPa) = 34.65637 45.46469 40.06053
#
# Velocity S-wave (km/s) = 3.83091 4.38781 4.11878
# Velocity P-wave (km/s) = 5.83777 6.73859 6.30429
#
# Compressibility (1/GPa) = 0.02918099
#
# Stress axis : x y z
#
# Youngs Moduli (GPa) = 70.53934 84.35050 104.15374
#
# Poissons Ratio (x) = -0.04763 0.07440
# Poissons Ratio (y) = -0.03983 0.32041
# Poissons Ratio (z) = 0.05039 0.25949
#
# Static dielectric constant tensor:
#      x y z
#    x 1.697850 -0.048560 0.090060 
#    y -0.048560 1.814390 0.020720 
#    z 0.090060 0.020720 1.713640 
# 
# From -- ./inp_files/158443.got.cif
#   From: 2010.05.17/outbox.cif.g08.bks.cpg/sg2_80_cif.got.tgz:158443.got - 2010.06.03 11:33:40.
