data_PCOD9070073
_publ_section_title
;
Structure prediction by ZEFSAII (Michael W. Deem and Ramdas Pophale) SiO2 
 PCOD9070073
Probable space group: P -1
;
_chemical_formula_sum "Si O2"
_cell_formula_units_Z 10
_cell_length_a 4.919099
_cell_length_b 13.448826
_cell_length_c 9.325115
_cell_angle_alpha 138.234362
_cell_angle_beta 80.616348
_cell_angle_gamma 76.528284
_cell_volume 341.343768
_symmetry_space_group_name_H-M "P -1"
_symmetry_group_IT_number 2
_symmetry_cell_setting 'triclinic'
loop_
_space_group_symop_operation_xyz
x,y,z
-x,-y,-z
loop_
_atom_site_type_symbol
_atom_site_label
_atom_site_fract_x
_atom_site_fract_y
_atom_site_fract_z
Si Si1 0.155068 0.463966 0.578127
Si Si2 0.826976 0.411526 0.846131
Si Si3 0.306388 0.915421 0.778330
Si Si4 0.207448 0.014504 0.314685
Si Si5 0.508505 0.617464 0.859736
O O1 0.905275 0.444766 0.695368
O O2 0.488839 0.290762 0.426299
O O3 0.230912 0.612832 0.781545
O O4 0.240224 0.407994 0.334343
O O5 0.073918 0.197163 0.606382
O O6 0.439260 0.550446 0.952760
O O7 0.000000 0.500000 0.000000
O O8 0.554228 0.980439 0.819731
O O9 0.132721 0.951753 0.679225
O O10 0.000000 0.000000 0.000000
O O11 0.408391 0.813799 0.133406
#
# Coordination Sequence:
#
# PCOD9070073 Si02
#       5
#     2   2   2   2   2
#     4  12  24  45  71 106 150 196 238 293 360 439
#     4  12  26  48  78 104 144 194 244 308 370 414
#     4  12  24  45  71 106 150 196 238 293 360 439
#     4  12  26  47  73 107 149 187 244 306 356 434
#     4  12  26  47  73 107 149 187 244 306 356 434
#
# _framework density 29.295981999999999
#
# number of rings (size 3 to 8) (size 9 to 14) (size 15 to 20)
#    0.000    0.000    4.000    6.000    0.000    4.800 
#    0.000    0.000    0.000    0.000    0.000    0.000 
#    0.000    0.000    0.000    0.000    0.000    0.000 
#
# Total GULP energy -55974.662792 kJ/mol
# GULP energy per Si atom -5597.466279 kJ/mol
# Density = 2.922930 g / cm^3
# Si number density = 29.295982 Si / 1000 Ang^3
#
#
#
# Elastic Constant Matrix: (Units=GPa)
#
#
# Indices 1 2 3 4 5 6 
#
# 1 254.0412 48.9291 107.6974 12.6541 -30.6346 15.1889
# 2 48.9291 111.9733 76.5024 -6.4493 2.0125 5.3612
# 3 107.6974 76.5024 203.3904 16.6019 -23.3891 14.6971
# 4 12.6541 -6.4493 16.6019 57.1397 9.7288 -4.6440
# 5 -30.6346 2.0125 -23.3891 9.7288 81.1321 -15.6216
# 6 15.1889 5.3612 14.6971 -4.6440 -15.6216 61.6438
#
#
#
# Elastic Compliance Matrix: (Units=1/GPa)
#
#
# Indices 1 2 3 4 5 6 
#
# 1 0.005275 -0.000854 -0.002208 -0.000896 0.001405 -0.000411
# 2 -0.000854 0.012972 -0.004999 0.003528 -0.002528 -0.000101
# 3 -0.002208 -0.004999 0.008484 -0.002933 0.001939 -0.000774
# 4 -0.000896 0.003528 -0.002933 0.019627 -0.003387 0.001233
# 5 0.001405 -0.002528 0.001939 -0.003387 0.014425 0.002812
# 6 -0.000411 -0.000101 -0.000774 0.001233 0.002812 0.017322
#
#
# Mechanical properties :
#
#
# Convention : Reuss Voigt Hill
#
# Bulk Modulus (GPa) = 94.23893 115.07364 104.65629
# Shear Modulus (GPa) = 51.14355 62.40153 56.77254
#
# Velocity S-wave (km/s) = 4.18275 4.62024 4.40693
# Velocity P-wave (km/s) = 7.45419 8.23572 7.85468
#
# Compressibility (1/GPa) = 0.01061133
#
# Stress axis : x y z
#
# Youngs Moduli (GPa) = 189.55827 77.08666 117.86666
#
# Poissons Ratio (x) = 0.06583 0.26023
# Poissons Ratio (y) = 0.16188 0.58916
# Poissons Ratio (z) = 0.41851 0.38532
#
# Static dielectric constant tensor:
#      x y z
#    x 2.143500 0.070860 -0.066150 
#    y 0.070860 2.343660 -0.048130 
#    z -0.066150 -0.048130 2.412030 
# 
# From -- ./inp_files/16377.got.cif
#   From: 2010.05.17/outbox.cif.g08.bks.cpg/sg2_9_cif.got.tgz:16377.got - 2010.06.03 11:33:40.
