data_PCOD9070091
_publ_section_title
;
Structure prediction by ZEFSAII (Michael W. Deem and Ramdas Pophale) SiO2 
 PCOD9070091
Probable space group: P -1
;
_chemical_formula_sum "Si O2"
_cell_formula_units_Z 16
_cell_length_a 9.041138
_cell_length_b 21.477676
_cell_length_c 18.717259
_cell_angle_alpha 161.780124
_cell_angle_beta 136.099559
_cell_angle_gamma 42.966269
_cell_volume 768.977714
_symmetry_space_group_name_H-M "P -1"
_symmetry_group_IT_number 2
_symmetry_cell_setting 'triclinic'
loop_
_space_group_symop_operation_xyz
x,y,z
-x,-y,-z
loop_
_atom_site_type_symbol
_atom_site_label
_atom_site_fract_x
_atom_site_fract_y
_atom_site_fract_z
Si Si1 0.721625 0.226843 0.438618
Si Si2 0.863111 0.458937 0.605943
Si Si3 0.666133 0.810852 0.815448
Si Si4 0.921334 0.187433 0.883815
Si Si5 0.770262 0.448594 0.841913
Si Si6 0.962008 0.977728 0.879128
Si Si7 0.206847 0.872643 0.387923
Si Si8 0.563511 0.134327 0.815959
O O1 0.766229 0.370998 0.546428
O O2 0.464870 0.229197 0.344782
O O3 0.790031 0.310317 0.627828
O O4 0.869039 0.998695 0.232756
O O5 0.706455 0.617944 0.672336
O O6 0.962531 0.256378 0.374880
O O7 0.027069 0.596350 0.840983
O O8 0.500000 0.000000 0.000000
O O9 0.888149 0.882187 0.953042
O O10 0.866311 0.178438 0.771507
O O11 0.725924 0.147151 0.821074
O O12 0.703149 0.329435 0.755750
O O13 0.588032 0.648755 0.982168
O O14 0.000000 0.500000 0.000000
O O15 0.715846 0.052564 0.847222
O O16 0.000000 0.000000 0.000000
O O17 0.396356 0.996302 0.585661
O O18 0.000000 0.000000 0.500000
#
# Coordination Sequence:
#
# PCOD9070091 Si02
#       8
#     2   2   2   2   2   2   2   2
#     4  12  25  43  77 106 146 191 241 302 354 428
#     4  12  24  45  74 101 145 189 246 284 370 415
#     4  12  24  46  69 108 141 185 250 293 348 437
#     4  12  25  48  74 107 147 187 244 300 356 440
#     4  12  27  47  72 111 144 185 245 301 368 427
#     4  12  30  47  70 107 152 188 239 304 361 432
#     4  12  26  46  75 105 145 187 240 303 361 427
#     4  12  27  49  70 107 148 190 243 297 365 434
#
# _framework density 20.806844999999999
#
# number of rings (size 3 to 8) (size 9 to 14) (size 15 to 20)
#    0.000    0.000    7.500    1.500    5.250    1.000 
#    0.000    0.000    0.000    0.000    0.000    0.000 
#    0.000    0.000    0.000    0.000    0.000    0.000 
#
# Total GULP energy -89522.718551 kJ/mol
# GULP energy per Si atom -5595.169909 kJ/mol
# Density = 2.075949 g / cm^3
# Si number density = 20.806845 Si / 1000 Ang^3
#
#
#
# Elastic Constant Matrix: (Units=GPa)
#
#
# Indices 1 2 3 4 5 6 
#
# 1 59.6062 39.3545 44.9187 -13.6945 -3.8964 11.4263
# 2 39.3545 138.7022 65.4557 -3.8460 -11.4701 8.2052
# 3 44.9187 65.4557 144.0742 -16.9870 5.6652 7.3079
# 4 -13.6945 -3.8460 -16.9870 54.4867 8.0968 -0.5363
# 5 -3.8964 -11.4701 5.6652 8.0968 34.8687 -7.5817
# 6 11.4263 8.2052 7.3079 -0.5363 -7.5817 38.4426
#
#
#
# Elastic Compliance Matrix: (Units=1/GPa)
#
#
# Indices 1 2 3 4 5 6 
#
# 1 0.025704 -0.004373 -0.005214 0.004468 0.000015 -0.005650
# 2 -0.004373 0.010536 -0.003879 -0.002190 0.004245 0.000595
# 3 -0.005214 -0.003879 0.010807 0.002416 -0.004281 -0.000487
# 4 0.004468 -0.002190 0.002416 0.020938 -0.005954 -0.002202
# 5 0.000015 0.004245 -0.004281 -0.005954 0.033555 0.006438
# 6 -0.005650 0.000595 -0.000487 -0.002202 0.006438 0.028897
#
#
# Mechanical properties :
#
#
# Convention : Reuss Voigt Hill
#
# Bulk Modulus (GPa) = 49.71439 71.31560 60.51499
# Shear Modulus (GPa) = 30.47413 38.40318 34.43866
#
# Velocity S-wave (km/s) = 3.83119 4.30082 4.07278
# Velocity P-wave (km/s) = 6.59665 7.68194 7.15989
#
# Compressibility (1/GPa) = 0.02011490
#
# Stress axis : x y z
#
# Youngs Moduli (GPa) = 38.90424 94.91304 92.53606
#
# Poissons Ratio (x) = 0.41506 0.48251
# Poissons Ratio (y) = 0.17013 0.35891
# Poissons Ratio (z) = 0.20286 0.36812
#
# Static dielectric constant tensor:
#      x y z
#    x 1.728520 -0.002870 0.021840 
#    y -0.002870 1.749580 -0.012930 
#    z 0.021840 -0.012930 1.617700 
# 
# From -- ./inp_files/562996.got.cif
#   From: 2010.05.17/outbox.cif.g08.bks.cpg/sg2_282_cif.got.tgz:562996.got - 2010.06.03 11:33:40.
