data_PCOD9070430
_publ_section_title
;
Structure prediction by ZEFSAII (Michael W. Deem and Ramdas Pophale) SiO2 
 PCOD9070430
Probable space group: P -1
;
_chemical_formula_sum "Si O2"
_cell_formula_units_Z 16
_cell_length_a 19.870433
_cell_length_b 11.527124
_cell_length_c 9.612073
_cell_angle_alpha 110.319170
_cell_angle_beta 68.559881
_cell_angle_gamma 158.672560
_cell_volume 745.170293
_symmetry_space_group_name_H-M "P -1"
_symmetry_group_IT_number 2
_symmetry_cell_setting 'triclinic'
loop_
_space_group_symop_operation_xyz
x,y,z
-x,-y,-z
loop_
_atom_site_type_symbol
_atom_site_label
_atom_site_fract_x
_atom_site_fract_y
_atom_site_fract_z
Si Si1 0.801428 0.141200 0.815595
Si Si2 0.017343 0.147418 0.952770
Si Si3 0.706860 0.855284 0.037000
Si Si4 0.722038 0.850100 0.508540
Si Si5 0.337973 0.816279 0.124790
Si Si6 0.817595 0.182955 0.340820
Si Si7 0.849468 0.775918 0.395501
Si Si8 0.449153 0.027177 0.443821
O O1 0.666213 0.045207 0.854483
O O2 0.993952 0.489808 0.746918
O O3 0.803334 0.100079 0.955309
O O4 0.740764 0.926292 0.683619
O O5 0.091040 0.215023 0.776452
O O6 0.151807 0.457202 0.058501
O O7 0.825127 0.916678 0.981824
O O8 0.000000 0.000000 0.000000
O O9 0.500000 0.500000 0.000000
O O10 0.701570 0.913671 0.212863
O O11 0.500000 0.500000 0.500000
O O12 0.821319 0.875688 0.420198
O O13 0.828219 0.119668 0.446808
O O14 0.374103 0.864562 0.282525
O O15 0.500000 0.000000 0.000000
O O16 0.708062 0.133907 0.439198
O O17 0.641128 0.405057 0.438158
O O18 0.000000 0.000000 0.500000
O O19 0.500000 0.000000 0.500000
#
# Coordination Sequence:
#
# PCOD9070430 Si02
#       8
#     2   2   2   2   2   2   2   2
#     4  12  27  47  77 108 148 196 255 309 374 445
#     4  12  29  49  78 112 153 203 252 308 388 451
#     4  12  29  48  76 109 153 200 253 317 378 450
#     4  12  24  48  74 105 148 193 251 298 371 447
#     4  12  27  51  76 108 153 199 252 315 379 456
#     4  12  26  46  74 106 145 198 254 306 369 448
#     4  12  28  48  75 113 153 196 250 316 376 450
#     4  12  30  47  75 112 150 203 251 311 388 450
#
# _framework density 21.471601
#
# number of rings (size 3 to 8) (size 9 to 14) (size 15 to 20)
#    0.000    0.000    5.000    3.000   10.500    0.000 
#    0.000    0.000    0.000    0.000    0.000    0.000 
#    0.000    0.000    0.000    0.000    0.000    0.000 
#
# Total GULP energy -89597.924342 kJ/mol
# GULP energy per Si atom -5599.870271 kJ/mol
# Density = 2.142273 g / cm^3
# Si number density = 21.471601 Si / 1000 Ang^3
#
#
#
# Elastic Constant Matrix: (Units=GPa)
#
#
# Indices 1 2 3 4 5 6 
#
# 1 179.3893 20.7385 48.9040 -14.2596 -8.1452 12.0341
# 2 20.7385 79.2432 -7.5803 -4.3021 -3.3209 18.8488
# 3 48.9040 -7.5803 109.6731 -0.7724 -12.7112 13.1520
# 4 -14.2596 -4.3021 -0.7724 41.8982 -1.5175 2.0940
# 5 -8.1452 -3.3209 -12.7112 -1.5175 44.7796 -7.2126
# 6 12.0341 18.8488 13.1520 2.0940 -7.2126 38.7384
#
#
#
# Elastic Compliance Matrix: (Units=1/GPa)
#
#
# Indices 1 2 3 4 5 6 
#
# 1 0.006836 -0.001915 -0.003112 0.002092 0.000257 -0.000201
# 2 -0.001915 0.015364 0.002915 0.001388 0.000398 -0.007871
# 3 -0.003112 0.002915 0.011434 -0.000272 0.002259 -0.003899
# 4 0.002092 0.001388 -0.000272 0.024869 0.000860 -0.002417
# 5 0.000257 0.000398 0.002259 0.000860 0.023611 0.003309
# 6 -0.000201 -0.007871 -0.003899 -0.002417 0.003309 0.031777
#
#
# Mechanical properties :
#
#
# Convention : Reuss Voigt Hill
#
# Bulk Modulus (GPa) = 33.99992 54.71444 44.35718
# Shear Modulus (GPa) = 39.08814 45.49947 42.29381
#
# Velocity S-wave (km/s) = 4.27131 4.60831 4.44301
# Velocity P-wave (km/s) = 6.33993 7.33846 6.85739
#
# Compressibility (1/GPa) = 0.02941183
#
# Stress axis : x y z
#
# Youngs Moduli (GPa) = 146.29499 65.08894 87.45470
#
# Poissons Ratio (x) = 0.12461 0.27214
# Poissons Ratio (y) = 0.28008 -0.25497
# Poissons Ratio (z) = 0.45524 -0.18976
#
# Static dielectric constant tensor:
#      x y z
#    x 6.192430 -0.544830 2.440160 
#    y -0.544830 1.864540 -0.278710 
#    z 2.440160 -0.278710 3.061740 
# 
# From -- ./inp_files/207418.got.cif
#   From: 2010.05.17/outbox.cif.g08.bks.cpg/sg2_104_cif.got.tgz:207418.got - 2010.06.03 11:33:40.
