data_PCOD9070932
_publ_section_title
;
Structure prediction by ZEFSAII (Michael W. Deem and Ramdas Pophale) SiO2 
 PCOD9070932
Probable space group: P -1
;
_chemical_formula_sum "Si O2"
_cell_formula_units_Z 16
_cell_length_a 7.856886
_cell_length_b 19.953733
_cell_length_c 6.867628
_cell_angle_alpha 133.372405
_cell_angle_beta 77.744910
_cell_angle_gamma 97.149901
_cell_volume 764.456576
_symmetry_space_group_name_H-M "P -1"
_symmetry_group_IT_number 2
_symmetry_cell_setting 'triclinic'
loop_
_space_group_symop_operation_xyz
x,y,z
-x,-y,-z
loop_
_atom_site_type_symbol
_atom_site_label
_atom_site_fract_x
_atom_site_fract_y
_atom_site_fract_z
Si Si1 0.044507 0.595185 0.572466
Si Si2 0.615299 0.078941 0.043487
Si Si3 0.227833 0.317792 0.476940
Si Si4 0.848357 0.946055 0.526443
Si Si5 0.571149 0.402652 0.708842
Si Si6 0.021718 0.255820 0.775532
Si Si7 0.598617 0.843503 0.113684
Si Si8 0.636721 0.242209 0.672241
O O1 0.243531 0.593691 0.441083
O O2 0.000000 0.500000 0.500000
O O3 0.911310 0.616843 0.471082
O O4 0.006999 0.677390 0.899830
O O5 0.534404 0.117780 0.939658
O O6 0.790265 0.020050 0.849417
O O7 0.626759 0.161985 0.354809
O O8 0.500000 0.000000 0.000000
O O9 0.417506 0.361399 0.533089
O O10 0.152502 0.297899 0.669731
O O11 0.258956 0.221775 0.161828
O O12 0.906049 0.845538 0.387827
O O13 0.692956 0.923957 0.369045
O O14 0.000000 0.000000 0.500000
O O15 0.592711 0.336045 0.756887
O O16 0.500000 0.500000 0.000000
O O17 0.832282 0.245834 0.708590
O O18 0.495188 0.782586 0.173039
#
# Coordination Sequence:
#
# PCOD9070932 Si02
#       8
#     2   2   2   2   2   2   2   2
#     4  12  29  51  78 112 149 191 246 302 369 445
#     4  12  26  47  71 105 143 194 250 299 365 431
#     4  12  26  49  81 106 152 195 243 304 368 437
#     4  12  27  42  72 105 144 193 246 299 366 431
#     4  12  28  50  79 113 147 193 245 301 373 441
#     4  12  27  49  73 110 150 191 243 308 364 435
#     4  12  25  48  71 104 147 196 245 306 365 429
#     4  12  27  47  75 105 150 193 244 307 366 439
#
# _framework density 20.929901999999998
#
# number of rings (size 3 to 8) (size 9 to 14) (size 15 to 20)
#    0.000    0.000    5.000    4.125    8.750    2.000 
#    0.000    0.000    0.000    0.000    0.000    0.000 
#    0.000    0.000    0.000    0.000    0.000    0.000 
#
# Total GULP energy -89552.147527 kJ/mol
# GULP energy per Si atom -5597.009220 kJ/mol
# Density = 2.088226 g / cm^3
# Si number density = 20.929902 Si / 1000 Ang^3
#
#
#
# Elastic Constant Matrix: (Units=GPa)
#
#
# Indices 1 2 3 4 5 6 
#
# 1 121.3984 62.6345 22.7921 -15.6213 -7.3271 2.7179
# 2 62.6345 172.4885 60.8851 -4.3590 -16.0600 -0.6282
# 3 22.7921 60.8851 87.5144 -7.4450 -22.9109 -18.7534
# 4 -15.6213 -4.3590 -7.4450 29.1692 1.1908 -13.8056
# 5 -7.3271 -16.0600 -22.9109 1.1908 49.0042 -7.4767
# 6 2.7179 -0.6282 -18.7534 -13.8056 -7.4767 43.4512
#
#
#
# Elastic Compliance Matrix: (Units=1/GPa)
#
#
# Indices 1 2 3 4 5 6 
#
# 1 0.011014 -0.004199 0.001335 0.006559 0.001055 0.002092
# 2 -0.004199 0.009661 -0.007414 -0.004806 -0.001511 -0.004584
# 3 0.001335 -0.007414 0.023583 0.012708 0.010913 0.015903
# 4 0.006559 -0.004806 0.012708 0.050605 0.007532 0.022379
# 5 0.001055 -0.001511 0.010913 0.007532 0.026761 0.011620
# 6 0.002092 -0.004584 0.015903 0.022379 0.011620 0.038791
#
#
# Mechanical properties :
#
#
# Convention : Reuss Voigt Hill
#
# Bulk Modulus (GPa) = 42.19102 74.89164 58.54133
# Shear Modulus (GPa) = 26.47310 39.99757 33.23533
#
# Velocity S-wave (km/s) = 3.56033 4.37627 3.98921
# Velocity P-wave (km/s) = 6.09124 7.83553 7.01779
#
# Compressibility (1/GPa) = 0.02370172
#
# Stress axis : x y z
#
# Youngs Moduli (GPa) = 90.79363 103.51367 42.40355
#
# Poissons Ratio (x) = 0.43468 -0.05663
# Poissons Ratio (y) = 0.38127 0.31438
# Poissons Ratio (z) = -0.12125 0.76746
#
# Static dielectric constant tensor:
#      x y z
#    x 1.732490 -0.020610 0.016640 
#    y -0.020610 1.704600 -0.010460 
#    z 0.016640 -0.010460 1.725580 
# 
# From -- ./inp_files/49287.got.cif
#   From: 2010.05.17/outbox.cif.g08.bks.cpg/sg2_25_cif.got.tgz:49287.got - 2010.06.03 11:33:40.
