data_PCOD9070352
_publ_section_title
;
Structure prediction by ZEFSAII (Michael W. Deem and Ramdas Pophale) SiO2 
 PCOD9070352
Probable space group: P -1
;
_chemical_formula_sum "Si O2"
_cell_formula_units_Z 16
_cell_length_a 15.674299
_cell_length_b 12.258016
_cell_length_c 18.851889
_cell_angle_alpha 26.076395
_cell_angle_beta 30.868580
_cell_angle_gamma 47.807192
_cell_volume 733.370647
_symmetry_space_group_name_H-M "P -1"
_symmetry_group_IT_number 2
_symmetry_cell_setting 'triclinic'
loop_
_space_group_symop_operation_xyz
x,y,z
-x,-y,-z
loop_
_atom_site_type_symbol
_atom_site_label
_atom_site_fract_x
_atom_site_fract_y
_atom_site_fract_z
Si Si1 0.614032 0.574260 0.772689
Si Si2 0.409524 0.912105 0.319280
Si Si3 0.476090 0.985574 0.674159
Si Si4 0.013493 0.656523 0.471480
Si Si5 0.042538 0.733453 0.127567
Si Si6 0.410132 0.584588 0.770116
Si Si7 0.998953 0.717486 0.694828
Si Si8 0.579353 0.858859 0.083763
O O1 0.519781 0.723522 0.799839
O O2 0.825617 0.695191 0.578493
O O3 0.561072 0.619448 0.702840
O O4 0.521952 0.243478 0.036636
O O5 0.465870 0.803282 0.270957
O O6 0.192252 0.823227 0.536361
O O7 0.471650 0.843778 0.389982
O O8 0.569649 0.144606 0.443189
O O9 0.261279 0.872693 0.883937
O O10 0.012628 0.448282 0.655289
O O11 0.000000 0.500000 0.500000
O O12 0.204615 0.933626 0.177999
O O13 0.979365 0.498473 0.249151
O O14 0.000000 0.000000 0.000000
O O15 0.435199 0.407088 0.791967
O O16 0.202310 0.434851 0.036689
O O17 0.000000 0.000000 0.500000
O O18 0.500000 0.000000 0.000000
#
# Coordination Sequence:
#
# PCOD9070352 Si02
#       8
#     2   2   2   2   2   2   2   2
#     4  12  24  47  77 104 142 199 251 304 361 452
#     4  12  25  47  74 106 146 193 248 309 361 442
#     4  12  28  47  71 108 156 189 244 315 386 436
#     4  12  25  45  75 109 143 193 255 304 366 446
#     4  12  28  45  74 112 151 195 244 315 378 445
#     4  12  27  47  74 106 147 199 242 308 375 444
#     4  12  25  48  78 108 145 201 256 298 373 458
#     4  12  24  47  76 106 145 193 251 300 364 451
#
# _framework density 21.817072
#
# number of rings (size 3 to 8) (size 9 to 14) (size 15 to 20)
#    0.000    0.000    6.250    2.250    8.750    1.000 
#    2.250    0.000    0.000    0.000    0.000    0.000 
#    0.000    0.000    0.000    0.000    0.000    0.000 
#
# Total GULP energy -89369.359724 kJ/mol
# GULP energy per Si atom -5585.584983 kJ/mol
# Density = 2.176742 g / cm^3
# Si number density = 21.817072 Si / 1000 Ang^3
#
#
#
# Elastic Constant Matrix: (Units=GPa)
#
#
# Indices 1 2 3 4 5 6 
#
# 1 106.7454 22.3545 32.4089 1.0800 -3.4565 5.5801
# 2 22.3545 139.0224 29.6955 0.6629 0.5510 3.2774
# 3 32.4089 29.6955 150.5553 3.9755 -3.1376 -1.4240
# 4 1.0800 0.6629 3.9755 30.9376 -2.5490 -6.7080
# 5 -3.4565 0.5510 -3.1376 -2.5490 53.1105 10.9343
# 6 5.5801 3.2774 -1.4240 -6.7080 10.9343 45.3610
#
#
#
# Elastic Compliance Matrix: (Units=1/GPa)
#
#
# Indices 1 2 3 4 5 6 
#
# 1 0.010330 -0.001206 -0.001973 -0.000336 0.000861 -0.001503
# 2 -0.001206 0.007666 -0.001258 -0.000064 -0.000149 -0.000418
# 3 -0.001973 -0.001258 0.007343 -0.000743 0.000199 0.000406
# 4 -0.000336 -0.000064 -0.000743 0.033528 0.000546 0.004849
# 5 0.000861 -0.000149 0.000199 0.000546 0.019914 -0.004809
# 6 -0.001503 -0.000418 0.000406 0.004849 -0.004809 0.024149
#
#
# Mechanical properties :
#
#
# Convention : Reuss Voigt Hill
#
# Bulk Modulus (GPa) = 60.73608 62.80453 61.77031
# Shear Modulus (GPa) = 42.62854 46.67278 44.65066
#
# Velocity S-wave (km/s) = 4.42510 4.63025 4.52884
# Velocity P-wave (km/s) = 7.34901 7.57859 7.46468
#
# Compressibility (1/GPa) = 0.01646468
#
# Stress axis : x y z
#
# Youngs Moduli (GPa) = 96.80988 130.43851 136.19262
#
# Poissons Ratio (x) = 0.15729 0.26872
# Poissons Ratio (y) = 0.11674 0.17132
# Poissons Ratio (z) = 0.19101 0.16408
#
# Static dielectric constant tensor:
#      x y z
#    x 1.811310 0.013470 -0.015530 
#    y 0.013470 1.799220 -0.091910 
#    z -0.015530 -0.091910 1.856160 
# 
# From -- ./inp_files/447888.got.cif
#   From: 2010.05.17/outbox.cif.g08.bks.cpg/sg2_224_cif.got.tgz:447888.got - 2010.06.03 11:33:40.
