data_PCOD9070338
_publ_section_title
;
Structure prediction by ZEFSAII (Michael W. Deem and Ramdas Pophale) SiO2 
 PCOD9070338
Probable space group: P -1
;
_chemical_formula_sum "Si O2"
_cell_formula_units_Z 13
_cell_length_a 8.855984
_cell_length_b 12.542013
_cell_length_c 7.808572
_cell_angle_alpha 114.356239
_cell_angle_beta 65.240573
_cell_angle_gamma 136.243313
_cell_volume 536.284857
_symmetry_space_group_name_H-M "P -1"
_symmetry_group_IT_number 2
_symmetry_cell_setting 'triclinic'
loop_
_space_group_symop_operation_xyz
x,y,z
-x,-y,-z
loop_
_atom_site_type_symbol
_atom_site_label
_atom_site_fract_x
_atom_site_fract_y
_atom_site_fract_z
Si Si1 0.409309 0.051699 0.949516
Si Si2 0.050060 0.076614 0.842618
Si Si3 0.500000 0.000000 0.500000
Si Si4 0.824136 0.521149 0.642628
Si Si5 0.248379 0.574317 0.992776
Si Si6 0.652465 0.633112 0.306165
Si Si7 0.026346 0.819746 0.543095
O O1 0.572402 0.238966 0.985039
O O2 0.372720 0.982998 0.729626
O O3 0.500000 0.000000 0.000000
O O4 0.185587 0.977378 0.110918
O O5 0.244115 0.259324 0.842502
O O6 0.095337 0.986296 0.645036
O O7 0.000000 0.000000 0.000000
O O8 0.259948 0.865361 0.428393
O O9 0.777716 0.478512 0.834431
O O10 0.584027 0.412676 0.588382
O O11 0.000000 0.500000 0.500000
O O12 0.920502 0.693427 0.662897
O O13 0.349927 0.507740 0.806496
O O14 0.000000 0.500000 0.000000
O O15 0.836769 0.736461 0.433380
#
# Coordination Sequence:
#
# PCOD9070338 Si02
#       7
#     2   2   1   2   2   2   2
#     4  12  27  49  79 111 157 205 256 324 391 468
#     4  12  24  47  75 106 150 202 252 314 392 459
#     4  12  26  48  78 116 156 192 274 308 390 464
#     4  12  27  47  77 110 156 201 257 324 395 465
#     4  12  26  49  76 112 153 204 261 321 397 468
#     4  12  27  51  74 116 154 203 265 324 392 474
#     4  12  27  48  78 111 155 207 255 326 386 468
#
# _framework density 24.240846999999999
#
# number of rings (size 3 to 8) (size 9 to 14) (size 15 to 20)
#    0.000    0.000    1.538    8.769    4.308    1.231 
#    2.769    0.000    0.000    0.000    0.000    0.000 
#    0.000    0.000    0.000    0.000    0.000    0.000 
#
# Total GULP energy -72434.098663 kJ/mol
# GULP energy per Si atom -5571.853743 kJ/mol
# Density = 2.418567 g / cm^3
# Si number density = 24.240847 Si / 1000 Ang^3
#
#
#
# Elastic Constant Matrix: (Units=GPa)
#
#
# Indices 1 2 3 4 5 6 
#
# 1 175.2817 47.8015 16.7321 -6.7570 -2.3038 14.8661
# 2 47.8015 118.7813 21.8252 -13.3915 -7.7467 1.3205
# 3 16.7321 21.8252 56.2409 3.3702 3.9517 -11.0479
# 4 -6.7570 -13.3915 3.3702 37.7565 4.4435 -7.9142
# 5 -2.3038 -7.7467 3.9517 4.4435 36.7079 -4.6155
# 6 14.8661 1.3205 -11.0479 -7.9142 -4.6155 53.7082
#
#
#
# Elastic Compliance Matrix: (Units=1/GPa)
#
#
# Indices 1 2 3 4 5 6 
#
# 1 0.006677 -0.002403 -0.001455 0.000057 -0.000202 -0.002097
# 2 -0.002403 0.010588 -0.003683 0.003478 0.002102 0.000340
# 3 -0.001455 -0.003683 0.020772 -0.002263 -0.002298 0.004235
# 4 0.000057 0.003478 -0.002263 0.028912 -0.002077 0.003515
# 5 -0.000202 0.002102 -0.002298 -0.002077 0.028381 0.001664
# 6 -0.002097 0.000340 0.004235 0.003515 0.001664 0.020724
#
#
# Mechanical properties :
#
#
# Convention : Reuss Voigt Hill
#
# Bulk Modulus (GPa) = 43.56515 58.11349 50.83932
# Shear Modulus (GPa) = 36.02622 43.23086 39.62854
#
# Velocity S-wave (km/s) = 3.85928 4.22760 4.04763
# Velocity P-wave (km/s) = 6.15382 6.91777 6.54695
#
# Compressibility (1/GPa) = 0.02295413
#
# Stress axis : x y z
#
# Youngs Moduli (GPa) = 149.77349 94.44572 48.14196
#
# Poissons Ratio (x) = 0.22696 0.07005
# Poissons Ratio (y) = 0.35992 0.17732
# Poissons Ratio (z) = 0.21792 0.34786
#
# Static dielectric constant tensor:
#      x y z
#    x 2.105100 0.189120 0.123660 
#    y 0.189120 1.986310 0.016440 
#    z 0.123660 0.016440 1.998310 
# 
# From -- ./inp_files/175091.got.cif
#   From: 2010.05.17/outbox.cif.g08.bks.cpg/sg2_88_cif.got.tgz:175091.got - 2010.06.03 11:33:40.
