data_PCOD9070407
_publ_section_title
;
Structure prediction by ZEFSAII (Michael W. Deem and Ramdas Pophale) SiO2 
 PCOD9070407
Probable space group: P -1
;
_chemical_formula_sum "Si O2"
_cell_formula_units_Z 16
_cell_length_a 22.865433
_cell_length_b 12.511802
_cell_length_c 9.837844
_cell_angle_alpha 136.320767
_cell_angle_beta 26.653322
_cell_angle_gamma 143.656796
_cell_volume 748.156753
_symmetry_space_group_name_H-M "P -1"
_symmetry_group_IT_number 2
_symmetry_cell_setting 'triclinic'
loop_
_space_group_symop_operation_xyz
x,y,z
-x,-y,-z
loop_
_atom_site_type_symbol
_atom_site_label
_atom_site_fract_x
_atom_site_fract_y
_atom_site_fract_z
Si Si1 0.871568 0.028103 0.226335
Si Si2 0.403526 0.506674 0.580762
Si Si3 0.593101 0.132922 0.551390
Si Si4 0.920266 0.556117 0.829701
Si Si5 0.846016 0.843577 0.609085
Si Si6 0.673243 0.855997 0.229666
Si Si7 0.138549 0.511473 0.806230
Si Si8 0.671006 0.857649 0.737115
O O1 0.958698 0.236127 0.196628
O O2 0.790793 0.899433 0.147873
O O3 0.745807 0.976330 0.556765
O O4 0.000000 0.000000 0.000000
O O5 0.500000 0.500000 0.500000
O O6 0.506187 0.701847 0.479903
O O7 0.378220 0.346728 0.386346
O O8 0.236327 0.468177 0.926030
O O9 0.709022 0.326672 0.426640
O O10 0.500000 0.000000 0.500000
O O11 0.678758 0.041861 0.359408
O O12 0.473464 0.137706 0.905534
O O13 0.000000 0.500000 0.500000
O O14 0.876890 0.454665 0.971343
O O15 0.861137 0.674229 0.379846
O O16 0.794857 0.914062 0.651124
O O17 0.719850 0.791015 0.939190
O O18 0.000000 0.000000 0.500000
O O19 0.000000 0.500000 0.000000
#
# Coordination Sequence:
#
# PCOD9070407 Si02
#       8
#     2   2   2   2   2   2   2   2
#     4  12  24  48  71 107 143 187 242 297 361 440
#     4  12  25  49  72 110 144 194 243 299 367 440
#     4  12  27  45  72 110 146 191 243 301 365 429
#     4  12  28  45  74 104 147 192 242 302 366 431
#     4  12  25  46  77 108 142 194 246 301 369 433
#     4  12  26  45  76 107 146 189 244 298 367 438
#     4  12  27  49  71 107 150 188 246 301 366 438
#     4  12  26  46  77 103 148 192 243 301 366 433
#
# _framework density 21.385891999999998
#
# number of rings (size 3 to 8) (size 9 to 14) (size 15 to 20)
#    0.000    0.000    5.000    4.500    3.500    5.500 
#    0.000    0.000    0.000    0.000    0.000    0.000 
#    0.000    0.000    0.000    0.000    0.000    0.000 
#
# Total GULP energy -89607.906671 kJ/mol
# GULP energy per Si atom -5600.494167 kJ/mol
# Density = 2.133722 g / cm^3
# Si number density = 21.385892 Si / 1000 Ang^3
#
#
#
# Elastic Constant Matrix: (Units=GPa)
#
#
# Indices 1 2 3 4 5 6 
#
# 1 111.3925 -7.1437 27.2398 4.4736 0.1101 3.7096
# 2 -7.1437 74.2262 22.2405 -18.2881 5.2134 0.9778
# 3 27.2398 22.2405 150.2205 12.5137 15.2310 -5.0490
# 4 4.4736 -18.2881 12.5137 37.5239 -4.9894 1.9993
# 5 0.1101 5.2134 15.2310 -4.9894 34.0259 -6.3111
# 6 3.7096 0.9778 -5.0490 1.9993 -6.3111 36.0797
#
#
#
# Elastic Compliance Matrix: (Units=1/GPa)
#
#
# Indices 1 2 3 4 5 6 
#
# 1 0.009627 0.001672 -0.002130 0.000513 0.000505 -0.001273
# 2 0.001672 0.017083 -0.003687 0.009458 0.000107 -0.001656
# 3 -0.002130 -0.003687 0.008410 -0.004900 -0.003704 0.001119
# 4 0.000513 0.009458 -0.004900 0.033642 0.005318 -0.001929
# 5 0.000505 0.000107 -0.003704 0.005318 0.032709 0.004854
# 6 -0.001273 -0.001656 0.001119 -0.001929 0.004854 0.029005
#
#
# Mechanical properties :
#
#
# Convention : Reuss Voigt Hill
#
# Bulk Modulus (GPa) = 37.27076 46.72361 41.99719
# Shear Modulus (GPa) = 33.85056 41.09275 37.47165
#
# Velocity S-wave (km/s) = 3.98281 4.38823 4.19043
# Velocity P-wave (km/s) = 6.21418 6.89716 6.56455
#
# Compressibility (1/GPa) = 0.02683068
#
# Stress axis : x y z
#
# Youngs Moduli (GPa) = 103.87802 58.53911 118.90249
#
# Poissons Ratio (x) = -0.09789 0.25325
# Poissons Ratio (y) = -0.17371 0.43837
# Poissons Ratio (z) = 0.22125 0.21582
#
# Static dielectric constant tensor:
#      x y z
#    x 1.792700 -0.020730 -0.002910 
#    y -0.020730 1.752920 -0.014510 
#    z -0.002910 -0.014510 1.758040 
# 
# From -- ./inp_files/223390.got.cif
#   From: 2010.05.17/outbox.cif.g08.bks.cpg/sg2_112_cif.got.tgz:223390.got - 2010.06.03 11:33:40.
