data_PCOD9070289
_publ_section_title
;
Structure prediction by ZEFSAII (Michael W. Deem and Ramdas Pophale) SiO2 
 PCOD9070289
Probable space group: P -1
;
_chemical_formula_sum "Si O2"
_cell_formula_units_Z 11
_cell_length_a 15.991998
_cell_length_b 15.978245
_cell_length_c 14.107138
_cell_angle_alpha 24.716810
_cell_angle_beta 31.041101
_cell_angle_gamma 18.207446
_cell_volume 470.438737
_symmetry_space_group_name_H-M "P -1"
_symmetry_group_IT_number 2
_symmetry_cell_setting 'triclinic'
loop_
_space_group_symop_operation_xyz
x,y,z
-x,-y,-z
loop_
_atom_site_type_symbol
_atom_site_label
_atom_site_fract_x
_atom_site_fract_y
_atom_site_fract_z
Si Si1 0.012449 0.385374 0.504974
Si Si2 0.770400 0.620883 0.157113
Si Si3 0.502770 0.371013 0.228842
Si Si4 0.500000 0.500000 0.500000
Si Si5 0.823588 0.821671 0.071313
Si Si6 0.679292 0.407496 0.216908
O O1 0.000000 0.500000 0.500000
O O2 0.792925 0.423831 0.674486
O O3 0.935778 0.639424 0.248336
O O4 0.299054 0.010176 0.588871
O O5 0.735971 0.428985 0.358241
O O6 0.824000 0.623789 0.210029
O O7 0.000000 0.500000 0.000000
O O8 0.500000 0.000000 0.000000
O O9 0.609930 0.378249 0.211995
O O10 0.500000 0.500000 0.000000
O O11 0.609773 0.343956 0.442016
O O12 0.020904 0.797981 0.863172
O O13 0.528183 0.202983 0.970572
#
# Coordination Sequence:
#
# PCOD9070289 Si02
#       6
#     2   2   2   1   2   2
#     4  12  25  45  73 104 142 189 234 303 373 435
#     4  12  25  46  68 104 141 189 246 301 363 431
#     4  12  25  46  71 107 141 184 245 299 367 443
#     4  12  26  46  74 104 146 196 250 298 380 422
#     4  12  24  47  69 104 146 189 244 302 371 436
#     4  12  26  44  72 104 144 194 242 307 366 439
#
# _framework density 23.382427
#
# number of rings (size 3 to 8) (size 9 to 14) (size 15 to 20)
#    0.000    0.000    3.636    6.545    0.000    4.364 
#    0.000    0.000    0.000    0.000    0.000    0.000 
#    0.000    0.000    0.000    0.000    0.000    0.000 
#
# Total GULP energy -61364.501367 kJ/mol
# GULP energy per Si atom -5578.591033 kJ/mol
# Density = 2.332921 g / cm^3
# Si number density = 23.382427 Si / 1000 Ang^3
#
#
#
# Elastic Constant Matrix: (Units=GPa)
#
#
# Indices 1 2 3 4 5 6 
#
# 1 179.3216 -4.0234 2.9742 18.6199 -8.0745 26.2716
# 2 -4.0234 82.1319 2.1956 -1.0369 6.8087 0.4529
# 3 2.9742 2.1956 77.8619 24.2812 8.0998 -6.0888
# 4 18.6199 -1.0369 24.2812 33.3244 -2.4281 -0.0562
# 5 -8.0745 6.8087 8.0998 -2.4281 47.1682 8.7868
# 6 26.2716 0.4529 -6.0888 -0.0562 8.7868 34.6167
#
#
#
# Elastic Compliance Matrix: (Units=1/GPa)
#
#
# Indices 1 2 3 4 5 6 
#
# 1 0.006908 0.000149 0.000314 -0.003950 0.001964 -0.005694
# 2 0.000149 0.012336 -0.000288 0.000387 -0.001706 0.000109
# 3 0.000314 -0.000288 0.017812 -0.013477 -0.004401 0.003994
# 4 -0.003950 0.000387 -0.013477 0.042325 0.003813 -0.000277
# 5 0.001964 -0.001706 -0.004401 0.003813 0.024301 -0.008405
# 6 -0.005694 0.000109 0.003994 -0.000277 -0.008405 0.036043
#
#
# Mechanical properties :
#
#
# Convention : Reuss Voigt Hill
#
# Bulk Modulus (GPa) = 26.73385 37.95648 32.34516
# Shear Modulus (GPa) = 32.92857 45.56646 39.24752
#
# Velocity S-wave (km/s) = 3.75675 4.41925 4.10140
# Velocity P-wave (km/s) = 5.50234 6.50445 6.02427
#
# Compressibility (1/GPa) = 0.03740576
#
# Stress axis : x y z
#
# Youngs Moduli (GPa) = 144.76910 81.06195 56.14086
#
# Poissons Ratio (x) = -0.01205 -0.01764
# Poissons Ratio (y) = -0.02152 0.01617
# Poissons Ratio (z) = -0.04549 0.02335
#
# Static dielectric constant tensor:
#      x y z
#    x 2.077120 0.025060 -0.011970 
#    y 0.025060 1.839190 -0.025740 
#    z -0.011970 -0.025740 1.911900 
# 
# From -- ./inp_files/97081.got.cif
#   From: 2010.05.17/outbox.cif.g08.bks.cpg/sg2_49_cif.got.tgz:97081.got - 2010.06.03 11:33:40.
