data_PCOD9070192
_publ_section_title
;
Structure prediction by ZEFSAII (Michael W. Deem and Ramdas Pophale) SiO2 
 PCOD9070192
Probable space group: P -1
;
_chemical_formula_sum "Si O2"
_cell_formula_units_Z 15
_cell_length_a 8.765539
_cell_length_b 9.245888
_cell_length_c 12.650574
_cell_angle_alpha 120.901668
_cell_angle_beta 109.489905
_cell_angle_gamma 104.709258
_cell_volume 705.460834
_symmetry_space_group_name_H-M "P -1"
_symmetry_group_IT_number 2
_symmetry_cell_setting 'triclinic'
loop_
_space_group_symop_operation_xyz
x,y,z
-x,-y,-z
loop_
_atom_site_type_symbol
_atom_site_label
_atom_site_fract_x
_atom_site_fract_y
_atom_site_fract_z
Si Si1 0.333821 0.940906 0.715315
Si Si2 0.575096 0.605468 0.444694
Si Si3 0.000000 0.000000 0.000000
Si Si4 0.437806 0.652545 0.011463
Si Si5 0.460693 0.221899 0.154889
Si Si6 0.020301 0.371962 0.864329
Si Si7 0.984749 0.954621 0.738655
Si Si8 0.336693 0.792288 0.430270
O O1 0.429475 0.871608 0.798599
O O2 0.302460 0.821281 0.555535
O O3 0.143895 0.932464 0.706781
O O4 0.487292 0.173885 0.819687
O O5 0.500000 0.500000 0.500000
O O6 0.572212 0.447626 0.306489
O O7 0.779555 0.804984 0.583219
O O8 0.419309 0.651629 0.387044
O O9 0.761228 0.894883 0.907918
O O10 0.983939 0.907320 0.843708
O O11 0.524775 0.760494 0.961450
O O12 0.212663 0.525471 0.906988
O O13 0.500000 0.500000 0.000000
O O14 0.848341 0.288653 0.712726
O O15 0.028363 0.181040 0.833560
O O16 0.000000 0.500000 0.000000
O O17 0.500000 0.000000 0.500000
#
# Coordination Sequence:
#
# PCOD9070192 Si02
#       8
#     2   2   1   2   2   2   2   2
#     4  12  27  49  72 110 151 192 246 309 378 438
#     4  12  26  48  72 107 148 191 249 298 366 445
#     4  12  24  46  74 104 144 194 244 292 384 418
#     4  12  27  48  73 111 147 193 246 310 373 437
#     4  12  28  47  77 109 152 196 244 315 364 449
#     4  12  29  47  75 110 145 195 253 308 373 445
#     4  12  27  47  74 108 150 194 245 312 371 447
#     4  12  27  47  75 104 147 199 243 306 371 443
#
# _framework density 21.262696999999999
#
# number of rings (size 3 to 8) (size 9 to 14) (size 15 to 20)
#    0.000    0.000    6.667    1.200    9.333    2.133 
#    0.000    0.000    0.000    0.000    0.000    0.000 
#    0.000    0.000    0.000    0.000    0.000    0.000 
#
# Total GULP energy -83673.126290 kJ/mol
# GULP energy per Si atom -5578.208419 kJ/mol
# Density = 2.121430 g / cm^3
# Si number density = 21.262697 Si / 1000 Ang^3
#
#
#
# Elastic Constant Matrix: (Units=GPa)
#
#
# Indices 1 2 3 4 5 6 
#
# 1 139.2340 50.3040 45.8812 7.4658 16.5777 -1.5112
# 2 50.3040 65.5834 10.1939 1.2495 -5.0414 -13.4705
# 3 45.8812 10.1939 119.8801 2.8157 3.0891 -4.9879
# 4 7.4658 1.2495 2.8157 36.2101 -3.3477 -0.9183
# 5 16.5777 -5.0414 3.0891 -3.3477 47.1319 11.6459
# 6 -1.5112 -13.4705 -4.9879 -0.9183 11.6459 41.2241
#
#
#
# Elastic Compliance Matrix: (Units=1/GPa)
#
#
# Indices 1 2 3 4 5 6 
#
# 1 0.012766 -0.009905 -0.003935 -0.002495 -0.005003 -0.001887
# 2 -0.009905 0.024214 0.001851 0.001640 0.004450 0.006553
# 3 -0.003935 0.001851 0.009735 0.000082 0.000585 0.001475
# 4 -0.002495 0.001640 0.000082 0.028352 0.003003 0.000238
# 5 -0.005003 0.004450 0.000585 0.003003 0.025027 -0.005662
# 6 -0.001887 0.006553 0.001475 0.000238 -0.005662 0.028113
#
#
# Mechanical properties :
#
#
# Convention : Reuss Voigt Hill
#
# Bulk Modulus (GPa) = 43.97923 59.71731 51.84827
# Shear Modulus (GPa) = 31.29651 39.46778 35.38214
#
# Velocity S-wave (km/s) = 3.84069 4.31304 4.08370
# Velocity P-wave (km/s) = 6.35583 7.27664 6.83177
#
# Compressibility (1/GPa) = 0.02273801
#
# Stress axis : x y z
#
# Youngs Moduli (GPa) = 78.33115 41.29823 102.72718
#
# Poissons Ratio (x) = 0.40906 0.40420
# Poissons Ratio (y) = 0.77588 -0.19018
# Poissons Ratio (z) = 0.30821 -0.07646
#
# Static dielectric constant tensor:
#      x y z
#    x 2.251040 -0.538520 0.002720 
#    y -0.538520 2.374140 -0.003060 
#    z 0.002720 -0.003060 1.775130 
# 
# From -- ./inp_files/155281.got.cif
#   From: 2010.05.17/outbox.cif.g08.bks.cpg/sg2_78_cif.got.tgz:155281.got - 2010.06.03 11:33:40.
