data_PCOD9070031
_publ_section_title
;
Structure prediction by ZEFSAII (Michael W. Deem and Ramdas Pophale) SiO2 
 PCOD9070031
Probable space group: P -1
;
_chemical_formula_sum "Si O2"
_cell_formula_units_Z 15
_cell_length_a 8.361066
_cell_length_b 14.400450
_cell_length_c 15.195882
_cell_angle_alpha 29.374148
_cell_angle_beta 53.115192
_cell_angle_gamma 71.629270
_cell_volume 608.777895
_symmetry_space_group_name_H-M "P -1"
_symmetry_group_IT_number 2
_symmetry_cell_setting 'triclinic'
loop_
_space_group_symop_operation_xyz
x,y,z
-x,-y,-z
loop_
_atom_site_type_symbol
_atom_site_label
_atom_site_fract_x
_atom_site_fract_y
_atom_site_fract_z
Si Si1 0.168146 0.756970 0.472354
Si Si2 0.103387 0.724768 0.722937
Si Si3 0.354317 0.029471 0.945100
Si Si4 0.138805 0.657117 0.200932
Si Si5 0.929154 0.853660 0.820051
Si Si6 0.422411 0.460296 0.357242
Si Si7 0.500000 0.500000 0.500000
Si Si8 0.341353 0.007462 0.687663
O O1 0.080309 0.561609 0.590490
O O2 0.071311 0.678189 0.667471
O O3 0.447893 0.866306 0.284046
O O4 0.114132 0.946905 0.310293
O O5 0.969495 0.835924 0.718124
O O6 0.383813 0.890095 0.507056
O O7 0.000000 0.500000 0.000000
O O8 0.314366 0.228186 0.813389
O O9 0.500000 0.000000 0.000000
O O10 0.139692 0.801280 0.165078
O O11 0.305990 0.574935 0.249486
O O12 0.250082 0.820565 0.946651
O O13 0.163330 0.903875 0.750699
O O14 0.702359 0.620141 0.116340
O O15 0.387951 0.453741 0.477602
O O16 0.329230 0.217366 0.551213
#
# Coordination Sequence:
#
# PCOD9070031 Si02
#       8
#     2   2   2   2   2   2   1   2
#     4  12  26  47  71 107 144 189 241 292 356 428
#     4  12  24  45  71 104 146 189 238 297 353 420
#     4  12  25  48  72 101 145 185 234 299 354 417
#     4  12  25  45  73 102 146 187 231 293 358 424
#     4  12  25  45  75 102 142 190 242 291 357 421
#     4  12  24  48  70 104 142 187 237 298 354 423
#     4  12  24  44  76 102 138 186 234 292 358 416
#     4  12  25  46  71 107 144 188 238 294 355 426
#
# _framework density 24.639527999999999
#
# number of rings (size 3 to 8) (size 9 to 14) (size 15 to 20)
#    0.000    0.000    8.000    1.600    1.867    0.533 
#    0.000    3.333    0.000    0.000    0.000    0.000 
#    0.000    0.000    0.000    0.000    0.000    0.000 
#
# Total GULP energy -83802.410079 kJ/mol
# GULP energy per Si atom -5586.827339 kJ/mol
# Density = 2.458345 g / cm^3
# Si number density = 24.639528 Si / 1000 Ang^3
#
#
#
# Elastic Constant Matrix: (Units=GPa)
#
#
# Indices 1 2 3 4 5 6 
#
# 1 67.8075 27.5088 40.8034 2.3313 7.8366 20.8590
# 2 27.5088 125.9366 33.5475 -11.9480 -3.1910 21.8199
# 3 40.8034 33.5475 115.1285 -20.0858 14.8579 8.7887
# 4 2.3313 -11.9480 -20.0858 41.1163 4.2314 3.9800
# 5 7.8366 -3.1910 14.8579 4.2314 49.2714 -2.0287
# 6 20.8590 21.8199 8.7887 3.9800 -2.0287 44.0058
#
#
#
# Elastic Compliance Matrix: (Units=1/GPa)
#
#
# Indices 1 2 3 4 5 6 
#
# 1 0.022902 -0.002098 -0.007527 -0.004668 -0.001435 -0.007956
# 2 -0.002098 0.009699 -0.001510 0.002448 0.001055 -0.003686
# 3 -0.007527 -0.001510 0.013360 0.006787 -0.003476 0.000875
# 4 -0.004668 0.002448 0.006787 0.029312 -0.003794 -0.003183
# 5 -0.001435 0.001055 -0.003476 -0.003794 0.022058 0.002211
# 6 -0.007956 -0.003686 0.000875 -0.003183 0.002211 0.028538
#
#
# Mechanical properties :
#
#
# Convention : Reuss Voigt Hill
#
# Bulk Modulus (GPa) = 42.21330 56.95468 49.58399
# Shear Modulus (GPa) = 32.04395 40.67956 36.36176
#
# Velocity S-wave (km/s) = 3.61017 4.06764 3.84572
# Velocity P-wave (km/s) = 5.87770 6.72505 6.31560
#
# Compressibility (1/GPa) = 0.02368922
#
# Stress axis : x y z
#
# Youngs Moduli (GPa) = 43.66394 103.10715 74.85116
#
# Poissons Ratio (x) = 0.21634 0.56342
# Poissons Ratio (y) = 0.09162 0.11305
# Poissons Ratio (z) = 0.32867 0.15572
#
# Static dielectric constant tensor:
#      x y z
#    x 1.664090 0.021980 0.007310 
#    y 0.021980 2.034380 -0.025450 
#    z 0.007310 -0.025450 1.938260 
# 
# From -- ./inp_files/503593.got.cif
#   From: 2010.05.17/outbox.cif.g08.bks.cpg/sg2_252_cif.got.tgz:503593.got - 2010.06.03 11:33:40.
