data_PCOD9070677
_publ_section_title
;
Structure prediction by ZEFSAII (Michael W. Deem and Ramdas Pophale) SiO2 
 PCOD9070677
Probable space group: P -1
;
_chemical_formula_sum "Si O2"
_cell_formula_units_Z 16
_cell_length_a 8.725512
_cell_length_b 15.899759
_cell_length_c 12.492318
_cell_angle_alpha 28.869810
_cell_angle_beta 80.682525
_cell_angle_gamma 70.397664
_cell_volume 754.413949
_symmetry_space_group_name_H-M "P -1"
_symmetry_group_IT_number 2
_symmetry_cell_setting 'triclinic'
loop_
_space_group_symop_operation_xyz
x,y,z
-x,-y,-z
loop_
_atom_site_type_symbol
_atom_site_label
_atom_site_fract_x
_atom_site_fract_y
_atom_site_fract_z
Si Si1 0.648459 0.291884 0.711869
Si Si2 0.486205 0.414291 0.982149
Si Si3 0.201590 0.986565 0.650396
Si Si4 0.425292 0.771257 0.444037
Si Si5 0.993695 0.711061 0.258428
Si Si6 0.291845 0.074503 0.776577
Si Si7 0.889008 0.877580 0.848032
Si Si8 0.847625 0.671019 0.884135
O O1 0.500000 0.500000 0.500000
O O2 0.667694 0.229420 0.655885
O O3 0.820976 0.292757 0.738183
O O4 0.603848 0.140652 0.953575
O O5 0.646932 0.217579 0.162018
O O6 0.316952 0.375551 0.040923
O O7 0.500000 0.500000 0.000000
O O8 0.473114 0.572902 0.719561
O O9 0.027689 0.957371 0.709478
O O10 0.234090 0.064228 0.674033
O O11 0.192420 0.137471 0.392773
O O12 0.592604 0.807609 0.361384
O O13 0.296094 0.948785 0.328785
O O14 0.000000 0.500000 0.500000
O O15 0.866869 0.836416 0.224928
O O16 0.928310 0.798290 0.052231
O O17 0.897723 0.712128 0.950718
O O18 0.000000 0.500000 0.000000
#
# Coordination Sequence:
#
# PCOD9070677 Si02
#       8
#     2   2   2   2   2   2   2   2
#     4  12  25  45  68 104 140 183 234 282 347 413
#     4  12  26  48  72 105 139 184 239 292 356 411
#     4  12  25  46  75 102 142 183 235 293 353 416
#     4  12  26  43  73 102 145 186 234 290 343 423
#     4  12  28  44  72 103 146 188 231 288 349 421
#     4  12  25  47  70 106 145 187 233 284 353 412
#     4  12  26  47  69 105 143 185 236 288 353 414
#     4  12  27  47  75 103 138 183 237 295 352 419
#
# _framework density 21.208514999999998
#
# number of rings (size 3 to 8) (size 9 to 14) (size 15 to 20)
#    0.000    0.000    2.500    7.500    7.000    0.000 
#    0.000    0.000    0.000    0.000    0.000    0.000 
#    0.000    0.000    0.000    0.000    0.000    0.000 
#
# Total GULP energy -89712.817087 kJ/mol
# GULP energy per Si atom -5607.051068 kJ/mol
# Density = 2.116024 g / cm^3
# Si number density = 21.208515 Si / 1000 Ang^3
#
#
#
# Elastic Constant Matrix: (Units=GPa)
#
#
# Indices 1 2 3 4 5 6 
#
# 1 87.2096 38.0548 69.5558 11.3214 -7.2220 -3.1571
# 2 38.0548 132.0308 25.5427 -1.5170 12.1369 12.5401
# 3 69.5558 25.5427 119.0161 6.9727 -16.3000 -6.7329
# 4 11.3214 -1.5170 6.9727 38.1233 -6.1417 8.5276
# 5 -7.2220 12.1369 -16.3000 -6.1417 37.6981 -2.4304
# 6 -3.1571 12.5401 -6.7329 8.5276 -2.4304 46.3737
#
#
#
# Elastic Compliance Matrix: (Units=1/GPa)
#
#
# Indices 1 2 3 4 5 6 
#
# 1 0.024756 -0.004889 -0.012975 -0.005669 -0.000078 0.002162
# 2 -0.004889 0.009733 -0.000101 0.002006 -0.004016 -0.003559
# 3 -0.012975 -0.000101 0.016721 0.001250 0.005084 0.001608
# 4 -0.005669 0.002006 0.001250 0.029637 0.003248 -0.006027
# 5 -0.000078 -0.004016 0.005084 0.003248 0.030715 0.002831
# 6 0.002162 -0.003559 0.001608 -0.006027 0.002831 0.024164
#
#
# Mechanical properties :
#
#
# Convention : Reuss Voigt Hill
#
# Bulk Modulus (GPa) = 65.44123 67.17367 66.30745
# Shear Modulus (GPa) = 28.28901 38.11257 33.20079
#
# Velocity S-wave (km/s) = 3.65616 4.24375 3.96086
# Velocity P-wave (km/s) = 6.98186 7.46688 7.22844
#
# Compressibility (1/GPa) = 0.01528089
#
# Stress axis : x y z
#
# Youngs Moduli (GPa) = 40.39392 102.74638 59.80569
#
# Poissons Ratio (x) = 0.50228 0.77599
# Poissons Ratio (y) = 0.19747 0.00602
# Poissons Ratio (z) = 0.52412 0.01035
#
# Static dielectric constant tensor:
#      x y z
#    x 1.720280 -0.003030 0.009250 
#    y -0.003030 1.783470 -0.002540 
#    z 0.009250 -0.002540 1.736490 
# 
# From -- ./inp_files/187047.got.cif
#   From: 2010.05.17/outbox.cif.g08.bks.cpg/sg2_94_cif.got.tgz:187047.got - 2010.06.03 11:33:40.
