data_PCOD9070757
_publ_section_title
;
Structure prediction by ZEFSAII (Michael W. Deem and Ramdas Pophale) SiO2 
 PCOD9070757
Probable space group: P -1
;
_chemical_formula_sum "Si O2"
_cell_formula_units_Z 12
_cell_length_a 15.984343
_cell_length_b 4.903215
_cell_length_c 7.025758
_cell_angle_alpha 73.210318
_cell_angle_beta 125.906552
_cell_angle_gamma 99.668759
_cell_volume 426.992306
_symmetry_space_group_name_H-M "P -1"
_symmetry_group_IT_number 2
_symmetry_cell_setting 'triclinic'
loop_
_space_group_symop_operation_xyz
x,y,z
-x,-y,-z
loop_
_atom_site_type_symbol
_atom_site_label
_atom_site_fract_x
_atom_site_fract_y
_atom_site_fract_z
Si Si1 0.711227 0.649213 0.594562
Si Si2 0.951088 0.756916 0.851406
Si Si3 0.619298 0.831191 0.080799
Si Si4 0.047595 0.746419 0.640018
Si Si5 0.720779 0.419497 0.049412
Si Si6 0.462288 0.704287 0.581110
O O1 0.827570 0.723473 0.681000
O O2 0.661083 0.335714 0.552945
O O3 0.708547 0.649814 0.818523
O O4 0.627474 0.820502 0.322256
O O5 0.967676 0.957422 0.609494
O O6 0.034308 0.546219 0.892942
O O7 0.000000 0.000000 0.000000
O O8 0.641522 0.157330 0.994179
O O9 0.710547 0.612720 0.183289
O O10 0.524719 0.698783 0.864168
O O11 0.000000 0.500000 0.500000
O O12 0.170120 0.731581 0.801614
O O13 0.500000 0.500000 0.500000
O O14 0.500000 0.000000 0.500000
#
# Coordination Sequence:
#
# PCOD9070757 Si02
#       6
#     2   2   2   2   2   2
#     4  12  27  49  80 105 157 196 248 314 378 440
#     4  12  27  45  70 108 145 194 249 297 373 442
#     4  12  27  49  75 116 144 196 255 302 379 457
#     4  12  25  46  71 103 147 196 250 307 361 444
#     4  12  26  47  77 107 154 195 247 310 373 440
#     4  12  25  49  77 108 147 195 246 312 382 444
#
# _framework density 28.103552000000001
#
# number of rings (size 3 to 8) (size 9 to 14) (size 15 to 20)
#    0.000    0.000    5.000    4.500    2.333    5.333 
#    0.000    3.333    0.000    0.000    0.000    0.000 
#    0.000    0.000    0.000    0.000    0.000    0.000 
#
# Total GULP energy -67038.487969 kJ/mol
# GULP energy per Si atom -5586.540664 kJ/mol
# Density = 2.803959 g / cm^3
# Si number density = 28.103552 Si / 1000 Ang^3
#
#
#
# Elastic Constant Matrix: (Units=GPa)
#
#
# Indices 1 2 3 4 5 6 
#
# 1 179.4396 72.9701 87.3438 15.2161 2.0372 23.7329
# 2 72.9701 202.5328 54.2862 8.4734 1.0327 18.7877
# 3 87.3438 54.2862 213.6774 3.4490 -8.1770 8.1332
# 4 15.2161 8.4734 3.4490 62.0318 14.5846 0.1128
# 5 2.0372 1.0327 -8.1770 14.5846 69.0378 -0.8421
# 6 23.7329 18.7877 8.1332 0.1128 -0.8421 50.8027
#
#
#
# Elastic Compliance Matrix: (Units=1/GPa)
#
#
# Indices 1 2 3 4 5 6 
#
# 1 0.008162 -0.001893 -0.002738 -0.001528 -0.000247 -0.002675
# 2 -0.001893 0.005927 -0.000684 -0.000289 -0.000067 -0.001198
# 3 -0.002738 -0.000684 0.005975 0.000255 0.000752 0.000587
# 4 -0.001528 -0.000289 0.000255 0.017361 -0.003580 0.000682
# 5 -0.000247 -0.000067 0.000752 -0.003580 0.015342 0.000282
# 6 -0.002675 -0.001198 0.000587 0.000682 0.000282 0.021286
#
#
# Mechanical properties :
#
#
# Convention : Reuss Voigt Hill
#
# Bulk Modulus (GPa) = 106.01592 113.87222 109.94407
# Shear Modulus (GPa) = 56.92923 61.77778 59.35350
#
# Velocity S-wave (km/s) = 4.50566 4.69360 4.60059
# Velocity P-wave (km/s) = 8.05438 8.36540 8.21137
#
# Compressibility (1/GPa) = 0.00943255
#
# Stress axis : x y z
#
# Youngs Moduli (GPa) = 122.52042 168.73191 167.35454
#
# Poissons Ratio (x) = 0.31947 0.45826
# Poissons Ratio (y) = 0.23197 0.11448
# Poissons Ratio (z) = 0.33549 0.11542
#
# Static dielectric constant tensor:
#      x y z
#    x 3.313800 1.249970 -1.445440 
#    y 1.249970 3.522650 -2.078510 
#    z -1.445440 -2.078510 5.865350 
# 
# From -- ./inp_files/114275.got.cif
#   From: 2010.05.17/outbox.cif.g08.bks.cpg/sg2_58_cif.got.tgz:114275.got - 2010.06.03 11:33:40.
