data_PCOD9070047
_publ_section_title
;
Structure prediction by ZEFSAII (Michael W. Deem and Ramdas Pophale) SiO2 
 PCOD9070047
Probable space group: P -1
;
_chemical_formula_sum "Si O2"
_cell_formula_units_Z 16
_cell_length_a 9.475760
_cell_length_b 12.373736
_cell_length_c 8.524975
_cell_angle_alpha 53.124233
_cell_angle_beta 62.695412
_cell_angle_gamma 80.919129
_cell_volume 700.730826
_symmetry_space_group_name_H-M "P -1"
_symmetry_group_IT_number 2
_symmetry_cell_setting 'triclinic'
loop_
_space_group_symop_operation_xyz
x,y,z
-x,-y,-z
loop_
_atom_site_type_symbol
_atom_site_label
_atom_site_fract_x
_atom_site_fract_y
_atom_site_fract_z
Si Si1 0.289076 0.672179 0.587127
Si Si2 0.126470 0.726718 0.917371
Si Si3 0.453380 0.060810 0.811450
Si Si4 0.728192 0.682063 0.597782
Si Si5 0.984287 0.446576 0.375038
Si Si6 0.891009 0.878914 0.075561
Si Si7 0.525339 0.210985 0.139783
Si Si8 0.484259 0.461291 0.729667
O O1 0.175405 0.738343 0.702971
O O2 0.448325 0.786487 0.395559
O O3 0.192450 0.633047 0.509731
O O4 0.328810 0.535220 0.772185
O O5 0.292830 0.745022 0.920262
O O6 0.023142 0.579820 0.133362
O O7 0.005944 0.828582 0.934507
O O8 0.269162 0.067761 0.933090
O O9 0.482925 0.948420 0.764120
O O10 0.500000 0.000000 0.000000
O O11 0.823122 0.762935 0.336066
O O12 0.607640 0.762088 0.686173
O O13 0.620955 0.549949 0.689209
O O14 0.874059 0.639391 0.658421
O O15 0.000000 0.500000 0.500000
O O16 0.000000 0.000000 0.000000
O O17 0.486352 0.308040 0.927330
O O18 0.500000 0.500000 0.500000
#
# Coordination Sequence:
#
# PCOD9070047 Si02
#       8
#     2   2   2   2   2   2   2   2
#     4  12  28  48  76 109 152 190 253 306 362 446
#     4  12  25  47  77 110 145 192 248 309 370 432
#     4  12  29  49  73 110 150 197 244 301 372 445
#     4  12  25  47  75 109 144 197 250 297 374 442
#     4  12  26  46  76 111 148 191 243 311 374 428
#     4  12  27  45  74 105 148 198 246 297 371 448
#     4  12  26  47  78 109 150 194 244 310 371 438
#     4  12  24  44  78 110 142 192 249 303 360 439
#
# _framework density 22.833303000000001
#
# number of rings (size 3 to 8) (size 9 to 14) (size 15 to 20)
#    0.000    0.000    6.250    3.000    5.250    2.000 
#    0.000    1.250    0.000    0.000    0.000    0.000 
#    0.000    0.000    0.000    0.000    0.000    0.000 
#
# Total GULP energy -89414.520377 kJ/mol
# GULP energy per Si atom -5588.407524 kJ/mol
# Density = 2.278133 g / cm^3
# Si number density = 22.833303 Si / 1000 Ang^3
#
#
#
# Elastic Constant Matrix: (Units=GPa)
#
#
# Indices 1 2 3 4 5 6 
#
# 1 156.6957 62.5570 22.9712 -3.2776 -18.2680 -8.3619
# 2 62.5570 109.8923 6.9509 18.0279 -13.6089 -21.7850
# 3 22.9712 6.9509 32.4696 21.2741 -10.6657 1.5585
# 4 -3.2776 18.0279 21.2741 42.3935 -7.0666 -5.7315
# 5 -18.2680 -13.6089 -10.6657 -7.0666 36.9317 4.8774
# 6 -8.3619 -21.7850 1.5585 -5.7315 4.8774 37.2656
#
#
#
# Elastic Compliance Matrix: (Units=1/GPa)
#
#
# Indices 1 2 3 4 5 6 
#
# 1 0.011748 -0.007423 -0.013676 0.011188 0.001210 0.000431
# 2 -0.007423 0.015828 0.009536 -0.011032 0.002115 0.005215
# 3 -0.013676 0.009536 0.066956 -0.038087 0.009780 -0.007432
# 4 0.011188 -0.011032 -0.038087 0.048824 -0.000886 0.005279
# 5 0.001210 0.002115 0.009780 -0.000886 0.031528 -0.003164
# 6 0.000431 0.005215 -0.007432 0.005279 -0.003164 0.031516
#
#
# Mechanical properties :
#
#
# Convention : Reuss Voigt Hill
#
# Bulk Modulus (GPa) = 14.00432 53.77954 33.89193
# Shear Modulus (GPa) = 19.73737 37.09007 28.41372
#
# Velocity S-wave (km/s) = 2.94328 4.03474 3.53143
# Velocity P-wave (km/s) = 4.20679 6.73125 5.61279
#
# Compressibility (1/GPa) = 0.07140653
#
# Stress axis : x y z
#
# Youngs Moduli (GPa) = 85.12068 63.18089 14.93523
#
# Poissons Ratio (x) = 0.46897 0.20425
# Poissons Ratio (y) = 0.63182 -0.14242
# Poissons Ratio (z) = 1.16408 -0.60248
#
# Static dielectric constant tensor:
#      x y z
#    x 1.655550 -0.086510 -0.237790 
#    y -0.086510 1.883920 -0.112920 
#    z -0.237790 -0.112920 1.490490 
# 
# From -- ./inp_files/184854.got.cif
#   From: 2010.05.17/outbox.cif.g08.bks.cpg/sg2_93_cif.got.tgz:184854.got - 2010.06.03 11:33:40.
