data_PCOD9070335
_publ_section_title
;
Structure prediction by ZEFSAII (Michael W. Deem and Ramdas Pophale) SiO2 
 PCOD9070335
Probable space group: P -1
;
_chemical_formula_sum "Si O2"
_cell_formula_units_Z 14
_cell_length_a 9.200312
_cell_length_b 22.372280
_cell_length_c 9.255691
_cell_angle_alpha 148.979801
_cell_angle_beta 44.724841
_cell_angle_gamma 133.546035
_cell_volume 673.840194
_symmetry_space_group_name_H-M "P -1"
_symmetry_group_IT_number 2
_symmetry_cell_setting 'triclinic'
loop_
_space_group_symop_operation_xyz
x,y,z
-x,-y,-z
loop_
_atom_site_type_symbol
_atom_site_label
_atom_site_fract_x
_atom_site_fract_y
_atom_site_fract_z
Si Si1 0.094977 0.383482 0.703002
Si Si2 0.593950 0.202731 0.109661
Si Si3 0.205545 0.002158 0.956857
Si Si4 0.293352 0.321313 0.133692
Si Si5 0.516217 0.454058 0.732654
Si Si6 0.674340 0.201016 0.710755
Si Si7 0.928518 0.103949 0.853653
O O1 0.194120 0.355908 0.424181
O O2 0.282781 0.409442 0.739208
O O3 0.904533 0.275962 0.658705
O O4 0.000000 0.500000 0.000000
O O5 0.621341 0.340498 0.416336
O O6 0.659260 0.192824 0.876713
O O7 0.733171 0.140540 0.987077
O O8 0.349282 0.133050 0.149185
O O9 0.348299 0.925889 0.612825
O O10 0.135572 0.941839 0.034522
O O11 0.000000 0.000000 0.000000
O O12 0.362929 0.437781 0.227880
O O13 0.496827 0.268104 0.918908
O O14 0.120588 0.218883 0.966852
O O15 0.500000 0.500000 0.000000
O O16 0.000000 0.000000 0.500000
#
# Coordination Sequence:
#
# PCOD9070335 Si02
#       7
#     2   2   2   2   2   2   2
#     4  12  24  47  75 105 144 195 247 292 354 435
#     4  12  27  46  71 109 152 187 239 307 368 429
#     4  12  25  48  79 106 142 194 251 297 369 440
#     4  12  26  50  73 110 145 195 250 290 364 443
#     4  12  29  45  73 111 151 191 240 302 368 434
#     4  12  24  47  78 106 143 190 246 304 359 437
#     4  12  28  47  74 108 151 189 241 310 369 431
#
# _framework density 20.776440999999998
#
# number of rings (size 3 to 8) (size 9 to 14) (size 15 to 20)
#    0.000    0.000    4.286    5.571    8.000    0.571 
#    0.000    0.000    0.000    0.000    0.000    0.000 
#    0.000    0.000    0.000    0.000    0.000    0.000 
#
# Total GULP energy -78467.721900 kJ/mol
# GULP energy per Si atom -5604.837279 kJ/mol
# Density = 2.072915 g / cm^3
# Si number density = 20.776441 Si / 1000 Ang^3
#
#
#
# Elastic Constant Matrix: (Units=GPa)
#
#
# Indices 1 2 3 4 5 6 
#
# 1 153.1046 67.1709 60.6176 -0.5554 -0.1830 -9.7340
# 2 67.1709 143.7371 39.5320 7.9243 2.0146 -0.3012
# 3 60.6176 39.5320 159.1162 7.1396 -4.4609 -10.1992
# 4 -0.5554 7.9243 7.1396 29.0458 4.5251 -0.2013
# 5 -0.1830 2.0146 -4.4609 4.5251 36.3231 8.9454
# 6 -9.7340 -0.3012 -10.1992 -0.2013 8.9454 38.9086
#
#
#
# Elastic Compliance Matrix: (Units=1/GPa)
#
#
# Indices 1 2 3 4 5 6 
#
# 1 0.009327 -0.003732 -0.002620 0.001971 -0.000757 0.001802
# 2 -0.003732 0.009047 -0.000791 -0.002343 -0.000063 -0.001069
# 3 -0.002620 -0.000791 0.007661 -0.001854 0.000926 0.001124
# 4 0.001971 -0.002343 -0.001854 0.036339 -0.004938 0.001312
# 5 -0.000757 -0.000063 0.000926 -0.004938 0.029948 -0.006858
# 6 0.001802 -0.001069 0.001124 0.001312 -0.006858 0.028022
#
#
# Mechanical properties :
#
#
# Convention : Reuss Voigt Hill
#
# Bulk Modulus (GPa) = 85.12416 87.84431 86.48424
# Shear Modulus (GPa) = 36.08890 40.09799 38.09344
#
# Velocity S-wave (km/s) = 4.17227 4.39791 4.28658
# Velocity P-wave (km/s) = 8.01691 8.25599 8.13733
#
# Compressibility (1/GPa) = 0.01174755
#
# Stress axis : x y z
#
# Youngs Moduli (GPa) = 107.21336 110.53786 130.53854
#
# Poissons Ratio (x) = 0.41257 0.34203
# Poissons Ratio (y) = 0.40017 0.10324
# Poissons Ratio (z) = 0.28092 0.08742
#
# Static dielectric constant tensor:
#      x y z
#    x 1.703880 0.009260 -0.006790 
#    y 0.009260 1.706880 0.038500 
#    z -0.006790 0.038500 1.729120 
# 
# From -- ./inp_files/25009.got.cif
#   From: 2010.05.17/outbox.cif.g08.bks.cpg/sg2_13_cif.got.tgz:25009.got - 2010.06.03 11:33:40.
