data_PCOD9070196
_publ_section_title
;
Structure prediction by ZEFSAII (Michael W. Deem and Ramdas Pophale) SiO2 
 PCOD9070196
Probable space group: P -1
;
_chemical_formula_sum "Si O2"
_cell_formula_units_Z 16
_cell_length_a 14.510114
_cell_length_b 9.200691
_cell_length_c 12.556755
_cell_angle_alpha 89.506768
_cell_angle_beta 150.484275
_cell_angle_gamma 78.124362
_cell_volume 744.446294
_symmetry_space_group_name_H-M "P -1"
_symmetry_group_IT_number 2
_symmetry_cell_setting 'triclinic'
loop_
_space_group_symop_operation_xyz
x,y,z
-x,-y,-z
loop_
_atom_site_type_symbol
_atom_site_label
_atom_site_fract_x
_atom_site_fract_y
_atom_site_fract_z
Si Si1 0.597518 0.832494 0.446102
Si Si2 0.055195 0.311360 0.029056
Si Si3 0.140771 0.302202 0.506590
Si Si4 0.727850 0.835788 0.966622
Si Si5 0.692080 0.518400 0.972537
Si Si6 0.066817 0.125919 0.620774
Si Si7 0.661414 0.358660 0.735518
Si Si8 0.671702 0.452825 0.263968
O O1 0.747446 0.793144 0.698694
O O2 0.742465 0.762790 0.487555
O O3 0.443892 0.748059 0.318004
O O4 0.459126 0.019968 0.281164
O O5 0.106324 0.264800 0.957065
O O6 0.000000 0.500000 0.000000
O O7 0.866470 0.269137 0.872142
O O8 0.220561 0.429060 0.626590
O O9 0.183465 0.173654 0.643778
O O10 0.891697 0.395863 0.239591
O O11 0.673180 0.697786 0.962759
O O12 0.805739 0.913257 0.140447
O O13 0.734433 0.447005 0.898152
O O14 0.469704 0.525355 0.775829
O O15 0.853148 0.277428 0.434867
O O16 0.000000 0.000000 0.500000
O O17 0.500000 0.500000 0.500000
O O18 0.500000 0.500000 0.000000
#
# Coordination Sequence:
#
# PCOD9070196 Si02
#       8
#     2   2   2   2   2   2   2   2
#     4  12  27  46  75 111 152 189 242 307 378 438
#     4  12  24  49  78 105 144 192 246 305 362 444
#     4  12  25  50  76 107 149 197 252 305 357 446
#     4  12  28  48  72 109 156 192 241 310 378 432
#     4  12  24  46  74 107 143 195 248 300 361 439
#     4  12  30  48  71 112 154 195 248 306 372 434
#     4  12  25  43  77 110 141 190 247 298 366 443
#     4  12  25  45  77 102 140 194 255 298 356 434
#
# _framework density 21.492483
#
# number of rings (size 3 to 8) (size 9 to 14) (size 15 to 20)
#    0.000    0.000    7.500    1.500    7.000    1.000 
#    0.000    0.000    0.000    0.000    0.000    0.000 
#    0.000    0.000    0.000    0.000    0.000    0.000 
#
# Total GULP energy -89463.399894 kJ/mol
# GULP energy per Si atom -5591.462493 kJ/mol
# Density = 2.144356 g / cm^3
# Si number density = 21.492483 Si / 1000 Ang^3
#
#
#
# Elastic Constant Matrix: (Units=GPa)
#
#
# Indices 1 2 3 4 5 6 
#
# 1 119.5761 31.2833 16.3239 10.2243 6.6297 10.6022
# 2 31.2833 67.1604 8.8976 2.6898 1.9968 -2.0420
# 3 16.3239 8.8976 92.9583 6.9820 -12.0334 4.1499
# 4 10.2243 2.6898 6.9820 34.0656 1.3115 -7.5787
# 5 6.6297 1.9968 -12.0334 1.3115 41.4868 8.8751
# 6 10.6022 -2.0420 4.1499 -7.5787 8.8751 13.5504
#
#
#
# Elastic Compliance Matrix: (Units=1/GPa)
#
#
# Indices 1 2 3 4 5 6 
#
# 1 0.011579 -0.005609 -0.000164 -0.006279 0.001663 -0.014456
# 2 -0.005609 0.018069 -0.001919 0.003356 -0.003122 0.011622
# 3 -0.000164 -0.001919 0.012661 -0.005087 0.006308 -0.011015
# 4 -0.006279 0.003356 -0.005087 0.040354 -0.009571 0.035815
# 5 0.001663 -0.003122 0.006308 -0.009571 0.032630 -0.030428
# 6 -0.014456 0.011622 -0.011015 0.035815 -0.030428 0.130194
#
#
# Mechanical properties :
#
#
# Convention : Reuss Voigt Hill
#
# Bulk Modulus (GPa) = 37.14410 43.63381 40.38896
# Shear Modulus (GPa) = 18.52904 32.69991 25.61448
#
# Velocity S-wave (km/s) = 2.93937 3.90482 3.45597
# Velocity P-wave (km/s) = 5.37026 6.37778 5.89559
#
# Compressibility (1/GPa) = 0.02692217
#
# Stress axis : x y z
#
# Youngs Moduli (GPa) = 86.36186 55.34460 78.98576
#
# Poissons Ratio (x) = 0.31045 0.01297
# Poissons Ratio (y) = 0.48443 0.15161
# Poissons Ratio (z) = 0.01419 0.10623
#
# Static dielectric constant tensor:
#      x y z
#    x 1.916820 -0.004380 -0.015640 
#    y -0.004380 1.772750 0.076820 
#    z -0.015640 0.076820 1.972870 
# 
# From -- ./inp_files/447559.got.cif
#   From: 2010.05.17/outbox.cif.g08.bks.cpg/sg2_224_cif.got.tgz:447559.got - 2010.06.03 11:33:40.
