data_PCOD9070829
_publ_section_title
;
Structure prediction by ZEFSAII (Michael W. Deem and Ramdas Pophale) SiO2 
 PCOD9070829
Probable space group: P -1
;
_chemical_formula_sum "Si O2"
_cell_formula_units_Z 14
_cell_length_a 13.651915
_cell_length_b 9.086832
_cell_length_c 5.208450
_cell_angle_alpha 81.373934
_cell_angle_beta 77.202700
_cell_angle_gamma 80.268747
_cell_volume 616.734193
_symmetry_space_group_name_H-M "P -1"
_symmetry_group_IT_number 2
_symmetry_cell_setting 'triclinic'
loop_
_space_group_symop_operation_xyz
x,y,z
-x,-y,-z
loop_
_atom_site_type_symbol
_atom_site_label
_atom_site_fract_x
_atom_site_fract_y
_atom_site_fract_z
Si Si1 0.718110 0.116383 0.278694
Si Si2 0.667380 0.823657 0.231508
Si Si3 0.453321 0.890605 0.253508
Si Si4 0.394939 0.614486 0.047995
Si Si5 0.955697 0.092239 0.255438
Si Si6 0.035373 0.404490 0.250493
Si Si7 0.268940 0.355036 0.259489
O O1 0.649663 0.054176 0.553986
O O2 0.659971 0.278632 0.177839
O O3 0.833408 0.117512 0.291752
O O4 0.711418 0.980433 0.116561
O O5 0.550380 0.846164 0.391004
O O6 0.727540 0.726482 0.445911
O O7 0.668495 0.736719 0.982927
O O8 0.425828 0.741191 0.180912
O O9 0.500000 0.000000 0.000000
O O10 0.500000 0.500000 0.000000
O O11 0.312648 0.512543 0.219918
O O12 0.991498 0.251320 0.254915
O O13 0.000000 0.000000 0.500000
O O14 0.000000 0.000000 0.000000
O O15 0.155743 0.373691 0.215378
O O16 0.000000 0.500000 0.500000
O O17 0.000000 0.500000 0.000000
#
# Coordination Sequence:
#
# PCOD9070829 Si02
#       7
#     2   2   2   2   2   2   2
#     4  12  28  45  79 106 152 201 252 310 380 441
#     4  12  25  47  71 105 146 198 244 302 366 450
#     4  12  26  46  73 107 153 195 253 301 375 449
#     4  12  27  45  72 110 152 195 247 306 370 459
#     4  12  28  51  80 116 151 198 266 324 376 450
#     4  12  26  48  75 107 152 196 249 319 390 450
#     4  12  27  46  74 106 148 194 250 303 379 445
#
# _framework density 22.700215
#
# number of rings (size 3 to 8) (size 9 to 14) (size 15 to 20)
#    0.000    0.000    2.857    6.429    6.000    1.143 
#    0.000    0.000    0.000    0.000    0.000    0.000 
#    0.000    0.000    0.000    0.000    0.000    0.000 
#
# Total GULP energy -78243.974922 kJ/mol
# GULP energy per Si atom -5588.855352 kJ/mol
# Density = 2.264855 g / cm^3
# Si number density = 22.700215 Si / 1000 Ang^3
#
#
#
# Elastic Constant Matrix: (Units=GPa)
#
#
# Indices 1 2 3 4 5 6 
#
# 1 218.8257 60.4587 40.6221 -7.9299 2.7529 15.5881
# 2 60.4587 177.5585 60.0170 -9.9360 3.9696 32.6966
# 3 40.6221 60.0170 113.2023 -2.1820 23.0113 -12.3377
# 4 -7.9299 -9.9360 -2.1820 45.3991 -7.6935 7.9043
# 5 2.7529 3.9696 23.0113 -7.6935 41.9019 -5.9681
# 6 15.5881 32.6966 -12.3377 7.9043 -5.9681 45.7787
#
#
#
# Elastic Compliance Matrix: (Units=1/GPa)
#
#
# Indices 1 2 3 4 5 6 
#
# 1 0.005284 -0.000830 -0.001760 0.001076 0.000642 -0.001783
# 2 -0.000830 0.009744 -0.006136 0.003529 0.001911 -0.008690
# 3 -0.001760 -0.006136 0.015019 -0.003633 -0.006972 0.008747
# 4 0.001076 0.003529 -0.003633 0.024987 0.005107 -0.007515
# 5 0.000642 0.001911 -0.006972 0.005107 0.028316 -0.000653
# 6 -0.001783 -0.008690 0.008747 -0.007515 -0.000653 0.032228
#
#
# Mechanical properties :
#
#
# Convention : Reuss Voigt Hill
#
# Bulk Modulus (GPa) = 79.39658 92.42023 85.90841
# Shear Modulus (GPa) = 36.43627 49.84852 43.14240
#
# Velocity S-wave (km/s) = 4.01073 4.69118 4.36423
# Velocity P-wave (km/s) = 7.51665 8.37524 7.95753
#
# Compressibility (1/GPa) = 0.01259500
#
# Stress axis : x y z
#
# Youngs Moduli (GPa) = 189.25727 102.63207 66.58327
#
# Poissons Ratio (x) = 0.08520 0.11718
# Poissons Ratio (y) = 0.15711 0.40852
# Poissons Ratio (z) = 0.33308 0.62970
#
# Static dielectric constant tensor:
#      x y z
#    x 1.844530 -0.093910 -0.018940 
#    y -0.093910 1.935740 0.135720 
#    z -0.018940 0.135720 1.955440 
# 
# From -- ./inp_files/60338.got.cif
#   From: 2010.05.17/outbox.cif.g08.bks.cpg/sg2_31_cif.got.tgz:60338.got - 2010.06.03 11:33:40.
