data_PCOD9070137
_publ_section_title
;
Structure prediction by ZEFSAII (Michael W. Deem and Ramdas Pophale) SiO2 
 PCOD9070137
Probable space group: P -1
;
_chemical_formula_sum "Si O2"
_cell_formula_units_Z 16
_cell_length_a 18.461626
_cell_length_b 8.541008
_cell_length_c 12.280030
_cell_angle_alpha 49.081429
_cell_angle_beta 29.365368
_cell_angle_gamma 45.537912
_cell_volume 672.180851
_symmetry_space_group_name_H-M "P -1"
_symmetry_group_IT_number 2
_symmetry_cell_setting 'triclinic'
loop_
_space_group_symop_operation_xyz
x,y,z
-x,-y,-z
loop_
_atom_site_type_symbol
_atom_site_label
_atom_site_fract_x
_atom_site_fract_y
_atom_site_fract_z
Si Si1 0.004831 0.309580 0.319678
Si Si2 0.268552 0.883127 0.884510
Si Si3 0.652881 0.931866 0.095620
Si Si4 0.377667 0.105810 0.208679
Si Si5 0.861595 0.414225 0.689301
Si Si6 0.803894 0.214568 0.430313
Si Si7 0.451876 0.405958 0.496222
Si Si8 0.009082 0.212615 0.957352
O O1 0.910482 0.307830 0.554649
O O2 0.916077 0.236453 0.370068
O O3 0.189274 0.151625 0.146953
O O4 0.000630 0.562238 0.192724
O O5 0.394619 0.757358 0.688380
O O6 0.341595 0.891125 0.903090
O O7 0.150010 0.756281 0.126707
O O8 0.172266 0.120424 0.852510
O O9 0.655462 0.726776 0.259969
O O10 0.488634 0.015930 0.208807
O O11 0.298239 0.370561 0.196729
O O12 0.237726 0.006650 0.424091
O O13 0.500000 0.000000 0.000000
O O14 0.000000 0.500000 0.500000
O O15 0.635080 0.410363 0.562233
O O16 0.876571 0.256756 0.202528
O O17 0.500000 0.500000 0.500000
O O18 0.000000 0.000000 0.000000
#
# Coordination Sequence:
#
# PCOD9070137 Si02
#       8
#     2   2   2   2   2   2   2   2
#     4  12  27  47  79 113 152 190 252 308 368 442
#     4  12  28  47  73 110 152 195 249 309 371 444
#     4  12  27  48  75 111 148 197 246 310 372 438
#     4  12  28  48  75 106 152 200 247 299 376 446
#     4  12  29  50  75 110 151 200 249 302 370 449
#     4  12  24  46  75 111 145 196 246 307 369 437
#     4  12  25  45  75 109 150 191 244 310 378 438
#     4  12  24  45  78 111 147 194 250 304 371 437
#
# _framework density 23.803118000000001
#
# number of rings (size 3 to 8) (size 9 to 14) (size 15 to 20)
#    0.000    0.000    3.750    6.000    7.000    1.000 
#    0.000    0.000    0.000    0.000    0.000    0.000 
#    0.000    0.000    0.000    0.000    0.000    0.000 
#
# Total GULP energy -89621.205537 kJ/mol
# GULP energy per Si atom -5601.325346 kJ/mol
# Density = 2.374894 g / cm^3
# Si number density = 23.803118 Si / 1000 Ang^3
#
#
#
# Elastic Constant Matrix: (Units=GPa)
#
#
# Indices 1 2 3 4 5 6 
#
# 1 110.7958 29.0350 7.7365 3.9746 -14.0436 10.2050
# 2 29.0350 94.8901 35.6102 9.2576 5.5782 -2.2106
# 3 7.7365 35.6102 80.1649 27.1465 12.5682 8.1428
# 4 3.9746 9.2576 27.1465 36.7819 8.2694 2.7659
# 5 -14.0436 5.5782 12.5682 8.2694 39.6940 -2.3021
# 6 10.2050 -2.2106 8.1428 2.7659 -2.3021 31.3278
#
#
#
# Elastic Compliance Matrix: (Units=1/GPa)
#
#
# Indices 1 2 3 4 5 6 
#
# 1 0.010895 -0.003847 0.000882 -0.001540 0.004228 -0.003603
# 2 -0.003847 0.014233 -0.006734 0.001836 -0.001394 0.003743
# 3 0.000882 -0.006734 0.020633 -0.012569 -0.002959 -0.005233
# 4 -0.001540 0.001836 -0.012569 0.037170 -0.004550 0.000282
# 5 0.004228 -0.001394 -0.002959 -0.004550 0.028875 0.001817
# 6 -0.003603 0.003743 -0.005233 0.000282 0.001817 0.034827
#
#
# Mechanical properties :
#
#
# Convention : Reuss Voigt Hill
#
# Bulk Modulus (GPa) = 37.93401 47.84603 42.89002
# Shear Modulus (GPa) = 28.60101 35.79202 32.19651
#
# Velocity S-wave (km/s) = 3.47012 3.88192 3.68178
# Velocity P-wave (km/s) = 5.65922 6.34325 6.01098
#
# Compressibility (1/GPa) = 0.02636157
#
# Stress axis : x y z
#
# Youngs Moduli (GPa) = 91.78387 70.25913 48.46713
#
# Poissons Ratio (x) = 0.27029 -0.04274
# Poissons Ratio (y) = 0.35309 0.32640
# Poissons Ratio (z) = -0.08095 0.47316
#
# Static dielectric constant tensor:
#      x y z
#    x 2.011370 0.127270 -0.063590 
#    y 0.127270 2.279270 -0.063460 
#    z -0.063590 -0.063460 1.896970 
# 
# From -- ./inp_files/208251.got.cif
#   From: 2010.05.17/outbox.cif.g08.bks.cpg/sg2_105_cif.got.tgz:208251.got - 2010.06.03 11:33:40.
