data_PCOD9070447
_publ_section_title
;
Structure prediction by ZEFSAII (Michael W. Deem and Ramdas Pophale) SiO2 
 PCOD9070447
Probable space group: P -1
;
_chemical_formula_sum "Si O2"
_cell_formula_units_Z 11
_cell_length_a 12.656920
_cell_length_b 9.163404
_cell_length_c 9.509145
_cell_angle_alpha 67.228308
_cell_angle_beta 43.498402
_cell_angle_gamma 40.372088
_cell_volume 456.569050
_symmetry_space_group_name_H-M "P -1"
_symmetry_group_IT_number 2
_symmetry_cell_setting 'triclinic'
loop_
_space_group_symop_operation_xyz
x,y,z
-x,-y,-z
loop_
_atom_site_type_symbol
_atom_site_label
_atom_site_fract_x
_atom_site_fract_y
_atom_site_fract_z
Si Si1 0.500000 0.500000 0.000000
Si Si2 0.880854 0.435271 0.197209
Si Si3 0.519538 0.785512 0.662286
Si Si4 0.159925 0.226221 0.485306
Si Si5 0.811881 0.013816 0.719261
Si Si6 0.002479 0.812274 0.078993
O O1 0.530197 0.613453 0.803346
O O2 0.593298 0.284190 0.885676
O O3 0.672579 0.635420 0.430674
O O4 0.066940 0.185355 0.200590
O O5 0.000000 0.500000 0.000000
O O6 0.812286 0.398187 0.133523
O O7 0.625093 0.852972 0.618100
O O8 0.254777 0.033448 0.784960
O O9 0.997664 0.246092 0.738946
O O10 0.000000 0.500000 0.500000
O O11 0.229869 0.067928 0.342731
O O12 0.000000 0.000000 0.500000
O O13 0.000000 0.000000 0.000000
#
# Coordination Sequence:
#
# PCOD9070447 Si02
#       6
#     1   2   2   2   2   2
#     4  12  26  46  78 108 158 202 260 312 386 450
#     4  12  24  48  78 108 157 198 253 323 383 458
#     4  12  27  48  77 114 155 205 260 312 398 460
#     4  12  25  48  80 113 154 203 261 316 384 466
#     4  12  24  48  75 112 154 202 256 316 377 465
#     4  12  28  48  75 113 156 201 255 325 388 458
#
# _framework density 24.092741
#
# number of rings (size 3 to 8) (size 9 to 14) (size 15 to 20)
#    0.000    0.000    7.273    1.636    2.545    1.455 
#    0.000    0.000    0.000    0.000    0.000    0.000 
#    0.000    0.000    0.000    0.000    0.000    0.000 
#
# Total GULP energy -61381.685408 kJ/mol
# GULP energy per Si atom -5580.153219 kJ/mol
# Density = 2.403791 g / cm^3
# Si number density = 24.092741 Si / 1000 Ang^3
#
#
#
# Elastic Constant Matrix: (Units=GPa)
#
#
# Indices 1 2 3 4 5 6 
#
# 1 81.9729 35.7901 26.2279 26.0387 37.9812 31.1989
# 2 35.7901 141.1644 58.4546 -30.9865 23.4808 32.5705
# 3 26.2279 58.4546 145.3200 -22.1928 51.8434 18.3590
# 4 26.0387 -30.9865 -22.1928 69.3741 14.1982 6.7037
# 5 37.9812 23.4808 51.8434 14.1982 53.8893 13.4413
# 6 31.1989 32.5705 18.3590 6.7037 13.4413 46.6873
#
#
#
# Elastic Compliance Matrix: (Units=1/GPa)
#
#
# Indices 1 2 3 4 5 6 
#
# 1 0.026182 -0.004452 0.002408 -0.007112 -0.014421 -0.010164
# 2 -0.004452 0.011932 -0.002031 0.006995 -0.000608 -0.005379
# 3 0.002408 -0.002031 0.013848 0.005928 -0.015167 -0.002122
# 4 -0.007112 0.006995 0.005928 0.024331 -0.009335 -0.003265
# 5 -0.014421 -0.000608 -0.015167 -0.009335 0.044931 0.004430
# 6 -0.010164 -0.005379 -0.002122 -0.003265 0.004430 0.031992
#
#
# Mechanical properties :
#
#
# Convention : Reuss Voigt Hill
#
# Bulk Modulus (GPa) = 22.82544 67.71139 45.26842
# Shear Modulus (GPa) = 28.41405 50.52246 39.46826
#
# Velocity S-wave (km/s) = 3.43791 4.58427 4.05184
# Velocity P-wave (km/s) = 5.02529 7.49574 6.38121
#
# Compressibility (1/GPa) = 0.04381077
#
# Stress axis : x y z
#
# Youngs Moduli (GPa) = 38.19457 83.81154 72.21176
#
# Poissons Ratio (x) = 0.37317 -0.17390
# Poissons Ratio (y) = 0.17006 0.14667
# Poissons Ratio (z) = -0.09198 0.17023
#
# Static dielectric constant tensor:
#      x y z
#    x 4.140090 1.085190 0.037110 
#    y 1.085190 2.667400 -0.005910 
#    z 0.037110 -0.005910 1.907900 
# 
# From -- ./inp_files/149832.got.cif
#   From: 2010.05.17/outbox.cif.g08.bks.cpg/sg2_75_cif.got.tgz:149832.got - 2010.06.03 11:33:40.
