data_PCOD9070280
_publ_section_title
;
Structure prediction by ZEFSAII (Michael W. Deem and Ramdas Pophale) SiO2 
 PCOD9070280
Probable space group: P -1
;
_chemical_formula_sum "Si O2"
_cell_formula_units_Z 14
_cell_length_a 15.737377
_cell_length_b 10.604246
_cell_length_c 4.985667
_cell_angle_alpha 78.755779
_cell_angle_beta 63.119254
_cell_angle_gamma 44.237941
_cell_volume 506.497240
_symmetry_space_group_name_H-M "P -1"
_symmetry_group_IT_number 2
_symmetry_cell_setting 'triclinic'
loop_
_space_group_symop_operation_xyz
x,y,z
-x,-y,-z
loop_
_atom_site_type_symbol
_atom_site_label
_atom_site_fract_x
_atom_site_fract_y
_atom_site_fract_z
Si Si1 0.784443 0.949742 0.150167
Si Si2 0.414843 0.460703 0.239672
Si Si3 0.717594 0.739918 0.187594
Si Si4 0.152237 0.837743 0.238740
Si Si5 0.928636 0.500308 0.354364
Si Si6 0.502355 0.220607 0.717239
Si Si7 0.926530 0.317928 0.845383
O O1 0.662910 0.063107 0.493609
O O2 0.930028 0.807551 0.155364
O O3 0.783177 0.086189 0.943421
O O4 0.755457 0.853036 0.041579
O O5 0.259345 0.653872 0.338400
O O6 0.446543 0.384898 0.525093
O O7 0.500000 0.500000 0.000000
O O8 0.458712 0.302717 0.042531
O O9 0.569754 0.840503 0.257897
O O10 0.768275 0.678717 0.451829
O O11 0.000000 0.500000 0.000000
O O12 0.812741 0.530512 0.020393
O O13 0.129879 0.770796 0.035668
O O14 0.000000 0.000000 0.500000
O O15 0.948421 0.335833 0.492329
O O16 0.000000 0.500000 0.500000
#
# Coordination Sequence:
#
# PCOD9070280 Si02
#       7
#     2   2   2   2   2   2   2
#     4  12  28  52  79 124 171 211 282 341 411 489
#     4  12  27  56  87 113 170 223 273 332 429 485
#     4  12  26  52  84 118 165 219 274 337 414 487
#     4  12  30  48  85 127 164 212 280 349 409 491
#     4  12  24  46  80 115 155 219 264 333 411 483
#     4  12  29  53  85 121 161 228 273 339 404 507
#     4  12  27  50  82 118 166 218 271 345 416 487
#
# _framework density 27.640819
#
# number of rings (size 3 to 8) (size 9 to 14) (size 15 to 20)
#    0.000    0.000    5.714    2.571    8.000    0.000 
#    2.571    1.429    0.000    0.000    0.000    0.000 
#    0.000    0.000    0.000    0.000    0.000    0.000 
#
# Total GULP energy -78417.413802 kJ/mol
# GULP energy per Si atom -5601.243843 kJ/mol
# Density = 2.757791 g / cm^3
# Si number density = 27.640819 Si / 1000 Ang^3
#
#
#
# Elastic Constant Matrix: (Units=GPa)
#
#
# Indices 1 2 3 4 5 6 
#
# 1 165.0089 31.7061 30.1446 -0.6071 -21.9411 31.2754
# 2 31.7061 113.5076 29.3875 20.0448 10.1140 12.0190
# 3 30.1446 29.3875 103.4227 13.5163 0.4815 0.5609
# 4 -0.6071 20.0448 13.5163 48.1751 -2.9823 -3.6760
# 5 -21.9411 10.1140 0.4815 -2.9823 39.5724 -6.7643
# 6 31.2754 12.0190 0.5609 -3.6760 -6.7643 62.0700
#
#
#
# Elastic Compliance Matrix: (Units=1/GPa)
#
#
# Indices 1 2 3 4 5 6 
#
# 1 0.008010 -0.002103 -0.001949 0.001577 0.004606 -0.003016
# 2 -0.002103 0.011349 -0.001974 -0.004632 -0.004718 -0.001909
# 3 -0.001949 -0.001974 0.011093 -0.002279 -0.000703 0.001052
# 4 0.001577 -0.004632 -0.002279 0.023757 0.004217 0.001989
# 5 0.004606 -0.004718 -0.000703 0.004217 0.029713 0.002087
# 6 -0.003016 -0.001909 0.001052 0.001989 0.002087 0.018336
#
#
# Mechanical properties :
#
#
# Convention : Reuss Voigt Hill
#
# Bulk Modulus (GPa) = 54.34258 62.71283 58.52770
# Shear Modulus (GPa) = 41.51351 49.34355 45.42853
#
# Velocity S-wave (km/s) = 3.87963 4.22971 4.05845
# Velocity P-wave (km/s) = 6.30648 6.82581 6.57128
#
# Compressibility (1/GPa) = 0.01840178
#
# Stress axis : x y z
#
# Youngs Moduli (GPa) = 124.84217 88.11357 90.14419
#
# Poissons Ratio (x) = 0.18527 0.17565
# Poissons Ratio (y) = 0.26249 0.17797
# Poissons Ratio (z) = 0.24326 0.17396
#
# Static dielectric constant tensor:
#      x y z
#    x 2.256910 0.047980 0.037500 
#    y 0.047980 2.213340 0.051760 
#    z 0.037500 0.051760 2.322190 
# 
# From -- ./inp_files/94871.got.cif
#   From: 2010.05.17/outbox.cif.g08.bks.cpg/sg2_48_cif.got.tgz:94871.got - 2010.06.03 11:33:40.
