data_PCOD9070250
_publ_section_title
;
Structure prediction by ZEFSAII (Michael W. Deem and Ramdas Pophale) SiO2 
 PCOD9070250
Probable space group: P -1
;
_chemical_formula_sum "Si O2"
_cell_formula_units_Z 15
_cell_length_a 11.739569
_cell_length_b 12.512359
_cell_length_c 5.622120
_cell_angle_alpha 112.551688
_cell_angle_beta 78.416084
_cell_angle_gamma 127.959382
_cell_volume 600.636464
_symmetry_space_group_name_H-M "P -1"
_symmetry_group_IT_number 2
_symmetry_cell_setting 'triclinic'
loop_
_space_group_symop_operation_xyz
x,y,z
-x,-y,-z
loop_
_atom_site_type_symbol
_atom_site_label
_atom_site_fract_x
_atom_site_fract_y
_atom_site_fract_z
Si Si1 0.870026 0.612970 0.484609
Si Si2 0.000000 0.500000 0.000000
Si Si3 0.481684 0.920778 0.687739
Si Si4 0.447452 0.348340 0.004273
Si Si5 0.947075 0.099151 0.063321
Si Si6 0.710828 0.365788 0.702880
Si Si7 0.824959 0.766053 0.285865
Si Si8 0.694894 0.866985 0.737730
O O1 0.775207 0.512697 0.656510
O O2 0.776720 0.626605 0.339521
O O3 0.989441 0.775606 0.664198
O O4 0.946515 0.549909 0.282452
O O5 0.832214 0.402179 0.871238
O O6 0.333104 0.760849 0.574143
O O7 0.607895 0.899945 0.635181
O O8 0.500000 0.000000 0.500000
O O9 0.500000 0.000000 0.000000
O O10 0.562896 0.321245 0.849369
O O11 0.285812 0.255983 0.884576
O O12 0.500000 0.500000 0.000000
O O13 0.413052 0.292682 0.242973
O O14 0.026637 0.182916 0.856590
O O15 0.775931 0.992587 0.008248
O O16 0.000000 0.000000 0.000000
O O17 0.820610 0.871465 0.555057
#
# Coordination Sequence:
#
# PCOD9070250 Si02
#       8
#     2   1   2   2   2   2   2   2
#     4  12  28  50  80 120 160 220 277 353 420 517
#     4  12  30  52  82 110 162 228 280 346 418 500
#     4  12  31  54  84 119 167 229 291 357 432 513
#     4  12  25  45  79 118 165 213 270 345 427 515
#     4  12  25  47  76 119 168 210 279 339 429 509
#     4  12  29  54  81 118 165 213 294 341 432 513
#     4  12  24  46  77 119 158 213 269 346 430 499
#     4  12  27  48  79 118 165 219 274 354 431 506
#
# _framework density 24.973507999999999
#
# number of rings (size 3 to 8) (size 9 to 14) (size 15 to 20)
#    0.000    0.000    4.000    4.800    7.467    3.200 
#    0.000    0.000    0.000    0.000    0.000    0.000 
#    0.000    0.000    0.000    0.000    0.000    0.000 
#
# Total GULP energy -83639.868442 kJ/mol
# GULP energy per Si atom -5575.991229 kJ/mol
# Density = 2.491667 g / cm^3
# Si number density = 24.973508 Si / 1000 Ang^3
#
#
#
# Elastic Constant Matrix: (Units=GPa)
#
#
# Indices 1 2 3 4 5 6 
#
# 1 98.1869 22.3579 29.3688 -7.5061 14.9376 13.8889
# 2 22.3579 97.8815 35.5049 0.8533 23.3457 -3.0780
# 3 29.3688 35.5049 115.5879 8.2471 -0.1550 -0.3080
# 4 -7.5061 0.8533 8.2471 38.8908 7.4084 10.4293
# 5 14.9376 23.3457 -0.1550 7.4084 47.3245 -7.5103
# 6 13.8889 -3.0780 -0.3080 10.4293 -7.5103 22.9202
#
#
#
# Elastic Compliance Matrix: (Units=1/GPa)
#
#
# Indices 1 2 3 4 5 6 
#
# 1 0.016722 -0.000347 -0.004999 0.011131 -0.009805 -0.018524
# 2 -0.000347 0.013462 -0.004222 0.002266 -0.007123 -0.001403
# 3 -0.004999 -0.004222 0.011710 -0.006495 0.005907 0.007510
# 4 0.011131 0.002266 -0.006495 0.040219 -0.015705 -0.029974
# 5 -0.009805 -0.007123 0.005907 -0.015705 0.033919 0.023325
# 6 -0.018524 -0.001403 0.007510 -0.029974 0.023325 0.076049
#
#
# Mechanical properties :
#
#
# Convention : Reuss Voigt Hill
#
# Bulk Modulus (GPa) = 43.94073 54.01328 48.97701
# Shear Modulus (GPa) = 22.85171 36.78876 29.82023
#
# Velocity S-wave (km/s) = 3.02824 3.84228 3.45929
# Velocity P-wave (km/s) = 5.46444 6.43112 5.96739
#
# Compressibility (1/GPa) = 0.02275793
#
# Stress axis : x y z
#
# Youngs Moduli (GPa) = 59.80203 74.28263 85.39972
#
# Poissons Ratio (x) = 0.02580 0.42689
# Poissons Ratio (y) = 0.02077 0.36055
# Poissons Ratio (z) = 0.29893 0.31361
#
# Static dielectric constant tensor:
#      x y z
#    x 1.915240 -0.002460 0.020990 
#    y -0.002460 2.069870 0.007630 
#    z 0.020990 0.007630 2.053200 
# 
# From -- ./inp_files/71812.got.cif
#   From: 2010.05.17/outbox.cif.g08.bks.cpg/sg2_36_cif.got.tgz:71812.got - 2010.06.03 11:33:40.
