data_PCOD9070123
_publ_section_title
;
Structure prediction by ZEFSAII (Michael W. Deem and Ramdas Pophale) SiO2 
 PCOD9070123
Probable space group: P -1
;
_chemical_formula_sum "Si O2"
_cell_formula_units_Z 14
_cell_length_a 15.204040
_cell_length_b 22.840565
_cell_length_c 14.512069
_cell_angle_alpha 19.713339
_cell_angle_beta 30.774877
_cell_angle_gamma 21.605684
_cell_volume 620.683169
_symmetry_space_group_name_H-M "P -1"
_symmetry_group_IT_number 2
_symmetry_cell_setting 'triclinic'
loop_
_space_group_symop_operation_xyz
x,y,z
-x,-y,-z
loop_
_atom_site_type_symbol
_atom_site_label
_atom_site_fract_x
_atom_site_fract_y
_atom_site_fract_z
Si Si1 0.631922 0.677926 0.428057
Si Si2 0.887000 0.130753 0.007516
Si Si3 0.496303 0.896978 0.560417
Si Si4 0.370443 0.119753 0.143114
Si Si5 0.018262 0.560775 0.135877
Si Si6 0.303959 0.777389 0.297277
Si Si7 0.204220 0.775926 0.585217
O O1 0.800149 0.390139 0.719058
O O2 0.481446 0.870930 0.360459
O O3 0.785134 0.718459 0.178487
O O4 0.440031 0.721226 0.470150
O O5 0.669905 0.154358 0.195248
O O6 0.000000 0.000000 0.000000
O O7 0.111148 0.939063 0.153867
O O8 0.378365 0.072040 0.316703
O O9 0.787012 0.672214 0.625962
O O10 0.500000 0.000000 0.500000
O O11 0.127165 0.354368 0.958735
O O12 0.558260 0.142012 0.928133
O O13 0.199322 0.585089 0.907629
O O14 0.500000 0.500000 0.500000
O O15 0.159572 0.813588 0.462277
O O16 0.000000 0.000000 0.500000
#
# Coordination Sequence:
#
# PCOD9070123 Si02
#       7
#     2   2   2   2   2   2   2
#     4  12  25  49  77 112 156 195 253 319 383 460
#     4  12  27  51  75 109 156 198 253 322 384 457
#     4  12  29  48  74 112 151 202 259 314 381 461
#     4  12  27  48  77 113 151 201 254 315 386 451
#     4  12  25  47  77 110 153 197 253 311 384 459
#     4  12  28  48  77 111 154 204 258 316 390 464
#     4  12  24  45  76 112 151 197 252 313 385 455
#
# _framework density 22.555792
#
# number of rings (size 3 to 8) (size 9 to 14) (size 15 to 20)
#    0.000    0.000    4.286    5.571    4.000    4.571 
#    0.000    0.000    0.000    0.000    0.000    0.000 
#    0.000    0.000    0.000    0.000    0.000    0.000 
#
# Total GULP energy -77959.290983 kJ/mol
# GULP energy per Si atom -5568.520784 kJ/mol
# Density = 2.250445 g / cm^3
# Si number density = 22.555792 Si / 1000 Ang^3
#
#
#
# Elastic Constant Matrix: (Units=GPa)
#
#
# Indices 1 2 3 4 5 6 
#
# 1 97.6841 26.6825 28.7754 -19.4308 11.9797 -9.6274
# 2 26.6825 97.1312 23.7186 -1.0385 12.9027 -27.1523
# 3 28.7754 23.7186 79.4178 3.9698 3.3636 -3.0543
# 4 -19.4308 -1.0385 3.9698 47.7511 -12.4526 10.5177
# 5 11.9797 12.9027 3.3636 -12.4526 38.7239 4.6040
# 6 -9.6274 -27.1523 -3.0543 10.5177 4.6040 49.2881
#
#
#
# Elastic Compliance Matrix: (Units=1/GPa)
#
#
# Indices 1 2 3 4 5 6 
#
# 1 0.013411 -0.002408 -0.004363 0.005459 -0.001209 -0.000029
# 2 -0.002408 0.014980 -0.002776 -0.004093 -0.006401 0.009081
# 3 -0.004363 -0.002776 0.015106 -0.002868 0.000141 -0.000847
# 4 0.005459 -0.004093 -0.002868 0.027670 0.009795 -0.008186
# 5 -0.001209 -0.006401 0.000141 0.009795 0.032524 -0.008882
# 6 -0.000029 0.009081 -0.000847 -0.008186 -0.008882 0.027810
#
#
# Mechanical properties :
#
#
# Convention : Reuss Voigt Hill
#
# Bulk Modulus (GPa) = 40.97865 48.06513 44.52189
# Shear Modulus (GPa) = 31.49988 40.15641 35.82815
#
# Velocity S-wave (km/s) = 3.74107 4.22396 3.98983
# Velocity P-wave (km/s) = 6.07190 6.71899 6.40362
#
# Compressibility (1/GPa) = 0.02440295
#
# Stress axis : x y z
#
# Youngs Moduli (GPa) = 74.56437 66.75600 66.19673
#
# Poissons Ratio (x) = 0.16075 0.28881
# Poissons Ratio (y) = 0.17955 0.18379
# Poissons Ratio (z) = 0.32532 0.18534
#
# Static dielectric constant tensor:
#      x y z
#    x 1.821990 0.042760 -0.047550 
#    y 0.042760 2.140340 -0.235380 
#    z -0.047550 -0.235380 1.860520 
# 
# From -- ./inp_files/425594.got.cif
#   From: 2010.05.17/outbox.cif.g08.bks.cpg/sg2_213_cif.got.tgz:425594.got - 2010.06.03 11:33:40.
