data_PCOD9070183
_publ_section_title
;
Structure prediction by ZEFSAII (Michael W. Deem and Ramdas Pophale) SiO2 
 PCOD9070183
Probable space group: P -1
;
_chemical_formula_sum "Si O2"
_cell_formula_units_Z 14
_cell_length_a 18.649517
_cell_length_b 9.062216
_cell_length_c 11.453702
_cell_angle_alpha 52.132185
_cell_angle_beta 28.896479
_cell_angle_gamma 39.127100
_cell_volume 576.579710
_symmetry_space_group_name_H-M "P -1"
_symmetry_group_IT_number 2
_symmetry_cell_setting 'triclinic'
loop_
_space_group_symop_operation_xyz
x,y,z
-x,-y,-z
loop_
_atom_site_type_symbol
_atom_site_label
_atom_site_fract_x
_atom_site_fract_y
_atom_site_fract_z
Si Si1 0.931587 0.841474 0.149123
Si Si2 0.607542 0.774285 0.004105
Si Si3 0.278629 0.036758 0.842904
Si Si4 0.102257 0.262902 0.496604
Si Si5 0.463911 0.493140 0.293888
Si Si6 0.052348 0.921259 0.595691
Si Si7 0.666268 0.639351 0.254675
O O1 0.768728 0.949029 0.232916
O O2 0.867414 0.800445 0.380327
O O3 0.115624 0.591507 0.959950
O O4 0.000000 0.000000 0.000000
O O5 0.576743 0.596113 0.078878
O O6 0.603751 0.758618 0.157854
O O7 0.359652 0.049306 0.197885
O O8 0.868628 0.564858 0.705264
O O9 0.342510 0.185783 0.724790
O O10 0.425093 0.760526 0.802334
O O11 0.083997 0.131232 0.136264
O O12 0.035566 0.128021 0.591177
O O13 0.263775 0.682985 0.427502
O O14 0.432113 0.457808 0.492162
O O15 0.000000 0.000000 0.500000
#
# Coordination Sequence:
#
# PCOD9070183 Si02
#       7
#     2   2   2   2   2   2   2
#     4  12  24  46  77 106 146 195 251 301 363 444
#     4  12  26  46  72 108 150 191 248 307 369 437
#     4  12  27  48  76 112 147 197 251 302 375 439
#     4  12  24  46  73 110 142 194 249 301 368 437
#     4  12  27  50  75 109 149 199 248 306 369 443
#     4  12  27  49  75 109 154 190 242 311 375 439
#     4  12  26  50  75 108 152 198 248 308 371 440
#
# _framework density 24.281116999999998
#
# number of rings (size 3 to 8) (size 9 to 14) (size 15 to 20)
#    0.000    0.000    5.714    3.857    2.000    0.571 
#    2.571    0.000    0.000    0.000    0.000    0.000 
#    0.000    0.000    0.000    0.000    0.000    0.000 
#
# Total GULP energy -78325.888860 kJ/mol
# GULP energy per Si atom -5594.706347 kJ/mol
# Density = 2.422585 g / cm^3
# Si number density = 24.281117 Si / 1000 Ang^3
#
#
#
# Elastic Constant Matrix: (Units=GPa)
#
#
# Indices 1 2 3 4 5 6 
#
# 1 120.0794 46.6217 9.5896 13.2166 -2.0938 -30.0148
# 2 46.6217 144.6940 16.7070 23.1214 -19.4577 -3.0774
# 3 9.5896 16.7070 106.9201 -8.3412 -15.5753 -13.9677
# 4 13.2166 23.1214 -8.3412 54.4516 -4.3646 3.5076
# 5 -2.0938 -19.4577 -15.5753 -4.3646 33.9013 -0.8116
# 6 -30.0148 -3.0774 -13.9677 3.5076 -0.8116 48.1244
#
#
#
# Elastic Compliance Matrix: (Units=1/GPa)
#
#
# Indices 1 2 3 4 5 6 
#
# 1 0.011658 -0.003487 0.000100 -0.001902 -0.001308 0.007194
# 2 -0.003487 0.009107 -0.000918 -0.002722 0.004201 -0.001590
# 3 0.000100 -0.000918 0.010752 0.002199 0.004775 0.003045
# 4 -0.001902 -0.002722 0.002199 0.020615 0.001932 -0.002192
# 5 -0.001308 0.004201 0.004775 0.001932 0.034301 0.001276
# 6 0.007194 -0.001590 0.003045 -0.002192 0.001276 0.026230
#
#
# Mechanical properties :
#
#
# Convention : Reuss Voigt Hill
#
# Bulk Modulus (GPa) = 43.65466 57.50334 50.57900
# Shear Modulus (GPa) = 38.78696 47.21381 43.00039
#
# Velocity S-wave (km/s) = 4.00110 4.41439 4.21282
# Velocity P-wave (km/s) = 6.27399 7.05097 6.67380
#
# Compressibility (1/GPa) = 0.02290706
#
# Stress axis : x y z
#
# Youngs Moduli (GPa) = 85.77535 109.80806 93.00413
#
# Poissons Ratio (x) = 0.38289 -0.00931
# Poissons Ratio (y) = 0.29909 0.08541
# Poissons Ratio (z) = -0.00859 0.10084
#
# Static dielectric constant tensor:
#      x y z
#    x 2.219560 -0.243410 -0.343280 
#    y -0.243410 2.513530 1.302860 
#    z -0.343280 1.302860 4.285430 
# 
# From -- ./inp_files/304948.got.cif
#   From: 2010.05.17/outbox.cif.g08.bks.cpg/sg2_153_cif.got.tgz:304948.got - 2010.06.03 11:33:40.
