data_PCOD9070755
_publ_section_title
;
Structure prediction by ZEFSAII (Michael W. Deem and Ramdas Pophale) SiO2 
 PCOD9070755
Probable space group: P -1
;
_chemical_formula_sum "Si O2"
_cell_formula_units_Z 16
_cell_length_a 12.566138
_cell_length_b 5.442690
_cell_length_c 11.627324
_cell_angle_alpha 83.587986
_cell_angle_beta 68.989620
_cell_angle_gamma 66.113094
_cell_volume 678.254487
_symmetry_space_group_name_H-M "P -1"
_symmetry_group_IT_number 2
_symmetry_cell_setting 'triclinic'
loop_
_space_group_symop_operation_xyz
x,y,z
-x,-y,-z
loop_
_atom_site_type_symbol
_atom_site_label
_atom_site_fract_x
_atom_site_fract_y
_atom_site_fract_z
Si Si1 0.747796 0.969583 0.831860
Si Si2 0.860046 0.190702 0.574563
Si Si3 0.915622 0.060489 0.140792
Si Si4 0.462107 0.263617 0.578068
Si Si5 0.480691 0.144047 0.835267
Si Si6 0.051871 0.558853 0.277673
Si Si7 0.675443 0.228729 0.080087
Si Si8 0.821986 0.449272 0.351863
O O1 0.795060 0.054336 0.691908
O O2 0.607399 0.004111 0.864148
O O3 0.850585 0.672182 0.826868
O O4 0.741337 0.156992 0.933617
O O5 0.871685 0.416328 0.642690
O O6 0.796393 0.270393 0.471353
O O7 0.000000 0.000000 0.500000
O O8 0.987427 0.827650 0.214947
O O9 0.779113 0.107345 0.145123
O O10 0.889402 0.322913 0.213628
O O11 0.000000 0.000000 0.000000
O O12 0.500000 0.500000 0.500000
O O13 0.514681 0.188518 0.689375
O O14 0.313736 0.354396 0.640099
O O15 0.500000 0.000000 0.500000
O O16 0.398552 0.449089 0.895059
O O17 0.410657 0.941260 0.871267
O O18 0.928522 0.519250 0.367165
#
# Coordination Sequence:
#
# PCOD9070755 Si02
#       8
#     2   2   2   2   2   2   2   2
#     4  12  29  47  77 111 151 203 256 316 386 468
#     4  12  25  46  69 109 153 191 252 310 386 455
#     4  12  27  48  78 109 153 197 257 321 388 458
#     4  12  28  48  77 112 152 205 259 314 385 456
#     4  12  28  52  79 114 156 206 259 319 383 461
#     4  12  26  44  75 109 149 196 255 311 395 449
#     4  12  28  52  79 113 154 203 264 316 387 456
#     4  12  26  47  73 109 151 199 251 322 380 462
#
# _framework density 23.589963999999998
#
# number of rings (size 3 to 8) (size 9 to 14) (size 15 to 20)
#    0.000    0.000    3.750    4.875    8.750    1.000 
#    0.000    0.000    0.000    0.000    0.000    0.000 
#    0.000    0.000    0.000    0.000    0.000    0.000 
#
# Total GULP energy -89471.893505 kJ/mol
# GULP energy per Si atom -5591.993344 kJ/mol
# Density = 2.353627 g / cm^3
# Si number density = 23.589964 Si / 1000 Ang^3
#
#
#
# Elastic Constant Matrix: (Units=GPa)
#
#
# Indices 1 2 3 4 5 6 
#
# 1 128.6591 31.5114 -9.1843 9.6552 -7.7913 -10.9064
# 2 31.5114 87.1487 16.3086 32.1651 -17.3621 5.9770
# 3 -9.1843 16.3086 96.6647 14.3590 0.9434 1.2016
# 4 9.6552 32.1651 14.3590 43.9003 -0.1438 -3.9185
# 5 -7.7913 -17.3621 0.9434 -0.1438 39.6579 -5.7347
# 6 -10.9064 5.9770 1.2016 -3.9185 -5.7347 33.7132
#
#
#
# Elastic Compliance Matrix: (Units=1/GPa)
#
#
# Indices 1 2 3 4 5 6 
#
# 1 0.009150 -0.004021 0.001372 0.000827 0.000559 0.003816
# 2 -0.004021 0.020122 -0.001745 -0.013726 0.007264 -0.005166
# 3 0.001372 -0.001745 0.011178 -0.002690 -0.000783 -0.000091
# 4 0.000827 -0.013726 -0.002690 0.034048 -0.004800 0.005938
# 5 0.000559 0.007264 -0.000783 -0.004800 0.028983 0.003293
# 6 0.003816 -0.005166 -0.000091 0.005938 0.003293 0.033066
#
#
# Mechanical properties :
#
#
# Convention : Reuss Voigt Hill
#
# Bulk Modulus (GPa) = 31.58184 43.30488 37.44336
# Shear Modulus (GPa) = 32.07391 41.71007 36.89199
#
# Velocity S-wave (km/s) = 3.69133 4.20947 3.95889
# Velocity P-wave (km/s) = 5.62004 6.48255 6.06664
#
# Compressibility (1/GPa) = 0.03166377
#
# Stress axis : x y z
#
# Youngs Moduli (GPa) = 109.28388 49.69562 89.46015
#
# Poissons Ratio (x) = 0.19982 -0.12274
# Poissons Ratio (y) = 0.43942 0.15609
# Poissons Ratio (z) = -0.14994 0.08671
#
# Static dielectric constant tensor:
#      x y z
#    x 1.946210 0.034930 -0.016890 
#    y 0.034930 1.872420 -0.097060 
#    z -0.016890 -0.097060 2.005360 
# 
# From -- ./inp_files/410452.got.cif
#   From: 2010.05.17/outbox.cif.g08.bks.cpg/sg2_206_cif.got.tgz:410452.got - 2010.06.03 11:33:40.
