data_PCOD9070943
_publ_section_title
;
Structure prediction by ZEFSAII (Michael W. Deem and Ramdas Pophale) SiO2 
 PCOD9070943
Probable space group: P -1
;
_chemical_formula_sum "Si O2"
_cell_formula_units_Z 13
_cell_length_a 15.913666
_cell_length_b 12.214037
_cell_length_c 20.437036
_cell_angle_alpha 28.947274
_cell_angle_beta 162.603905
_cell_angle_gamma 150.247063
_cell_volume 559.550671
_symmetry_space_group_name_H-M "P -1"
_symmetry_group_IT_number 2
_symmetry_cell_setting 'triclinic'
loop_
_space_group_symop_operation_xyz
x,y,z
-x,-y,-z
loop_
_atom_site_type_symbol
_atom_site_label
_atom_site_fract_x
_atom_site_fract_y
_atom_site_fract_z
Si Si1 0.774963 0.549896 0.485530
Si Si2 0.797824 0.783164 0.998446
Si Si3 0.835275 0.707259 0.777549
Si Si4 0.738628 0.743176 0.542288
Si Si5 0.318067 0.047527 0.033200
Si Si6 0.309650 0.477480 0.716470
Si Si7 0.000000 0.000000 0.500000
O O1 0.491713 0.403151 0.388310
O O2 0.696710 0.539392 0.356686
O O3 0.031500 0.417019 0.755874
O O4 0.859619 0.812124 0.436801
O O5 0.695354 0.861101 0.951342
O O6 0.538026 0.692655 0.803332
O O7 0.000000 0.000000 0.000000
O O8 0.831187 0.821200 0.643381
O O9 0.018036 0.875965 0.878973
O O10 0.000000 0.500000 0.000000
O O11 0.500000 0.500000 0.500000
O O12 0.998581 0.766958 0.672735
O O13 0.581550 0.917853 0.293799
O O14 0.373175 0.251939 0.915858
O O15 0.000000 0.500000 0.500000
#
# Coordination Sequence:
#
# PCOD9070943 Si02
#       7
#     2   2   2   2   2   2   1
#     4  12  27  49  77 112 161 202 265 324 395 478
#     4  12  28  46  76 112 154 206 259 321 402 464
#     4  12  26  47  77 113 153 205 258 324 392 470
#     4  12  25  48  73 107 155 201 257 320 385 469
#     4  12  26  46  77 106 154 203 256 322 396 457
#     4  12  28  49  75 114 156 205 265 324 391 474
#     4  12  26  46  78 106 148 210 252 312 394 458
#
# _framework density 23.232927
#
# number of rings (size 3 to 8) (size 9 to 14) (size 15 to 20)
#    0.000    0.000    4.615    4.154    6.462    3.692 
#    0.000    5.385    0.000    0.000    0.000    0.000 
#    0.000    0.000    0.000    0.000    0.000    0.000 
#
# Total GULP energy -72645.695208 kJ/mol
# GULP energy per Si atom -5588.130401 kJ/mol
# Density = 2.318005 g / cm^3
# Si number density = 23.232927 Si / 1000 Ang^3
#
#
#
# Elastic Constant Matrix: (Units=GPa)
#
#
# Indices 1 2 3 4 5 6 
#
# 1 148.3511 29.9424 27.7504 10.8629 -47.4213 -17.2505
# 2 29.9424 137.7095 26.6888 33.2582 -22.6505 -14.8672
# 3 27.7504 26.6888 100.0163 6.1315 -22.7651 -11.5916
# 4 10.8629 33.2582 6.1315 54.1649 -3.1989 -13.3928
# 5 -47.4213 -22.6505 -22.7651 -3.1989 47.2319 -1.0436
# 6 -17.2505 -14.8672 -11.5916 -13.3928 -1.0436 49.6175
#
#
#
# Elastic Compliance Matrix: (Units=1/GPa)
#
#
# Indices 1 2 3 4 5 6 
#
# 1 0.010656 -0.000001 -0.000045 -0.000567 0.010721 0.003766
# 2 -0.000001 0.009478 -0.001245 -0.005160 0.003621 0.001232
# 3 -0.000045 -0.001245 0.011784 0.000379 0.005120 0.002574
# 4 -0.000567 -0.005160 0.000379 0.022731 -0.001223 0.004455
# 5 0.010721 0.003621 0.005120 -0.001223 0.036201 0.006440
# 6 0.003766 0.001232 0.002574 0.004455 0.006440 0.023772
#
#
# Mechanical properties :
#
#
# Convention : Reuss Voigt Hill
#
# Bulk Modulus (GPa) = 34.08891 61.64889 47.86890
# Shear Modulus (GPa) = 39.37561 50.31587 44.84574
#
# Velocity S-wave (km/s) = 4.12128 4.65877 4.39825
# Velocity P-wave (km/s) = 6.11156 7.45195 6.81479
#
# Compressibility (1/GPa) = 0.02933505
#
# Stress axis : x y z
#
# Youngs Moduli (GPa) = 93.84355 105.50545 84.86380
#
# Poissons Ratio (x) = 0.00014 0.00379
# Poissons Ratio (y) = 0.00013 0.10569
# Poissons Ratio (z) = 0.00419 0.13140
#
# Static dielectric constant tensor:
#      x y z
#    x 1.797250 -0.045360 -0.067870 
#    y -0.045360 1.881970 -0.024750 
#    z -0.067870 -0.024750 1.849090 
# 
# From -- ./inp_files/78754.got.cif
#   From: 2010.05.17/outbox.cif.g08.bks.cpg/sg2_40_cif.got.tgz:78754.got - 2010.06.03 11:33:40.
