data_PCOD9070662
_publ_section_title
;
Structure prediction by ZEFSAII (Michael W. Deem and Ramdas Pophale) SiO2 
 PCOD9070662
Probable space group: P -1
;
_chemical_formula_sum "Si O2"
_cell_formula_units_Z 14
_cell_length_a 5.268843
_cell_length_b 11.162324
_cell_length_c 14.675601
_cell_angle_alpha 124.451707
_cell_angle_beta 57.264614
_cell_angle_gamma 122.096607
_cell_volume 566.183932
_symmetry_space_group_name_H-M "P -1"
_symmetry_group_IT_number 2
_symmetry_cell_setting 'triclinic'
loop_
_space_group_symop_operation_xyz
x,y,z
-x,-y,-z
loop_
_atom_site_type_symbol
_atom_site_label
_atom_site_fract_x
_atom_site_fract_y
_atom_site_fract_z
Si Si1 0.313724 0.577955 0.295253
Si Si2 0.390536 0.592250 0.701723
Si Si3 0.310900 0.340598 0.917842
Si Si4 0.497102 0.830696 0.644691
Si Si5 0.390674 0.812895 0.949050
Si Si6 0.285170 0.066532 0.898167
Si Si7 0.805551 0.137577 0.472097
O O1 0.441120 0.523204 0.339903
O O2 0.611891 0.613200 0.182708
O O3 0.201324 0.721019 0.403717
O O4 0.995023 0.467951 0.259318
O O5 0.487450 0.666222 0.616091
O O6 0.519311 0.730738 0.810752
O O7 0.331989 0.165655 0.838986
O O8 0.500000 0.500000 0.000000
O O9 0.978800 0.280440 0.011661
O O10 0.267095 0.823222 0.600989
O O11 0.876239 0.906936 0.591881
O O12 0.379763 0.921460 0.786107
O O13 0.493881 0.796121 0.024046
O O14 0.500000 0.000000 0.000000
O O15 0.000000 0.000000 0.000000
O O16 0.500000 0.000000 0.500000
#
# Coordination Sequence:
#
# PCOD9070662 Si02
#       7
#     2   2   2   2   2   2   2
#     4  12  29  48  77 109 160 197 258 331 385 458
#     4  12  27  48  76 117 150 201 258 316 396 469
#     4  12  26  47  73 114 157 205 252 326 404 460
#     4  12  28  49  82 110 152 204 261 319 388 465
#     4  12  25  44  75 113 157 201 254 315 391 480
#     4  12  27  45  80 116 157 204 262 324 395 474
#     4  12  29  53  77 111 150 204 267 322 383 463
#
# _framework density 24.726945000000001
#
# number of rings (size 3 to 8) (size 9 to 14) (size 15 to 20)
#    0.000    0.000    4.286    3.857   10.000    4.571 
#    0.000    0.000    0.000    0.000    0.000    0.000 
#    0.000    0.000    0.000    0.000    0.000    0.000 
#
# Total GULP energy -77936.149583 kJ/mol
# GULP energy per Si atom -5566.867827 kJ/mol
# Density = 2.467067 g / cm^3
# Si number density = 24.726945 Si / 1000 Ang^3
#
#
#
# Elastic Constant Matrix: (Units=GPa)
#
#
# Indices 1 2 3 4 5 6 
#
# 1 60.0638 -1.3935 10.5354 1.0928 -6.5292 11.0282
# 2 -1.3935 113.9691 22.5413 -3.0614 -14.4627 18.3828
# 3 10.5354 22.5413 97.5799 2.4517 9.3752 5.5599
# 4 1.0928 -3.0614 2.4517 26.0494 2.8565 -1.2042
# 5 -6.5292 -14.4627 9.3752 2.8565 26.3849 1.8143
# 6 11.0282 18.3828 5.5599 -1.2042 1.8143 32.0339
#
#
#
# Elastic Compliance Matrix: (Units=1/GPa)
#
#
# Indices 1 2 3 4 5 6 
#
# 1 0.019865 0.003348 -0.003214 -0.001491 0.008656 -0.008749
# 2 0.003348 0.011966 -0.003562 0.000229 0.009172 -0.007912
# 3 -0.003214 -0.003562 0.012028 -0.000575 -0.007058 0.001441
# 4 -0.001491 0.000229 -0.000575 0.039119 -0.004425 0.002203
# 5 0.008656 0.009172 -0.007058 -0.004425 0.048741 -0.009945
# 6 -0.008749 -0.007912 0.001441 0.002203 -0.009945 0.039165
#
#
# Mechanical properties :
#
#
# Convention : Reuss Voigt Hill
#
# Bulk Modulus (GPa) = 27.02434 37.21992 32.12213
# Shear Modulus (GPa) = 26.30544 32.88894 29.59719
#
# Velocity S-wave (km/s) = 3.26519 3.65099 3.46347
# Velocity P-wave (km/s) = 5.01678 5.73219 5.38638
#
# Compressibility (1/GPa) = 0.03700367
#
# Stress axis : x y z
#
# Youngs Moduli (GPa) = 50.34051 83.56973 83.13713
#
# Poissons Ratio (x) = -0.27979 0.26719
# Poissons Ratio (y) = -0.16854 0.29613
# Poissons Ratio (z) = 0.16179 0.29767
#
# Static dielectric constant tensor:
#      x y z
#    x 2.119860 -0.002300 0.060940 
#    y -0.002300 1.955380 -0.080870 
#    z 0.060940 -0.080870 1.745890 
# 
# From -- ./inp_files/482312.got.cif
#   From: 2010.05.17/outbox.cif.g08.bks.cpg/sg2_242_cif.got.tgz:482312.got - 2010.06.03 11:33:40.
