data_PCOD9070604
_publ_section_title
;
Structure prediction by ZEFSAII (Michael W. Deem and Ramdas Pophale) SiO2 
 PCOD9070604
Probable space group: P -1
;
_chemical_formula_sum "Si O2"
_cell_formula_units_Z 15
_cell_length_a 18.730097
_cell_length_b 14.061268
_cell_length_c 5.275319
_cell_angle_alpha 114.190364
_cell_angle_beta 48.744084
_cell_angle_gamma 141.659837
_cell_volume 630.489026
_symmetry_space_group_name_H-M "P -1"
_symmetry_group_IT_number 2
_symmetry_cell_setting 'triclinic'
loop_
_space_group_symop_operation_xyz
x,y,z
-x,-y,-z
loop_
_atom_site_type_symbol
_atom_site_label
_atom_site_fract_x
_atom_site_fract_y
_atom_site_fract_z
Si Si1 0.211822 0.940743 0.659336
Si Si2 0.500000 0.500000 0.500000
Si Si3 0.714067 0.714260 0.685452
Si Si4 0.522682 0.698422 0.413641
Si Si5 0.939888 0.045289 0.357290
Si Si6 0.340417 0.822907 0.182875
Si Si7 0.306026 0.656255 0.579783
Si Si8 0.906083 0.692000 0.375365
O O1 0.170823 0.968865 0.533748
O O2 0.241801 0.843749 0.450697
O O3 0.354381 0.116937 0.615662
O O4 0.066717 0.829504 0.040599
O O5 0.632418 0.654566 0.547492
O O6 0.435253 0.572785 0.705726
O O7 0.792458 0.670088 0.472965
O O8 0.841320 0.902586 0.633328
O O9 0.597632 0.646094 0.105178
O O10 0.428314 0.672796 0.389242
O O11 0.070563 0.225742 0.330108
O O12 0.000000 0.000000 0.000000
O O13 0.336273 0.748233 0.360539
O O14 0.303613 0.727105 0.912880
O O15 0.500000 0.000000 0.000000
O O16 0.158165 0.474852 0.670083
#
# Coordination Sequence:
#
# PCOD9070604 Si02
#       8
#     2   1   2   2   2   2   2   2
#     4  12  27  48  79 105 150 208 257 319 395 461
#     4  12  26  42  70 112 154 192 258 314 380 466
#     4  12  25  42  69 111 152 196 248 306 390 472
#     4  12  26  45  75 110 152 205 249 322 384 474
#     4  12  25  43  74 107 157 203 250 305 395 483
#     4  12  30  54  82 115 152 203 274 333 388 461
#     4  12  31  51  83 116 153 207 267 332 394 447
#     4  12  28  47  74 113 158 201 254 325 390 476
#
# _framework density 23.791056000000001
#
# number of rings (size 3 to 8) (size 9 to 14) (size 15 to 20)
#    0.000    0.000    6.667    2.000    7.467    1.067 
#    0.000    0.000    0.000    0.000    0.000    0.000 
#    0.000    0.000    0.000    0.000    0.000    0.000 
#
# Total GULP energy -83695.667841 kJ/mol
# GULP energy per Si atom -5579.711189 kJ/mol
# Density = 2.373691 g / cm^3
# Si number density = 23.791056 Si / 1000 Ang^3
#
#
#
# Elastic Constant Matrix: (Units=GPa)
#
#
# Indices 1 2 3 4 5 6 
#
# 1 92.1183 75.5585 26.5012 9.6867 5.6701 -3.6059
# 2 75.5585 213.3843 45.4833 25.3920 6.7554 2.7464
# 3 26.5012 45.4833 80.2497 25.3467 -7.5891 -2.4912
# 4 9.6867 25.3920 25.3467 27.9438 8.5756 7.3037
# 5 5.6701 6.7554 -7.5891 8.5756 33.1758 7.3773
# 6 -3.6059 2.7464 -2.4912 7.3037 7.3773 54.1294
#
#
#
# Elastic Compliance Matrix: (Units=1/GPa)
#
#
# Indices 1 2 3 4 5 6 
#
# 1 0.016129 -0.005211 -0.003743 0.003354 -0.003689 0.001217
# 2 -0.005211 0.007222 -0.001231 -0.003603 0.000137 -0.000303
# 3 -0.003743 -0.001231 0.022480 -0.022014 0.011214 0.002290
# 4 0.003354 -0.003603 -0.022014 0.065885 -0.020413 -0.006715
# 5 -0.003689 0.000137 0.011214 -0.020413 0.039101 -0.002311
# 6 0.001217 -0.000303 0.002290 -0.006715 -0.002311 0.019897
#
#
# Mechanical properties :
#
#
# Convention : Reuss Voigt Hill
#
# Bulk Modulus (GPa) = 39.27716 75.64873 57.46294
# Shear Modulus (GPa) = 25.05372 38.93042 31.99207
#
# Velocity S-wave (km/s) = 3.24863 4.04957 3.67101
# Velocity P-wave (km/s) = 5.53322 7.33018 6.49415
#
# Compressibility (1/GPa) = 0.02546009
#
# Stress axis : x y z
#
# Youngs Moduli (GPa) = 62.00017 138.45940 44.48473
#
# Poissons Ratio (x) = 0.72155 0.16651
# Poissons Ratio (y) = 0.32310 0.05476
# Poissons Ratio (z) = 0.23207 0.17045
#
# Static dielectric constant tensor:
#      x y z
#    x 1.597220 0.243430 -0.407950 
#    y 0.243430 1.841250 0.312030 
#    z -0.407950 0.312030 1.414280 
# 
# From -- ./inp_files/67894.got.cif
#   From: 2010.05.17/outbox.cif.g08.bks.cpg/sg2_34_cif.got.tgz:67894.got - 2010.06.03 11:33:40.
