data_PCOD9070230
_publ_section_title
;
Structure prediction by ZEFSAII (Michael W. Deem and Ramdas Pophale) SiO2 
 PCOD9070230
Probable space group: P -1
;
_chemical_formula_sum "Si O2"
_cell_formula_units_Z 14
_cell_length_a 19.988999
_cell_length_b 10.965475
_cell_length_c 13.045756
_cell_angle_alpha 34.534275
_cell_angle_beta 33.829074
_cell_angle_gamma 24.862904
_cell_volume 638.621668
_symmetry_space_group_name_H-M "P -1"
_symmetry_group_IT_number 2
_symmetry_cell_setting 'triclinic'
loop_
_space_group_symop_operation_xyz
x,y,z
-x,-y,-z
loop_
_atom_site_type_symbol
_atom_site_label
_atom_site_fract_x
_atom_site_fract_y
_atom_site_fract_z
Si Si1 0.600997 0.803219 0.905302
Si Si2 0.560411 0.620997 0.410657
Si Si3 0.994858 0.315693 0.717498
Si Si4 0.861293 0.259799 0.575863
Si Si5 0.816125 0.816101 0.226320
Si Si6 0.514208 0.530754 0.765529
Si Si7 0.951728 0.129360 0.195763
O O1 0.802502 0.553144 0.840102
O O2 0.550080 0.036499 0.720871
O O3 0.545899 0.637123 0.055116
O O4 0.500000 0.000000 0.000000
O O5 0.500000 0.500000 0.500000
O O6 0.538355 0.591808 0.577467
O O7 0.758528 0.408408 0.281811
O O8 0.000000 0.500000 0.500000
O O9 0.125390 0.200095 0.721508
O O10 0.039568 0.033322 0.802596
O O11 0.817527 0.559079 0.394523
O O12 0.692332 0.331910 0.733255
O O13 0.946576 0.132061 0.666533
O O14 0.000000 0.000000 0.500000
O O15 0.631336 0.149689 0.214351
O O16 0.951811 0.769043 0.016130
#
# Coordination Sequence:
#
# PCOD9070230 Si02
#       7
#     2   2   2   2   2   2   2
#     4  12  26  43  72 110 147 182 233 300 356 425
#     4  12  25  42  72 105 145 185 233 293 364 415
#     4  12  24  46  76 109 145 183 235 299 366 414
#     4  12  29  50  73 103 147 193 242 293 354 431
#     4  12  27  47  77 105 145 185 243 297 359 429
#     4  12  27  49  69 105 145 189 240 291 356 430
#     4  12  26  47  73 109 142 190 239 297 359 425
#
# _framework density 21.922211999999998
#
# number of rings (size 3 to 8) (size 9 to 14) (size 15 to 20)
#    0.000    0.000    5.714    4.286    4.000    2.286 
#    0.000    0.000    0.000    0.000    0.000    0.000 
#    0.000    0.000    0.000    0.000    0.000    0.000 
#
# Total GULP energy -78510.431049 kJ/mol
# GULP energy per Si atom -5607.887932 kJ/mol
# Density = 2.187232 g / cm^3
# Si number density = 21.922212 Si / 1000 Ang^3
#
#
#
# Elastic Constant Matrix: (Units=GPa)
#
#
# Indices 1 2 3 4 5 6 
#
# 1 43.8598 18.6928 -2.3627 2.3531 -12.1036 -0.0270
# 2 18.6928 107.9975 5.7769 15.3630 -11.6657 -12.4048
# 3 -2.3627 5.7769 61.4708 1.5775 2.8879 6.1907
# 4 2.3531 15.3630 1.5775 50.0357 -4.3746 -7.3793
# 5 -12.1036 -11.6657 2.8879 -4.3746 27.9299 -1.9441
# 6 -0.0270 -12.4048 6.1907 -7.3793 -1.9441 32.9676
#
#
#
# Elastic Compliance Matrix: (Units=1/GPa)
#
#
# Indices 1 2 3 4 5 6 
#
# 1 0.027265 -0.003870 0.001009 0.000630 0.010132 -0.000885
# 2 -0.003870 0.011163 -0.001705 -0.002304 0.003092 0.004184
# 3 0.001009 -0.001705 0.017027 -0.000893 -0.002467 -0.004184
# 4 0.000630 -0.002304 -0.000893 0.021598 0.003086 0.004318
# 5 0.010132 0.003092 -0.002467 0.003086 0.042561 0.004836
# 6 -0.000885 0.004184 -0.004184 0.004318 0.004836 0.033944
#
#
# Mechanical properties :
#
#
# Convention : Reuss Voigt Hill
#
# Bulk Modulus (GPa) = 21.58803 28.61581 25.10192
# Shear Modulus (GPa) = 28.06900 34.93470 31.50185
#
# Velocity S-wave (km/s) = 3.58214 3.99629 3.79487
# Velocity P-wave (km/s) = 5.19402 5.86306 5.53865
#
# Compressibility (1/GPa) = 0.04632196
#
# Stress axis : x y z
#
# Youngs Moduli (GPa) = 36.67669 89.58250 58.73003
#
# Poissons Ratio (x) = 0.34668 -0.05924
# Poissons Ratio (y) = 0.14194 0.10015
# Poissons Ratio (z) = -0.03699 0.15277
#
# Static dielectric constant tensor:
#      x y z
#    x 1.337140 -1.968230 0.200580 
#    y -1.968230 -6.920560 0.760530 
#    z 0.200580 0.760530 1.729170 
# 
# From -- ./inp_files/184633.got.cif
#   From: 2010.05.17/outbox.cif.g08.bks.cpg/sg2_93_cif.got.tgz:184633.got - 2010.06.03 11:33:40.
