data_PCOD9070058
_publ_section_title
;
Structure prediction by ZEFSAII (Michael W. Deem and Ramdas Pophale) SiO2 
 PCOD9070058
Probable space group: P -1
;
_chemical_formula_sum "Si O2"
_cell_formula_units_Z 14
_cell_length_a 4.891422
_cell_length_b 23.650124
_cell_length_c 5.501998
_cell_angle_alpha 89.605542
_cell_angle_beta 87.749063
_cell_angle_gamma 120.644061
_cell_volume 546.910550
_symmetry_space_group_name_H-M "P -1"
_symmetry_group_IT_number 2
_symmetry_cell_setting 'triclinic'
loop_
_space_group_symop_operation_xyz
x,y,z
-x,-y,-z
loop_
_atom_site_type_symbol
_atom_site_label
_atom_site_fract_x
_atom_site_fract_y
_atom_site_fract_z
Si Si1 0.852657 0.323599 0.816798
Si Si2 0.240722 0.428163 0.417092
Si Si3 0.139835 0.233387 0.897395
Si Si4 0.731710 0.844976 0.761063
Si Si5 0.317135 0.992577 0.754569
Si Si6 0.520055 0.136455 0.726632
Si Si7 0.236448 0.571293 0.878651
O O1 0.486640 0.272567 0.758177
O O2 0.115035 0.368229 0.607093
O O3 0.995321 0.280980 0.922744
O O4 0.791641 0.373389 0.977321
O O5 0.500000 0.500000 0.500000
O O6 0.417353 0.417917 0.181197
O O7 0.922426 0.429354 0.371064
O O8 0.901397 0.168783 0.745683
O O9 0.173371 0.208552 0.163966
O O10 0.024349 0.919399 0.752592
O O11 0.542043 0.837695 0.522591
O O12 0.547481 0.842640 0.012586
O O13 0.500000 0.000000 0.500000
O O14 0.290874 0.057535 0.741148
O O15 0.500000 0.000000 0.000000
O O16 0.000000 0.500000 0.000000
#
# Coordination Sequence:
#
# PCOD9070058 Si02
#       7
#     2   2   2   2   2   2   2
#     4  12  28  52  78 117 162 208 280 328 418 499
#     4  12  26  47  81 116 153 204 260 339 413 486
#     4  12  28  53  78 114 166 224 266 342 412 514
#     4  12  27  52  81 116 166 219 281 347 417 493
#     4  12  24  44  82 121 159 211 281 355 415 484
#     4  12  27  52  81 116 166 219 281 347 417 493
#     4  12  26  47  81 116 153 204 260 339 413 486
#
# _framework density 25.598331000000002
#
# number of rings (size 3 to 8) (size 9 to 14) (size 15 to 20)
#    0.000    0.000    4.286    5.143    2.000    1.143 
#   10.286    0.000    0.000    0.000    0.000    0.000 
#    0.000    0.000    0.000    0.000    0.000    0.000 
#
# Total GULP energy -78343.749383 kJ/mol
# GULP energy per Si atom -5595.982099 kJ/mol
# Density = 2.554007 g / cm^3
# Si number density = 25.598331 Si / 1000 Ang^3
#
#
#
# Elastic Constant Matrix: (Units=GPa)
#
#
# Indices 1 2 3 4 5 6 
#
# 1 118.7142 38.1671 48.2709 -18.3297 7.5601 0.4459
# 2 38.1671 161.2216 38.0454 -34.1604 -4.2703 -1.0125
# 3 48.2709 38.0454 141.2549 -24.4120 9.4237 -0.8888
# 4 -18.3297 -34.1604 -24.4120 44.8894 -6.0731 -2.2754
# 5 7.5601 -4.2703 9.4237 -6.0731 60.9568 -4.4841
# 6 0.4459 -1.0125 -0.8888 -2.2754 -4.4841 65.2093
#
#
#
# Elastic Compliance Matrix: (Units=1/GPa)
#
#
# Indices 1 2 3 4 5 6 
#
# 1 0.010327 -0.001499 -0.002826 0.001421 -0.000818 -0.000139
# 2 -0.001499 0.007881 -0.000811 0.005155 0.001406 0.000398
# 3 -0.002826 -0.000811 0.008822 0.002932 -0.000765 0.000177
# 4 0.001421 0.005155 0.002932 0.028805 0.002697 0.001301
# 5 -0.000818 0.001406 -0.000765 0.002697 0.017087 0.001286
# 6 -0.000139 0.000398 0.000177 0.001301 0.001286 0.015479
#
#
# Mechanical properties :
#
#
# Convention : Reuss Voigt Hill
#
# Bulk Modulus (GPa) = 59.67207 74.46197 67.06702
# Shear Modulus (GPa) = 47.95790 53.99160 50.97475
#
# Velocity S-wave (km/s) = 4.33306 4.59757 4.46727
# Velocity P-wave (km/s) = 6.95668 7.57201 7.27086
#
# Compressibility (1/GPa) = 0.01675826
#
# Stress axis : x y z
#
# Youngs Moduli (GPa) = 96.83666 126.89065 113.34810
#
# Poissons Ratio (x) = 0.19024 0.32030
# Poissons Ratio (y) = 0.14518 0.09190
# Poissons Ratio (z) = 0.27364 0.10288
#
# Static dielectric constant tensor:
#      x y z
#    x 2.129610 -0.014700 -0.020780 
#    y -0.014700 2.138920 0.015840 
#    z -0.020780 0.015840 2.021030 
# 
# From -- ./inp_files/13416.got.cif
#   From: 2010.05.17/outbox.cif.g08.bks.cpg/sg2_7_cif.got.tgz:13416.got - 2010.06.03 11:33:40.
