data_PCOD9070919
_publ_section_title
;
Structure prediction by ZEFSAII (Michael W. Deem and Ramdas Pophale) SiO2 
 PCOD9070919
Probable space group: P -1
;
_chemical_formula_sum "Si O2"
_cell_formula_units_Z 11
_cell_length_a 8.738307
_cell_length_b 10.232183
_cell_length_c 12.470111
_cell_angle_alpha 36.284799
_cell_angle_beta 42.217908
_cell_angle_gamma 55.964897
_cell_volume 441.429795
_symmetry_space_group_name_H-M "P -1"
_symmetry_group_IT_number 2
_symmetry_cell_setting 'triclinic'
loop_
_space_group_symop_operation_xyz
x,y,z
-x,-y,-z
loop_
_atom_site_type_symbol
_atom_site_label
_atom_site_fract_x
_atom_site_fract_y
_atom_site_fract_z
Si Si1 0.998115 0.242531 0.154222
Si Si2 0.126820 0.406224 0.394048
Si Si3 0.520215 0.771385 0.526149
Si Si4 0.500000 0.500000 0.500000
Si Si5 0.883144 0.165838 0.029003
Si Si6 0.703960 0.078408 0.760642
O O1 0.738279 0.172008 0.365589
O O2 0.035410 0.211739 0.026812
O O3 0.198661 0.146564 0.181880
O O4 0.000000 0.500000 0.000000
O O5 0.366688 0.329684 0.360079
O O6 0.000000 0.500000 0.500000
O O7 0.948988 0.196953 0.594512
O O8 0.146072 0.600942 0.166922
O O9 0.555855 0.582098 0.542878
O O10 0.658267 0.008985 0.276809
O O11 0.606581 0.263072 0.617701
O O12 0.000000 0.000000 0.000000
O O13 0.500000 0.000000 0.000000
#
# Coordination Sequence:
#
# PCOD9070919 Si02
#       6
#     2   2   2   1   2   2
#     4  12  30  52  79 124 173 205 270 347 409 477
#     4  12  25  47  81 116 152 212 278 325 393 487
#     4  12  28  51  81 119 164 210 272 342 404 480
#     4  12  28  46  86 116 156 214 276 320 412 474
#     4  12  26  49  84 113 154 220 271 324 405 480
#     4  12  28  49  80 113 164 212 270 334 402 487
#
# _framework density 24.919022999999999
#
# number of rings (size 3 to 8) (size 9 to 14) (size 15 to 20)
#    0.000    0.000    5.455    1.636   12.727    1.455 
#    0.000    0.000    0.000    0.000    0.000    0.000 
#    0.000    0.000    0.000    0.000    0.000    0.000 
#
# Total GULP energy -61306.300467 kJ/mol
# GULP energy per Si atom -5573.300042 kJ/mol
# Density = 2.486231 g / cm^3
# Si number density = 24.919023 Si / 1000 Ang^3
#
#
#
# Elastic Constant Matrix: (Units=GPa)
#
#
# Indices 1 2 3 4 5 6 
#
# 1 96.2337 40.4169 51.1815 -8.7913 24.3882 -23.6247
# 2 40.4169 140.4959 31.8378 -14.9977 9.4675 -32.5068
# 3 51.1815 31.8378 103.2927 -27.4789 13.4445 -36.5041
# 4 -8.7913 -14.9977 -27.4789 36.1933 -14.7935 0.4045
# 5 24.3882 9.4675 13.4445 -14.7935 41.4448 -16.8619
# 6 -23.6247 -32.5068 -36.5041 0.4045 -16.8619 74.8050
#
#
#
# Elastic Compliance Matrix: (Units=1/GPa)
#
#
# Indices 1 2 3 4 5 6 
#
# 1 0.018861 -0.004134 -0.010374 -0.009745 -0.011684 -0.003483
# 2 -0.004134 0.009270 0.001739 0.005534 0.003487 0.004327
# 3 -0.010374 0.001739 0.021407 0.018132 0.009270 0.009917
# 4 -0.009745 0.005534 0.018132 0.050026 0.021646 0.012784
# 5 -0.011684 0.003487 0.009270 0.021646 0.039453 0.011125
# 6 -0.003483 0.004327 0.009917 0.012784 0.011125 0.021427
#
#
# Mechanical properties :
#
#
# Convention : Reuss Voigt Hill
#
# Bulk Modulus (GPa) = 41.66659 65.21053 53.43856
# Shear Modulus (GPa) = 25.77568 44.92771 35.35170
#
# Velocity S-wave (km/s) = 3.21966 4.25072 3.77060
# Velocity P-wave (km/s) = 5.52980 7.09347 6.35988
#
# Compressibility (1/GPa) = 0.02400004
#
# Stress axis : x y z
#
# Youngs Moduli (GPa) = 53.02075 107.87767 46.71282
#
# Poissons Ratio (x) = 0.44593 0.48459
# Poissons Ratio (y) = 0.21917 -0.08121
# Poissons Ratio (z) = 0.55003 -0.18756
#
# Static dielectric constant tensor:
#      x y z
#    x 2.331900 -1.230970 1.127530 
#    y -1.230970 4.858530 0.164450 
#    z 1.127530 0.164450 -2.592530 
# 
# From -- ./inp_files/234987.got.cif
#   From: 2010.05.17/outbox.cif.g08.bks.cpg/sg2_118_cif.got.tgz:234987.got - 2010.06.03 11:33:40.
