data_PCOD9070594
_publ_section_title
;
Structure prediction by ZEFSAII (Michael W. Deem and Ramdas Pophale) SiO2 
 PCOD9070594
Probable space group: P -1
;
_chemical_formula_sum "Si O2"
_cell_formula_units_Z 16
_cell_length_a 13.233183
_cell_length_b 11.048249
_cell_length_c 7.382779
_cell_angle_alpha 116.067711
_cell_angle_beta 100.873820
_cell_angle_gamma 54.773777
_cell_volume 788.941395
_symmetry_space_group_name_H-M "P -1"
_symmetry_group_IT_number 2
_symmetry_cell_setting 'triclinic'
loop_
_space_group_symop_operation_xyz
x,y,z
-x,-y,-z
loop_
_atom_site_type_symbol
_atom_site_label
_atom_site_fract_x
_atom_site_fract_y
_atom_site_fract_z
Si Si1 0.790835 0.341323 0.379216
Si Si2 0.357840 0.563289 0.960421
Si Si3 0.789889 0.157978 0.609109
Si Si4 0.421356 0.227639 0.862478
Si Si5 0.354265 0.290573 0.306427
Si Si6 0.951240 0.923005 0.796805
Si Si7 0.370934 0.960274 0.670264
Si Si8 0.698640 0.975038 0.884653
O O1 0.797682 0.228300 0.467907
O O2 0.729409 0.522596 0.549033
O O3 0.931608 0.261077 0.307873
O O4 0.000000 0.000000 0.000000
O O5 0.279496 0.690181 0.176329
O O6 0.296395 0.649787 0.806452
O O7 0.500000 0.500000 0.000000
O O8 0.358763 0.399954 0.858445
O O9 0.713641 0.076938 0.496257
O O10 0.914884 0.020698 0.660393
O O11 0.571826 0.121767 0.844142
O O12 0.378045 0.110944 0.710152
O O13 0.383995 0.267872 0.087484
O O14 0.488422 0.197722 0.386558
O O15 0.296274 0.187951 0.261644
O O16 0.824751 0.952085 0.849794
O O17 0.324544 0.993640 0.886092
#
# Coordination Sequence:
#
# PCOD9070594 Si02
#       8
#     2   2   2   2   2   2   2   2
#     4  12  26  42  65  95 135 173 219 267 320 384
#     4  12  25  39  66 101 133 166 213 275 327 381
#     4  12  25  43  66  96 131 171 221 267 324 384
#     4   9  19  41  66  97 135 165 211 267 332 386
#     4   9  19  39  66  99 130 168 210 271 331 382
#     4  12  25  44  63  89 130 177 224 266 314 386
#     4   9  20  39  69  97 129 172 209 268 331 387
#     4   9  20  40  67  95 130 171 220 262 318 390
#
# _framework density 20.280339000000001
#
# number of rings (size 3 to 8) (size 9 to 14) (size 15 to 20)
#    0.000    1.500    2.500    4.125    3.500    2.500 
#    0.000    3.125    0.000    3.750    0.000    0.000 
#    0.000    0.000    0.000    0.000    0.000    0.000 
#
# Total GULP energy -89492.877158 kJ/mol
# GULP energy per Si atom -5593.304822 kJ/mol
# Density = 2.023418 g / cm^3
# Si number density = 20.280339 Si / 1000 Ang^3
#
#
#
# Elastic Constant Matrix: (Units=GPa)
#
#
# Indices 1 2 3 4 5 6 
#
# 1 121.1463 57.0352 62.1556 4.7793 0.9398 -13.9036
# 2 57.0352 120.0710 49.9513 -0.7434 10.6955 -14.0503
# 3 62.1556 49.9513 99.0006 12.7394 4.1097 -8.7196
# 4 4.7793 -0.7434 12.7394 46.4780 -2.6299 -2.4743
# 5 0.9398 10.6955 4.1097 -2.6299 32.0281 1.0802
# 6 -13.9036 -14.0503 -8.7196 -2.4743 1.0802 21.3518
#
#
#
# Elastic Compliance Matrix: (Units=1/GPa)
#
#
# Indices 1 2 3 4 5 6 
#
# 1 0.013700 -0.003392 -0.006690 0.000667 0.001510 0.003958
# 2 -0.003392 0.012394 -0.003764 0.001630 -0.003584 0.004780
# 3 -0.006690 -0.003764 0.016724 -0.004036 -0.001010 -0.000420
# 4 0.000667 0.001630 -0.004036 0.022806 0.001745 0.002414
# 5 0.001510 -0.003584 -0.001010 0.001745 0.032757 -0.003242
# 6 0.003958 0.004780 -0.000420 0.002414 -0.003242 0.052829
#
#
# Mechanical properties :
#
#
# Convention : Reuss Voigt Hill
#
# Bulk Modulus (GPa) = 66.10607 75.38913 70.74760
# Shear Modulus (GPa) = 27.18203 31.37665 29.27934
#
# Velocity S-wave (km/s) = 3.66500 3.93765 3.80377
# Velocity P-wave (km/s) = 7.11172 7.61102 7.36560
#
# Compressibility (1/GPa) = 0.01512720
#
# Stress axis : x y z
#
# Youngs Moduli (GPa) = 72.99384 80.68319 59.79282
#
# Poissons Ratio (x) = 0.27366 0.40000
# Poissons Ratio (y) = 0.24758 0.22506
# Poissons Ratio (z) = 0.48831 0.30370
#
# Static dielectric constant tensor:
#      x y z
#    x 1.700100 0.028470 -0.017250 
#    y 0.028470 1.729590 -0.024250 
#    z -0.017250 -0.024250 1.734910 
# 
# From -- ./inp_files/305718.got.cif
#   From: 2010.05.17/outbox.cif.g08.bks.cpg/sg2_153_cif.got.tgz:305718.got - 2010.06.03 11:33:40.
