data_PCOD9070039
_publ_section_title
;
Structure prediction by ZEFSAII (Michael W. Deem and Ramdas Pophale) SiO2 
 PCOD9070039
Probable space group: P -1
;
_chemical_formula_sum "Si O2"
_cell_formula_units_Z 12
_cell_length_a 9.073215
_cell_length_b 8.106002
_cell_length_c 17.997897
_cell_angle_alpha 31.660689
_cell_angle_beta 134.410691
_cell_angle_gamma 131.730553
_cell_volume 487.599306
_symmetry_space_group_name_H-M "P -1"
_symmetry_group_IT_number 2
_symmetry_cell_setting 'triclinic'
loop_
_space_group_symop_operation_xyz
x,y,z
-x,-y,-z
loop_
_atom_site_type_symbol
_atom_site_label
_atom_site_fract_x
_atom_site_fract_y
_atom_site_fract_z
Si Si1 0.098251 0.465159 0.782534
Si Si2 0.257165 0.271284 0.682231
Si Si3 0.637683 0.080650 0.944060
Si Si4 0.914785 0.715327 0.761660
Si Si5 0.663858 0.123638 0.414589
Si Si6 0.309168 0.645707 0.412213
O O1 0.868711 0.331803 0.718450
O O2 0.312795 0.560765 0.648369
O O3 0.067026 0.572052 0.813846
O O4 0.238628 0.196375 0.926916
O O5 0.794551 0.585944 0.469274
O O6 0.466566 0.124531 0.804657
O O7 0.062043 0.009274 0.741517
O O8 0.500000 0.000000 0.000000
O O9 0.792777 0.419528 0.877683
O O10 0.756055 0.864511 0.595137
O O11 0.204059 0.770013 0.653732
O O12 0.426691 0.973662 0.365618
O O13 0.500000 0.500000 0.500000
#
# Coordination Sequence:
#
# PCOD9070039 Si02
#       6
#     2   2   2   2   2   2
#     4  12  26  48  76 114 144 189 249 302 368 433
#     4  12  26  45  73 109 148 195 244 296 370 434
#     4  12  28  50  70 110 152 194 245 299 371 435
#     4  12  26  46  79 105 151 191 246 306 362 434
#     4  12  24  44  76 111 145 188 248 304 357 436
#     4  12  24  44  77 110 145 189 246 305 362 429
#
# _framework density 24.610371000000001
#
# number of rings (size 3 to 8) (size 9 to 14) (size 15 to 20)
#    0.000    0.000    6.667    3.000    0.000    2.667 
#    0.000    0.000    0.000    0.000    0.000    0.000 
#    0.000    0.000    0.000    0.000    0.000    0.000 
#
# Total GULP energy -67365.395681 kJ/mol
# GULP energy per Si atom -5613.782973 kJ/mol
# Density = 2.455436 g / cm^3
# Si number density = 24.610371 Si / 1000 Ang^3
#
#
#
# Elastic Constant Matrix: (Units=GPa)
#
#
# Indices 1 2 3 4 5 6 
#
# 1 116.9303 36.6724 28.4396 -25.9491 -5.5540 14.7830
# 2 36.6724 139.8180 31.6658 -13.8913 -3.2734 22.0506
# 3 28.4396 31.6658 88.6100 -20.2554 26.0388 -0.2838
# 4 -25.9491 -13.8913 -20.2554 33.0130 12.8438 -1.9232
# 5 -5.5540 -3.2734 26.0388 12.8438 44.7447 -9.8284
# 6 14.7830 22.0506 -0.2838 -1.9232 -9.8284 47.7044
#
#
#
# Elastic Compliance Matrix: (Units=1/GPa)
#
#
# Indices 1 2 3 4 5 6 
#
# 1 0.011319 -0.001562 -0.001010 0.007837 -0.000958 -0.002673
# 2 -0.001562 0.008818 -0.003260 -0.000386 0.001741 -0.003268
# 3 -0.001010 -0.003260 0.023000 0.019509 -0.019634 -0.001302
# 4 0.007837 -0.000386 0.019509 0.059057 -0.028601 -0.005646
# 5 -0.000958 0.001741 -0.019634 -0.028601 0.043575 0.007200
# 6 -0.002673 -0.003268 -0.001302 -0.005646 0.007200 0.024549
#
#
# Mechanical properties :
#
#
# Convention : Reuss Voigt Hill
#
# Bulk Modulus (GPa) = 31.77420 59.87933 45.82676
# Shear Modulus (GPa) = 25.97750 41.66446 33.82098
#
# Velocity S-wave (km/s) = 3.25245 4.11903 3.71112
# Velocity P-wave (km/s) = 5.20034 6.85606 6.08478
#
# Compressibility (1/GPa) = 0.03147208
#
# Stress axis : x y z
#
# Youngs Moduli (GPa) = 88.34345 113.40248 43.47891
#
# Poissons Ratio (x) = 0.17718 0.04392
# Poissons Ratio (y) = 0.13803 0.14174
# Poissons Ratio (z) = 0.08924 0.36970
#
# Static dielectric constant tensor:
#      x y z
#    x 1.976220 -0.012940 0.005460 
#    y -0.012940 1.944440 -0.006460 
#    z 0.005460 -0.006460 1.960700 
# 
# From -- ./inp_files/546457.got.cif
#   From: 2010.05.17/outbox.cif.g08.bks.cpg/sg2_274_cif.got.tgz:546457.got - 2010.06.03 11:33:40.
