data_PCOD9070493
_publ_section_title
;
Structure prediction by ZEFSAII (Michael W. Deem and Ramdas Pophale) SiO2 
 PCOD9070493
Probable space group: P -1
;
_chemical_formula_sum "Si O2"
_cell_formula_units_Z 12
_cell_length_a 5.111190
_cell_length_b 8.769951
_cell_length_c 14.003191
_cell_angle_alpha 124.860479
_cell_angle_beta 58.733113
_cell_angle_gamma 104.855097
_cell_volume 439.516562
_symmetry_space_group_name_H-M "P -1"
_symmetry_group_IT_number 2
_symmetry_cell_setting 'triclinic'
loop_
_space_group_symop_operation_xyz
x,y,z
-x,-y,-z
loop_
_atom_site_type_symbol
_atom_site_label
_atom_site_fract_x
_atom_site_fract_y
_atom_site_fract_z
Si Si1 0.416393 0.701988 0.545481
Si Si2 0.242765 0.856155 0.115720
Si Si3 0.098454 0.319338 0.056327
Si Si4 0.599183 0.615268 0.269172
Si Si5 0.190413 0.258190 0.227193
Si Si6 0.240233 0.946300 0.352037
O O1 0.500000 0.500000 0.500000
O O2 0.552928 0.702407 0.413814
O O3 0.052169 0.717609 0.632768
O O4 0.552776 0.876943 0.634713
O O5 0.089449 0.897414 0.262477
O O6 0.360683 0.058383 0.137439
O O7 0.032023 0.795488 0.047597
O O8 0.535101 0.712738 0.022611
O O9 0.936375 0.525017 0.149688
O O10 0.013835 0.258891 0.158843
O O11 0.397422 0.432901 0.245264
O O12 0.446952 0.765262 0.280142
O O13 0.000000 0.000000 0.500000
#
# Coordination Sequence:
#
# PCOD9070493 Si02
#       6
#     2   2   2   2   2   2
#     4  12  24  48  84 116 154 204 270 325 390 461
#     4  12  28  49  81 115 156 212 268 320 392 469
#     4  12  27  49  81 116 163 207 264 323 393 471
#     4  12  27  48  79 117 164 206 259 326 400 467
#     4  12  25  50  81 119 157 204 270 329 385 464
#     4  12  29  52  78 116 159 210 261 331 396 472
#
# _framework density 27.302727000000001
#
# number of rings (size 3 to 8) (size 9 to 14) (size 15 to 20)
#    0.000    0.000    3.333    6.000    2.333    2.667 
#    0.000    0.000    0.000    0.000    0.000    0.000 
#    0.000    0.000    0.000    0.000    0.000    0.000 
#
# Total GULP energy -67393.644043 kJ/mol
# GULP energy per Si atom -5616.137004 kJ/mol
# Density = 2.724059 g / cm^3
# Si number density = 27.302727 Si / 1000 Ang^3
#
#
#
# Elastic Constant Matrix: (Units=GPa)
#
#
# Indices 1 2 3 4 5 6 
#
# 1 138.8643 37.0199 49.0688 15.5261 10.4998 -3.3524
# 2 37.0199 133.9018 36.7104 37.7238 0.9547 -0.2655
# 3 49.0688 36.7104 161.3049 2.7534 1.9750 -4.7017
# 4 15.5261 37.7238 2.7534 34.5186 -6.4624 -1.3620
# 5 10.4998 0.9547 1.9750 -6.4624 78.2698 1.1733
# 6 -3.3524 -0.2655 -4.7017 -1.3620 1.1733 56.6005
#
#
#
# Elastic Compliance Matrix: (Units=1/GPa)
#
#
# Indices 1 2 3 4 5 6 
#
# 1 0.008724 -0.000912 -0.002371 -0.002980 -0.001349 0.000272
# 2 -0.000912 0.011885 -0.002213 -0.012608 -0.001001 -0.000465
# 3 -0.002371 -0.002213 0.007384 0.002992 0.000398 0.000526
# 4 -0.002980 -0.012608 0.002992 0.044667 0.004151 0.001002
# 5 -0.001349 -0.001001 0.000398 0.004151 0.013306 -0.000228
# 6 0.000272 -0.000465 0.000526 0.001002 -0.000228 0.017754
#
#
# Mechanical properties :
#
#
# Convention : Reuss Voigt Hill
#
# Bulk Modulus (GPa) = 58.82396 75.51880 67.17138
# Shear Modulus (GPa) = 41.53524 54.62925 48.08225
#
# Velocity S-wave (km/s) = 3.90460 4.47796 4.20107
# Velocity P-wave (km/s) = 6.47454 7.37943 6.94175
#
# Compressibility (1/GPa) = 0.01699988
#
# Stress axis : x y z
#
# Youngs Moduli (GPa) = 114.62609 84.13676 135.43119
#
# Poissons Ratio (x) = 0.07676 0.32109
# Poissons Ratio (y) = 0.10457 0.29978
# Poissons Ratio (z) = 0.27177 0.18624
#
# Static dielectric constant tensor:
#      x y z
#    x 2.114310 0.039620 -0.012550 
#    y 0.039620 2.143230 -0.049410 
#    z -0.012550 -0.049410 2.110440 
# 
# From -- ./inp_files/480881.got.cif
#   From: 2010.05.17/outbox.cif.g08.bks.cpg/sg2_241_cif.got.tgz:480881.got - 2010.06.03 11:33:40.
