data_PCOD9070135
_publ_section_title
;
Structure prediction by ZEFSAII (Michael W. Deem and Ramdas Pophale) SiO2 
 PCOD9070135
Probable space group: P -1
;
_chemical_formula_sum "Si O2"
_cell_formula_units_Z 16
_cell_length_a 11.878311
_cell_length_b 6.766929
_cell_length_c 13.427388
_cell_angle_alpha 132.796693
_cell_angle_beta 74.798191
_cell_angle_gamma 99.181411
_cell_volume 763.973921
_symmetry_space_group_name_H-M "P -1"
_symmetry_group_IT_number 2
_symmetry_cell_setting 'triclinic'
loop_
_space_group_symop_operation_xyz
x,y,z
-x,-y,-z
loop_
_atom_site_type_symbol
_atom_site_label
_atom_site_fract_x
_atom_site_fract_y
_atom_site_fract_z
Si Si1 0.494567 0.689577 0.361405
Si Si2 0.080375 0.237022 0.770661
Si Si3 0.737275 0.565630 0.351282
Si Si4 0.490991 0.763175 0.160188
Si Si5 0.754700 0.934114 0.146398
Si Si6 0.066971 0.286935 0.341039
Si Si7 0.672807 0.728653 0.644017
Si Si8 0.065564 0.273232 0.102502
O O1 0.624207 0.567332 0.307183
O O2 0.460363 0.680447 0.251204
O O3 0.404499 0.519960 0.388071
O O4 0.500000 0.000000 0.500000
O O5 0.162762 0.259758 0.662201
O O6 0.169976 0.202831 0.829577
O O7 0.998283 0.501561 0.872827
O O8 0.994871 0.990681 0.714596
O O9 0.697109 0.688943 0.507601
O O10 0.777362 0.254057 0.249234
O O11 0.618435 0.893318 0.178932
O O12 0.398996 0.993526 0.225362
O O13 0.500000 0.500000 0.000000
O O14 0.802719 0.791026 0.986160
O O15 0.202888 0.275304 0.332708
O O16 0.056402 0.343453 0.244909
O O17 0.000000 0.500000 0.500000
O O18 0.000000 0.000000 0.000000
#
# Coordination Sequence:
#
# PCOD9070135 Si02
#       8
#     2   2   2   2   2   2   2   2
#     4  12  25  47  78 103 140 194 243 295 360 430
#     4  12  25  46  77 104 146 196 244 296 363 428
#     4  12  24  45  78 107 140 191 251 303 350 432
#     4  12  29  46  71 112 150 193 237 302 375 429
#     4  12  25  46  73 108 145 189 251 299 357 434
#     4  12  30  49  71 110 152 192 238 300 367 435
#     4  12  28  47  73 109 152 187 244 304 365 430
#     4  12  26  46  73 107 143 193 246 294 354 435
#
# _framework density 20.943121999999999
#
# number of rings (size 3 to 8) (size 9 to 14) (size 15 to 20)
#    0.000    0.000    6.250    3.000    5.250    3.500 
#    0.000    0.000    0.000    0.000    0.000    0.000 
#    0.000    0.000    0.000    0.000    0.000    0.000 
#
# Total GULP energy -89568.466091 kJ/mol
# GULP energy per Si atom -5598.029131 kJ/mol
# Density = 2.089545 g / cm^3
# Si number density = 20.943122 Si / 1000 Ang^3
#
#
#
# Elastic Constant Matrix: (Units=GPa)
#
#
# Indices 1 2 3 4 5 6 
#
# 1 114.4660 35.0291 15.2994 13.9360 -16.8350 -17.0926
# 2 35.0291 119.5992 53.5470 6.8268 -9.0659 -14.6409
# 3 15.2994 53.5470 131.3669 7.4250 -11.5181 -18.5271
# 4 13.9360 6.8268 7.4250 32.7270 0.4944 -11.4352
# 5 -16.8350 -9.0659 -11.5181 0.4944 37.1514 -3.2888
# 6 -17.0926 -14.6409 -18.5271 -11.4352 -3.2888 41.5475
#
#
#
# Elastic Compliance Matrix: (Units=1/GPa)
#
#
# Indices 1 2 3 4 5 6 
#
# 1 0.011085 -0.002659 0.000914 -0.003210 0.005014 0.003544
# 2 -0.002659 0.011100 -0.004039 0.000102 0.000345 0.001072
# 3 0.000914 -0.004039 0.009918 -0.000644 0.002815 0.003421
# 4 -0.003210 0.000102 -0.000644 0.034831 -0.001393 0.007904
# 5 0.005014 0.000345 0.002815 -0.001393 0.030650 0.005482
# 6 0.003544 0.001072 0.003421 0.007904 0.005482 0.030040
#
#
# Mechanical properties :
#
#
# Convention : Reuss Voigt Hill
#
# Bulk Modulus (GPa) = 48.69779 63.68701 56.19240
# Shear Modulus (GPa) = 34.23809 39.72230 36.98020
#
# Velocity S-wave (km/s) = 4.04767 4.35981 4.20663
# Velocity P-wave (km/s) = 6.71920 7.47124 7.10518
#
# Compressibility (1/GPa) = 0.02053481
#
# Stress axis : x y z
#
# Youngs Moduli (GPa) = 90.20988 90.09091 100.82793
#
# Poissons Ratio (x) = 0.23951 -0.09212
# Poissons Ratio (y) = 0.23983 0.40726
# Poissons Ratio (z) = -0.08242 0.36389
#
# Static dielectric constant tensor:
#      x y z
#    x 1.752700 -0.004470 -0.017270 
#    y -0.004470 1.730150 -0.016250 
#    z -0.017270 -0.016250 1.745640 
# 
# From -- ./inp_files/411240.got.cif
#   From: 2010.05.17/outbox.cif.g08.bks.cpg/sg2_206_cif.got.tgz:411240.got - 2010.06.03 11:33:40.
