data_PCOD9070108
_publ_section_title
;
Structure prediction by ZEFSAII (Michael W. Deem and Ramdas Pophale) SiO2 
 PCOD9070108
Probable space group: P -1
;
_chemical_formula_sum "Si O2"
_cell_formula_units_Z 15
_cell_length_a 9.247439
_cell_length_b 8.804991
_cell_length_c 21.538295
_cell_angle_alpha 49.781153
_cell_angle_beta 31.732699
_cell_angle_gamma 47.629596
_cell_volume 669.484209
_symmetry_space_group_name_H-M "P -1"
_symmetry_group_IT_number 2
_symmetry_cell_setting 'triclinic'
loop_
_space_group_symop_operation_xyz
x,y,z
-x,-y,-z
loop_
_atom_site_type_symbol
_atom_site_label
_atom_site_fract_x
_atom_site_fract_y
_atom_site_fract_z
Si Si1 0.329038 0.450556 0.727058
Si Si2 0.247015 0.340081 0.328984
Si Si3 0.625510 0.626744 0.468893
Si Si4 0.334322 0.424036 0.879205
Si Si5 0.352329 0.318850 0.090318
Si Si6 0.702229 0.988601 0.706841
Si Si7 0.500000 0.000000 0.000000
Si Si8 0.308568 0.054010 0.493003
O O1 0.495212 0.583290 0.593447
O O2 0.367626 0.444719 0.788093
O O3 0.469323 0.210508 0.718053
O O4 0.990389 0.559015 0.810925
O O5 0.514273 0.414450 0.190765
O O6 0.966618 0.539920 0.371703
O O7 0.205984 0.157616 0.348567
O O8 0.274081 0.259731 0.411125
O O9 0.500000 0.500000 0.500000
O O10 0.505111 0.864475 0.429780
O O11 0.000000 0.500000 0.000000
O O12 0.475920 0.183420 0.909397
O O13 0.422338 0.145212 0.164712
O O14 0.425302 0.189697 0.033097
O O15 0.500000 0.500000 0.000000
O O16 0.988554 0.029956 0.620607
O O17 0.500000 0.000000 0.500000
#
# Coordination Sequence:
#
# PCOD9070108 Si02
#       8
#     2   2   2   2   2   2   1   2
#     4  12  25  46  75 105 152 196 251 321 381 465
#     4  12  27  47  76 111 152 202 257 317 395 470
#     4  12  24  45  75 110 150 196 249 314 384 466
#     4  12  28  48  74 106 151 196 258 317 385 461
#     4  12  27  48  78 111 150 204 267 319 390 468
#     4  12  25  47  74 107 153 201 252 320 387 471
#     4  12  26  50  76 102 154 198 256 326 380 450
#     4  12  26  43  74 110 150 196 250 313 394 463
#
# _framework density 22.40531
#
# number of rings (size 3 to 8) (size 9 to 14) (size 15 to 20)
#    0.000    0.000    6.667    2.800    1.867    3.733 
#    0.000    0.000    0.000    0.000    0.000    0.000 
#    0.000    0.000    0.000    0.000    0.000    0.000 
#
# Total GULP energy -83614.994853 kJ/mol
# GULP energy per Si atom -5574.332990 kJ/mol
# Density = 2.235431 g / cm^3
# Si number density = 22.405310 Si / 1000 Ang^3
#
#
#
# Elastic Constant Matrix: (Units=GPa)
#
#
# Indices 1 2 3 4 5 6 
#
# 1 67.4712 -2.5053 31.0816 -0.3907 4.2430 7.3566
# 2 -2.5053 101.9332 21.6019 -4.6777 -18.3708 -2.1260
# 3 31.0816 21.6019 112.0195 -8.6947 -12.4114 5.5069
# 4 -0.3907 -4.6777 -8.6947 42.2657 0.3348 8.0620
# 5 4.2430 -18.3708 -12.4114 0.3348 38.7639 -2.7569
# 6 7.3566 -2.1260 5.5069 8.0620 -2.7569 34.9249
#
#
#
# Elastic Compliance Matrix: (Units=1/GPa)
#
#
# Indices 1 2 3 4 5 6 
#
# 1 0.017889 0.000878 -0.005385 -0.000229 -0.003484 -0.003088
# 2 0.000878 0.011115 -0.001874 0.000623 0.004638 0.001009
# 3 -0.005385 -0.001874 0.011368 0.002253 0.003248 -0.001036
# 4 -0.000229 0.000623 0.002253 0.025349 0.000390 -0.006090
# 5 -0.003484 0.004638 0.003248 0.000390 0.029608 0.002751
# 6 -0.003088 0.001009 -0.001036 -0.006090 0.002751 0.031131
#
#
# Mechanical properties :
#
#
# Convention : Reuss Voigt Hill
#
# Bulk Modulus (GPa) = 36.21950 42.42004 39.31977
# Shear Modulus (GPa) = 33.68698 38.60728 36.14713
#
# Velocity S-wave (km/s) = 3.88174 4.15556 4.02098
# Velocity P-wave (km/s) = 6.02422 6.48067 6.25661
#
# Compressibility (1/GPa) = 0.02760944
#
# Stress axis : x y z
#
# Youngs Moduli (GPa) = 55.90103 89.97171 87.96421
#
# Poissons Ratio (x) = -0.07900 0.47367
# Poissons Ratio (y) = -0.04909 0.16488
# Poissons Ratio (z) = 0.30101 0.16864
#
# Static dielectric constant tensor:
#      x y z
#    x 1.891940 0.056110 -0.002560 
#    y 0.056110 1.865950 0.013090 
#    z -0.002560 0.013090 1.811510 
# 
# From -- ./inp_files/383204.got.cif
#   From: 2010.05.17/outbox.cif.g08.bks.cpg/sg2_192_cif.got.tgz:383204.got - 2010.06.03 11:33:40.
