data_PCOD9070345
_publ_section_title
;
Structure prediction by ZEFSAII (Michael W. Deem and Ramdas Pophale) SiO2 
 PCOD9070345
Probable space group: P -1
;
_chemical_formula_sum "Si O2"
_cell_formula_units_Z 14
_cell_length_a 9.295510
_cell_length_b 14.747036
_cell_length_c 14.989492
_cell_angle_alpha 30.393796
_cell_angle_beta 141.150267
_cell_angle_gamma 142.602457
_cell_volume 601.427348
_symmetry_space_group_name_H-M "P -1"
_symmetry_group_IT_number 2
_symmetry_cell_setting 'triclinic'
loop_
_space_group_symop_operation_xyz
x,y,z
-x,-y,-z
loop_
_atom_site_type_symbol
_atom_site_label
_atom_site_fract_x
_atom_site_fract_y
_atom_site_fract_z
Si Si1 0.145387 0.348200 0.080866
Si Si2 0.611237 0.069751 0.091477
Si Si3 0.595888 0.478955 0.292052
Si Si4 0.113020 0.105737 0.874989
Si Si5 0.093966 0.536908 0.714627
Si Si6 0.525868 0.346042 0.569473
Si Si7 0.211505 0.964548 0.398761
O O1 0.356387 0.501700 0.112608
O O2 0.855497 0.266122 0.036905
O O3 0.198022 0.150619 0.283545
O O4 0.178917 0.438058 0.921638
O O5 0.646395 0.877588 0.305135
O O6 0.380556 0.094105 0.005953
O O7 0.500000 0.000000 0.000000
O O8 0.822300 0.668296 0.274685
O O9 0.725788 0.417719 0.322861
O O10 0.494025 0.373951 0.425535
O O11 0.931686 0.033388 0.764727
O O12 0.000000 0.000000 0.000000
O O13 0.087256 0.744840 0.562704
O O14 0.818074 0.385479 0.687014
O O15 0.500000 0.500000 0.500000
O O16 0.500000 0.000000 0.500000
#
# Coordination Sequence:
#
# PCOD9070345 Si02
#       7
#     2   2   2   2   2   2   2
#     4  12  27  49  74 114 151 195 251 307 373 442
#     4  12  24  47  76 100 150 198 242 304 375 441
#     4  12  27  46  73 113 147 188 258 304 368 446
#     4  12  27  46  73 109 146 194 249 304 370 441
#     4  12  25  46  79 104 154 197 243 309 375 437
#     4  12  25  47  74 104 148 200 247 307 375 446
#     4  12  25  44  75 108 149 191 245 305 370 439
#
# _framework density 23.277956
#
# number of rings (size 3 to 8) (size 9 to 14) (size 15 to 20)
#    0.000    0.000    5.714    4.286    4.000    1.143 
#    0.000    0.000    0.000    0.000    0.000    0.000 
#    0.000    0.000    0.000    0.000    0.000    0.000 
#
# Total GULP energy -78183.700325 kJ/mol
# GULP energy per Si atom -5584.550023 kJ/mol
# Density = 2.322497 g / cm^3
# Si number density = 23.277956 Si / 1000 Ang^3
#
#
#
# Elastic Constant Matrix: (Units=GPa)
#
#
# Indices 1 2 3 4 5 6 
#
# 1 137.1271 20.3419 40.7085 6.6828 -3.5257 7.3604
# 2 20.3419 90.5885 2.9254 19.2597 -2.1075 10.2554
# 3 40.7085 2.9254 86.6860 -3.3992 -15.6406 -4.7851
# 4 6.6828 19.2597 -3.3992 50.5006 3.7345 4.0391
# 5 -3.5257 -2.1075 -15.6406 3.7345 43.3375 4.0422
# 6 7.3604 10.2554 -4.7851 4.0391 4.0422 32.0164
#
#
#
# Elastic Compliance Matrix: (Units=1/GPa)
#
#
# Indices 1 2 3 4 5 6 
#
# 1 0.008954 -0.001503 -0.004419 -0.000693 -0.000687 -0.002063
# 2 -0.001503 0.012725 0.000143 -0.004472 0.001241 -0.003302
# 3 -0.004419 0.000143 0.014611 0.000977 0.004608 0.002449
# 4 -0.000693 -0.004472 0.000977 0.021857 -0.001730 -0.000801
# 5 -0.000687 0.001241 0.004608 -0.001730 0.025125 -0.002505
# 6 -0.002063 -0.003302 0.002449 -0.000801 -0.002505 0.033549
#
#
# Mechanical properties :
#
#
# Convention : Reuss Voigt Hill
#
# Bulk Modulus (GPa) = 40.43395 49.15037 44.79216
# Shear Modulus (GPa) = 36.59640 41.86594 39.23117
#
# Velocity S-wave (km/s) = 3.96933 4.24550 4.10974
# Velocity P-wave (km/s) = 6.19800 6.72256 6.46560
#
# Compressibility (1/GPa) = 0.02473169
#
# Stress axis : x y z
#
# Youngs Moduli (GPa) = 111.67801 78.58332 68.43976
#
# Poissons Ratio (x) = 0.11811 0.30246
# Poissons Ratio (y) = 0.16785 -0.00977
# Poissons Ratio (z) = 0.49355 -0.01122
#
# Static dielectric constant tensor:
#      x y z
#    x 1.886900 -0.061350 0.071260 
#    y -0.061350 1.866460 -0.037160 
#    z 0.071260 -0.037160 1.896510 
# 
# From -- ./inp_files/158169.got.cif
#   From: 2010.05.17/outbox.cif.g08.bks.cpg/sg2_80_cif.got.tgz:158169.got - 2010.06.03 11:33:40.
