data_PCOD9070535
_publ_section_title
;
Structure prediction by ZEFSAII (Michael W. Deem and Ramdas Pophale) SiO2 
 PCOD9070535
Probable space group: P -1
;
_chemical_formula_sum "Si O2"
_cell_formula_units_Z 14
_cell_length_a 9.008261
_cell_length_b 14.496797
_cell_length_c 14.009845
_cell_angle_alpha 31.076163
_cell_angle_beta 33.362150
_cell_angle_gamma 37.456258
_cell_volume 499.099804
_symmetry_space_group_name_H-M "P -1"
_symmetry_group_IT_number 2
_symmetry_cell_setting 'triclinic'
loop_
_space_group_symop_operation_xyz
x,y,z
-x,-y,-z
loop_
_atom_site_type_symbol
_atom_site_label
_atom_site_fract_x
_atom_site_fract_y
_atom_site_fract_z
Si Si1 0.416333 0.844522 0.405562
Si Si2 0.678260 0.514191 0.683770
Si Si3 0.281793 0.342915 0.961440
Si Si4 0.861794 0.542998 0.762728
Si Si5 0.542011 0.851601 0.805556
Si Si6 0.709274 0.233450 0.672278
Si Si7 0.023762 0.121389 0.026636
O O1 0.475974 0.639361 0.604898
O O2 0.298525 0.808328 0.397603
O O3 0.362238 0.958883 0.434063
O O4 0.725589 0.870731 0.187302
O O5 0.562160 0.331029 0.892990
O O6 0.662571 0.568624 0.753960
O O7 0.000000 0.500000 0.500000
O O8 0.405300 0.310995 0.818583
O O9 0.274992 0.149256 0.185681
O O10 0.000000 0.500000 0.000000
O O11 0.730159 0.680507 0.795238
O O12 0.133707 0.609748 0.530927
O O13 0.931418 0.326174 0.940242
O O14 0.236261 0.901806 0.874017
O O15 0.859384 0.046260 0.815010
#
# Coordination Sequence:
#
# PCOD9070535 Si02
#       7
#     2   2   2   2   2   2   2
#     4  12  27  48  79 113 162 207 263 330 400 477
#     4  12  24  49  82 114 154 214 270 322 401 480
#     4  12  28  46  80 122 163 204 267 340 405 471
#     4  12  28  51  81 119 156 208 271 331 396 479
#     4  12  28  49  78 120 157 205 270 335 396 474
#     4  12  29  51  82 117 161 216 266 327 407 481
#     4  12  25  50  84 110 158 210 271 325 397 478
#
# _framework density 28.050501000000001
#
# number of rings (size 3 to 8) (size 9 to 14) (size 15 to 20)
#    0.000    0.000    5.714    2.143    4.000    4.000 
#    0.000    0.000    0.000    0.000    0.000    0.000 
#    0.000    0.000    0.000    0.000    0.000    0.000 
#
# Total GULP energy -78206.856816 kJ/mol
# GULP energy per Si atom -5586.204058 kJ/mol
# Density = 2.798666 g / cm^3
# Si number density = 28.050501 Si / 1000 Ang^3
#
#
#
# Elastic Constant Matrix: (Units=GPa)
#
#
# Indices 1 2 3 4 5 6 
#
# 1 229.6492 68.5527 71.1342 -28.7957 -3.8289 2.2085
# 2 68.5527 172.0692 27.4854 -5.4132 -4.5102 5.9208
# 3 71.1342 27.4854 72.3914 -1.4845 -7.2406 -7.9614
# 4 -28.7957 -5.4132 -1.4845 40.3151 1.7185 -11.1176
# 5 -3.8289 -4.5102 -7.2406 1.7185 49.9068 -14.8874
# 6 2.2085 5.9208 -7.9614 -11.1176 -14.8874 52.6561
#
#
#
# Elastic Compliance Matrix: (Units=1/GPa)
#
#
# Indices 1 2 3 4 5 6 
#
# 1 0.007601 -0.001797 -0.006810 0.004875 -0.000841 -0.000355
# 2 -0.001797 0.006681 -0.000878 -0.000678 0.000085 -0.000928
# 3 -0.006810 -0.000878 0.021604 -0.003232 0.003854 0.004058
# 4 0.004875 -0.000678 -0.003232 0.029653 0.000553 0.005800
# 5 -0.000841 0.000085 0.003854 0.000553 0.022647 0.007128
# 6 -0.000355 -0.000928 0.004058 0.005800 0.007128 0.022964
#
#
# Mechanical properties :
#
#
# Convention : Reuss Voigt Hill
#
# Bulk Modulus (GPa) = 59.11560 89.82825 74.47193
# Shear Modulus (GPa) = 36.83026 49.03810 42.93418
#
# Velocity S-wave (km/s) = 3.62746 4.18569 3.91654
# Velocity P-wave (km/s) = 6.21813 7.44670 6.85997
#
# Compressibility (1/GPa) = 0.01691601
#
# Stress axis : x y z
#
# Youngs Moduli (GPa) = 131.56369 149.68706 46.28701
#
# Poissons Ratio (x) = 0.26897 0.31520
# Poissons Ratio (y) = 0.23641 0.04065
# Poissons Ratio (z) = 0.89592 0.13145
#
# Static dielectric constant tensor:
#      x y z
#    x 6.214950 -5.094080 1.819900 
#    y -5.094080 9.058000 -2.573150 
#    z 1.819900 -2.573150 3.286590 
# 
# From -- ./inp_files/504862.got.cif
#   From: 2010.05.17/outbox.cif.g08.bks.cpg/sg2_253_cif.got.tgz:504862.got - 2010.06.03 11:33:40.
