data_PCOD9070131
_publ_section_title
;
Structure prediction by ZEFSAII (Michael W. Deem and Ramdas Pophale) SiO2 
 PCOD9070131
Probable space group: P -1
;
_chemical_formula_sum "Si O2"
_cell_formula_units_Z 14
_cell_length_a 8.854691
_cell_length_b 11.479783
_cell_length_c 13.903637
_cell_angle_alpha 29.522702
_cell_angle_beta 61.144114
_cell_angle_gamma 54.963182
_cell_volume 569.722783
_symmetry_space_group_name_H-M "P -1"
_symmetry_group_IT_number 2
_symmetry_cell_setting 'triclinic'
loop_
_space_group_symop_operation_xyz
x,y,z
-x,-y,-z
loop_
_atom_site_type_symbol
_atom_site_label
_atom_site_fract_x
_atom_site_fract_y
_atom_site_fract_z
Si Si1 0.369998 0.886197 0.183580
Si Si2 0.768247 0.934845 0.173542
Si Si3 0.027730 0.442526 0.345135
Si Si4 0.875682 0.566057 0.895155
Si Si5 0.373149 0.549590 0.255436
Si Si6 0.033240 0.948291 0.807648
Si Si7 0.434681 0.884478 0.387075
O O1 0.339804 0.660148 0.295095
O O2 0.163304 0.084836 0.112655
O O3 0.427844 0.810565 0.329963
O O4 0.500000 0.000000 0.000000
O O5 0.642147 0.883717 0.331415
O O6 0.858823 0.688796 0.257223
O O7 0.931955 0.988088 0.139794
O O8 0.636122 0.195570 0.979718
O O9 0.030258 0.418972 0.246784
O O10 0.213744 0.478602 0.302310
O O11 0.021005 0.184917 0.576533
O O12 0.714514 0.837618 0.757148
O O13 0.000000 0.500000 0.000000
O O14 0.816586 0.320153 0.075364
O O15 0.562514 0.312695 0.387402
#
# Coordination Sequence:
#
# PCOD9070131 Si02
#       7
#     2   2   2   2   2   2   2
#     4  12  25  47  77 115 152 193 250 327 379 437
#     4  12  24  47  83 114 146 197 258 318 368 451
#     4  12  26  48  84 109 149 204 255 312 380 449
#     4  12  29  51  72 109 158 206 250 308 385 457
#     4  12  24  45  77 113 149 192 254 312 377 435
#     4  12  25  51  82 108 150 202 257 310 379 456
#     4  12  28  47  72 116 156 194 255 310 378 451
#
# _framework density 24.573356
#
# number of rings (size 3 to 8) (size 9 to 14) (size 15 to 20)
#    0.000    0.000    7.143    3.000    0.000    2.857 
#    2.571    0.000    0.000    0.000    0.000    0.000 
#    0.000    0.000    0.000    0.000    0.000    0.000 
#
# Total GULP energy -78205.696778 kJ/mol
# GULP energy per Si atom -5586.121198 kJ/mol
# Density = 2.451743 g / cm^3
# Si number density = 24.573356 Si / 1000 Ang^3
#
#
#
# Elastic Constant Matrix: (Units=GPa)
#
#
# Indices 1 2 3 4 5 6 
#
# 1 83.7414 33.4765 33.5346 4.3088 23.3890 8.6349
# 2 33.4765 119.0242 65.6887 -15.7401 16.2048 21.4923
# 3 33.5346 65.6887 193.7550 -8.1123 40.9935 14.1877
# 4 4.3088 -15.7401 -8.1123 39.0815 0.3282 6.2427
# 5 23.3890 16.2048 40.9935 0.3282 44.8313 -2.6392
# 6 8.6349 21.4923 14.1877 6.2427 -2.6392 24.6951
#
#
#
# Elastic Compliance Matrix: (Units=1/GPa)
#
#
# Indices 1 2 3 4 5 6 
#
# 1 0.015655 -0.003276 0.000004 -0.002546 -0.007129 -0.002743
# 2 -0.003276 0.014113 -0.002710 0.007352 -0.001652 -0.011616
# 3 0.000004 -0.002710 0.007650 0.001021 -0.006199 -0.002959
# 4 -0.002546 0.007352 0.001021 0.031366 -0.003339 -0.014381
# 5 -0.007129 -0.001652 -0.006199 -0.003339 0.033014 0.011865
# 6 -0.002743 -0.011616 -0.002959 -0.014381 0.011865 0.058165
#
#
# Mechanical properties :
#
#
# Convention : Reuss Voigt Hill
#
# Bulk Modulus (GPa) = 39.28615 73.54670 56.41643
# Shear Modulus (GPa) = 27.71422 39.30963 33.51193
#
# Velocity S-wave (km/s) = 3.36194 4.00395 3.69691
# Velocity P-wave (km/s) = 5.57604 7.16728 6.42114
#
# Compressibility (1/GPa) = 0.02545426
#
# Stress axis : x y z
#
# Youngs Moduli (GPa) = 63.87852 70.85558 130.71419
#
# Poissons Ratio (x) = 0.23211 -0.00050
# Poissons Ratio (y) = 0.20926 0.35423
# Poissons Ratio (z) = -0.00024 0.19201
#
# Static dielectric constant tensor:
#      x y z
#    x 2.007550 -0.009950 -0.013360 
#    y -0.009950 2.018660 -0.039420 
#    z -0.013360 -0.039420 2.050880 
# 
# From -- ./inp_files/499637.got.cif
#   From: 2010.05.17/outbox.cif.g08.bks.cpg/sg2_250_cif.got.tgz:499637.got - 2010.06.03 11:33:40.
