data_PCOD9070569
_publ_section_title
;
Structure prediction by ZEFSAII (Michael W. Deem and Ramdas Pophale) SiO2 
 PCOD9070569
Probable space group: P -1
;
_chemical_formula_sum "Si O2"
_cell_formula_units_Z 12
_cell_length_a 9.355773
_cell_length_b 10.583595
_cell_length_c 5.323987
_cell_angle_alpha 111.337702
_cell_angle_beta 93.616979
_cell_angle_gamma 115.810339
_cell_volume 426.344700
_symmetry_space_group_name_H-M "P -1"
_symmetry_group_IT_number 2
_symmetry_cell_setting 'triclinic'
loop_
_space_group_symop_operation_xyz
x,y,z
-x,-y,-z
loop_
_atom_site_type_symbol
_atom_site_label
_atom_site_fract_x
_atom_site_fract_y
_atom_site_fract_z
Si Si1 0.873022 0.822566 0.779251
Si Si2 0.453639 0.357944 0.078197
Si Si3 0.656064 0.906758 0.486077
Si Si4 0.099251 0.755689 0.431771
Si Si5 0.261588 0.643785 0.683979
Si Si6 0.000000 0.500000 0.000000
Si Si7 0.500000 0.000000 0.000000
O O1 0.773297 0.844270 0.553341
O O2 0.978466 0.751113 0.626009
O O3 0.728311 0.723010 0.886565
O O4 0.000000 0.000000 0.000000
O O5 0.460183 0.218359 0.821604
O O6 0.500000 0.500000 0.000000
O O7 0.592044 0.397935 0.336813
O O8 0.564134 0.933897 0.724069
O O9 0.762362 0.069098 0.474277
O O10 0.162444 0.627479 0.398784
O O11 0.009925 0.676451 0.109202
O O12 0.146583 0.552878 0.834049
O O13 0.332415 0.827494 0.870554
#
# Coordination Sequence:
#
# PCOD9070569 Si02
#       7
#     2   2   2   2   2   1   1
#     4  12  27  52  82 121 155 214 269 327 397 479
#     4  12  31  52  81 118 164 207 267 332 407 466
#     4  12  27  52  84 116 162 211 264 334 398 477
#     4  12  28  50  86 115 163 207 272 328 397 480
#     4  12  28  51  79 120 156 212 266 332 391 479
#     4  12  30  48  78 122 162 210 258 328 406 466
#     4  12  24  50  82 118 152 204 272 320 394 476
#
# _framework density 28.146236999999999
#
# number of rings (size 3 to 8) (size 9 to 14) (size 15 to 20)
#    0.000    0.000    5.000    3.000    7.000    3.333 
#    0.000    0.000    0.000    0.000    0.000    0.000 
#    0.000    0.000    0.000    0.000    0.000    0.000 
#
# Total GULP energy -66956.104040 kJ/mol
# GULP energy per Si atom -5579.675337 kJ/mol
# Density = 2.808217 g / cm^3
# Si number density = 28.146237 Si / 1000 Ang^3
#
#
#
# Elastic Constant Matrix: (Units=GPa)
#
#
# Indices 1 2 3 4 5 6 
#
# 1 162.6269 66.6017 54.4864 -40.1754 -14.0380 16.4142
# 2 66.6017 223.7236 57.9093 -7.8224 -21.9580 33.5911
# 3 54.4864 57.9093 124.6146 -5.9853 -32.6715 -6.3724
# 4 -40.1754 -7.8224 -5.9853 67.8999 -4.2659 1.7632
# 5 -14.0380 -21.9580 -32.6715 -4.2659 53.0447 -6.0118
# 6 16.4142 33.5911 -6.3724 1.7632 -6.0118 41.2287
#
#
#
# Elastic Compliance Matrix: (Units=1/GPa)
#
#
# Indices 1 2 3 4 5 6 
#
# 1 0.009474 -0.001190 -0.003566 0.005237 -0.000169 -0.003602
# 2 -0.001190 0.006264 -0.002629 -0.000079 0.000083 -0.005021
# 3 -0.003566 -0.002629 0.012795 -0.001046 0.006505 0.006533
# 4 0.005237 -0.000079 -0.001046 0.017911 0.001846 -0.002680
# 5 -0.000169 0.000083 0.006505 0.001846 0.023490 0.004351
# 6 -0.003602 -0.005021 0.006533 -0.002680 0.004351 0.031539
#
#
# Mechanical properties :
#
#
# Convention : Reuss Voigt Hill
#
# Bulk Modulus (GPa) = 72.66410 96.55111 84.60760
# Shear Modulus (GPa) = 41.38024 54.56583 47.97303
#
# Velocity S-wave (km/s) = 3.83846 4.40779 4.13294
# Velocity P-wave (km/s) = 6.74668 7.76419 7.27325
#
# Compressibility (1/GPa) = 0.01376195
#
# Stress axis : x y z
#
# Youngs Moduli (GPa) = 105.55202 159.64664 78.15373
#
# Poissons Ratio (x) = 0.18995 0.27873
# Poissons Ratio (y) = 0.12559 0.20549
# Poissons Ratio (z) = 0.37645 0.41976
#
# Static dielectric constant tensor:
#      x y z
#    x 2.046350 -0.131960 -0.182820 
#    y -0.131960 2.119220 -0.023080 
#    z -0.182820 -0.023080 1.792060 
# 
# From -- ./inp_files/22408.got.cif
#   From: 2010.05.17/outbox.cif.g08.bks.cpg/sg2_12_cif.got.tgz:22408.got - 2010.06.03 11:33:40.
