data_PCOD9070787
_publ_section_title
;
Structure prediction by ZEFSAII (Michael W. Deem and Ramdas Pophale) SiO2 
 PCOD9070787
Probable space group: P -1
;
_chemical_formula_sum "Si O2"
_cell_formula_units_Z 12
_cell_length_a 10.797181
_cell_length_b 12.552004
_cell_length_c 11.519574
_cell_angle_alpha 23.272910
_cell_angle_beta 52.209114
_cell_angle_gamma 53.176623
_cell_volume 484.137796
_symmetry_space_group_name_H-M "P -1"
_symmetry_group_IT_number 2
_symmetry_cell_setting 'triclinic'
loop_
_space_group_symop_operation_xyz
x,y,z
-x,-y,-z
loop_
_atom_site_type_symbol
_atom_site_label
_atom_site_fract_x
_atom_site_fract_y
_atom_site_fract_z
Si Si1 0.889661 0.780341 0.748527
Si Si2 0.581520 0.090126 0.248263
Si Si3 0.912935 0.989104 0.270682
Si Si4 0.419541 0.406822 0.394724
Si Si5 0.872634 0.541492 0.352665
Si Si6 0.392727 0.241128 0.894830
O O1 0.856997 0.855689 0.556558
O O2 0.731059 0.832549 0.862035
O O3 0.000000 0.000000 0.500000
O O4 0.000000 0.500000 0.000000
O O5 0.500000 0.000000 0.500000
O O6 0.767050 0.031526 0.225918
O O7 0.535365 0.903421 0.355350
O O8 0.544889 0.403529 0.922791
O O9 0.053416 0.766087 0.376159
O O10 0.993268 0.268094 0.946794
O O11 0.232339 0.416084 0.514317
O O12 0.505712 0.545957 0.311886
O O13 0.737025 0.605442 0.270660
O O14 0.500000 0.000000 0.000000
#
# Coordination Sequence:
#
# PCOD9070787 Si02
#       6
#     2   2   2   2   2   2
#     4  12  25  46  75 111 148 194 252 312 386 449
#     4  12  28  51  75 106 150 202 261 311 376 463
#     4  12  25  47  75 108 148 196 250 321 368 459
#     4  12  28  47  76 109 153 205 250 311 387 456
#     4  12  26  46  74 113 149 191 255 310 393 443
#     4  12  26  49  80 114 160 199 256 322 385 458
#
# _framework density 24.786331000000001
#
# number of rings (size 3 to 8) (size 9 to 14) (size 15 to 20)
#    0.000    0.000    3.333    6.000    0.000   10.667 
#    0.000    0.000    0.000    0.000    0.000    0.000 
#    0.000    0.000    0.000    0.000    0.000    0.000 
#
# Total GULP energy -67089.477007 kJ/mol
# GULP energy per Si atom -5590.789751 kJ/mol
# Density = 2.472992 g / cm^3
# Si number density = 24.786331 Si / 1000 Ang^3
#
#
#
# Elastic Constant Matrix: (Units=GPa)
#
#
# Indices 1 2 3 4 5 6 
#
# 1 143.0498 18.1653 33.0873 -15.1075 -10.3297 -5.1477
# 2 18.1653 98.8215 12.3662 15.6979 -31.9927 -12.1125
# 3 33.0873 12.3662 113.0906 4.2413 -7.9695 9.0412
# 4 -15.1075 15.6979 4.2413 56.0243 -7.2556 0.3782
# 5 -10.3297 -31.9927 -7.9695 -7.2556 31.3795 -10.1024
# 6 -5.1477 -12.1125 9.0412 0.3782 -10.1024 21.3108
#
#
#
# Elastic Compliance Matrix: (Units=1/GPa)
#
#
# Indices 1 2 3 4 5 6 
#
# 1 0.008488 0.001092 -0.002822 0.002931 0.006015 0.006668
# 2 0.001092 0.027585 -0.003382 -0.002426 0.038556 0.035698
# 3 -0.002822 -0.003382 0.010481 -0.001194 -0.005020 -0.009409
# 4 0.002931 -0.002426 -0.001194 0.019801 0.003068 0.000938
# 5 0.006015 0.038556 -0.005020 0.003068 0.095333 0.070636
# 6 0.006668 0.035698 -0.009409 0.000938 0.070636 0.106285
#
#
# Mechanical properties :
#
#
# Convention : Reuss Voigt Hill
#
# Bulk Modulus (GPa) = 27.52480 53.57775 40.55128
# Shear Modulus (GPa) = 17.22312 41.16577 29.19445
#
# Velocity S-wave (km/s) = 2.63889 4.07974 3.43570
# Velocity P-wave (km/s) = 4.51817 6.62232 5.66873
#
# Compressibility (1/GPa) = 0.03633087
#
# Stress axis : x y z
#
# Youngs Moduli (GPa) = 117.80743 36.25162 95.41006
#
# Poissons Ratio (x) = -0.03958 0.26924
# Poissons Ratio (y) = -0.12862 0.32264
# Poissons Ratio (z) = 0.33245 0.12259
#
# Static dielectric constant tensor:
#      x y z
#    x 2.081810 0.084340 0.205990 
#    y 0.084340 1.979400 0.069290 
#    z 0.205990 0.069290 2.160580 
# 
# From -- ./inp_files/424738.got.cif
#   From: 2010.05.17/outbox.cif.g08.bks.cpg/sg2_213_cif.got.tgz:424738.got - 2010.06.03 11:33:40.
