data_PCOD9070264
_publ_section_title
;
Structure prediction by ZEFSAII (Michael W. Deem and Ramdas Pophale) SiO2 
 PCOD9070264
Probable space group: P -1
;
_chemical_formula_sum "Si O2"
_cell_formula_units_Z 12
_cell_length_a 13.709564
_cell_length_b 8.558532
_cell_length_c 5.627455
_cell_angle_alpha 97.970668
_cell_angle_beta 92.778665
_cell_angle_gamma 43.332953
_cell_volume 447.403008
_symmetry_space_group_name_H-M "P -1"
_symmetry_group_IT_number 2
_symmetry_cell_setting 'triclinic'
loop_
_space_group_symop_operation_xyz
x,y,z
-x,-y,-z
loop_
_atom_site_type_symbol
_atom_site_label
_atom_site_fract_x
_atom_site_fract_y
_atom_site_fract_z
Si Si1 0.415174 0.909239 0.626832
Si Si2 0.420838 0.461039 0.820398
Si Si3 0.962126 0.128702 0.765592
Si Si4 0.307387 0.356229 0.135185
Si Si5 0.847472 0.722633 0.641250
Si Si6 0.211391 0.970942 0.932283
O O1 0.477892 0.698347 0.420597
O O2 0.557008 0.827472 0.716634
O O3 0.280732 0.146456 0.533766
O O4 0.341616 0.923829 0.852656
O O5 0.272568 0.726362 0.820203
O O6 0.500000 0.500000 0.000000
O O7 0.379222 0.339108 0.900058
O O8 0.798578 0.372644 0.768776
O O9 0.068038 0.154187 0.802310
O O10 0.000000 0.000000 0.500000
O O11 0.000000 0.000000 0.000000
O O12 0.201752 0.334253 0.159426
O O13 0.000000 0.500000 0.500000
O O14 0.832632 0.917616 0.787656
#
# Coordination Sequence:
#
# PCOD9070264 Si02
#       6
#     2   2   2   2   2   2
#     4  12  26  47  82 112 162 208 278 336 420 489
#     4  12  24  46  78 114 152 197 269 343 410 481
#     4  12  29  49  83 122 165 216 281 349 420 494
#     4  12  28  47  77 116 160 213 277 336 415 493
#     4  12  30  52  77 113 167 221 276 336 415 500
#     4  12  27  50  79 116 163 213 274 341 416 492
#
# _framework density 26.821456999999999
#
# number of rings (size 3 to 8) (size 9 to 14) (size 15 to 20)
#    0.000    0.000    5.000    3.000    7.000    6.667 
#    0.000    0.000    0.000    0.000    0.000    0.000 
#    0.000    0.000    0.000    0.000    0.000    0.000 
#
# Total GULP energy -66997.627570 kJ/mol
# GULP energy per Si atom -5583.135631 kJ/mol
# Density = 2.676041 g / cm^3
# Si number density = 26.821457 Si / 1000 Ang^3
#
#
#
# Elastic Constant Matrix: (Units=GPa)
#
#
# Indices 1 2 3 4 5 6 
#
# 1 118.2639 46.2887 39.4616 11.5852 -15.3394 -32.8766
# 2 46.2887 197.2335 78.9111 24.8381 -11.8615 -32.1549
# 3 39.4616 78.9111 144.4467 44.4428 -9.6430 -5.8303
# 4 11.5852 24.8381 44.4428 46.1508 -5.5611 -8.9127
# 5 -15.3394 -11.8615 -9.6430 -5.5611 38.4179 -3.0540
# 6 -32.8766 -32.1549 -5.8303 -8.9127 -3.0540 55.4593
#
#
#
# Elastic Compliance Matrix: (Units=1/GPa)
#
#
# Indices 1 2 3 4 5 6 
#
# 1 0.012071 -0.000383 -0.003147 0.002179 0.004801 0.007218
# 2 -0.000383 0.007334 -0.003899 0.000832 0.001558 0.003835
# 3 -0.003147 -0.003899 0.012900 -0.010541 -0.001108 -0.004525
# 4 0.002179 0.000832 -0.010541 0.032440 0.003660 0.006081
# 5 0.004801 0.001558 -0.001108 0.003660 0.029142 0.005826
# 6 0.007218 0.003835 -0.004525 0.006081 0.005826 0.025356
#
#
# Mechanical properties :
#
#
# Convention : Reuss Voigt Hill
#
# Bulk Modulus (GPa) = 57.31879 87.69633 72.50756
# Shear Modulus (GPa) = 35.73551 47.69111 41.71331
#
# Velocity S-wave (km/s) = 3.65409 4.22132 3.94791
# Velocity P-wave (km/s) = 6.26260 7.51843 6.91906
#
# Compressibility (1/GPa) = 0.01744629
#
# Stress axis : x y z
#
# Youngs Moduli (GPa) = 82.84058 136.34809 77.52221
#
# Poissons Ratio (x) = 0.05220 0.24398
# Poissons Ratio (y) = 0.03171 0.30228
# Poissons Ratio (z) = 0.26072 0.53167
#
# Static dielectric constant tensor:
#      x y z
#    x 2.248700 0.121330 -0.089680 
#    y 0.121330 2.175750 -0.078270 
#    z -0.089680 -0.078270 2.098470 
# 
# From -- ./inp_files/66913.got.cif
#   From: 2010.05.17/outbox.cif.g08.bks.cpg/sg2_34_cif.got.tgz:66913.got - 2010.06.03 11:33:40.
