data_PCOD9070913
_publ_section_title
;
Structure prediction by ZEFSAII (Michael W. Deem and Ramdas Pophale) SiO2 
 PCOD9070913
Probable space group: P -1
;
_chemical_formula_sum "Si O2"
_cell_formula_units_Z 12
_cell_length_a 9.009957
_cell_length_b 9.395337
_cell_length_c 15.024573
_cell_angle_alpha 112.069937
_cell_angle_beta 42.431072
_cell_angle_gamma 78.927269
_cell_volume 525.377406
_symmetry_space_group_name_H-M "P -1"
_symmetry_group_IT_number 2
_symmetry_cell_setting 'triclinic'
loop_
_space_group_symop_operation_xyz
x,y,z
-x,-y,-z
loop_
_atom_site_type_symbol
_atom_site_label
_atom_site_fract_x
_atom_site_fract_y
_atom_site_fract_z
Si Si1 0.307720 0.946289 0.077799
Si Si2 0.615439 0.749063 0.708619
Si Si3 0.799342 0.939794 0.558453
Si Si4 0.779621 0.474759 0.850594
Si Si5 0.417779 0.548110 0.445114
Si Si6 0.237886 0.353932 0.776899
O O1 0.367496 0.854638 0.928327
O O2 0.542197 0.737735 0.994085
O O3 0.944345 0.177501 0.330535
O O4 0.500000 0.000000 0.000000
O O5 0.617947 0.925127 0.710699
O O6 0.537196 0.650902 0.652773
O O7 0.000000 0.500000 0.500000
O O8 0.047730 0.681933 0.349932
O O9 0.551769 0.105213 0.624663
O O10 0.000000 0.000000 0.500000
O O11 0.040388 0.370705 0.789379
O O12 0.500000 0.500000 0.000000
O O13 0.500000 0.500000 0.500000
O O14 0.651827 0.539455 0.284670
O O15 0.000000 0.500000 0.000000
#
# Coordination Sequence:
#
# PCOD9070913 Si02
#       6
#     2   2   2   2   2   2
#     4  12  26  47  81 109 154 201 262 317 389 460
#     4  12  25  47  80 114 148 204 264 311 393 467
#     4  12  26  48  77 112 160 201 256 324 387 466
#     4  12  27  48  76 109 148 205 258 318 396 462
#     4  12  28  52  77 116 158 202 259 329 389 467
#     4  12  29  49  75 114 158 201 263 325 392 461
#
# _framework density 22.840720999999998
#
# number of rings (size 3 to 8) (size 9 to 14) (size 15 to 20)
#    0.000    0.000    3.333    5.500    9.333    2.000 
#    0.000    0.000    0.000    0.000    0.000    0.000 
#    0.000    0.000    0.000    0.000    0.000    0.000 
#
# Total GULP energy -66901.402785 kJ/mol
# GULP energy per Si atom -5575.116899 kJ/mol
# Density = 2.278873 g / cm^3
# Si number density = 22.840721 Si / 1000 Ang^3
#
#
#
# Elastic Constant Matrix: (Units=GPa)
#
#
# Indices 1 2 3 4 5 6 
#
# 1 162.9265 59.1085 34.9908 0.9697 5.2855 13.2421
# 2 59.1085 173.1578 19.2475 -6.8255 -21.6499 3.2296
# 3 34.9908 19.2475 97.9270 -13.9049 10.0963 11.5396
# 4 0.9697 -6.8255 -13.9049 49.5613 -1.7994 -2.3634
# 5 5.2855 -21.6499 10.0963 -1.7994 44.8441 5.3118
# 6 13.2421 3.2296 11.5396 -2.3634 5.3118 34.6654
#
#
#
# Elastic Compliance Matrix: (Units=1/GPa)
#
#
# Indices 1 2 3 4 5 6 
#
# 1 0.007738 -0.002621 -0.002044 -0.001231 -0.001544 -0.001879
# 2 -0.002621 0.007300 -0.000779 0.000986 0.004045 0.000028
# 3 -0.002044 -0.000779 0.012092 0.003114 -0.002426 -0.002588
# 4 -0.001231 0.000986 0.003114 0.021268 0.000692 0.000686
# 5 -0.001544 0.004045 -0.002426 0.000692 0.025342 -0.002815
# 6 -0.001879 0.000028 -0.002588 0.000686 -0.002815 0.030902
#
#
# Mechanical properties :
#
#
# Convention : Reuss Voigt Hill
#
# Bulk Modulus (GPa) = 61.56276 73.41164 67.48720
# Shear Modulus (GPa) = 41.34169 47.19180 44.26675
#
# Velocity S-wave (km/s) = 4.25902 4.55040 4.40712
# Velocity P-wave (km/s) = 7.15523 7.73425 7.45037
#
# Compressibility (1/GPa) = 0.01624359
#
# Stress axis : x y z
#
# Youngs Moduli (GPa) = 129.24018 136.98080 82.69711
#
# Poissons Ratio (x) = 0.35897 0.16903
# Poissons Ratio (y) = 0.33868 0.06440
# Poissons Ratio (z) = 0.26416 0.10667
#
# Static dielectric constant tensor:
#      x y z
#    x 1.884090 -0.052160 -0.048810 
#    y -0.052160 1.874980 0.096480 
#    z -0.048810 0.096480 1.811050 
# 
# From -- ./inp_files/190068.got.cif
#   From: 2010.05.17/outbox.cif.g08.bks.cpg/sg2_96_cif.got.tgz:190068.got - 2010.06.03 11:33:40.
