data_PCOD9070089
_publ_section_title
;
Structure prediction by ZEFSAII (Michael W. Deem and Ramdas Pophale) SiO2 
 PCOD9070089
Probable space group: P -1
;
_chemical_formula_sum "Si O2"
_cell_formula_units_Z 14
_cell_length_a 21.239491
_cell_length_b 8.218968
_cell_length_c 8.083446
_cell_angle_alpha 117.133708
_cell_angle_beta 34.010387
_cell_angle_gamma 130.042159
_cell_volume 594.349129
_symmetry_space_group_name_H-M "P -1"
_symmetry_group_IT_number 2
_symmetry_cell_setting 'triclinic'
loop_
_space_group_symop_operation_xyz
x,y,z
-x,-y,-z
loop_
_atom_site_type_symbol
_atom_site_label
_atom_site_fract_x
_atom_site_fract_y
_atom_site_fract_z
Si Si1 0.120372 0.599201 0.654356
Si Si2 0.553310 0.223343 0.393976
Si Si3 0.640344 0.398943 0.931900
Si Si4 0.963083 0.173668 0.603240
Si Si5 0.279310 0.166146 0.878018
Si Si6 0.116602 0.975677 0.659840
Si Si7 0.641835 0.658154 0.562884
O O1 0.263168 0.637007 0.410745
O O2 0.139875 0.817792 0.645964
O O3 0.064199 0.415845 0.548996
O O4 0.000000 0.500000 0.000000
O O5 0.425555 0.219134 0.605077
O O6 0.615618 0.420735 0.480984
O O7 0.500000 0.000000 0.500000
O O8 0.629180 0.276101 0.075502
O O9 0.717573 0.650952 0.931002
O O10 0.496549 0.343796 0.147162
O O11 0.934742 0.138788 0.456844
O O12 0.000000 0.000000 0.500000
O O13 0.823499 0.075892 0.956483
O O14 0.269297 0.217067 0.734639
O O15 0.258651 0.203389 0.442561
O O16 0.000000 0.000000 0.000000
#
# Coordination Sequence:
#
# PCOD9070089 Si02
#       7
#     2   2   2   2   2   2   2
#     4  12  26  45  73 103 141 189 245 291 351 423
#     4   9  19  35  69 106 137 176 230 290 350 417
#     4   9  20  40  71  98 136 185 231 284 356 414
#     4  12  24  45  73  96 139 187 235 292 356 422
#     4   9  18  38  69  96 130 182 223 275 358 413
#     4  12  28  44  68 105 145 187 238 294 357 426
#     4   9  20  44  68 101 140 179 230 289 354 432
#
# _framework density 23.555178999999999
#
# number of rings (size 3 to 8) (size 9 to 14) (size 15 to 20)
#    0.000    1.714    1.429    4.714    4.000    1.714 
#    0.000    5.714    0.000    0.000    0.000    0.000 
#    0.000    0.000    0.000    0.000    0.000    0.000 
#
# Total GULP energy -78199.724397 kJ/mol
# GULP energy per Si atom -5585.694600 kJ/mol
# Density = 2.350157 g / cm^3
# Si number density = 23.555179 Si / 1000 Ang^3
#
#
#
# Elastic Constant Matrix: (Units=GPa)
#
#
# Indices 1 2 3 4 5 6 
#
# 1 62.7643 39.1017 23.4244 10.4474 -0.0530 6.9929
# 2 39.1017 143.1802 23.0175 -4.5501 -7.4759 4.8242
# 3 23.4244 23.0175 129.8221 0.1366 -16.7004 3.0933
# 4 10.4474 -4.5501 0.1366 29.7399 -2.4297 -4.2938
# 5 -0.0530 -7.4759 -16.7004 -2.4297 27.3675 -8.4432
# 6 6.9929 4.8242 3.0933 -4.2938 -8.4432 39.2741
#
#
#
# Elastic Compliance Matrix: (Units=1/GPa)
#
#
# Indices 1 2 3 4 5 6 
#
# 1 0.023766 -0.006366 -0.003885 -0.010693 -0.006794 -0.005773
# 2 -0.006366 0.008987 -0.000077 0.004031 0.003107 0.001144
# 3 -0.003885 -0.000077 0.009180 0.002042 0.006230 0.001541
# 4 -0.010693 0.004031 0.002042 0.039711 0.008115 0.007334
# 5 -0.006794 0.003107 0.006230 0.008115 0.045278 0.010959
# 6 -0.005773 0.001144 0.001541 0.007334 0.010959 0.029386
#
#
# Mechanical properties :
#
#
# Convention : Reuss Voigt Hill
#
# Bulk Modulus (GPa) = 46.99638 56.31709 51.65674
# Shear Modulus (GPa) = 27.16592 35.95781 31.56187
#
# Velocity S-wave (km/s) = 3.39969 3.91133 3.66445
# Velocity P-wave (km/s) = 5.95025 6.66022 6.31522
#
# Compressibility (1/GPa) = 0.02127823
#
# Stress axis : x y z
#
# Youngs Moduli (GPa) = 42.07727 111.27502 108.93324
#
# Poissons Ratio (x) = 0.70836 0.42317
# Poissons Ratio (y) = 0.26786 0.00834
# Poissons Ratio (z) = 0.16346 0.00852
#
# Static dielectric constant tensor:
#      x y z
#    x 1.929410 0.049630 0.004410 
#    y 0.049630 1.770870 0.060280 
#    z 0.004410 0.060280 1.986830 
# 
# From -- ./inp_files/352385.got.cif
#   From: 2010.05.17/outbox.cif.g08.bks.cpg/sg2_177_cif.got.tgz:352385.got - 2010.06.03 11:33:40.
