data_PCOD9070921
_publ_section_title
;
Structure prediction by ZEFSAII (Michael W. Deem and Ramdas Pophale) SiO2 
 PCOD9070921
Probable space group: P -1
;
_chemical_formula_sum "Si O2"
_cell_formula_units_Z 12
_cell_length_a 5.037863
_cell_length_b 11.526991
_cell_length_c 10.932951
_cell_angle_alpha 61.047806
_cell_angle_beta 79.490593
_cell_angle_gamma 111.610585
_cell_volume 462.957077
_symmetry_space_group_name_H-M "P -1"
_symmetry_group_IT_number 2
_symmetry_cell_setting 'triclinic'
loop_
_space_group_symop_operation_xyz
x,y,z
-x,-y,-z
loop_
_atom_site_type_symbol
_atom_site_label
_atom_site_fract_x
_atom_site_fract_y
_atom_site_fract_z
Si Si1 0.262097 0.412473 0.176549
Si Si2 0.039464 0.110038 0.053529
Si Si3 0.796342 0.743687 0.505509
Si Si4 0.717798 0.320618 0.607857
Si Si5 0.745721 0.296567 0.901168
Si Si6 0.785637 0.043205 0.362217
O O1 0.389288 0.384417 0.307791
O O2 0.139008 0.527318 0.161314
O O3 0.009096 0.232357 0.256142
O O4 0.500000 0.500000 0.000000
O O5 0.390731 0.182083 0.045330
O O6 0.991096 0.246800 0.940916
O O7 0.773963 0.024967 0.224045
O O8 0.000000 0.000000 0.000000
O O9 0.582198 0.694302 0.427436
O O10 0.124089 0.754071 0.446984
O O11 0.872107 0.912884 0.451599
O O12 0.669299 0.268013 0.778370
O O13 0.000000 0.500000 0.500000
O O14 0.500000 0.000000 0.500000
#
# Coordination Sequence:
#
# PCOD9070921 Si02
#       6
#     2   2   2   2   2   2
#     4  12  28  51  80 117 165 216 270 329 405 488
#     4  12  28  52  81 116 163 212 270 336 407 480
#     4  12  28  51  80 117 161 210 269 334 402 482
#     4  12  25  47  81 116 158 205 268 335 405 474
#     4  12  27  48  82 117 156 209 271 333 403 479
#     4  12  29  51  83 119 167 218 271 334 408 488
#
# _framework density 25.920331000000001
#
# number of rings (size 3 to 8) (size 9 to 14) (size 15 to 20)
#    0.000    0.000    3.333    5.500    4.667    3.333 
#    0.000    0.000    0.000    0.000    0.000    0.000 
#    0.000    0.000    0.000    0.000    0.000    0.000 
#
# Total GULP energy -67224.267683 kJ/mol
# GULP energy per Si atom -5602.022307 kJ/mol
# Density = 2.586134 g / cm^3
# Si number density = 25.920331 Si / 1000 Ang^3
#
#
#
# Elastic Constant Matrix: (Units=GPa)
#
#
# Indices 1 2 3 4 5 6 
#
# 1 74.6171 30.8490 30.3943 -5.9067 -3.8785 -20.3539
# 2 30.8490 178.9166 52.8247 -14.7380 -12.3213 -53.2956
# 3 30.3943 52.8247 191.8610 5.3493 -17.1471 -22.4608
# 4 -5.9067 -14.7380 5.3493 62.1639 -2.1652 1.7651
# 5 -3.8785 -12.3213 -17.1471 -2.1652 42.2016 -15.2438
# 6 -20.3539 -53.2956 -22.4608 1.7651 -15.2438 43.1793
#
#
#
# Elastic Compliance Matrix: (Units=1/GPa)
#
#
# Indices 1 2 3 4 5 6 
#
# 1 0.016702 0.001052 -0.001341 0.001839 0.005073 0.010190
# 2 0.001052 0.012035 -0.000457 0.002822 0.010301 0.018635
# 3 -0.001341 -0.000457 0.006267 -0.000749 0.003448 0.003312
# 4 0.001839 0.002822 -0.000749 0.016980 0.003140 0.004376
# 5 0.005073 0.010301 0.003448 0.003140 0.039874 0.030847
# 6 0.010190 0.018635 0.003312 0.004376 0.030847 0.063397
#
#
# Mechanical properties :
#
#
# Convention : Reuss Voigt Hill
#
# Bulk Modulus (GPa) = 29.83864 74.83674 52.33769
# Shear Modulus (GPa) = 29.77670 51.59741 40.68706
#
# Velocity S-wave (km/s) = 3.39304 4.46647 3.96624
# Velocity P-wave (km/s) = 5.18526 7.45209 6.41953
#
# Compressibility (1/GPa) = 0.03351359
#
# Stress axis : x y z
#
# Youngs Moduli (GPa) = 59.87448 83.08794 159.56632
#
# Poissons Ratio (x) = -0.08743 0.21391
# Poissons Ratio (y) = -0.06301 0.07291
# Poissons Ratio (z) = 0.08027 0.03797
#
# Static dielectric constant tensor:
#      x y z
#    x 2.052950 0.066330 -0.029660 
#    y 0.066330 2.049830 0.028260 
#    z -0.029660 0.028260 2.075010 
# 
# From -- ./inp_files/361108.got.cif
#   From: 2010.05.17/outbox.cif.g08.bks.cpg/sg2_181_cif.got.tgz:361108.got - 2010.06.03 11:33:40.
