data_PCOD9070579
_publ_section_title
;
Structure prediction by ZEFSAII (Michael W. Deem and Ramdas Pophale) SiO2 
 PCOD9070579
Probable space group: P -1
;
_chemical_formula_sum "Si O2"
_cell_formula_units_Z 12
_cell_length_a 9.196642
_cell_length_b 21.815325
_cell_length_c 24.374994
_cell_angle_alpha 10.471804
_cell_angle_beta 32.755850
_cell_angle_gamma 33.618014
_cell_volume 480.076571
_symmetry_space_group_name_H-M "P -1"
_symmetry_group_IT_number 2
_symmetry_cell_setting 'triclinic'
loop_
_space_group_symop_operation_xyz
x,y,z
-x,-y,-z
loop_
_atom_site_type_symbol
_atom_site_label
_atom_site_fract_x
_atom_site_fract_y
_atom_site_fract_z
Si Si1 0.857932 0.499178 0.604557
Si Si2 0.576819 0.661399 0.721721
Si Si3 0.886941 0.273181 0.058713
Si Si4 0.553066 0.142975 0.096160
Si Si5 0.017754 0.007069 0.554962
Si Si6 0.302574 0.796599 0.278278
O O1 0.000000 0.500000 0.500000
O O2 0.082308 0.615831 0.471874
O O3 0.632579 0.800288 0.404322
O O4 0.702098 0.181524 0.956633
O O5 0.747069 0.987901 0.388470
O O6 0.280471 0.796789 0.679156
O O7 0.657784 0.410416 0.966774
O O8 0.665855 0.444441 0.830891
O O9 0.970420 0.602766 0.773826
O O10 0.139104 0.067124 0.131310
O O11 0.232992 0.151851 0.194687
O O12 0.000000 0.000000 0.500000
O O13 0.500000 0.500000 0.500000
O O14 0.500000 0.000000 0.000000
#
# Coordination Sequence:
#
# PCOD9070579 Si02
#       6
#     2   2   2   2   2   2
#     4  12  27  51  80 115 156 205 258 330 400 464
#     4  12  24  51  80 109 158 212 260 317 389 470
#     4  12  27  51  80 112 159 210 261 327 392 464
#     4  12  25  50  77 115 163 201 256 325 395 465
#     4  12  29  50  80 123 161 209 267 324 390 475
#     4  12  26  51  81 111 153 203 269 325 390 472
#
# _framework density 24.996012
#
# number of rings (size 3 to 8) (size 9 to 14) (size 15 to 20)
#    0.000    0.000    3.333    6.000    2.333    5.333 
#    3.000    0.000    0.000    0.000    0.000    0.000 
#    0.000    0.000    0.000    0.000    0.000    0.000 
#
# Total GULP energy -67247.420965 kJ/mol
# GULP energy per Si atom -5603.951747 kJ/mol
# Density = 2.493912 g / cm^3
# Si number density = 24.996012 Si / 1000 Ang^3
#
#
#
# Elastic Constant Matrix: (Units=GPa)
#
#
# Indices 1 2 3 4 5 6 
#
# 1 99.2121 57.6715 28.2775 -9.1166 7.4191 5.6591
# 2 57.6715 121.2450 24.5570 5.7862 9.0183 -7.3682
# 3 28.2775 24.5570 118.8910 5.2355 18.5631 -5.0266
# 4 -9.1166 5.7862 5.2355 69.0595 2.6710 5.9266
# 5 7.4191 9.0183 18.5631 2.6710 57.7617 -9.7825
# 6 5.6591 -7.3682 -5.0266 5.9266 -9.7825 29.3854
#
#
#
# Elastic Compliance Matrix: (Units=1/GPa)
#
#
# Indices 1 2 3 4 5 6 
#
# 1 0.015984 -0.007572 -0.002460 0.003547 -0.001356 -0.006564
# 2 -0.007572 0.012352 -0.000455 -0.002437 0.000153 0.005020
# 3 -0.002460 -0.000455 0.009570 -0.001040 -0.002402 0.001407
# 4 0.003547 -0.002437 -0.001040 0.015719 -0.001329 -0.005085
# 5 -0.001356 0.000153 -0.002402 -0.001329 0.019418 0.006621
# 6 -0.006564 0.005020 0.001407 -0.005085 0.006621 0.040024
#
#
# Mechanical properties :
#
#
# Convention : Reuss Voigt Hill
#
# Bulk Modulus (GPa) = 59.05578 62.26223 60.65901
# Shear Modulus (GPa) = 35.79534 46.49745 41.14639
#
# Velocity S-wave (km/s) = 3.78834 4.31768 4.06164
# Velocity P-wave (km/s) = 6.54314 7.05828 6.80559
#
# Compressibility (1/GPa) = 0.01693314
#
# Stress axis : x y z
#
# Youngs Moduli (GPa) = 62.56343 80.96181 104.48940
#
# Poissons Ratio (x) = 0.61304 0.25701
# Poissons Ratio (y) = 0.47373 0.04750
# Poissons Ratio (z) = 0.15388 0.03681
#
# Static dielectric constant tensor:
#      x y z
#    x 2.072960 -0.280260 0.154750 
#    y -0.280260 3.243080 -0.539770 
#    z 0.154750 -0.539770 2.192960 
# 
# From -- ./inp_files/617606.got.cif
#   From: 2010.05.17/outbox.cif.g08.bks.cpg/sg2_309_cif.got.tgz:617606.got - 2010.06.03 11:33:40.
