data_PCOD9070295
_publ_section_title
;
Structure prediction by ZEFSAII (Michael W. Deem and Ramdas Pophale) SiO2 
 PCOD9070295
Probable space group: P -1
;
_chemical_formula_sum "Si O2"
_cell_formula_units_Z 16
_cell_length_a 21.917444
_cell_length_b 9.436010
_cell_length_c 12.437367
_cell_angle_alpha 136.172128
_cell_angle_beta 152.888842
_cell_angle_gamma 37.419996
_cell_volume 711.318238
_symmetry_space_group_name_H-M "P -1"
_symmetry_group_IT_number 2
_symmetry_cell_setting 'triclinic'
loop_
_space_group_symop_operation_xyz
x,y,z
-x,-y,-z
loop_
_atom_site_type_symbol
_atom_site_label
_atom_site_fract_x
_atom_site_fract_y
_atom_site_fract_z
Si Si1 0.467966 0.588562 0.621580
Si Si2 0.085668 0.750676 0.442182
Si Si3 0.987711 0.428039 0.205179
Si Si4 0.844391 0.962430 0.570391
Si Si5 0.376591 0.766394 0.941444
Si Si6 0.313643 0.196554 0.942795
Si Si7 0.394191 0.876870 0.274306
Si Si8 0.053294 0.157588 0.946427
O O1 0.500000 0.500000 0.500000
O O2 0.293178 0.785507 0.473102
O O3 0.517888 0.370588 0.661521
O O4 0.573738 0.710876 0.871001
O O5 0.086852 0.561879 0.422257
O O6 0.244331 0.739285 0.657812
O O7 0.001577 0.729069 0.193672
O O8 0.000000 0.000000 0.500000
O O9 0.821401 0.608600 0.088854
O O10 0.079946 0.206400 0.303349
O O11 0.977252 0.330360 0.019930
O O12 0.984973 0.979492 0.746272
O O13 0.771451 0.853591 0.315254
O O14 0.401448 0.956810 0.018482
O O15 0.500000 0.500000 0.000000
O O16 0.343876 0.852429 0.060793
O O17 0.500000 0.000000 0.500000
O O18 0.235524 0.035382 0.174020
#
# Coordination Sequence:
#
# PCOD9070295 Si02
#       8
#     2   2   2   2   2   2   2   2
#     4  12  27  47  72 106 151 189 242 297 365 432
#     4  12  24  47  71 107 140 192 241 301 352 430
#     4  12  26  42  74 103 143 188 243 296 360 422
#     4  12  26  46  73 106 144 192 245 295 360 428
#     4  12  27  46  73 104 146 186 247 293 365 426
#     4  12  25  48  71 107 145 192 242 299 360 430
#     4  12  28  48  74 107 146 192 239 297 365 433
#     4  12  25  48  73 106 144 188 242 300 362 428
#
# _framework density 22.493447
#
# number of rings (size 3 to 8) (size 9 to 14) (size 15 to 20)
#    0.000    0.000    3.750    5.250    5.250    1.000 
#    0.000    0.000    0.000    0.000    0.000    0.000 
#    0.000    0.000    0.000    0.000    0.000    0.000 
#
# Total GULP energy -89573.142271 kJ/mol
# GULP energy per Si atom -5598.321392 kJ/mol
# Density = 2.244225 g / cm^3
# Si number density = 22.493447 Si / 1000 Ang^3
#
#
#
# Elastic Constant Matrix: (Units=GPa)
#
#
# Indices 1 2 3 4 5 6 
#
# 1 88.9945 54.2871 38.6217 -6.0241 6.8627 12.6054
# 2 54.2871 126.5622 59.7440 -19.8709 14.8233 21.9427
# 3 38.6217 59.7440 101.4226 5.6075 16.0599 8.2679
# 4 -6.0241 -19.8709 5.6075 30.0234 9.3252 1.3799
# 5 6.8627 14.8233 16.0599 9.3252 51.1703 9.5359
# 6 12.6054 21.9427 8.2679 1.3799 9.5359 66.7031
#
#
#
# Elastic Compliance Matrix: (Units=1/GPa)
#
#
# Indices 1 2 3 4 5 6 
#
# 1 0.015835 -0.005283 -0.002922 0.000121 0.000481 -0.000964
# 2 -0.005283 0.016827 -0.007791 0.012749 -0.003421 -0.003346
# 3 -0.002922 -0.007791 0.016090 -0.008464 -0.001130 0.001458
# 4 0.000121 0.012749 -0.008464 0.046262 -0.008954 -0.002845
# 5 0.000481 -0.003421 -0.001130 -0.008954 0.022810 -0.001901
# 6 -0.000964 -0.003346 0.001458 -0.002845 -0.001901 0.016425
#
#
# Mechanical properties :
#
#
# Convention : Reuss Voigt Hill
#
# Bulk Modulus (GPa) = 59.66648 69.14277 64.40462
# Shear Modulus (GPa) = 29.09881 40.53448 34.81664
#
# Velocity S-wave (km/s) = 3.60065 4.24967 3.93855
# Velocity P-wave (km/s) = 6.62344 7.40847 7.02692
#
# Compressibility (1/GPa) = 0.01675983
#
# Stress axis : x y z
#
# Youngs Moduli (GPa) = 63.15067 59.42662 62.15006
#
# Poissons Ratio (x) = 0.31395 0.18163
# Poissons Ratio (y) = 0.33362 0.48422
# Poissons Ratio (z) = 0.18455 0.46300
#
# Static dielectric constant tensor:
#      x y z
#    x 1.902620 0.039910 0.000930 
#    y 0.039910 1.854260 0.025430 
#    z 0.000930 0.025430 1.765940 
# 
# From -- ./inp_files/470167.got.cif
#   From: 2010.05.17/outbox.cif.g08.bks.cpg/sg2_236_cif.got.tgz:470167.got - 2010.06.03 11:33:40.
