data_PCOD9070695
_publ_section_title
;
Structure prediction by ZEFSAII (Michael W. Deem and Ramdas Pophale) SiO2 
 PCOD9070695
Probable space group: P -1
;
_chemical_formula_sum "Si O2"
_cell_formula_units_Z 14
_cell_length_a 14.511339
_cell_length_b 5.634454
_cell_length_c 15.191672
_cell_angle_alpha 99.110644
_cell_angle_beta 151.464164
_cell_angle_gamma 90.125384
_cell_volume 558.982782
_symmetry_space_group_name_H-M "P -1"
_symmetry_group_IT_number 2
_symmetry_cell_setting 'triclinic'
loop_
_space_group_symop_operation_xyz
x,y,z
-x,-y,-z
loop_
_atom_site_type_symbol
_atom_site_label
_atom_site_fract_x
_atom_site_fract_y
_atom_site_fract_z
Si Si1 0.312971 0.756217 0.353022
Si Si2 0.449811 0.990827 0.855249
Si Si3 0.663716 0.559208 0.007780
Si Si4 0.650130 0.519485 0.807452
Si Si5 0.219228 0.425364 0.421813
Si Si6 0.041323 0.025059 0.932973
Si Si7 0.965694 0.351696 0.556101
O O1 0.276979 0.590341 0.224599
O O2 0.338865 0.606774 0.453090
O O3 0.110850 0.819705 0.211491
O O4 0.500000 0.000000 0.500000
O O5 0.213604 0.901357 0.627970
O O6 0.542322 0.760311 0.894008
O O7 0.500000 0.000000 0.000000
O O8 0.541453 0.277221 0.917304
O O9 0.827954 0.669417 0.228528
O O10 0.756627 0.513642 0.989765
O O11 0.417358 0.357627 0.618278
O O12 0.725521 0.822411 0.873520
O O13 0.123982 0.518778 0.431682
O O14 0.045968 0.217333 0.213850
O O15 0.000000 0.000000 0.000000
O O16 0.000000 0.500000 0.500000
#
# Coordination Sequence:
#
# PCOD9070695 Si02
#       7
#     2   2   2   2   2   2   2
#     4  12  25  45  72 112 154 205 256 328 401 487
#     4  12  28  54  84 118 164 211 277 344 413 484
#     4  12  30  51  82 123 162 214 270 341 414 490
#     4  12  26  47  76 112 158 209 263 333 404 490
#     4  12  27  50  72 112 155 209 267 332 406 480
#     4  12  26  44  74 109 157 205 268 324 404 490
#     4  12  29  52  83 118 162 216 279 343 412 489
#
# _framework density 25.045491999999999
#
# number of rings (size 3 to 8) (size 9 to 14) (size 15 to 20)
#    0.000    0.000    5.714    3.000    6.000    2.857 
#    0.000    0.000    0.000    0.000    0.000    0.000 
#    0.000    0.000    0.000    0.000    0.000    0.000 
#
# Total GULP energy -78195.323611 kJ/mol
# GULP energy per Si atom -5585.380258 kJ/mol
# Density = 2.498849 g / cm^3
# Si number density = 25.045492 Si / 1000 Ang^3
#
#
#
# Elastic Constant Matrix: (Units=GPa)
#
#
# Indices 1 2 3 4 5 6 
#
# 1 144.1265 36.1662 24.2431 27.7866 -33.0952 10.8961
# 2 36.1662 76.6401 48.4037 30.6678 7.3315 -5.7477
# 3 24.2431 48.4037 170.1691 39.9534 -14.4348 -0.6028
# 4 27.7866 30.6678 39.9534 50.4452 -1.6727 2.1413
# 5 -33.0952 7.3315 -14.4348 -1.6727 50.4005 -5.6003
# 6 10.8961 -5.7477 -0.6028 2.1413 -5.6003 32.7030
#
#
#
# Elastic Compliance Matrix: (Units=1/GPa)
#
#
# Indices 1 2 3 4 5 6 
#
# 1 0.010796 -0.005725 0.001522 -0.003281 0.007915 -0.003005
# 2 -0.005725 0.022806 -0.004561 -0.007577 -0.008085 0.004943
# 3 0.001522 -0.004561 0.008353 -0.004544 0.003883 -0.000192
# 4 -0.003281 -0.007577 -0.004544 0.029890 -0.001647 -0.002561
# 5 0.007915 -0.008085 0.003883 -0.001647 0.027362 0.000807
# 6 -0.003005 0.004943 -0.000192 -0.002561 0.000807 0.032751
#
#
# Mechanical properties :
#
#
# Convention : Reuss Voigt Hill
#
# Bulk Modulus (GPa) = 40.93942 67.61796 54.27869
# Shear Modulus (GPa) = 31.72000 45.51792 38.61896
#
# Velocity S-wave (km/s) = 3.56265 4.26773 3.93103
# Velocity P-wave (km/s) = 5.77103 7.16529 6.50562
#
# Compressibility (1/GPa) = 0.02442633
#
# Stress axis : x y z
#
# Youngs Moduli (GPa) = 92.62318 43.84725 119.72383
#
# Poissons Ratio (x) = 0.25104 -0.18218
# Poissons Ratio (y) = 0.53029 0.54605
# Poissons Ratio (z) = -0.14094 0.19998
#
# Static dielectric constant tensor:
#      x y z
#    x 1.996080 -0.019110 0.042980 
#    y -0.019110 2.225920 -0.159220 
#    z 0.042980 -0.159220 2.339080 
# 
# From -- ./inp_files/525817.got.cif
#   From: 2010.05.17/outbox.cif.g08.bks.cpg/sg2_263_cif.got.tgz:525817.got - 2010.06.03 11:33:40.
