data_PCOD9070214
_publ_section_title
;
Structure prediction by ZEFSAII (Michael W. Deem and Ramdas Pophale) SiO2 
 PCOD9070214
Probable space group: P -1
;
_chemical_formula_sum "Si O2"
_cell_formula_units_Z 16
_cell_length_a 17.684796
_cell_length_b 12.919681
_cell_length_c 9.316836
_cell_angle_alpha 132.174424
_cell_angle_beta 120.511823
_cell_angle_gamma 28.585493
_cell_volume 734.462015
_symmetry_space_group_name_H-M "P -1"
_symmetry_group_IT_number 2
_symmetry_cell_setting 'triclinic'
loop_
_space_group_symop_operation_xyz
x,y,z
-x,-y,-z
loop_
_atom_site_type_symbol
_atom_site_label
_atom_site_fract_x
_atom_site_fract_y
_atom_site_fract_z
Si Si1 0.834118 0.282474 0.042037
Si Si2 0.995695 0.846648 0.411329
Si Si3 0.857115 0.733202 0.689020
Si Si4 0.900276 0.441374 0.038414
Si Si5 0.261023 0.416175 0.497927
Si Si6 0.646171 0.254260 0.813582
Si Si7 0.629050 0.231467 0.452311
Si Si8 0.440420 0.975691 0.796941
O O1 0.881163 0.326749 0.005206
O O2 0.738569 0.495174 0.272347
O O3 0.740398 0.272020 0.889289
O O4 0.000000 0.000000 0.000000
O O5 0.104254 0.680285 0.502789
O O6 0.810622 0.045836 0.438258
O O7 0.000000 0.000000 0.500000
O O8 0.072079 0.641847 0.175045
O O9 0.761878 0.717898 0.616041
O O10 0.000000 0.500000 0.500000
O O11 0.949903 0.670570 0.859025
O O12 0.751423 0.997118 0.759496
O O13 0.730002 0.747951 0.176926
O O14 0.418613 0.223877 0.371674
O O15 0.593734 0.267298 0.621206
O O16 0.500000 0.500000 0.000000
O O17 0.500000 0.500000 0.500000
O O18 0.601433 0.115236 0.255487
O O19 0.500000 0.000000 0.000000
#
# Coordination Sequence:
#
# PCOD9070214 Si02
#       8
#     2   2   2   2   2   2   2   2
#     4  12  24  46  75 107 139 186 239 299 362 441
#     4  12  26  47  76 108 145 193 245 300 371 431
#     4  12  25  48  73 109 144 193 242 302 365 443
#     4  12  26  44  77 102 146 188 246 300 363 435
#     4  12  26  46  78 105 148 194 241 301 368 436
#     4  12  28  47  73 108 147 186 244 302 370 431
#     4  12  29  49  75 105 150 191 243 301 364 440
#     4  12  28  48  69 111 147 190 246 300 366 430
#
# _framework density 21.784652999999999
#
# number of rings (size 3 to 8) (size 9 to 14) (size 15 to 20)
#    0.000    0.000    3.750    6.000    7.000    1.500 
#    0.000    0.000    0.000    0.000    0.000    0.000 
#    0.000    0.000    0.000    0.000    0.000    0.000 
#
# Total GULP energy -89636.025700 kJ/mol
# GULP energy per Si atom -5602.251606 kJ/mol
# Density = 2.173507 g / cm^3
# Si number density = 21.784653 Si / 1000 Ang^3
#
#
#
# Elastic Constant Matrix: (Units=GPa)
#
#
# Indices 1 2 3 4 5 6 
#
# 1 121.0614 29.5273 32.2653 17.2232 22.9744 -4.9780
# 2 29.5273 123.7092 17.7829 20.4474 10.0657 5.0766
# 3 32.2653 17.7829 98.8991 -4.7019 13.4816 -10.4360
# 4 17.2232 20.4474 -4.7019 42.8114 -2.2033 -2.1895
# 5 22.9744 10.0657 13.4816 -2.2033 53.2233 13.1731
# 6 -4.9780 5.0766 -10.4360 -2.1895 13.1731 33.9680
#
#
#
# Elastic Compliance Matrix: (Units=1/GPa)
#
#
# Indices 1 2 3 4 5 6 
#
# 1 0.010820 -0.001250 -0.002622 -0.004152 -0.004552 0.002465
# 2 -0.001250 0.009468 -0.001672 -0.004339 -0.000459 -0.002213
# 3 -0.002622 -0.001672 0.012322 0.003317 -0.002757 0.004934
# 4 -0.004152 -0.004339 0.003317 0.027688 0.002450 0.001894
# 5 -0.004552 -0.000459 -0.002757 0.002450 0.024290 -0.010708
# 6 0.002465 -0.002213 0.004934 0.001894 -0.010708 0.035922
#
#
# Mechanical properties :
#
#
# Convention : Reuss Voigt Hill
#
# Bulk Modulus (GPa) = 46.46584 55.86896 51.16740
# Shear Modulus (GPa) = 36.03056 43.60683 39.81869
#
# Velocity S-wave (km/s) = 4.07128 4.47892 4.27995
# Velocity P-wave (km/s) = 6.59366 7.24219 6.92552
#
# Compressibility (1/GPa) = 0.02152119
#
# Stress axis : x y z
#
# Youngs Moduli (GPa) = 92.42288 105.62332 81.15889
#
# Poissons Ratio (x) = 0.13204 0.21280
# Poissons Ratio (y) = 0.11554 0.13568
# Poissons Ratio (z) = 0.24233 0.17658
#
# Static dielectric constant tensor:
#      x y z
#    x 1.819660 -0.067460 0.059740 
#    y -0.067460 1.770340 -0.024270 
#    z 0.059740 -0.024270 1.834850 
# 
# From -- ./inp_files/207812.got.cif
#   From: 2010.05.17/outbox.cif.g08.bks.cpg/sg2_104_cif.got.tgz:207812.got - 2010.06.03 11:33:40.
