data_PCOD9070518
_publ_section_title
;
Structure prediction by ZEFSAII (Michael W. Deem and Ramdas Pophale) SiO2 
 PCOD9070518
Probable space group: P -1
;
_chemical_formula_sum "Si O2"
_cell_formula_units_Z 12
_cell_length_a 23.608201
_cell_length_b 23.889021
_cell_length_c 10.358931
_cell_angle_alpha 25.182845
_cell_angle_beta 24.708514
_cell_angle_gamma 11.976481
_cell_volume 497.741643
_symmetry_space_group_name_H-M "P -1"
_symmetry_group_IT_number 2
_symmetry_cell_setting 'triclinic'
loop_
_space_group_symop_operation_xyz
x,y,z
-x,-y,-z
loop_
_atom_site_type_symbol
_atom_site_label
_atom_site_fract_x
_atom_site_fract_y
_atom_site_fract_z
Si Si1 0.544644 0.675508 0.356673
Si Si2 0.462653 0.181463 0.658537
Si Si3 0.523439 0.606107 0.139104
Si Si4 0.051349 0.915347 0.277073
Si Si5 0.308487 0.286513 0.265596
Si Si6 0.983111 0.244629 0.721179
O O1 0.462585 0.800131 0.406400
O O2 0.753274 0.372813 0.569576
O O3 0.683993 0.667558 0.993586
O O4 0.245569 0.888604 0.469054
O O5 0.168391 0.499128 0.563844
O O6 0.685268 0.007093 0.445074
O O7 0.500000 0.000000 0.000000
O O8 0.500000 0.500000 0.500000
O O9 0.245342 0.821116 0.179458
O O10 0.567224 0.697382 0.944103
O O11 0.794706 0.380207 0.954472
O O12 0.965608 0.117665 0.948286
O O13 0.000000 0.500000 0.500000
O O14 0.500000 0.000000 0.500000
#
# Coordination Sequence:
#
# PCOD9070518 Si02
#       6
#     2   2   2   2   2   2
#     4  12  27  48  75 113 152 200 258 320 382 455
#     4  12  29  50  73 106 159 205 255 309 382 469
#     4  12  27  51  82 112 159 195 262 317 395 452
#     4  12  24  49  76 114 147 191 260 316 391 445
#     4  12  30  47  77 113 154 202 253 323 382 466
#     4  12  26  48  77 111 142 205 248 316 383 448
#
# _framework density 24.108892000000001
#
# number of rings (size 3 to 8) (size 9 to 14) (size 15 to 20)
#    0.000    0.000    5.000    2.500    7.000    5.333 
#    0.000    0.000    0.000    0.000    0.000    0.000 
#    0.000    0.000    0.000    0.000    0.000    0.000 
#
# Total GULP energy -67049.667268 kJ/mol
# GULP energy per Si atom -5587.472272 kJ/mol
# Density = 2.405402 g / cm^3
# Si number density = 24.108892 Si / 1000 Ang^3
#
#
#
# Elastic Constant Matrix: (Units=GPa)
#
#
# Indices 1 2 3 4 5 6 
#
# 1 67.6616 23.3380 19.9417 -12.7326 -5.9264 12.5763
# 2 23.3380 182.9993 61.7109 -19.4869 -4.8782 6.2656
# 3 19.9417 61.7109 157.9464 -34.7966 -11.5405 10.7880
# 4 -12.7326 -19.4869 -34.7966 58.0273 7.1882 -5.4292
# 5 -5.9264 -4.8782 -11.5405 7.1882 36.5674 -5.5583
# 6 12.5763 6.2656 10.7880 -5.4292 -5.5583 24.6329
#
#
#
# Elastic Compliance Matrix: (Units=1/GPa)
#
#
# Indices 1 2 3 4 5 6 
#
# 1 0.017351 -0.001518 -0.000542 0.002157 0.000864 -0.007564
# 2 -0.001518 0.006459 -0.002240 0.000531 -0.000167 0.000193
# 3 -0.000542 -0.002240 0.008319 0.003807 0.001235 -0.001679
# 4 0.002157 0.000531 0.003807 0.020551 -0.002248 0.001119
# 5 0.000864 -0.000167 0.001235 -0.002248 0.029075 0.005125
# 6 -0.007564 0.000193 -0.001679 0.001119 0.005125 0.046547
#
#
# Mechanical properties :
#
#
# Convention : Reuss Voigt Hill
#
# Bulk Modulus (GPa) = 42.50483 68.73207 55.61845
# Shear Modulus (GPa) = 34.54342 44.08663 39.31503
#
# Velocity S-wave (km/s) = 3.78935 4.28091 4.04261
# Velocity P-wave (km/s) = 6.06747 7.28051 6.70149
#
# Compressibility (1/GPa) = 0.02352674
#
# Stress axis : x y z
#
# Youngs Moduli (GPa) = 57.63517 154.82064 120.21235
#
# Poissons Ratio (x) = 0.23503 0.06521
# Poissons Ratio (y) = 0.08749 0.26930
# Poissons Ratio (z) = 0.03126 0.34683
#
# Static dielectric constant tensor:
#      x y z
#    x 0.028280 0.585640 -0.109620 
#    y 0.585640 1.733220 -0.038450 
#    z -0.109620 -0.038450 2.008110 
# 
# From -- ./inp_files/477181.got.cif
#   From: 2010.05.17/outbox.cif.g08.bks.cpg/sg2_239_cif.got.tgz:477181.got - 2010.06.03 11:33:40.
