data_PCOD9070109
_publ_section_title
;
Structure prediction by ZEFSAII (Michael W. Deem and Ramdas Pophale) SiO2 
 PCOD9070109
Probable space group: P -1
;
_chemical_formula_sum "Si O2"
_cell_formula_units_Z 12
_cell_length_a 17.210648
_cell_length_b 16.562647
_cell_length_c 10.081835
_cell_angle_alpha 41.677819
_cell_angle_beta 138.547033
_cell_angle_gamma 163.011621
_cell_volume 549.099612
_symmetry_space_group_name_H-M "P -1"
_symmetry_group_IT_number 2
_symmetry_cell_setting 'triclinic'
loop_
_space_group_symop_operation_xyz
x,y,z
-x,-y,-z
loop_
_atom_site_type_symbol
_atom_site_label
_atom_site_fract_x
_atom_site_fract_y
_atom_site_fract_z
Si Si1 0.771910 0.259712 0.609234
Si Si2 0.414601 0.491230 0.269055
Si Si3 0.462015 0.777654 0.431300
Si Si4 0.713439 0.763335 0.855016
Si Si5 0.859643 0.103105 0.081790
Si Si6 0.926723 0.293874 0.203181
O O1 0.712179 0.304704 0.588384
O O2 0.000000 0.500000 0.500000
O O3 0.500000 0.000000 0.500000
O O4 0.826622 0.183697 0.842068
O O5 0.500000 0.500000 0.500000
O O6 0.319871 0.320672 0.233465
O O7 0.163141 0.340034 0.170925
O O8 0.661296 0.808178 0.155578
O O9 0.627513 0.824085 0.656335
O O10 0.214590 0.502566 0.358362
O O11 0.689986 0.067311 0.288816
O O12 0.500000 0.500000 0.000000
O O13 0.000000 0.000000 0.000000
O O14 0.809061 0.108441 0.157119
O O15 0.000000 0.500000 0.000000
#
# Coordination Sequence:
#
# PCOD9070109 Si02
#       6
#     2   2   2   2   2   2
#     4  12  28  45  72 106 147 194 241 298 370 433
#     4  12  27  49  75 107 149 195 247 304 366 437
#     4  12  27  48  75 106 149 188 245 307 364 442
#     4  12  28  49  76 108 146 199 249 302 366 440
#     4  12  26  45  77 106 146 186 245 303 363 440
#     4  12  24  45  75 111 143 187 241 299 376 431
#
# _framework density 21.853959
#
# number of rings (size 3 to 8) (size 9 to 14) (size 15 to 20)
#    0.000    0.000    1.667    8.000    9.333    0.000 
#    0.000    0.000    0.000    0.000    0.000    0.000 
#    0.000    0.000    0.000    0.000    0.000    0.000 
#
# Total GULP energy -67190.371467 kJ/mol
# GULP energy per Si atom -5599.197622 kJ/mol
# Density = 2.180422 g / cm^3
# Si number density = 21.853959 Si / 1000 Ang^3
#
#
#
# Elastic Constant Matrix: (Units=GPa)
#
#
# Indices 1 2 3 4 5 6 
#
# 1 254.9720 110.9729 71.2678 -48.7425 37.6585 46.3523
# 2 110.9729 198.0924 76.5323 -11.1411 14.3740 38.1623
# 3 71.2678 76.5323 196.6273 14.5039 10.5729 17.1822
# 4 -48.7425 -11.1411 14.5039 62.3142 -6.6372 -13.3627
# 5 37.6585 14.3740 10.5729 -6.6372 52.0803 11.3854
# 6 46.3523 38.1623 17.1822 -13.3627 11.3854 47.8512
#
#
#
# Elastic Compliance Matrix: (Units=1/GPa)
#
#
# Indices 1 2 3 4 5 6 
#
# 1 0.007270 -0.002481 -0.001646 0.004781 -0.003105 -0.002400
# 2 -0.002481 0.007698 -0.001767 -0.000829 0.000687 -0.003497
# 3 -0.001646 -0.001767 0.006631 -0.003206 -0.000018 -0.000268
# 4 0.004781 -0.000829 -0.003206 0.021006 -0.000598 0.003189
# 5 -0.003105 0.000687 -0.000018 -0.000598 0.021816 -0.002891
# 6 -0.002400 -0.003497 -0.000268 0.003189 -0.002891 0.027686
#
#
# Mechanical properties :
#
#
# Convention : Reuss Voigt Hill
#
# Bulk Modulus (GPa) = 101.91609 129.69308 115.80458
# Shear Modulus (GPa) = 46.65693 58.51040 52.58367
#
# Velocity S-wave (km/s) = 4.62556 5.17991 4.91056
# Velocity P-wave (km/s) = 8.67548 9.75958 9.23346
#
# Compressibility (1/GPa) = 0.00981199
#
# Stress axis : x y z
#
# Youngs Moduli (GPa) = 137.54294 129.90809 150.80592
#
# Poissons Ratio (x) = 0.32226 0.24818
# Poissons Ratio (y) = 0.34120 0.26651
# Poissons Ratio (z) = 0.22635 0.22958
#
# Static dielectric constant tensor:
#      x y z
#    x 1.735220 -0.014670 -0.024570 
#    y -0.014670 1.855810 0.102540 
#    z -0.024570 0.102540 1.863680 
# 
# From -- ./inp_files/64865.got.cif
#   From: 2010.05.17/outbox.cif.g08.bks.cpg/sg2_33_cif.got.tgz:64865.got - 2010.06.03 11:33:40.
