data_PCOD9070819
_publ_section_title
;
Structure prediction by ZEFSAII (Michael W. Deem and Ramdas Pophale) SiO2 
 PCOD9070819
Probable space group: P -1
;
_chemical_formula_sum "Si O2"
_cell_formula_units_Z 13
_cell_length_a 5.164966
_cell_length_b 10.510830
_cell_length_c 9.966856
_cell_angle_alpha 110.486669
_cell_angle_beta 75.215563
_cell_angle_gamma 95.302588
_cell_volume 490.076416
_symmetry_space_group_name_H-M "P -1"
_symmetry_group_IT_number 2
_symmetry_cell_setting 'triclinic'
loop_
_space_group_symop_operation_xyz
x,y,z
-x,-y,-z
loop_
_atom_site_type_symbol
_atom_site_label
_atom_site_fract_x
_atom_site_fract_y
_atom_site_fract_z
Si Si1 0.000000 0.500000 0.000000
Si Si2 0.441253 0.589419 0.241329
Si Si3 0.791089 0.957034 0.899695
Si Si4 0.736170 0.909810 0.487148
Si Si5 0.530455 0.672086 0.567858
Si Si6 0.932410 0.643383 0.724237
Si Si7 0.098428 0.786064 0.193964
O O1 0.299020 0.471372 0.884205
O O2 0.946972 0.331080 0.951585
O O3 0.478022 0.615048 0.404666
O O4 0.193518 0.477708 0.212096
O O5 0.332348 0.724070 0.232778
O O6 0.823935 0.794496 0.824338
O O7 0.852657 0.063082 0.810753
O O8 0.500000 0.000000 0.000000
O O9 0.000000 0.000000 0.000000
O O10 0.606393 0.829648 0.597933
O O11 0.841060 0.797439 0.327798
O O12 0.500000 0.000000 0.500000
O O13 0.000000 0.000000 0.500000
O O14 0.794623 0.617180 0.586601
O O15 0.746975 0.348164 0.323425
#
# Coordination Sequence:
#
# PCOD9070819 Si02
#       7
#     1   2   2   2   2   2   2
#     4  12  28  48  80 112 170 208 292 338 420 482
#     4  12  28  50  81 120 166 225 280 346 416 503
#     4  12  29  51  78 114 162 214 275 337 420 490
#     4  12  25  46  79 116 163 209 267 337 418 490
#     4  12  25  48  78 121 162 214 273 342 413 499
#     4  12  28  50  81 118 168 218 272 341 427 495
#     4  12  28  49  79 117 160 213 283 340 412 498
#
# _framework density 26.526477
#
# number of rings (size 3 to 8) (size 9 to 14) (size 15 to 20)
#    0.000    0.000    1.538    7.846    6.462    0.000 
#    0.000    0.000    0.000    0.000    0.000    0.000 
#    0.000    0.000    0.000    0.000    0.000    0.000 
#
# Total GULP energy -72659.157264 kJ/mol
# GULP energy per Si atom -5589.165943 kJ/mol
# Density = 2.646610 g / cm^3
# Si number density = 26.526477 Si / 1000 Ang^3
#
#
#
# Elastic Constant Matrix: (Units=GPa)
#
#
# Indices 1 2 3 4 5 6 
#
# 1 200.0818 46.5027 41.2430 2.2321 -35.4199 3.8853
# 2 46.5027 176.7058 13.4723 8.1926 -9.0341 14.1711
# 3 41.2430 13.4723 96.2468 19.7622 -22.6369 1.7460
# 4 2.2321 8.1926 19.7622 50.9702 9.6485 -4.9809
# 5 -35.4199 -9.0341 -22.6369 9.6485 60.2541 3.7208
# 6 3.8853 14.1711 1.7460 -4.9809 3.7208 62.6924
#
#
#
# Elastic Compliance Matrix: (Units=1/GPa)
#
#
# Indices 1 2 3 4 5 6 
#
# 1 0.006173 -0.001336 -0.001838 0.000123 0.002729 -0.000182
# 2 -0.001336 0.006199 0.000084 -0.001198 0.000457 -0.001443
# 3 -0.001838 0.000084 0.013698 -0.006328 0.005160 -0.001096
# 4 0.000123 -0.001198 -0.006328 0.023747 -0.006455 0.002709
# 5 0.002729 0.000457 0.005160 -0.006455 0.021377 -0.002198
# 6 -0.000182 -0.001443 -0.001096 0.002709 -0.002198 0.016665
#
#
# Mechanical properties :
#
#
# Convention : Reuss Voigt Hill
#
# Bulk Modulus (GPa) = 50.27438 75.05228 62.66333
# Shear Modulus (GPa) = 49.66848 59.57109 54.61978
#
# Velocity S-wave (km/s) = 4.33183 4.74405 4.54262
# Velocity P-wave (km/s) = 6.63426 7.63955 7.15458
#
# Compressibility (1/GPa) = 0.01989085
#
# Stress axis : x y z
#
# Youngs Moduli (GPa) = 162.00559 161.31972 73.00081
#
# Poissons Ratio (x) = 0.21550 0.13418
# Poissons Ratio (y) = 0.21642 -0.00616
# Poissons Ratio (z) = 0.29777 -0.01361
#
# Static dielectric constant tensor:
#      x y z
#    x 2.254960 0.063900 0.379420 
#    y 0.063900 2.194330 -0.088500 
#    z 0.379420 -0.088500 2.431970 
# 
# From -- ./inp_files/45449.got.cif
#   From: 2010.05.17/outbox.cif.g08.bks.cpg/sg2_23_cif.got.tgz:45449.got - 2010.06.03 11:33:40.
