data_PCOD9070558
_publ_section_title
;
Structure prediction by ZEFSAII (Michael W. Deem and Ramdas Pophale) SiO2 
 PCOD9070558
Probable space group: P -1
;
_chemical_formula_sum "Si O2"
_cell_formula_units_Z 13
_cell_length_a 5.564306
_cell_length_b 5.030008
_cell_length_c 21.240605
_cell_angle_alpha 121.241688
_cell_angle_beta 79.723435
_cell_angle_gamma 90.486958
_cell_volume 497.628794
_symmetry_space_group_name_H-M "P -1"
_symmetry_group_IT_number 2
_symmetry_cell_setting 'triclinic'
loop_
_space_group_symop_operation_xyz
x,y,z
-x,-y,-z
loop_
_atom_site_type_symbol
_atom_site_label
_atom_site_fract_x
_atom_site_fract_y
_atom_site_fract_z
Si Si1 0.247767 0.653615 0.672774
Si Si2 0.361137 0.172534 0.889783
Si Si3 0.180908 0.914891 0.233392
Si Si4 0.450405 0.868915 0.340773
Si Si5 0.831906 0.738583 0.494842
Si Si6 0.500000 0.000000 0.000000
Si Si7 0.969347 0.330399 0.105953
O O1 0.450319 0.474649 0.685351
O O2 0.239348 0.431901 0.585497
O O3 0.332050 0.975752 0.683797
O O4 0.985652 0.758608 0.727682
O O5 0.562548 0.094879 0.816809
O O6 0.230316 0.514987 0.917629
O O7 0.163500 0.918941 0.876985
O O8 0.505336 0.138219 0.944174
O O9 0.048080 0.625211 0.177334
O O10 0.236079 0.884511 0.301553
O O11 0.379243 0.088900 0.430990
O O12 0.000000 0.500000 0.500000
O O13 0.000000 0.000000 0.500000
O O14 0.216010 0.176425 0.043566
#
# Coordination Sequence:
#
# PCOD9070558 Si02
#       7
#     2   2   2   2   2   1   2
#     4  12  28  49  78 111 154 208 262 324 393 458
#     4  12  29  53  81 118 159 205 261 320 390 468
#     4  12  30  52  78 118 164 206 264 322 394 464
#     4  12  28  49  78 111 154 208 262 324 393 458
#     4  12  24  50  78 109 153 204 261 328 387 453
#     4  12  28  54  88 114 160 204 260 322 388 458
#     4  12  29  53  81 118 159 205 261 320 390 468
#
# _framework density 26.123891
#
# number of rings (size 3 to 8) (size 9 to 14) (size 15 to 20)
#    0.000    0.000    1.538    6.462    0.000   16.615 
#    0.000    0.000    0.000    0.000    0.000    0.000 
#    0.000    0.000    0.000    0.000    0.000    0.000 
#
# Total GULP energy -72786.249000 kJ/mol
# GULP energy per Si atom -5598.942231 kJ/mol
# Density = 2.606443 g / cm^3
# Si number density = 26.123891 Si / 1000 Ang^3
#
#
#
# Elastic Constant Matrix: (Units=GPa)
#
#
# Indices 1 2 3 4 5 6 
#
# 1 72.5202 16.9825 38.6926 12.1240 -22.1930 -32.0949
# 2 16.9825 130.3698 41.4818 -1.7902 -21.9093 -16.5332
# 3 38.6926 41.4818 147.7398 27.2988 -18.8407 -21.2197
# 4 12.1240 -1.7902 27.2988 26.8908 -9.2855 -4.2347
# 5 -22.1930 -21.9093 -18.8407 -9.2855 70.0537 4.4739
# 6 -32.0949 -16.5332 -21.2197 -4.2347 4.4739 68.5529
#
#
#
# Elastic Compliance Matrix: (Units=1/GPa)
#
#
# Indices 1 2 3 4 5 6 
#
# 1 0.021261 0.000081 -0.003121 -0.003374 0.004933 0.008477
# 2 0.000081 0.009303 -0.002955 0.004739 0.002674 0.001485
# 3 -0.003121 -0.002955 0.010109 -0.009135 -0.000432 0.000419
# 4 -0.003374 0.004739 -0.009135 0.049805 0.004589 -0.000487
# 5 0.004933 0.002674 -0.000432 0.004589 0.017039 0.001992
# 6 0.008477 0.001485 0.000419 -0.000487 0.001992 0.018884
#
#
# Mechanical properties :
#
#
# Convention : Reuss Voigt Hill
#
# Bulk Modulus (GPa) = 34.86352 60.54928 47.70640
# Shear Modulus (GPa) = 33.79524 49.99769 41.89647
#
# Velocity S-wave (km/s) = 3.60064 4.37952 4.00904
# Velocity P-wave (km/s) = 5.53720 6.98582 6.30326
#
# Compressibility (1/GPa) = 0.02868327
#
# Stress axis : x y z
#
# Youngs Moduli (GPa) = 47.03553 107.49392 98.92504
#
# Poissons Ratio (x) = -0.00873 0.30874
# Poissons Ratio (y) = -0.00382 0.29229
# Poissons Ratio (z) = 0.14679 0.31761
#
# Static dielectric constant tensor:
#      x y z
#    x 1.776440 -0.147320 0.634130 
#    y -0.147320 1.842860 0.321820 
#    z 0.634130 0.321820 1.805250 
# 
# From -- ./inp_files/602789.got.cif
#   From: 2010.05.17/outbox.cif.g08.bks.cpg/sg2_302_cif.got.tgz:602789.got - 2010.06.03 11:33:40.
