data_PCOD9070323
_publ_section_title
;
Structure prediction by ZEFSAII (Michael W. Deem and Ramdas Pophale) SiO2 
 PCOD9070323
Probable space group: P -1
;
_chemical_formula_sum "Si O2"
_cell_formula_units_Z 14
_cell_length_a 11.798004
_cell_length_b 10.633461
_cell_length_c 5.281384
_cell_angle_alpha 69.566129
_cell_angle_beta 78.696253
_cell_angle_gamma 56.321442
_cell_volume 516.667671
_symmetry_space_group_name_H-M "P -1"
_symmetry_group_IT_number 2
_symmetry_cell_setting 'triclinic'
loop_
_space_group_symop_operation_xyz
x,y,z
-x,-y,-z
loop_
_atom_site_type_symbol
_atom_site_label
_atom_site_fract_x
_atom_site_fract_y
_atom_site_fract_z
Si Si1 0.000475 0.752494 0.452381
Si Si2 0.350523 0.275411 0.920133
Si Si3 0.585584 0.182405 0.229667
Si Si4 0.906620 0.440798 0.964823
Si Si5 0.267747 0.053766 0.283936
Si Si6 0.181404 0.853227 0.134783
Si Si7 0.396355 0.482755 0.381011
O O1 0.040917 0.632267 0.283486
O O2 0.034911 0.878352 0.236485
O O3 0.845380 0.826937 0.550241
O O4 0.078232 0.683205 0.737214
O O5 0.503313 0.175722 0.033001
O O6 0.247283 0.411620 0.068200
O O7 0.294121 0.159743 0.005965
O O8 0.345904 0.378294 0.615027
O O9 0.495335 0.366601 0.203757
O O10 0.598907 0.069194 0.529954
O O11 0.739752 0.135879 0.149110
O O12 0.000000 0.500000 0.000000
O O13 0.208843 0.957383 0.244063
O O14 0.274530 0.660893 0.264063
O O15 0.500000 0.500000 0.500000
#
# Coordination Sequence:
#
# PCOD9070323 Si02
#       7
#     2   2   2   2   2   2   2
#     4  12  29  50  85 116 159 214 272 329 395 477
#     4  12  27  47  81 110 155 203 269 329 400 468
#     4  12  27  45  77 111 157 204 268 321 407 469
#     4  12  27  52  84 117 157 208 275 332 395 469
#     4  12  29  49  73 115 165 207 260 328 408 479
#     4  12  27  49  77 113 157 211 265 331 395 476
#     4  12  24  47  74 107 147 198 265 321 391 465
#
# _framework density 27.096722
#
# number of rings (size 3 to 8) (size 9 to 14) (size 15 to 20)
#    0.000    0.000    5.714    2.571    6.000    4.000 
#    0.000    0.000    0.000    0.000    0.000    0.000 
#    0.000    0.000    0.000    0.000    0.000    0.000 
#
# Total GULP energy -78402.519185 kJ/mol
# GULP energy per Si atom -5600.179942 kJ/mol
# Density = 2.703505 g / cm^3
# Si number density = 27.096722 Si / 1000 Ang^3
#
#
#
# Elastic Constant Matrix: (Units=GPa)
#
#
# Indices 1 2 3 4 5 6 
#
# 1 97.7222 19.9773 15.5690 3.8805 -25.2644 10.0957
# 2 19.9773 138.7001 42.6161 15.6154 -10.7685 -0.7582
# 3 15.5690 42.6161 125.0438 -9.6470 -29.9012 22.1990
# 4 3.8805 15.6154 -9.6470 59.2963 4.5808 -1.2480
# 5 -25.2644 -10.7685 -29.9012 4.5808 41.8784 2.8036
# 6 10.0957 -0.7582 22.1990 -1.2480 2.8036 33.9269
#
#
#
# Elastic Compliance Matrix: (Units=1/GPa)
#
#
# Indices 1 2 3 4 5 6 
#
# 1 0.013497 -0.001844 0.002399 -0.000910 0.009914 -0.006480
# 2 -0.001844 0.008899 -0.003999 -0.002677 -0.001615 0.003400
# 3 0.002399 -0.003999 0.013632 0.002071 0.010630 -0.010525
# 4 -0.000910 -0.002677 0.002071 0.018091 -0.001715 -0.000337
# 5 0.009914 -0.001615 0.010630 -0.001715 0.038102 -0.013153
# 6 -0.006480 0.003400 -0.010525 -0.000337 -0.013153 0.039441
#
#
# Mechanical properties :
#
#
# Convention : Reuss Voigt Hill
#
# Bulk Modulus (GPa) = 34.31954 57.53235 45.92594
# Shear Modulus (GPa) = 33.72376 45.90724 39.81550
#
# Velocity S-wave (km/s) = 3.53167 4.12053 3.83741
# Velocity P-wave (km/s) = 5.41510 6.62697 6.05145
#
# Compressibility (1/GPa) = 0.02913792
#
# Stress axis : x y z
#
# Youngs Moduli (GPa) = 74.09267 112.37361 73.35830
#
# Poissons Ratio (x) = 0.20726 -0.17599
# Poissons Ratio (y) = 0.13665 0.29339
# Poissons Ratio (z) = -0.17776 0.44942
#
# Static dielectric constant tensor:
#      x y z
#    x 2.141580 -0.033490 -0.014560 
#    y -0.033490 2.175730 0.006010 
#    z -0.014560 0.006010 2.145750 
# 
# From -- ./inp_files/68345.got.cif
#   From: 2010.05.17/outbox.cif.g08.bks.cpg/sg2_35_cif.got.tgz:68345.got - 2010.06.03 11:33:40.
