data_PCOD9070300
_publ_section_title
;
Structure prediction by ZEFSAII (Michael W. Deem and Ramdas Pophale) SiO2 
 PCOD9070300
Probable space group: P -1
;
_chemical_formula_sum "Si O2"
_cell_formula_units_Z 14
_cell_length_a 13.914392
_cell_length_b 15.113682
_cell_length_c 8.886511
_cell_angle_alpha 134.819407
_cell_angle_beta 64.438761
_cell_angle_gamma 148.352246
_cell_volume 620.103155
_symmetry_space_group_name_H-M "P -1"
_symmetry_group_IT_number 2
_symmetry_cell_setting 'triclinic'
loop_
_space_group_symop_operation_xyz
x,y,z
-x,-y,-z
loop_
_atom_site_type_symbol
_atom_site_label
_atom_site_fract_x
_atom_site_fract_y
_atom_site_fract_z
Si Si1 0.659236 0.419902 0.355109
Si Si2 0.057238 0.183482 0.766826
Si Si3 0.912855 0.441076 0.321838
Si Si4 0.161937 0.134966 0.181646
Si Si5 0.497428 0.698335 0.991307
Si Si6 0.673864 0.081971 0.537754
Si Si7 0.273834 0.957720 0.217913
O O1 0.793806 0.451902 0.389768
O O2 0.770625 0.664031 0.556730
O O3 0.595036 0.316708 0.105712
O O4 0.451471 0.226425 0.360159
O O5 0.300011 0.449191 0.915472
O O6 0.933681 0.174408 0.766692
O O7 0.000000 0.000000 0.500000
O O8 0.957282 0.068655 0.861010
O O9 0.000000 0.500000 0.500000
O O10 0.768832 0.185703 0.055028
O O11 0.106970 0.641803 0.320274
O O12 0.360608 0.264755 0.136035
O O13 0.000000 0.000000 0.000000
O O14 0.638251 0.920537 0.272391
O O15 0.500000 0.000000 0.500000
O O16 0.655386 0.037111 0.671961
#
# Coordination Sequence:
#
# PCOD9070300 Si02
#       7
#     2   2   2   2   2   2   2
#     4  12  24  47  72 104 143 188 238 297 359 422
#     4  12  26  47  74 105 146 191 236 293 361 421
#     4  12  26  46  73 102 141 190 239 297 364 424
#     4  12  28  46  73 108 147 188 241 295 355 431
#     4  12  25  47  74 106 147 187 241 293 358 430
#     4  12  26  46  70 106 144 187 244 296 355 428
#     4  12  26  45  73 106 144 186 240 296 359 428
#
# _framework density 22.576888
#
# number of rings (size 3 to 8) (size 9 to 14) (size 15 to 20)
#    0.000    0.000    2.857    7.286    6.000    0.571 
#    0.000    0.000    0.000    0.000    0.000    0.000 
#    0.000    0.000    0.000    0.000    0.000    0.000 
#
# Total GULP energy -78444.257986 kJ/mol
# GULP energy per Si atom -5603.161285 kJ/mol
# Density = 2.252550 g / cm^3
# Si number density = 22.576888 Si / 1000 Ang^3
#
#
#
# Elastic Constant Matrix: (Units=GPa)
#
#
# Indices 1 2 3 4 5 6 
#
# 1 126.6184 25.4288 24.3657 -9.7667 14.1917 5.2956
# 2 25.4288 122.9697 3.2965 21.3065 11.6235 -1.1923
# 3 24.3657 3.2965 76.4578 -10.4793 10.0973 -19.3423
# 4 -9.7667 21.3065 -10.4793 38.2993 -3.7890 5.2177
# 5 14.1917 11.6235 10.0973 -3.7890 40.8383 -7.9238
# 6 5.2956 -1.1923 -19.3423 5.2177 -7.9238 43.8231
#
#
#
# Elastic Compliance Matrix: (Units=1/GPa)
#
#
# Indices 1 2 3 4 5 6 
#
# 1 0.009577 -0.002247 -0.003080 0.003081 -0.002293 -0.003359
# 2 -0.002247 0.009966 -0.000064 -0.006495 -0.002480 0.000840
# 3 -0.003080 -0.000064 0.016386 0.002640 -0.001351 0.007044
# 4 0.003081 -0.006495 0.002640 0.031854 0.002554 -0.002714
# 5 -0.002293 -0.002480 -0.001351 0.002554 0.027387 0.004261
# 6 -0.003359 0.000840 0.007044 -0.002714 0.004261 0.027450
#
#
# Mechanical properties :
#
#
# Convention : Reuss Voigt Hill
#
# Bulk Modulus (GPa) = 39.76662 48.02531 43.89597
# Shear Modulus (GPa) = 35.26476 42.78913 39.02695
#
# Velocity S-wave (km/s) = 3.95648 4.35818 4.16218
# Velocity P-wave (km/s) = 6.20675 6.82958 6.52560
#
# Compressibility (1/GPa) = 0.02514672
#
# Stress axis : x y z
#
# Youngs Moduli (GPa) = 104.41830 100.33735 61.02904
#
# Poissons Ratio (x) = 0.22550 0.18796
# Poissons Ratio (y) = 0.23467 0.00389
# Poissons Ratio (z) = 0.32159 0.00640
#
# Static dielectric constant tensor:
#      x y z
#    x 1.857710 0.013380 -0.014410 
#    y 0.013380 1.831290 -0.016100 
#    z -0.014410 -0.016100 1.848630 
# 
# From -- ./inp_files/199928.got.cif
#   From: 2010.05.17/outbox.cif.g08.bks.cpg/sg2_100_cif.got.tgz:199928.got - 2010.06.03 11:33:40.
