data_PCOD9070337
_publ_section_title
;
Structure prediction by ZEFSAII (Michael W. Deem and Ramdas Pophale) SiO2 
 PCOD9070337
Probable space group: P -1
;
_chemical_formula_sum "Si O2"
_cell_formula_units_Z 16
_cell_length_a 8.488918
_cell_length_b 15.789494
_cell_length_c 9.098269
_cell_angle_alpha 117.102561
_cell_angle_beta 49.994824
_cell_angle_gamma 87.546149
_cell_volume 723.793353
_symmetry_space_group_name_H-M "P -1"
_symmetry_group_IT_number 2
_symmetry_cell_setting 'triclinic'
loop_
_space_group_symop_operation_xyz
x,y,z
-x,-y,-z
loop_
_atom_site_type_symbol
_atom_site_label
_atom_site_fract_x
_atom_site_fract_y
_atom_site_fract_z
Si Si1 0.631898 0.560322 0.040228
Si Si2 0.747783 0.028865 0.735530
Si Si3 0.041232 0.219225 0.971689
Si Si4 0.523640 0.398191 0.494566
Si Si5 0.145213 0.362011 0.518671
Si Si6 0.368586 0.254892 0.008689
Si Si7 0.704405 0.824391 0.511248
Si Si8 0.176221 0.928195 0.964173
O O1 0.567202 0.673267 0.083530
O O2 0.909707 0.473546 0.785634
O O3 0.500000 0.500000 0.000000
O O4 0.567001 0.580094 0.266799
O O5 0.768936 0.014815 0.887896
O O6 0.680838 0.942933 0.638678
O O7 0.574809 0.155323 0.896764
O O8 0.000000 0.000000 0.500000
O O9 0.138035 0.235426 0.772251
O O10 0.963323 0.128494 0.926636
O O11 0.244225 0.198799 0.948569
O O12 0.801849 0.316352 0.256523
O O13 0.500000 0.500000 0.500000
O O14 0.365756 0.362459 0.465302
O O15 0.191886 0.341054 0.301893
O O16 0.157727 0.254021 0.496990
O O17 0.435296 0.847510 0.678491
O O18 0.000000 0.000000 0.000000
#
# Coordination Sequence:
#
# PCOD9070337 Si02
#       8
#     2   2   2   2   2   2   2   2
#     4  12  27  46  76 112 147 197 246 313 376 440
#     4  12  27  47  74 108 146 203 240 310 370 439
#     4  12  26  46  70 111 145 196 240 310 365 438
#     4  12  24  47  75 106 149 192 252 303 372 441
#     4  12  25  47  75 107 148 196 248 308 374 444
#     4  12  27  47  71 107 156 189 254 305 371 446
#     4  12  26  48  75 108 154 194 254 298 378 440
#     4  12  27  47  74 106 146 192 253 304 370 439
#
# _framework density 22.105754999999998
#
# number of rings (size 3 to 8) (size 9 to 14) (size 15 to 20)
#    0.000    0.000    3.750    5.625    5.250    1.000 
#    0.000    0.000    0.000    0.000    0.000    0.000 
#    0.000    0.000    0.000    0.000    0.000    0.000 
#
# Total GULP energy -89488.172893 kJ/mol
# GULP energy per Si atom -5593.010806 kJ/mol
# Density = 2.205544 g / cm^3
# Si number density = 22.105755 Si / 1000 Ang^3
#
#
#
# Elastic Constant Matrix: (Units=GPa)
#
#
# Indices 1 2 3 4 5 6 
#
# 1 90.2630 19.5868 14.4691 -8.1889 -0.8610 3.4551
# 2 19.5868 93.7532 30.7172 -4.4989 3.4146 -12.9001
# 3 14.4691 30.7172 112.8511 -24.2037 5.7515 -9.6736
# 4 -8.1889 -4.4989 -24.2037 44.4974 -8.1644 0.4680
# 5 -0.8610 3.4146 5.7515 -8.1644 40.3667 -2.5345
# 6 3.4551 -12.9001 -9.6736 0.4680 -2.5345 36.6382
#
#
#
# Elastic Compliance Matrix: (Units=1/GPa)
#
#
# Indices 1 2 3 4 5 6 
#
# 1 0.011986 -0.002517 -0.000706 0.001734 0.000784 -0.002171
# 2 -0.002517 0.012676 -0.002966 -0.000956 -0.000653 0.003884
# 3 -0.000706 -0.002966 0.011123 0.005582 -0.000102 0.001880
# 4 0.001734 -0.000956 0.005582 0.026595 0.004762 0.000963
# 5 0.000784 -0.000653 -0.000102 0.004762 0.025910 0.001401
# 6 -0.002171 0.003884 0.001880 0.000963 0.001401 0.029447
#
#
# Mechanical properties :
#
#
# Convention : Reuss Voigt Hill
#
# Bulk Modulus (GPa) = 42.72261 47.37928 45.05095
# Shear Modulus (GPa) = 36.25318 39.77340 38.01329
#
# Velocity S-wave (km/s) = 4.05407 4.24634 4.15132
# Velocity P-wave (km/s) = 6.42514 6.74695 6.58801
#
# Compressibility (1/GPa) = 0.02340681
#
# Stress axis : x y z
#
# Youngs Moduli (GPa) = 83.43128 78.88650 89.90618
#
# Poissons Ratio (x) = 0.19855 0.06346
# Poissons Ratio (y) = 0.20998 0.26670
# Poissons Ratio (z) = 0.05889 0.23401
#
# Static dielectric constant tensor:
#      x y z
#    x 1.796050 0.027180 0.025250 
#    y 0.027180 1.939030 -0.020480 
#    z 0.025250 -0.020480 1.806370 
# 
# From -- ./inp_files/208149.got.cif
#   From: 2010.05.17/outbox.cif.g08.bks.cpg/sg2_105_cif.got.tgz:208149.got - 2010.06.03 11:33:40.
