data_PCOD9070107
_publ_section_title
;
Structure prediction by ZEFSAII (Michael W. Deem and Ramdas Pophale) SiO2 
 PCOD9070107
Probable space group: P -1
;
_chemical_formula_sum "Si O2"
_cell_formula_units_Z 12
_cell_length_a 16.025299
_cell_length_b 10.520239
_cell_length_c 16.122284
_cell_angle_alpha 146.412648
_cell_angle_beta 153.064955
_cell_angle_gamma 25.987855
_cell_volume 532.588534
_symmetry_space_group_name_H-M "P -1"
_symmetry_group_IT_number 2
_symmetry_cell_setting 'triclinic'
loop_
_space_group_symop_operation_xyz
x,y,z
-x,-y,-z
loop_
_atom_site_type_symbol
_atom_site_label
_atom_site_fract_x
_atom_site_fract_y
_atom_site_fract_z
Si Si1 0.962978 0.379838 0.707264
Si Si2 0.567205 0.974500 0.142207
Si Si3 0.743869 0.422624 0.708313
Si Si4 0.539201 0.700218 0.382229
Si Si5 0.586756 0.461979 0.963809
Si Si6 0.942121 0.161518 0.913831
O O1 0.909745 0.333828 0.727653
O O2 0.730129 0.521445 0.524728
O O3 0.173946 0.118496 0.694447
O O4 0.013232 0.613485 0.892742
O O5 0.370621 0.270105 0.177813
O O6 0.591513 0.715833 0.071299
O O7 0.500000 0.000000 0.000000
O O8 0.500000 0.500000 0.500000
O O9 0.905068 0.184009 0.793379
O O10 0.588814 0.549087 0.255494
O O11 0.304167 0.748124 0.224764
O O12 0.500000 0.000000 0.500000
O O13 0.500000 0.500000 0.000000
O O14 0.848346 0.152239 0.033435
#
# Coordination Sequence:
#
# PCOD9070107 Si02
#       6
#     2   2   2   2   2   2
#     4  12  25  47  81 107 156 199 250 317 378 448
#     4  12  27  49  75 112 153 200 254 308 380 455
#     4  12  27  49  78 114 148 201 258 310 381 454
#     4  12  24  45  75 109 143 200 254 300 382 450
#     4  12  27  46  77 113 152 197 252 316 379 447
#     4  12  24  50  74 107 156 197 246 314 383 445
#
# _framework density 22.531465000000001
#
# number of rings (size 3 to 8) (size 9 to 14) (size 15 to 20)
#    0.000    0.000    6.667    3.000    2.333    2.000 
#    0.000    2.500    0.000    0.000    0.000    0.000 
#    0.000    0.000    0.000    0.000    0.000    0.000 
#
# Total GULP energy -67106.428626 kJ/mol
# GULP energy per Si atom -5592.202385 kJ/mol
# Density = 2.248018 g / cm^3
# Si number density = 22.531465 Si / 1000 Ang^3
#
#
#
# Elastic Constant Matrix: (Units=GPa)
#
#
# Indices 1 2 3 4 5 6 
#
# 1 160.7096 30.4649 40.6715 5.6623 -22.0272 23.4865
# 2 30.4649 93.8435 21.7363 -10.7613 -11.6590 22.3984
# 3 40.6715 21.7363 132.0817 -17.7025 -13.1997 14.3416
# 4 5.6623 -10.7613 -17.7025 36.9168 4.8731 -4.4316
# 5 -22.0272 -11.6590 -13.1997 4.8731 45.5360 -9.7917
# 6 23.4865 22.3984 14.3416 -4.4316 -9.7917 37.1895
#
#
#
# Elastic Compliance Matrix: (Units=1/GPa)
#
#
# Indices 1 2 3 4 5 6 
#
# 1 0.007934 -0.001426 -0.002064 -0.003331 0.002570 -0.003076
# 2 -0.001426 0.013185 -0.000575 0.002923 0.000864 -0.006243
# 3 -0.002064 -0.000575 0.009074 0.004260 0.000785 -0.001135
# 4 -0.003331 0.002923 0.004260 0.031041 -0.002580 0.001720
# 5 0.002570 0.000864 0.000785 -0.002580 0.024737 0.003760
# 6 -0.003076 -0.006243 -0.001135 0.001720 0.003760 0.034225
#
#
# Mechanical properties :
#
#
# Convention : Reuss Voigt Hill
#
# Bulk Modulus (GPa) = 45.32460 63.59779 54.46119
# Shear Modulus (GPa) = 36.85159 43.51260 40.18209
#
# Velocity S-wave (km/s) = 4.04859 4.39930 4.22759
# Velocity P-wave (km/s) = 6.48187 7.35477 6.93207
#
# Compressibility (1/GPa) = 0.02206308
#
# Stress axis : x y z
#
# Youngs Moduli (GPa) = 126.03612 75.84557 110.20586
#
# Poissons Ratio (x) = 0.10817 0.22748
# Poissons Ratio (y) = 0.17975 0.06333
# Poissons Ratio (z) = 0.26015 0.04358
#
# Static dielectric constant tensor:
#      x y z
#    x 2.156940 -0.028630 -0.162580 
#    y -0.028630 1.927610 -0.042750 
#    z -0.162580 -0.042750 1.973510 
# 
# From -- ./inp_files/237365.got.cif
#   From: 2010.05.17/outbox.cif.g08.bks.cpg/sg2_119_cif.got.tgz:237365.got - 2010.06.03 11:33:40.
