data_PCOD9070546
_publ_section_title
;
Structure prediction by ZEFSAII (Michael W. Deem and Ramdas Pophale) SiO2 
 PCOD9070546
Probable space group: P -1
;
_chemical_formula_sum "Si O2"
_cell_formula_units_Z 16
_cell_length_a 15.215440
_cell_length_b 5.212056
_cell_length_c 9.100558
_cell_angle_alpha 73.636338
_cell_angle_beta 94.435869
_cell_angle_gamma 93.122203
_cell_volume 689.996652
_symmetry_space_group_name_H-M "P -1"
_symmetry_group_IT_number 2
_symmetry_cell_setting 'triclinic'
loop_
_space_group_symop_operation_xyz
x,y,z
-x,-y,-z
loop_
_atom_site_type_symbol
_atom_site_label
_atom_site_fract_x
_atom_site_fract_y
_atom_site_fract_z
Si Si1 0.322773 0.059254 0.279382
Si Si2 0.487979 0.754478 0.353369
Si Si3 0.791349 0.986479 0.984643
Si Si4 0.671017 0.007737 0.216589
Si Si5 0.194748 0.103049 0.513177
Si Si6 0.092694 0.574526 0.574522
Si Si7 0.587571 0.438223 0.935563
Si Si8 0.096472 0.520988 0.936977
O O1 0.261622 0.895896 0.180322
O O2 0.258370 0.169372 0.375402
O O3 0.360888 0.296926 0.146978
O O4 0.409815 0.930818 0.381874
O O5 0.500000 0.500000 0.500000
O O6 0.583784 0.878290 0.301803
O O7 0.444326 0.695257 0.198665
O O8 0.724174 0.858106 0.119529
O O9 0.852224 0.749006 0.978884
O O10 0.849408 0.221612 0.032375
O O11 0.742763 0.057419 0.342528
O O12 0.641907 0.260137 0.080135
O O13 0.159784 0.364545 0.546179
O O14 0.120048 0.883335 0.494737
O O15 0.088611 0.542093 0.755565
O O16 0.000000 0.500000 0.500000
O O17 0.500000 0.500000 0.000000
O O18 0.000000 0.500000 0.000000
#
# Coordination Sequence:
#
# PCOD9070546 Si02
#       8
#     2   2   2   2   2   2   2   2
#     4  12  29  47  73 116 155 212 265 322 390 455
#     4  12  28  45  71 110 161 206 261 323 390 458
#     4  12  26  47  79 112 153 199 265 319 382 464
#     4  12  24  50  74 110 151 212 262 325 380 461
#     4  12  30  48  82 114 162 204 260 323 397 474
#     4  12  28  53  80 115 155 205 251 319 408 479
#     4  12  25  46  74 103 153 212 270 326 380 450
#     4  12  27  50  81 116 151 196 255 326 395 465
#
# _framework density 23.18852
#
# number of rings (size 3 to 8) (size 9 to 14) (size 15 to 20)
#    0.000    0.000    5.000    3.375    8.750    1.000 
#    0.000    0.000    0.000    0.000    0.000    0.000 
#    0.000    0.000    0.000    0.000    0.000    0.000 
#
# Total GULP energy -89569.587259 kJ/mol
# GULP energy per Si atom -5598.099204 kJ/mol
# Density = 2.313574 g / cm^3
# Si number density = 23.188520 Si / 1000 Ang^3
#
#
#
# Elastic Constant Matrix: (Units=GPa)
#
#
# Indices 1 2 3 4 5 6 
#
# 1 143.5230 46.7600 56.1906 8.7677 -19.8605 -16.6748
# 2 46.7600 105.0540 30.3574 2.1467 -18.0691 -5.6017
# 3 56.1906 30.3574 113.8204 -5.7168 -18.2455 -11.9292
# 4 8.7677 2.1467 -5.7168 43.1350 -5.5140 2.6108
# 5 -19.8605 -18.0691 -18.2455 -5.5140 48.5689 7.6584
# 6 -16.6748 -5.6017 -11.9292 2.6108 7.6584 40.3130
#
#
#
# Elastic Compliance Matrix: (Units=1/GPa)
#
#
# Indices 1 2 3 4 5 6 
#
# 1 0.010029 -0.003015 -0.003864 -0.002449 0.000842 0.002585
# 2 -0.003015 0.011654 -0.001221 0.000255 0.002757 -0.000529
# 3 -0.003864 -0.001221 0.011659 0.002646 0.002482 0.001039
# 4 -0.002449 0.000255 0.002646 0.024581 0.003257 -0.002405
# 5 0.000842 0.002757 0.002482 0.003257 0.023776 -0.003262
# 6 0.002585 -0.000529 0.001039 -0.002405 -0.003262 0.026884
#
#
# Mechanical properties :
#
#
# Convention : Reuss Voigt Hill
#
# Bulk Modulus (GPa) = 58.33367 69.89038 64.11202
# Shear Modulus (GPa) = 38.31524 41.67603 39.99563
#
# Velocity S-wave (km/s) = 4.06930 4.24402 4.15758
# Velocity P-wave (km/s) = 6.87676 7.36350 7.12429
#
# Compressibility (1/GPa) = 0.01714276
#
# Stress axis : x y z
#
# Youngs Moduli (GPa) = 99.71063 85.80575 85.77286
#
# Poissons Ratio (x) = 0.25867 0.33144
# Poissons Ratio (y) = 0.30059 0.10471
# Poissons Ratio (z) = 0.38530 0.10475
#
# Static dielectric constant tensor:
#      x y z
#    x 1.999540 0.021170 0.109590 
#    y 0.021170 1.906630 0.053490 
#    z 0.109590 0.053490 1.929760 
# 
# From -- ./inp_files/288498.got.cif
#   From: 2010.05.17/outbox.cif.g08.bks.cpg/sg2_145_cif.got.tgz:288498.got - 2010.06.03 11:33:40.
