data_PCOD9070718
_publ_section_title
;
Structure prediction by ZEFSAII (Michael W. Deem and Ramdas Pophale) SiO2 
 PCOD9070718
Probable space group: P -1
;
_chemical_formula_sum "Si O2"
_cell_formula_units_Z 16
_cell_length_a 11.283118
_cell_length_b 8.497844
_cell_length_c 9.102914
_cell_angle_alpha 86.467634
_cell_angle_beta 54.507605
_cell_angle_gamma 73.769166
_cell_volume 676.628757
_symmetry_space_group_name_H-M "P -1"
_symmetry_group_IT_number 2
_symmetry_cell_setting 'triclinic'
loop_
_space_group_symop_operation_xyz
x,y,z
-x,-y,-z
loop_
_atom_site_type_symbol
_atom_site_label
_atom_site_fract_x
_atom_site_fract_y
_atom_site_fract_z
Si Si1 0.965362 0.165823 0.424319
Si Si2 0.356593 0.773130 0.280589
Si Si3 0.843366 0.631645 0.231718
Si Si4 0.938427 0.881559 0.954420
Si Si5 0.636858 0.152882 0.069709
Si Si6 0.386831 0.072854 0.440881
Si Si7 0.675730 0.500392 0.101254
Si Si8 0.911645 0.570862 0.707881
O O1 0.800976 0.273961 0.593378
O O2 0.108214 0.237737 0.320710
O O3 0.954156 0.143649 0.261869
O O4 0.000000 0.000000 0.500000
O O5 0.502543 0.618029 0.214855
O O6 0.347124 0.922194 0.394149
O O7 0.370614 0.830204 0.101068
O O8 0.746494 0.778934 0.399488
O O9 0.746506 0.552561 0.196079
O O10 0.958590 0.498966 0.258290
O O11 0.934970 0.721555 0.055272
O O12 0.765769 0.983404 0.028442
O O13 0.000000 0.000000 0.000000
O O14 0.479530 0.147831 0.253559
O O15 0.681347 0.309622 0.095221
O O16 0.500000 0.000000 0.500000
O O17 0.765897 0.538497 0.890081
O O18 0.000000 0.500000 0.500000
#
# Coordination Sequence:
#
# PCOD9070718 Si02
#       8
#     2   2   2   2   2   2   2   2
#     4  12  28  48  76 111 145 194 249 308 373 443
#     4  12  27  49  75 109 153 196 253 310 379 442
#     4  12  27  50  74 111 154 203 248 310 380 446
#     4  12  25  45  75 106 150 198 253 303 369 446
#     4  12  27  45  75 109 150 202 249 314 372 442
#     4  12  26  47  74 111 148 195 250 308 374 443
#     4  12  27  50  75 109 156 198 250 310 382 444
#     4  12  30  49  77 110 151 198 252 309 376 449
#
# _framework density 23.646644999999999
#
# number of rings (size 3 to 8) (size 9 to 14) (size 15 to 20)
#    0.000    0.000    5.000    3.375    8.750    0.500 
#    0.000    0.000    0.000    0.000    0.000    0.000 
#    0.000    0.000    0.000    0.000    0.000    0.000 
#
# Total GULP energy -89557.247186 kJ/mol
# GULP energy per Si atom -5597.327949 kJ/mol
# Density = 2.359282 g / cm^3
# Si number density = 23.646645 Si / 1000 Ang^3
#
#
#
# Elastic Constant Matrix: (Units=GPa)
#
#
# Indices 1 2 3 4 5 6 
#
# 1 55.9674 8.3950 19.1691 -2.0291 5.2510 -5.7768
# 2 8.3950 95.9631 34.3692 -9.3357 0.9367 10.1667
# 3 19.1691 34.3692 175.3393 1.0530 -2.1000 -1.0874
# 4 -2.0291 -9.3357 1.0530 52.0446 2.0138 0.8376
# 5 5.2510 0.9367 -2.1000 2.0138 51.7315 6.1407
# 6 -5.7768 10.1667 -1.0874 0.8376 6.1407 43.6070
#
#
#
# Elastic Compliance Matrix: (Units=1/GPa)
#
#
# Indices 1 2 3 4 5 6 
#
# 1 0.019269 -0.001264 -0.001872 0.000605 -0.002404 0.003128
# 2 -0.001264 0.011857 -0.002217 0.002168 0.000100 -0.003043
# 3 -0.001872 -0.002217 0.006354 -0.000623 0.000468 0.000373
# 4 0.000605 0.002168 -0.000623 0.019682 -0.000808 -0.000705
# 5 -0.002404 0.000100 0.000468 -0.000808 0.019995 -0.003130
# 6 0.003128 -0.003043 0.000373 -0.000705 -0.003130 0.024520
#
#
# Mechanical properties :
#
#
# Convention : Reuss Voigt Hill
#
# Bulk Modulus (GPa) = 37.34895 50.12626 43.73760
# Shear Modulus (GPa) = 41.21784 47.16572 44.19178
#
# Velocity S-wave (km/s) = 4.17954 4.47095 4.32770
# Velocity P-wave (km/s) = 6.25462 6.92073 6.59609
#
# Compressibility (1/GPa) = 0.02677452
#
# Stress axis : x y z
#
# Youngs Moduli (GPa) = 51.89809 84.33489 157.38032
#
# Poissons Ratio (x) = 0.10663 0.29458
# Poissons Ratio (y) = 0.06562 0.34887
# Poissons Ratio (z) = 0.09714 0.18695
#
# Static dielectric constant tensor:
#      x y z
#    x 1.995900 0.006150 -0.053710 
#    y 0.006150 1.991270 0.125580 
#    z -0.053710 0.125580 1.894480 
# 
# From -- ./inp_files/243844.got.cif
#   From: 2010.05.17/outbox.cif.g08.bks.cpg/sg2_122_cif.got.tgz:243844.got - 2010.06.03 11:33:40.
