data_PCOD9070484
_publ_section_title
;
Structure prediction by ZEFSAII (Michael W. Deem and Ramdas Pophale) SiO2 
 PCOD9070484
Probable space group: P -1
;
_chemical_formula_sum "Si O2"
_cell_formula_units_Z 14
_cell_length_a 11.035845
_cell_length_b 8.006325
_cell_length_c 7.769918
_cell_angle_alpha 92.595768
_cell_angle_beta 83.556952
_cell_angle_gamma 50.316460
_cell_volume 518.824564
_symmetry_space_group_name_H-M "P -1"
_symmetry_group_IT_number 2
_symmetry_cell_setting 'triclinic'
loop_
_space_group_symop_operation_xyz
x,y,z
-x,-y,-z
loop_
_atom_site_type_symbol
_atom_site_label
_atom_site_fract_x
_atom_site_fract_y
_atom_site_fract_z
Si Si1 0.890329 0.723672 0.302244
Si Si2 0.683927 0.155379 0.540518
Si Si3 0.249920 0.300452 0.195571
Si Si4 0.896357 0.200352 0.385656
Si Si5 0.658445 0.694622 0.469815
Si Si6 0.326269 0.612316 0.101121
Si Si7 0.135160 0.074665 0.038275
O O1 0.741679 0.728048 0.307892
O O2 0.060026 0.483433 0.280964
O O3 0.820340 0.890037 0.483945
O O4 0.915426 0.815680 0.135305
O O5 0.740867 0.221746 0.377346
O O6 0.507041 0.243171 0.548752
O O7 0.689539 0.271011 0.709988
O O8 0.363713 0.191301 0.339652
O O9 0.293526 0.442509 0.109405
O O10 0.254138 0.119191 0.086345
O O11 0.803273 0.441893 0.485123
O O12 0.998064 0.171087 0.207732
O O13 0.000000 0.000000 0.500000
O O14 0.209044 0.824727 0.011387
O O15 0.500000 0.500000 0.000000
#
# Coordination Sequence:
#
# PCOD9070484 Si02
#       7
#     2   2   2   2   2   2   2
#     4  12  28  49  81 116 156 209 266 329 396 468
#     4  12  27  49  77 116 159 205 263 318 406 465
#     4  12  27  51  83 113 156 215 265 323 400 467
#     4  12  24  48  80 109 153 209 261 318 390 470
#     4  12  26  46  77 113 157 206 260 325 389 475
#     4  12  30  51  79 116 161 209 260 332 404 467
#     4  12  28  51  82 117 157 206 271 332 386 473
#
# _framework density 26.984072999999999
#
# number of rings (size 3 to 8) (size 9 to 14) (size 15 to 20)
#    0.000    0.000    4.286    4.286    4.000    2.857 
#    0.000    0.000    0.000    0.000    0.000    0.000 
#    0.000    0.000    0.000    0.000    0.000    0.000 
#
# Total GULP energy -78238.649620 kJ/mol
# GULP energy per Si atom -5588.474973 kJ/mol
# Density = 2.692266 g / cm^3
# Si number density = 26.984073 Si / 1000 Ang^3
#
#
#
# Elastic Constant Matrix: (Units=GPa)
#
#
# Indices 1 2 3 4 5 6 
#
# 1 196.7342 36.7974 50.8366 -19.4563 -47.4426 19.2399
# 2 36.7974 108.6682 34.9850 -13.1696 -22.8301 11.6177
# 3 50.8366 34.9850 129.8718 -17.4247 -22.8809 6.6276
# 4 -19.4563 -13.1696 -17.4247 42.1154 3.8890 -12.2568
# 5 -47.4426 -22.8301 -22.8809 3.8890 55.4478 -0.9953
# 6 19.2399 11.6177 6.6276 -12.2568 -0.9953 46.5828
#
#
#
# Elastic Compliance Matrix: (Units=1/GPa)
#
#
# Indices 1 2 3 4 5 6 
#
# 1 0.007149 -0.000457 -0.001457 0.001456 0.005187 -0.002137
# 2 -0.000457 0.011040 -0.001918 0.001628 0.003216 -0.001794
# 3 -0.001457 -0.001918 0.009407 0.002599 0.001671 0.000461
# 4 0.001456 0.001628 0.002599 0.027615 0.001158 0.005914
# 5 0.005187 0.003216 0.001671 0.001158 0.024363 -0.002357
# 6 -0.002137 -0.001794 0.000461 0.005914 -0.002357 0.024238
#
#
# Mechanical properties :
#
#
# Convention : Reuss Voigt Hill
#
# Bulk Modulus (GPa) = 50.17472 75.61245 62.89358
# Shear Modulus (GPa) = 42.33014 49.67288 46.00151
#
# Velocity S-wave (km/s) = 3.96499 4.29514 4.13336
# Velocity P-wave (km/s) = 6.29254 7.25807 6.79248
#
# Compressibility (1/GPa) = 0.01993036
#
# Stress axis : x y z
#
# Youngs Moduli (GPa) = 139.88392 90.58347 106.30909
#
# Poissons Ratio (x) = 0.04140 0.15489
# Poissons Ratio (y) = 0.06393 0.20393
# Poissons Ratio (z) = 0.20381 0.17376
#
# Static dielectric constant tensor:
#      x y z
#    x 2.214570 0.101520 0.069620 
#    y 0.101520 2.214400 0.042720 
#    z 0.069620 0.042720 2.169040 
# 
# From -- ./inp_files/243952.got.cif
#   From: 2010.05.17/outbox.cif.g08.bks.cpg/sg2_122_cif.got.tgz:243952.got - 2010.06.03 11:33:40.
