data_PCOD9070769
_publ_section_title
;
Structure prediction by ZEFSAII (Michael W. Deem and Ramdas Pophale) SiO2 
 PCOD9070769
Probable space group: P -1
;
_chemical_formula_sum "Si O2"
_cell_formula_units_Z 12
_cell_length_a 12.670879
_cell_length_b 5.201649
_cell_length_c 12.508973
_cell_angle_alpha 70.194416
_cell_angle_beta 136.118372
_cell_angle_gamma 119.860576
_cell_volume 495.344514
_symmetry_space_group_name_H-M "P -1"
_symmetry_group_IT_number 2
_symmetry_cell_setting 'triclinic'
loop_
_space_group_symop_operation_xyz
x,y,z
-x,-y,-z
loop_
_atom_site_type_symbol
_atom_site_label
_atom_site_fract_x
_atom_site_fract_y
_atom_site_fract_z
Si Si1 0.166665 0.952340 0.260362
Si Si2 0.612204 0.675257 0.801608
Si Si3 0.968830 0.332654 0.114569
Si Si4 0.325187 0.758997 0.946326
Si Si5 0.889427 0.187770 0.414038
Si Si6 0.589481 0.910969 0.393208
O O1 0.220062 0.100822 0.161991
O O2 0.041922 0.081832 0.201652
O O3 0.080284 0.599665 0.236819
O O4 0.532023 0.407079 0.695093
O O5 0.495744 0.853409 0.708382
O O6 0.640308 0.526602 0.951601
O O7 0.778982 0.205658 0.031715
O O8 0.799462 0.254305 0.236955
O O9 0.000000 0.500000 0.000000
O O10 0.254549 0.991547 0.584487
O O11 0.500000 0.000000 0.000000
O O12 0.666410 0.936402 0.563619
O O13 0.000000 0.500000 0.500000
O O14 0.000000 0.000000 0.500000
#
# Coordination Sequence:
#
# PCOD9070769 Si02
#       6
#     2   2   2   2   2   2
#     4  12  25  48  77 107 153 194 253 311 374 447
#     4  12  26  45  76 113 149 196 249 308 381 446
#     4  12  26  48  75 107 146 199 255 312 369 444
#     4  12  28  51  79 112 156 200 252 315 376 452
#     4  12  27  50  74 106 150 202 251 304 375 452
#     4  12  25  46  72 112 152 194 249 312 378 446
#
# _framework density 24.225563000000001
#
# number of rings (size 3 to 8) (size 9 to 14) (size 15 to 20)
#    0.000    0.000    3.333    6.500    0.000    2.000 
#    0.000    0.000    0.000    0.000    0.000    0.000 
#    0.000    0.000    0.000    0.000    0.000    0.000 
#
# Total GULP energy -67296.333985 kJ/mol
# GULP energy per Si atom -5608.027832 kJ/mol
# Density = 2.417042 g / cm^3
# Si number density = 24.225563 Si / 1000 Ang^3
#
#
#
# Elastic Constant Matrix: (Units=GPa)
#
#
# Indices 1 2 3 4 5 6 
#
# 1 163.9982 71.6923 43.4756 -16.1342 31.3141 4.1375
# 2 71.6923 134.0309 71.7101 3.4185 11.9001 -9.5078
# 3 43.4756 71.7101 176.2550 -6.2935 8.8179 -12.3089
# 4 -16.1342 3.4185 -6.2935 43.3648 -1.0848 0.0757
# 5 31.3141 11.9001 8.8179 -1.0848 44.0525 -14.9315
# 6 4.1375 -9.5078 -12.3089 0.0757 -14.9315 66.3366
#
#
#
# Elastic Compliance Matrix: (Units=1/GPa)
#
#
# Indices 1 2 3 4 5 6 
#
# 1 0.010061 -0.005004 -0.000173 0.003951 -0.006643 -0.002877
# 2 -0.005004 0.012259 -0.003829 -0.003349 0.001506 0.001701
# 3 -0.000173 -0.003829 0.007379 0.001307 -0.000007 0.000828
# 4 0.003951 -0.003349 0.001307 0.024939 -0.001868 -0.000933
# 5 -0.006643 0.001506 -0.000007 -0.001868 0.029430 0.007255
# 6 -0.002877 0.001701 0.000828 -0.000933 0.007255 0.017286
#
#
# Mechanical properties :
#
#
# Convention : Reuss Voigt Hill
#
# Bulk Modulus (GPa) = 85.57446 94.22667 89.90056
# Shear Modulus (GPa) = 40.56445 49.91120 45.23782
#
# Velocity S-wave (km/s) = 4.09644 4.54394 4.32598
# Velocity P-wave (km/s) = 7.60100 8.15536 7.88305
#
# Compressibility (1/GPa) = 0.01168573
#
# Stress axis : x y z
#
# Youngs Moduli (GPa) = 99.39736 81.57527 135.51694
#
# Poissons Ratio (x) = 0.40818 0.02348
# Poissons Ratio (y) = 0.49736 0.51894
# Poissons Ratio (z) = 0.01722 0.31238
#
# Static dielectric constant tensor:
#      x y z
#    x 1.915640 -0.001090 -0.058600 
#    y -0.001090 1.940560 0.092460 
#    z -0.058600 0.092460 2.022030 
# 
# From -- ./inp_files/409098.got.cif
#   From: 2010.05.17/outbox.cif.g08.bks.cpg/sg2_205_cif.got.tgz:409098.got - 2010.06.03 11:33:40.
