data_PCOD9070589
_publ_section_title
;
Structure prediction by ZEFSAII (Michael W. Deem and Ramdas Pophale) SiO2 
 PCOD9070589
Probable space group: P -1
;
_chemical_formula_sum "Si O2"
_cell_formula_units_Z 13
_cell_length_a 10.228070
_cell_length_b 7.004217
_cell_length_c 11.680708
_cell_angle_alpha 78.311475
_cell_angle_beta 44.751567
_cell_angle_gamma 58.459786
_cell_volume 481.804404
_symmetry_space_group_name_H-M "P -1"
_symmetry_group_IT_number 2
_symmetry_cell_setting 'triclinic'
loop_
_space_group_symop_operation_xyz
x,y,z
-x,-y,-z
loop_
_atom_site_type_symbol
_atom_site_label
_atom_site_fract_x
_atom_site_fract_y
_atom_site_fract_z
Si Si1 0.033264 0.584612 0.349471
Si Si2 0.000000 0.000000 0.500000
Si Si3 0.056590 0.017468 0.241995
Si Si4 0.483736 0.267211 0.731789
Si Si5 0.593759 0.731018 0.483833
Si Si6 0.504696 0.865500 0.900708
Si Si7 0.797270 0.238376 0.155661
O O1 0.994741 0.842553 0.360278
O O2 0.287550 0.395699 0.188744
O O3 0.000000 0.500000 0.500000
O O4 0.850077 0.617459 0.370304
O O5 0.935449 0.875282 0.656986
O O6 0.724909 0.202082 0.628650
O O7 0.282582 0.866934 0.051024
O O8 0.887559 0.196646 0.234757
O O9 0.454472 0.317608 0.607994
O O10 0.273741 0.511901 0.883083
O O11 0.478779 0.040582 0.794681
O O12 0.444168 0.721465 0.678400
O O13 0.500000 0.000000 0.500000
O O14 0.500000 0.000000 0.000000
O O15 0.000000 0.000000 0.000000
#
# Coordination Sequence:
#
# PCOD9070589 Si02
#       7
#     2   1   2   2   2   2   2
#     4  12  29  50  81 113 158 209 264 325 395 483
#     4  12  24  52  80 116 154 204 272 316 410 462
#     4  12  28  50  80 112 164 206 263 328 401 477
#     4  12  29  50  81 118 158 214 264 334 399 486
#     4  12  26  53  80 116 157 210 273 324 404 480
#     4  12  29  47  77 117 156 203 261 330 398 469
#     4  12  31  50  79 118 161 209 263 339 399 478
#
# _framework density 26.981904
#
# number of rings (size 3 to 8) (size 9 to 14) (size 15 to 20)
#    0.000    0.000    4.615    2.769   12.923    0.615 
#    0.000    0.000    0.000    0.000    0.000    0.000 
#    0.000    0.000    0.000    0.000    0.000    0.000 
#
# Total GULP energy -72592.785145 kJ/mol
# GULP energy per Si atom -5584.060396 kJ/mol
# Density = 2.692049 g / cm^3
# Si number density = 26.981904 Si / 1000 Ang^3
#
#
#
# Elastic Constant Matrix: (Units=GPa)
#
#
# Indices 1 2 3 4 5 6 
#
# 1 96.1529 47.2595 10.2781 8.9028 3.5964 -33.5701
# 2 47.2595 219.1822 54.0790 35.0563 -6.8562 -27.6248
# 3 10.2781 54.0790 123.6141 13.1241 -15.5738 -19.5762
# 4 8.9028 35.0563 13.1241 57.5501 -5.6324 -0.9086
# 5 3.5964 -6.8562 -15.5738 -5.6324 41.7302 5.0150
# 6 -33.5701 -27.6248 -19.5762 -0.9086 5.0150 50.1509
#
#
#
# Elastic Compliance Matrix: (Units=1/GPa)
#
#
# Indices 1 2 3 4 5 6 
#
# 1 0.014834 -0.002132 0.001003 -0.001328 -0.002561 0.009379
# 2 -0.002132 0.006129 -0.002028 -0.002933 -0.000096 0.001114
# 3 0.001003 -0.002028 0.009821 -0.000840 0.002760 0.003096
# 4 -0.001328 -0.002933 -0.000840 0.019743 0.002309 -0.002705
# 5 -0.002561 -0.000096 0.002760 0.002309 0.025899 -0.003238
# 6 0.009379 0.001114 0.003096 -0.002705 -0.003238 0.028315
#
#
# Mechanical properties :
#
#
# Convention : Reuss Voigt Hill
#
# Bulk Modulus (GPa) = 40.86770 73.57582 57.22176
# Shear Modulus (GPa) = 41.94239 51.70843 46.82541
#
# Velocity S-wave (km/s) = 3.94695 4.38243 4.17038
# Velocity P-wave (km/s) = 5.99586 7.27567 6.66655
#
# Compressibility (1/GPa) = 0.02446920
#
# Stress axis : x y z
#
# Youngs Moduli (GPa) = 67.41425 163.15979 101.82294
#
# Poissons Ratio (x) = 0.34778 -0.10210
# Poissons Ratio (y) = 0.14369 0.20654
# Poissons Ratio (z) = -0.06760 0.33095
#
# Static dielectric constant tensor:
#      x y z
#    x 1.765810 -0.093960 -0.325560 
#    y -0.093960 2.073670 -0.011420 
#    z -0.325560 -0.011420 2.235140 
# 
# From -- ./inp_files/244177.got.cif
#   From: 2010.05.17/outbox.cif.g08.bks.cpg/sg2_123_cif.got.tgz:244177.got - 2010.06.03 11:33:40.
