data_PCOD9070461
_publ_section_title
;
Structure prediction by ZEFSAII (Michael W. Deem and Ramdas Pophale) SiO2 
 PCOD9070461
Probable space group: P -1
;
_chemical_formula_sum "Si O2"
_cell_formula_units_Z 16
_cell_length_a 27.188337
_cell_length_b 8.631691
_cell_length_c 26.977364
_cell_angle_alpha 141.457063
_cell_angle_beta 169.565516
_cell_angle_gamma 38.821726
_cell_volume 711.714956
_symmetry_space_group_name_H-M "P -1"
_symmetry_group_IT_number 2
_symmetry_cell_setting 'triclinic'
loop_
_space_group_symop_operation_xyz
x,y,z
-x,-y,-z
loop_
_atom_site_type_symbol
_atom_site_label
_atom_site_fract_x
_atom_site_fract_y
_atom_site_fract_z
Si Si1 0.767087 0.316555 0.717144
Si Si2 0.046053 0.111761 0.127739
Si Si3 0.638137 0.722045 0.059794
Si Si4 0.520566 0.594612 0.330239
Si Si5 0.764509 0.435368 0.213783
Si Si6 0.352592 0.088515 0.076924
Si Si7 0.134976 0.959937 0.356779
Si Si8 0.148066 0.485484 0.463080
O O1 0.500000 0.500000 0.500000
O O2 0.767223 0.183419 0.631077
O O3 0.812238 0.104770 0.750801
O O4 0.000000 0.500000 0.000000
O O5 0.264064 0.320439 0.394505
O O6 0.758168 0.222759 0.894807
O O7 0.000000 0.000000 0.000000
O O8 0.755982 0.606501 0.199178
O O9 0.889633 0.692015 0.262267
O O10 0.391724 0.566830 0.758961
O O11 0.500000 0.000000 0.000000
O O12 0.428050 0.318463 0.176480
O O13 0.701291 0.584374 0.456794
O O14 0.000000 0.500000 0.500000
O O15 0.500000 0.500000 0.000000
O O16 0.756467 0.146767 0.117978
O O17 0.621332 0.012139 0.356337
O O18 0.107845 0.173872 0.892769
O O19 0.029075 0.237083 0.303666
#
# Coordination Sequence:
#
# PCOD9070461 Si02
#       8
#     2   2   2   2   2   2   2   2
#     4  12  28  46  77 111 148 199 254 306 375 447
#     4  12  28  50  75 111 159 198 245 314 384 448
#     4  12  27  49  76 113 147 200 248 310 381 446
#     4  12  28  49  77 113 148 201 252 312 379 444
#     4  12  26  48  75 107 153 193 244 308 380 450
#     4  12  27  48  76 109 145 200 251 308 376 447
#     4  12  24  48  77 102 148 193 261 307 363 447
#     4  12  24  50  77 105 148 196 254 314 364 446
#
# _framework density 22.480910999999999
#
# number of rings (size 3 to 8) (size 9 to 14) (size 15 to 20)
#    0.000    0.000    3.750    5.250    8.750    0.000 
#    0.000    0.000    0.000    0.000    0.000    0.000 
#    0.000    0.000    0.000    0.000    0.000    0.000 
#
# Total GULP energy -89582.325734 kJ/mol
# GULP energy per Si atom -5598.895358 kJ/mol
# Density = 2.242974 g / cm^3
# Si number density = 22.480911 Si / 1000 Ang^3
#
#
#
# Elastic Constant Matrix: (Units=GPa)
#
#
# Indices 1 2 3 4 5 6 
#
# 1 97.7625 51.5769 33.7441 -9.7221 6.6347 -12.1024
# 2 51.5769 127.2563 41.0298 -16.1328 2.0874 -6.2843
# 3 33.7441 41.0298 149.8309 -11.8795 9.2367 -5.5049
# 4 -9.7221 -16.1328 -11.8795 46.9302 -12.9306 12.5936
# 5 6.6347 2.0874 9.2367 -12.9306 37.9629 1.3712
# 6 -12.1024 -6.2843 -5.5049 12.5936 1.3712 31.3423
#
#
#
# Elastic Compliance Matrix: (Units=1/GPa)
#
#
# Indices 1 2 3 4 5 6 
#
# 1 0.014072 -0.005076 -0.001551 -0.001134 -0.002359 0.004702
# 2 -0.005076 0.010763 -0.001723 0.003097 0.001821 -0.001429
# 3 -0.001551 -0.001723 0.007631 0.000606 -0.001292 0.000209
# 4 -0.001134 0.003097 0.000606 0.028071 0.009854 -0.011421
# 5 -0.002359 0.001821 -0.001292 0.009854 0.030544 -0.006069
# 6 0.004702 -0.001429 0.000209 -0.011421 -0.006069 0.038326
#
#
# Mechanical properties :
#
#
# Convention : Reuss Voigt Hill
#
# Bulk Modulus (GPa) = 63.43141 69.72795 66.57968
# Shear Modulus (GPa) = 33.03319 39.81366 36.42343
#
# Velocity S-wave (km/s) = 3.83742 4.21289 4.02953
# Velocity P-wave (km/s) = 6.92180 7.39922 7.16449
#
# Compressibility (1/GPa) = 0.01576506
#
# Stress axis : x y z
#
# Youngs Moduli (GPa) = 71.06518 92.90750 131.04844
#
# Poissons Ratio (x) = 0.47161 0.20323
# Poissons Ratio (y) = 0.36073 0.22585
# Poissons Ratio (z) = 0.11021 0.16012
#
# Static dielectric constant tensor:
#      x y z
#    x 1.840890 0.001380 0.003650 
#    y 0.001380 1.837250 0.002790 
#    z 0.003650 0.002790 1.779650 
# 
# From -- ./inp_files/621173.got.cif
#   From: 2010.05.17/outbox.cif.g08.bks.cpg/sg2_311_cif.got.tgz:621173.got - 2010.06.03 11:33:40.
