data_PCOD9070577
_publ_section_title
;
Structure prediction by ZEFSAII (Michael W. Deem and Ramdas Pophale) SiO2 
 PCOD9070577
Probable space group: P -1
;
_chemical_formula_sum "Si O2"
_cell_formula_units_Z 15
_cell_length_a 8.868798
_cell_length_b 9.485927
_cell_length_c 11.725638
_cell_angle_alpha 50.489333
_cell_angle_beta 113.405724
_cell_angle_gamma 130.338698
_cell_volume 579.927225
_symmetry_space_group_name_H-M "P -1"
_symmetry_group_IT_number 2
_symmetry_cell_setting 'triclinic'
loop_
_space_group_symop_operation_xyz
x,y,z
-x,-y,-z
loop_
_atom_site_type_symbol
_atom_site_label
_atom_site_fract_x
_atom_site_fract_y
_atom_site_fract_z
Si Si1 0.500000 0.500000 0.500000
Si Si2 0.545031 0.814886 0.088640
Si Si3 0.071741 0.069020 0.754345
Si Si4 0.149515 0.543952 0.765114
Si Si5 0.608812 0.217785 0.504893
Si Si6 0.054538 0.231778 0.442495
Si Si7 0.836851 0.555379 0.940394
Si Si8 0.191887 0.901658 0.176741
O O1 0.515189 0.323750 0.499843
O O2 0.285988 0.419554 0.421424
O O3 0.345587 0.584354 0.125919
O O4 0.692010 0.822543 0.225377
O O5 0.500000 0.000000 0.000000
O O6 0.665241 0.897010 0.964652
O O7 0.980938 0.077234 0.839735
O O8 0.952469 0.813196 0.822084
O O9 0.017046 0.191827 0.586902
O O10 0.251820 0.594998 0.645769
O O11 0.248378 0.516745 0.919179
O O12 0.101360 0.725628 0.678139
O O13 0.930455 0.322258 0.815313
O O14 0.701668 0.141367 0.668087
O O15 0.500000 0.000000 0.500000
O O16 0.000000 0.000000 0.500000
O O17 0.000000 0.500000 0.000000
#
# Coordination Sequence:
#
# PCOD9070577 Si02
#       8
#     1   2   2   2   2   2   2   2
#     4  12  28  46  78 118 158 210 268 324 396 490
#     4  12  27  48  76 109 150 205 264 330 398 480
#     4  12  27  49  76 110 153 208 263 327 403 478
#     4  12  24  51  78 107 160 212 255 334 411 476
#     4  12  26  49  76 119 162 213 269 335 409 484
#     4  12  27  47  79 117 158 205 265 330 404 483
#     4  12  26  50  79 113 155 205 266 332 405 487
#     4  12  25  50  73 110 157 208 265 334 399 478
#
# _framework density 25.865314000000001
#
# number of rings (size 3 to 8) (size 9 to 14) (size 15 to 20)
#    0.000    0.000    5.333    4.000    1.867    2.667 
#    2.400    0.000    0.000    0.000    0.000    0.000 
#    0.000    0.000    0.000    0.000    0.000    0.000 
#
# Total GULP energy -83687.446000 kJ/mol
# GULP energy per Si atom -5579.163067 kJ/mol
# Density = 2.580644 g / cm^3
# Si number density = 25.865314 Si / 1000 Ang^3
#
#
#
# Elastic Constant Matrix: (Units=GPa)
#
#
# Indices 1 2 3 4 5 6 
#
# 1 104.2756 22.5117 7.9158 1.9864 -4.2553 -15.5936
# 2 22.5117 161.6325 8.9926 4.6246 6.3006 7.0114
# 3 7.9158 8.9926 121.1363 21.6444 -13.9444 2.4003
# 4 1.9864 4.6246 21.6444 34.1130 -6.2747 -0.3186
# 5 -4.2553 6.3006 -13.9444 -6.2747 31.8250 1.4689
# 6 -15.5936 7.0114 2.4003 -0.3186 1.4689 42.2544
#
#
#
# Elastic Compliance Matrix: (Units=1/GPa)
#
#
# Indices 1 2 3 4 5 6 
#
# 1 0.010679 -0.001701 -0.000540 0.000245 0.001382 0.004208
# 2 -0.001701 0.006613 -0.000396 -0.000895 -0.001811 -0.001646
# 3 -0.000540 -0.000396 0.009684 -0.005477 0.003208 -0.000836
# 4 0.000245 -0.000895 -0.005477 0.033717 0.004428 0.000650
# 5 0.001382 -0.001811 0.003208 0.004428 0.034268 -0.000530
# 6 0.004208 -0.001646 -0.000836 0.000650 -0.000530 0.025563
#
#
# Mechanical properties :
#
#
# Convention : Reuss Voigt Hill
#
# Bulk Modulus (GPa) = 46.07282 51.76496 48.91889
# Shear Modulus (GPa) = 37.58491 44.81343 41.19917
#
# Velocity S-wave (km/s) = 3.81609 4.16693 3.99536
# Velocity P-wave (km/s) = 6.10475 6.57326 6.34333
#
# Compressibility (1/GPa) = 0.02170477
#
# Stress axis : x y z
#
# Youngs Moduli (GPa) = 93.64116 151.20909 103.25947
#
# Poissons Ratio (x) = 0.25717 0.05571
# Poissons Ratio (y) = 0.15926 0.04086
# Poissons Ratio (z) = 0.05052 0.05983
#
# Static dielectric constant tensor:
#      x y z
#    x 2.134310 -0.022720 -0.042890 
#    y -0.022720 2.185140 0.054310 
#    z -0.042890 0.054310 2.220840 
# 
# From -- ./inp_files/381287.got.cif
#   From: 2010.05.17/outbox.cif.g08.bks.cpg/sg2_191_cif.got.tgz:381287.got - 2010.06.03 11:33:40.
