data_PCOD9070933
_publ_section_title
;
Structure prediction by ZEFSAII (Michael W. Deem and Ramdas Pophale) SiO2 
 PCOD9070933
Probable space group: P -1
;
_chemical_formula_sum "Si O2"
_cell_formula_units_Z 16
_cell_length_a 12.186529
_cell_length_b 8.608497
_cell_length_c 20.617438
_cell_angle_alpha 113.182512
_cell_angle_beta 159.271278
_cell_angle_gamma 69.019348
_cell_volume 703.399608
_symmetry_space_group_name_H-M "P -1"
_symmetry_group_IT_number 2
_symmetry_cell_setting 'triclinic'
loop_
_space_group_symop_operation_xyz
x,y,z
-x,-y,-z
loop_
_atom_site_type_symbol
_atom_site_label
_atom_site_fract_x
_atom_site_fract_y
_atom_site_fract_z
Si Si1 0.595868 0.800496 0.658810
Si Si2 0.258877 0.903233 0.020075
Si Si3 0.237622 0.060709 0.586475
Si Si4 0.271773 0.641499 0.871641
Si Si5 0.218336 0.656966 0.636598
Si Si6 0.614801 0.499790 0.429067
Si Si7 0.627398 0.809709 0.977417
Si Si8 0.354136 0.810791 0.388787
O O1 0.611898 0.621018 0.673437
O O2 0.491189 0.745900 0.520649
O O3 0.903620 0.921905 0.848663
O O4 0.338913 0.915179 0.569856
O O5 0.216920 0.744091 0.923603
O O6 0.469590 0.881466 0.196737
O O7 0.397435 0.047305 0.070593
O O8 0.022497 0.196482 0.455637
O O9 0.000000 0.000000 0.500000
O O10 0.423967 0.777810 0.925511
O O11 0.959072 0.550974 0.655348
O O12 0.500000 0.500000 0.000000
O O13 0.338706 0.626920 0.626228
O O14 0.505716 0.650423 0.842641
O O15 0.000000 0.500000 0.500000
O O16 0.457299 0.683294 0.368175
O O17 0.986705 0.816587 0.192853
O O18 0.500000 0.000000 0.500000
#
# Coordination Sequence:
#
# PCOD9070933 Si02
#       8
#     2   2   2   2   2   2   2   2
#     4  12  26  47  75 102 149 189 241 298 358 444
#     4  12  26  47  71 107 143 193 241 293 367 437
#     4  12  26  47  75 104 140 190 243 297 366 426
#     4  12  26  43  74 106 145 189 243 302 357 428
#     4  12  27  46  73 107 145 185 242 305 360 432
#     4  12  25  48  71 105 147 189 242 301 363 426
#     4  12  26  46  73 105 146 192 244 297 364 426
#     4  12  27  46  71 109 147 194 238 296 364 432
#
# _framework density 22.746672
#
# number of rings (size 3 to 8) (size 9 to 14) (size 15 to 20)
#    0.000    0.000    6.250    2.625    5.250    1.500 
#    0.000    0.000    0.000    0.000    0.000    0.000 
#    0.000    0.000    0.000    0.000    0.000    0.000 
#
# Total GULP energy -89165.003115 kJ/mol
# GULP energy per Si atom -5572.812695 kJ/mol
# Density = 2.269490 g / cm^3
# Si number density = 22.746672 Si / 1000 Ang^3
#
#
#
# Elastic Constant Matrix: (Units=GPa)
#
#
# Indices 1 2 3 4 5 6 
#
# 1 61.2108 4.3987 10.8258 -0.6033 11.4463 -7.5534
# 2 4.3987 62.7937 -12.7724 -2.4101 21.2699 -6.2133
# 3 10.8258 -12.7724 110.5916 17.3068 -2.9852 -3.6057
# 4 -0.6033 -2.4101 17.3068 28.5276 -1.9615 4.3248
# 5 11.4463 21.2699 -2.9852 -1.9615 28.8998 4.0365
# 6 -7.5534 -6.2133 -3.6057 4.3248 4.0365 45.4655
#
#
#
# Elastic Compliance Matrix: (Units=1/GPa)
#
#
# Indices 1 2 3 4 5 6 
#
# 1 0.018825 0.002007 -0.001797 0.000375 -0.009664 0.004082
# 2 0.002007 0.022945 0.002378 -0.001543 -0.018300 0.005429
# 3 -0.001797 0.002378 0.010545 -0.006509 -0.000605 0.001536
# 4 0.000375 -0.001543 -0.006509 0.039859 0.003688 -0.004784
# 5 -0.009664 -0.018300 -0.000605 0.003688 0.053377 -0.009244
# 6 0.004082 0.005429 0.001536 -0.004784 -0.009244 0.024812
#
#
# Mechanical properties :
#
#
# Convention : Reuss Voigt Hill
#
# Bulk Modulus (GPa) = 17.39411 26.61113 22.00262
# Shear Modulus (GPa) = 27.12219 36.05487 31.58853
#
# Velocity S-wave (km/s) = 3.45680 3.98560 3.73058
# Velocity P-wave (km/s) = 4.85758 5.73623 5.31509
#
# Compressibility (1/GPa) = 0.05749072
#
# Stress axis : x y z
#
# Youngs Moduli (GPa) = 53.12064 43.58298 94.82997
#
# Poissons Ratio (x) = -0.08749 0.17045
# Poissons Ratio (y) = -0.10663 -0.22550
# Poissons Ratio (z) = 0.09548 -0.10364
#
# Static dielectric constant tensor:
#      x y z
#    x 1.897520 0.075260 0.003790 
#    y 0.075260 1.911050 -0.034970 
#    z 0.003790 -0.034970 1.871440 
# 
# From -- ./inp_files/343558.got.cif
#   From: 2010.05.17/outbox.cif.g08.bks.cpg/sg2_172_cif.got.tgz:343558.got - 2010.06.03 11:33:40.
