data_PCOD9070118
_publ_section_title
;
Structure prediction by ZEFSAII (Michael W. Deem and Ramdas Pophale) SiO2 
 PCOD9070118
Probable space group: P -1
;
_chemical_formula_sum "Si O2"
_cell_formula_units_Z 13
_cell_length_a 12.531811
_cell_length_b 5.474420
_cell_length_c 12.126196
_cell_angle_alpha 131.829273
_cell_angle_beta 119.307264
_cell_angle_gamma 52.858639
_cell_volume 488.833693
_symmetry_space_group_name_H-M "P -1"
_symmetry_group_IT_number 2
_symmetry_cell_setting 'triclinic'
loop_
_space_group_symop_operation_xyz
x,y,z
-x,-y,-z
loop_
_atom_site_type_symbol
_atom_site_label
_atom_site_fract_x
_atom_site_fract_y
_atom_site_fract_z
Si Si1 0.694144 0.575603 0.290189
Si Si2 0.566189 0.747742 0.654754
Si Si3 0.071771 0.592649 0.963652
Si Si4 0.359644 0.489666 0.158447
Si Si5 0.772846 0.721053 0.591522
Si Si6 0.500000 0.500000 0.000000
Si Si7 0.061868 0.286835 0.639988
O O1 0.746256 0.472248 0.411115
O O2 0.655379 0.386707 0.111819
O O3 0.802858 0.727250 0.351781
O O4 0.545180 0.878656 0.335387
O O5 0.500000 0.500000 0.500000
O O6 0.560397 0.826538 0.807369
O O7 0.716497 0.635954 0.652275
O O8 0.079303 0.324926 0.788785
O O9 0.218837 0.509907 0.055878
O O10 0.000000 0.500000 0.000000
O O11 0.000000 0.000000 0.000000
O O12 0.435398 0.471148 0.078105
O O13 0.318396 0.844715 0.324523
O O14 0.928531 0.649877 0.645912
O O15 0.000000 0.000000 0.500000
#
# Coordination Sequence:
#
# PCOD9070118 Si02
#       7
#     2   2   2   2   2   1   2
#     4  12  26  48  74 114 158 208 265 342 419 495
#     4  12  24  45  76 108 145 204 271 325 400 493
#     4  12  28  52  84 119 163 220 281 344 425 503
#     4  12  26  49  79 111 156 209 274 341 415 495
#     4  12  25  49  80 107 156 208 271 333 412 502
#     4  12  26  48  72 114 158 206 262 342 416 488
#     4  12  28  50  76 122 162 216 277 348 422 493
#
# _framework density 26.593910000000001
#
# number of rings (size 3 to 8) (size 9 to 14) (size 15 to 20)
#    0.000    0.000    6.154    3.692    2.154    1.846 
#    5.538    0.000    0.000    0.000    0.000    0.000 
#    0.000    0.000    0.000    0.000    0.000    0.000 
#
# Total GULP energy -72417.270145 kJ/mol
# GULP energy per Si atom -5570.559242 kJ/mol
# Density = 2.653338 g / cm^3
# Si number density = 26.593910 Si / 1000 Ang^3
#
#
#
# Elastic Constant Matrix: (Units=GPa)
#
#
# Indices 1 2 3 4 5 6 
#
# 1 212.8921 25.0247 52.4668 -24.7413 6.4507 -5.1872
# 2 25.0247 51.4327 28.7369 -28.5906 6.1788 -12.1949
# 3 52.4668 28.7369 209.2446 -34.3512 5.9310 -0.3209
# 4 -24.7413 -28.5906 -34.3512 58.6397 0.4709 -1.4463
# 5 6.4507 6.1788 5.9310 0.4709 48.4224 -19.0102
# 6 -5.1872 -12.1949 -0.3209 -1.4463 -19.0102 36.6270
#
#
#
# Elastic Compliance Matrix: (Units=1/GPa)
#
#
# Indices 1 2 3 4 5 6 
#
# 1 0.005222 -0.001401 -0.000947 0.000971 -0.000366 0.000113
# 2 -0.001401 0.031407 -0.001661 0.014018 0.000609 0.011114
# 3 -0.000947 -0.001661 0.005601 0.002055 -0.000737 -0.000939
# 4 0.000971 0.014018 0.002055 0.025644 -0.000161 0.005752
# 5 -0.000366 0.000609 -0.000737 -0.000161 0.026084 0.013676
# 6 0.000113 0.011114 -0.000939 0.005752 0.013676 0.038336
#
#
# Mechanical properties :
#
#
# Convention : Reuss Voigt Hill
#
# Bulk Modulus (GPa) = 29.22931 76.22514 52.72723
# Shear Modulus (GPa) = 32.95640 53.22724 43.09182
#
# Velocity S-wave (km/s) = 3.52411 4.47865 4.02974
# Velocity P-wave (km/s) = 5.25109 7.44777 6.44373
#
# Compressibility (1/GPa) = 0.03421223
#
# Stress axis : x y z
#
# Youngs Moduli (GPa) = 191.49781 31.84034 178.52642
#
# Poissons Ratio (x) = 0.04461 0.16906
# Poissons Ratio (y) = 0.26829 0.29652
# Poissons Ratio (z) = 0.18135 0.05288
#
# Static dielectric constant tensor:
#      x y z
#    x 1.916290 -0.045620 -0.047320 
#    y -0.045620 2.071560 -0.084480 
#    z -0.047320 -0.084480 2.034280 
# 
# From -- ./inp_files/288730.got.cif
#   From: 2010.05.17/outbox.cif.g08.bks.cpg/sg2_145_cif.got.tgz:288730.got - 2010.06.03 11:33:40.
