data_PCOD9070998
_publ_section_title
;
Structure prediction by ZEFSAII (Michael W. Deem and Ramdas Pophale) SiO2 
 PCOD9070998
Probable space group: P -1
;
_chemical_formula_sum "Si O2"
_cell_formula_units_Z 14
_cell_length_a 8.149635
_cell_length_b 9.363537
_cell_length_c 12.072283
_cell_angle_alpha 49.605985
_cell_angle_beta 60.175071
_cell_angle_gamma 72.693291
_cell_volume 608.254570
_symmetry_space_group_name_H-M "P -1"
_symmetry_group_IT_number 2
_symmetry_cell_setting 'triclinic'
loop_
_space_group_symop_operation_xyz
x,y,z
-x,-y,-z
loop_
_atom_site_type_symbol
_atom_site_label
_atom_site_fract_x
_atom_site_fract_y
_atom_site_fract_z
Si Si1 0.523537 0.609428 0.242712
Si Si2 0.787219 0.701410 0.454053
Si Si3 0.539864 0.300803 0.026429
Si Si4 0.024441 0.781916 0.117525
Si Si5 0.527758 0.119392 0.672582
Si Si6 0.901616 0.483261 0.158340
Si Si7 0.968393 0.201500 0.459115
O O1 0.323677 0.496808 0.387706
O O2 0.538488 0.699873 0.071485
O O3 0.545615 0.764661 0.253975
O O4 0.677129 0.445581 0.261487
O O5 0.621306 0.834098 0.398020
O O6 0.936721 0.704080 0.300991
O O7 0.901675 0.762426 0.495012
O O8 0.762475 0.275256 0.945806
O O9 0.500000 0.500000 0.000000
O O10 0.468171 0.106616 0.205367
O O11 0.911785 0.688928 0.101506
O O12 0.000000 0.000000 0.000000
O O13 0.743102 0.199502 0.555059
O O14 0.008753 0.351816 0.272900
O O15 0.000000 0.500000 0.000000
O O16 0.000000 0.000000 0.500000
#
# Coordination Sequence:
#
# PCOD9070998 Si02
#       7
#     2   2   2   2   2   2   2
#     4  12  25  49  80 112 156 205 262 330 389 467
#     4  12  26  51  84 111 156 206 272 328 388 470
#     4  12  28  47  75 116 161 209 261 325 400 470
#     4  12  25  48  78 113 151 209 266 316 390 470
#     4  12  26  53  79 113 157 206 267 325 392 473
#     4  12  27  48  76 115 161 199 256 326 394 469
#     4  12  31  49  78 118 157 207 263 327 402 471
#
# _framework density 23.016679
#
# number of rings (size 3 to 8) (size 9 to 14) (size 15 to 20)
#    0.000    0.000    4.286    4.286    8.000    3.429 
#    0.000    0.000    0.000    0.000    0.000    0.000 
#    0.000    0.000    0.000    0.000    0.000    0.000 
#
# Total GULP energy -78248.722170 kJ/mol
# GULP energy per Si atom -5589.194441 kJ/mol
# Density = 2.296429 g / cm^3
# Si number density = 23.016679 Si / 1000 Ang^3
#
#
#
# Elastic Constant Matrix: (Units=GPa)
#
#
# Indices 1 2 3 4 5 6 
#
# 1 157.0061 63.8163 59.0365 14.4425 14.3191 0.6465
# 2 63.8163 161.7850 78.9245 10.7992 6.6393 -4.5105
# 3 59.0365 78.9245 127.5220 -0.9252 15.6241 16.9059
# 4 14.4425 10.7992 -0.9252 43.0851 0.1927 2.6197
# 5 14.3191 6.6393 15.6241 0.1927 34.5809 -2.9918
# 6 0.6465 -4.5105 16.9059 2.6197 -2.9918 32.9364
#
#
#
# Elastic Compliance Matrix: (Units=1/GPa)
#
#
# Indices 1 2 3 4 5 6 
#
# 1 0.008522 -0.001706 -0.002830 -0.002548 -0.001814 0.001090
# 2 -0.001706 0.010259 -0.006527 -0.002464 0.002148 0.005180
# 3 -0.002830 -0.006527 0.015095 0.003500 -0.005223 -0.009339
# 4 -0.002548 -0.002464 0.003500 0.025010 -0.000549 -0.004123
# 5 -0.001814 0.002148 -0.005223 -0.000549 0.032136 0.005973
# 6 0.001090 0.005180 -0.009339 -0.004123 0.005973 0.036714
#
#
# Mechanical properties :
#
#
# Convention : Reuss Voigt Hill
#
# Bulk Modulus (GPa) = 85.11068 94.42974 89.77021
# Shear Modulus (GPa) = 32.51404 38.42285 35.46845
#
# Velocity S-wave (km/s) = 3.76257 4.09020 3.92980
# Velocity P-wave (km/s) = 7.47891 7.96379 7.72516
#
# Compressibility (1/GPa) = 0.01174941
#
# Stress axis : x y z
#
# Youngs Moduli (GPa) = 117.34174 97.47523 66.24604
#
# Poissons Ratio (x) = 0.16629 0.18749
# Poissons Ratio (y) = 0.20019 0.43241
# Poissons Ratio (z) = 0.33209 0.63625
#
# Static dielectric constant tensor:
#      x y z
#    x 1.992420 -0.090100 0.030610 
#    y -0.090100 1.849740 -0.000880 
#    z 0.030610 -0.000880 1.864860 
# 
# From -- ./inp_files/380960.got.cif
#   From: 2010.05.17/outbox.cif.g08.bks.cpg/sg2_191_cif.got.tgz:380960.got - 2010.06.03 11:33:40.
