data_PCOD9070731
_publ_section_title
;
Structure prediction by ZEFSAII (Michael W. Deem and Ramdas Pophale) SiO2 
 PCOD9070731
Probable space group: P -1
;
_chemical_formula_sum "Si O2"
_cell_formula_units_Z 14
_cell_length_a 8.163571
_cell_length_b 7.761796
_cell_length_c 12.366488
_cell_angle_alpha 50.762943
_cell_angle_beta 86.609756
_cell_angle_gamma 68.687381
_cell_volume 549.350793
_symmetry_space_group_name_H-M "P -1"
_symmetry_group_IT_number 2
_symmetry_cell_setting 'triclinic'
loop_
_space_group_symop_operation_xyz
x,y,z
-x,-y,-z
loop_
_atom_site_type_symbol
_atom_site_label
_atom_site_fract_x
_atom_site_fract_y
_atom_site_fract_z
Si Si1 0.197934 0.895763 0.441503
Si Si2 0.692539 0.311218 0.869764
Si Si3 0.729632 0.356687 0.241782
Si Si4 0.884462 0.331046 0.659834
Si Si5 0.038444 0.456681 0.143440
Si Si6 0.568307 0.838663 0.452755
Si Si7 0.728186 0.018100 0.190132
O O1 0.184398 0.849351 0.587151
O O2 0.111220 0.757169 0.426807
O O3 0.412548 0.753366 0.467892
O O4 0.138040 0.171381 0.291217
O O5 0.485656 0.508163 0.786382
O O6 0.784632 0.210494 0.790681
O O7 0.832816 0.417034 0.870347
O O8 0.677332 0.123988 0.031294
O O9 0.836812 0.527587 0.171496
O O10 0.764801 0.220896 0.178699
O O11 0.760043 0.617843 0.557993
O O12 0.090476 0.228922 0.726348
O O13 0.000000 0.500000 0.000000
O O14 0.587923 0.976024 0.290577
O O15 0.500000 0.000000 0.500000
#
# Coordination Sequence:
#
# PCOD9070731 Si02
#       7
#     2   2   2   2   2   2   2
#     4  12  25  47  72 109 155 187 257 304 368 444
#     4  12  27  49  75 109 155 198 251 304 373 443
#     4  12  25  46  78 109 149 198 251 303 372 437
#     4  12  26  48  72 106 155 192 246 315 372 442
#     4  12  26  45  77 112 143 195 251 305 366 444
#     4  12  25  45  76 108 140 197 249 305 374 442
#     4  12  25  46  73 109 149 197 248 310 371 436
#
# _framework density 25.484624
#
# number of rings (size 3 to 8) (size 9 to 14) (size 15 to 20)
#    0.000    0.000    5.714    3.857    2.000    1.143 
#    0.000    0.714    0.000    0.000    0.000    0.000 
#    0.000    0.000    0.000    0.000    0.000    0.000 
#
# Total GULP energy -78389.007566 kJ/mol
# GULP energy per Si atom -5599.214826 kJ/mol
# Density = 2.542662 g / cm^3
# Si number density = 25.484624 Si / 1000 Ang^3
#
#
#
# Elastic Constant Matrix: (Units=GPa)
#
#
# Indices 1 2 3 4 5 6 
#
# 1 116.1311 11.0343 18.4493 6.1133 -0.5842 -23.6899
# 2 11.0343 80.7902 13.7878 11.9670 1.8860 -16.5616
# 3 18.4493 13.7878 167.7897 21.3671 -10.6768 -12.4708
# 4 6.1133 11.9670 21.3671 32.2578 -9.9596 -1.2104
# 5 -0.5842 1.8860 -10.6768 -9.9596 47.1361 8.4280
# 6 -23.6899 -16.5616 -12.4708 -1.2104 8.4280 32.4640
#
#
#
# Elastic Compliance Matrix: (Units=1/GPa)
#
#
# Indices 1 2 3 4 5 6 
#
# 1 0.010393 0.000712 -0.000430 -0.002239 -0.001937 0.008201
# 2 0.000712 0.015164 -0.000063 -0.006489 -0.003578 0.008918
# 3 -0.000430 -0.000063 0.006711 -0.004180 0.000276 0.002005
# 4 -0.002239 -0.006489 -0.004180 0.039059 0.008860 -0.007394
# 5 -0.001937 -0.003578 0.000276 0.008860 0.024927 -0.009273
# 6 0.008201 0.008918 0.002005 -0.007394 -0.009273 0.044240
#
#
# Mechanical properties :
#
#
# Convention : Reuss Voigt Hill
#
# Bulk Modulus (GPa) = 30.57479 50.13932 40.35706
# Shear Modulus (GPa) = 33.12205 43.80090 38.46147
#
# Velocity S-wave (km/s) = 3.60903 4.15024 3.88906
# Velocity P-wave (km/s) = 5.42127 6.53323 6.00305
#
# Compressibility (1/GPa) = 0.03270668
#
# Stress axis : x y z
#
# Youngs Moduli (GPa) = 96.22132 65.94524 149.00578
#
# Poissons Ratio (x) = -0.04695 0.06404
# Poissons Ratio (y) = -0.06851 0.00937
# Poissons Ratio (z) = 0.04135 0.00415
#
# Static dielectric constant tensor:
#      x y z
#    x 2.066110 0.018550 -0.024700 
#    y 0.018550 1.998470 -0.021260 
#    z -0.024700 -0.021260 2.009970 
# 
# From -- ./inp_files/242406.got.cif
#   From: 2010.05.17/outbox.cif.g08.bks.cpg/sg2_122_cif.got.tgz:242406.got - 2010.06.03 11:33:40.
