data_PCOD9070802
_publ_section_title
;
Structure prediction by ZEFSAII (Michael W. Deem and Ramdas Pophale) SiO2 
 PCOD9070802
Probable space group: P -1
;
_chemical_formula_sum "Si O2"
_cell_formula_units_Z 13
_cell_length_a 5.570102
_cell_length_b 10.504014
_cell_length_c 11.678198
_cell_angle_alpha 47.684715
_cell_angle_beta 100.533915
_cell_angle_gamma 113.975209
_cell_volume 457.473403
_symmetry_space_group_name_H-M "P -1"
_symmetry_group_IT_number 2
_symmetry_cell_setting 'triclinic'
loop_
_space_group_symop_operation_xyz
x,y,z
-x,-y,-z
loop_
_atom_site_type_symbol
_atom_site_label
_atom_site_fract_x
_atom_site_fract_y
_atom_site_fract_z
Si Si1 0.990213 0.714042 0.122458
Si Si2 0.649944 0.893452 0.268794
Si Si3 0.554844 0.554942 0.339262
Si Si4 0.294565 0.288610 0.113910
Si Si5 0.226537 0.907353 0.390484
Si Si6 0.500000 0.000000 0.000000
Si Si7 0.950367 0.650068 0.725754
O O1 0.838912 0.590273 0.295152
O O2 0.022973 0.546814 0.154783
O O3 0.792310 0.761255 0.993973
O O4 0.202648 0.893746 0.092524
O O5 0.554096 0.767316 0.216251
O O6 0.419445 0.834254 0.378814
O O7 0.929965 0.885038 0.331485
O O8 0.654096 0.077130 0.094344
O O9 0.500000 0.500000 0.500000
O O10 0.335554 0.414427 0.324400
O O11 0.070424 0.280725 0.191770
O O12 0.383785 0.130575 0.268576
O O13 0.500000 0.500000 0.000000
O O14 0.154471 0.806160 0.567491
#
# Coordination Sequence:
#
# PCOD9070802 Si02
#       7
#     2   2   2   2   2   1   2
#     4  12  27  49  81 116 162 212 272 336 410 486
#     4  12  27  46  79 118 162 204 269 331 413 481
#     4  12  25  46  76 116 160 203 261 332 411 483
#     4  12  28  53  79 113 158 217 281 329 403 487
#     4  12  29  51  81 116 162 215 270 339 411 484
#     4  12  26  44  76 116 160 202 262 332 408 468
#     4  12  27  49  78 116 158 215 264 338 401 488
#
# _framework density 28.416954
#
# number of rings (size 3 to 8) (size 9 to 14) (size 15 to 20)
#    0.000    0.000    6.154    2.769    4.308    3.692 
#    0.000    2.308    0.000    0.000    0.000    0.000 
#    0.000    0.000    0.000    0.000    0.000    0.000 
#
# Total GULP energy -72552.923344 kJ/mol
# GULP energy per Si atom -5580.994103 kJ/mol
# Density = 2.835228 g / cm^3
# Si number density = 28.416954 Si / 1000 Ang^3
#
#
#
# Elastic Constant Matrix: (Units=GPa)
#
#
# Indices 1 2 3 4 5 6 
#
# 1 114.9776 28.4431 16.4253 27.7396 11.9388 7.8228
# 2 28.4431 116.1237 29.4318 0.9147 14.5604 0.3197
# 3 16.4253 29.4318 132.6683 7.2166 3.8161 9.0394
# 4 27.7396 0.9147 7.2166 60.1872 -4.2175 -1.1232
# 5 11.9388 14.5604 3.8161 -4.2175 40.0837 6.5689
# 6 7.8228 0.3197 9.0394 -1.1232 6.5689 62.3765
#
#
#
# Elastic Compliance Matrix: (Units=1/GPa)
#
#
# Indices 1 2 3 4 5 6 
#
# 1 0.010903 -0.002168 -0.000434 -0.005155 -0.002782 -0.001093
# 2 -0.002168 0.009988 -0.001971 0.000900 -0.002835 0.000821
# 3 -0.000434 -0.001971 0.008143 -0.000755 0.000179 -0.001148
# 4 -0.005155 0.000900 -0.000755 0.019305 0.003186 0.000763
# 5 -0.002782 -0.002835 0.000179 0.003186 0.027535 -0.002505
# 6 -0.001093 0.000821 -0.001148 0.000763 -0.002505 0.016608
#
#
# Mechanical properties :
#
#
# Convention : Reuss Voigt Hill
#
# Bulk Modulus (GPa) = 50.28185 56.92999 53.60592
# Shear Modulus (GPa) = 46.18648 51.82743 49.00696
#
# Velocity S-wave (km/s) = 4.03589 4.27525 4.15730
# Velocity P-wave (km/s) = 6.28097 6.66691 6.47682
#
# Compressibility (1/GPa) = 0.01988789
#
# Stress axis : x y z
#
# Youngs Moduli (GPa) = 91.72079 100.11896 122.80963
#
# Poissons Ratio (x) = 0.21707 0.05329
# Poissons Ratio (y) = 0.19886 0.24203
# Poissons Ratio (z) = 0.03980 0.19731
#
# Static dielectric constant tensor:
#      x y z
#    x 2.509460 0.172030 -0.463830 
#    y 0.172030 2.118620 0.143950 
#    z -0.463830 0.143950 2.025360 
# 
# From -- ./inp_files/362594.got.cif
#   From: 2010.05.17/outbox.cif.g08.bks.cpg/sg2_182_cif.got.tgz:362594.got - 2010.06.03 11:33:40.
