data_PCOD9070603
_publ_section_title
;
Structure prediction by ZEFSAII (Michael W. Deem and Ramdas Pophale) SiO2 
 PCOD9070603
Probable space group: P -1
;
_chemical_formula_sum "Si O2"
_cell_formula_units_Z 14
_cell_length_a 13.189121
_cell_length_b 7.560848
_cell_length_c 6.620554
_cell_angle_alpha 83.037446
_cell_angle_beta 63.871584
_cell_angle_gamma 70.127936
_cell_volume 557.128293
_symmetry_space_group_name_H-M "P -1"
_symmetry_group_IT_number 2
_symmetry_cell_setting 'triclinic'
loop_
_space_group_symop_operation_xyz
x,y,z
-x,-y,-z
loop_
_atom_site_type_symbol
_atom_site_label
_atom_site_fract_x
_atom_site_fract_y
_atom_site_fract_z
Si Si1 0.453926 0.633706 0.328539
Si Si2 0.247286 0.101035 0.090505
Si Si3 0.415296 0.241086 0.153118
Si Si4 0.099781 0.823985 0.335858
Si Si5 0.242795 0.505552 0.518416
Si Si6 0.112128 0.513881 0.032183
Si Si7 0.601838 0.082986 0.339733
O O1 0.500000 0.500000 0.500000
O O2 0.352574 0.568298 0.327079
O O3 0.378521 0.819843 0.488846
O O4 0.553522 0.653382 0.086703
O O5 0.371623 0.084157 0.096088
O O6 0.161188 0.318794 0.144793
O O7 0.197695 0.930260 0.203677
O O8 0.282505 0.065340 0.829599
O O9 0.298136 0.303632 0.397233
O O10 0.530593 0.215042 0.199379
O O11 0.131205 0.655579 0.493746
O O12 0.084047 0.705625 0.165106
O O13 0.000000 0.000000 0.500000
O O14 0.215546 0.509896 0.777806
O O15 0.000000 0.500000 0.000000
O O16 0.500000 0.000000 0.500000
#
# Coordination Sequence:
#
# PCOD9070603 Si02
#       7
#     2   2   2   2   2   2   2
#     4  12  25  42  70 107 151 196 247 300 363 449
#     4  12  26  48  77 106 154 194 251 307 379 443
#     4  12  25  45  71 109 152 204 242 300 371 457
#     4  12  30  51  77 113 143 193 260 322 382 446
#     4  12  26  46  78 106 151 197 249 309 380 441
#     4  12  29  54  79 108 148 197 258 321 384 448
#     4  12  25  42  67 108 151 194 248 293 364 450
#
# _framework density 25.128861000000001
#
# number of rings (size 3 to 8) (size 9 to 14) (size 15 to 20)
#    0.000    0.000    4.286    5.143    6.000    4.571 
#    0.000    0.000    0.000    0.000    0.000    0.000 
#    0.000    0.000    0.000    0.000    0.000    0.000 
#
# Total GULP energy -77968.364047 kJ/mol
# GULP energy per Si atom -5569.168861 kJ/mol
# Density = 2.507167 g / cm^3
# Si number density = 25.128861 Si / 1000 Ang^3
#
#
#
# Elastic Constant Matrix: (Units=GPa)
#
#
# Indices 1 2 3 4 5 6 
#
# 1 81.0870 16.1298 19.4739 -10.4425 1.6768 6.1104
# 2 16.1298 87.6936 49.8948 7.8038 5.2980 2.9223
# 3 19.4739 49.8948 152.0815 7.2901 4.7571 2.4655
# 4 -10.4425 7.8038 7.2901 56.0866 0.6481 -3.4988
# 5 1.6768 5.2980 4.7571 0.6481 35.2796 -2.6718
# 6 6.1104 2.9223 2.4655 -3.4988 -2.6718 37.6952
#
#
#
# Elastic Compliance Matrix: (Units=1/GPa)
#
#
# Indices 1 2 3 4 5 6 
#
# 1 0.013514 -0.001991 -0.001174 0.002843 -0.000368 -0.001722
# 2 -0.001991 0.014537 -0.004365 -0.001858 -0.001526 -0.000799
# 3 -0.001174 -0.004365 0.008204 -0.000679 -0.000390 -0.000099
# 4 0.002843 -0.001858 -0.000679 0.018798 0.000002 0.001473
# 5 -0.000368 -0.001526 -0.000390 0.000002 0.028814 0.002246
# 6 -0.001722 -0.000799 -0.000099 0.001473 0.002246 0.027172
#
#
# Mechanical properties :
#
#
# Convention : Reuss Voigt Hill
#
# Bulk Modulus (GPa) = 47.17951 54.65101 50.91526
# Shear Modulus (GPa) = 37.54786 41.50319 39.52552
#
# Velocity S-wave (km/s) = 3.86970 4.06841 3.97030
# Velocity P-wave (km/s) = 6.22751 6.62305 6.42832
#
# Compressibility (1/GPa) = 0.02119564
#
# Stress axis : x y z
#
# Youngs Moduli (GPa) = 73.99812 68.78960 121.89099
#
# Poissons Ratio (x) = 0.13696 0.14311
# Poissons Ratio (y) = 0.14733 0.53200
# Poissons Ratio (z) = 0.08688 0.30024
#
# Static dielectric constant tensor:
#      x y z
#    x 2.071160 -0.097860 -0.012980 
#    y -0.097860 2.349960 0.030750 
#    z -0.012980 0.030750 1.982930 
# 
# From -- ./inp_files/47613.got.cif
#   From: 2010.05.17/outbox.cif.g08.bks.cpg/sg2_24_cif.got.tgz:47613.got - 2010.06.03 11:33:40.
