data_PCOD9070453
_publ_section_title
;
Structure prediction by ZEFSAII (Michael W. Deem and Ramdas Pophale) SiO2 
 PCOD9070453
Probable space group: P -1
;
_chemical_formula_sum "Si O2"
_cell_formula_units_Z 16
_cell_length_a 12.348679
_cell_length_b 15.189445
_cell_length_c 17.969628
_cell_angle_alpha 30.851126
_cell_angle_beta 30.470183
_cell_angle_gamma 53.030008
_cell_volume 741.732011
_symmetry_space_group_name_H-M "P -1"
_symmetry_group_IT_number 2
_symmetry_cell_setting 'triclinic'
loop_
_space_group_symop_operation_xyz
x,y,z
-x,-y,-z
loop_
_atom_site_type_symbol
_atom_site_label
_atom_site_fract_x
_atom_site_fract_y
_atom_site_fract_z
Si Si1 0.558042 0.824524 0.076678
Si Si2 0.425908 0.279464 0.233336
Si Si3 0.765964 0.673250 0.187604
Si Si4 0.810158 0.155501 0.067832
Si Si5 0.898025 0.569525 0.440056
Si Si6 0.412551 0.264522 0.420249
Si Si7 0.021853 0.932758 0.616050
Si Si8 0.003973 0.458002 0.113592
O O1 0.700277 0.803554 0.078659
O O2 0.287142 0.621865 0.364506
O O3 0.500000 0.000000 0.000000
O O4 0.753444 0.852716 0.874641
O O5 0.313336 0.214309 0.430551
O O6 0.229646 0.111439 0.414577
O O7 0.500000 0.500000 0.000000
O O8 0.674996 0.269397 0.093148
O O9 0.500000 0.500000 0.500000
O O10 0.947336 0.785747 0.068087
O O11 0.879660 0.560600 0.156826
O O12 0.896773 0.242673 0.869670
O O13 0.624405 0.920057 0.372459
O O14 0.725622 0.642302 0.524276
O O15 0.000000 0.500000 0.500000
O O16 0.705739 0.432561 0.114375
O O17 0.109724 0.779346 0.652089
O O18 0.000000 0.000000 0.500000
O O19 0.000000 0.500000 0.000000
#
# Coordination Sequence:
#
# PCOD9070453 Si02
#       8
#     2   2   2   2   2   2   2   2
#     4  12  29  50  74 109 151 199 249 311 384 453
#     4  12  27  47  77 108 153 195 246 312 379 449
#     4  12  26  49  77 107 150 198 251 314 379 451
#     4  12  27  46  76 111 144 199 252 308 381 447
#     4  12  28  50  73 108 156 199 248 312 381 452
#     4  12  25  49  75 107 149 195 257 312 373 450
#     4  12  28  47  76 110 146 197 252 307 377 444
#     4  12  24  48  76 106 148 190 252 313 367 443
#
# _framework density 21.571134000000001
#
# number of rings (size 3 to 8) (size 9 to 14) (size 15 to 20)
#    0.000    0.000    5.000    3.750    8.750    0.000 
#    2.250    0.000    0.000    0.000    0.000    0.000 
#    0.000    0.000    0.000    0.000    0.000    0.000 
#
# Total GULP energy -89367.093836 kJ/mol
# GULP energy per Si atom -5585.443365 kJ/mol
# Density = 2.152204 g / cm^3
# Si number density = 21.571134 Si / 1000 Ang^3
#
#
#
# Elastic Constant Matrix: (Units=GPa)
#
#
# Indices 1 2 3 4 5 6 
#
# 1 123.1197 28.7368 25.8407 -27.9144 22.8882 -0.3121
# 2 28.7368 129.5039 13.7099 -3.2307 17.1938 -25.1030
# 3 25.8407 13.7099 67.0141 -5.4055 7.2249 -0.7664
# 4 -27.9144 -3.2307 -5.4055 36.2130 6.3097 12.0339
# 5 22.8882 17.1938 7.2249 6.3097 45.0500 -8.0111
# 6 -0.3121 -25.1030 -0.7664 12.0339 -8.0111 37.6643
#
#
#
# Elastic Compliance Matrix: (Units=1/GPa)
#
#
# Indices 1 2 3 4 5 6 
#
# 1 0.014600 -0.003002 -0.002872 0.015134 -0.009494 -0.008793
# 2 -0.003002 0.009946 -0.001115 -0.004202 -0.000098 0.007903
# 3 -0.002872 -0.001115 0.016400 0.000579 -0.000973 -0.000825
# 4 0.015134 -0.004202 0.000579 0.049270 -0.016994 -0.022020
# 5 -0.009494 -0.000098 -0.000973 -0.016994 0.031732 0.012015
# 6 -0.008793 0.007903 -0.000825 -0.022020 0.012015 0.041319
#
#
# Mechanical properties :
#
#
# Convention : Reuss Voigt Hill
#
# Bulk Modulus (GPa) = 37.08130 50.69026 43.88578
# Shear Modulus (GPa) = 26.84793 40.54215 33.69504
#
# Velocity S-wave (km/s) = 3.53175 4.33998 3.95656
# Velocity P-wave (km/s) = 5.81881 6.97596 6.42350
#
# Compressibility (1/GPa) = 0.02696777
#
# Stress axis : x y z
#
# Youngs Moduli (GPa) = 68.49536 100.54180 60.97598
#
# Poissons Ratio (x) = 0.30182 0.17510
# Poissons Ratio (y) = 0.20562 0.06800
# Poissons Ratio (z) = 0.19670 0.11213
#
# Static dielectric constant tensor:
#      x y z
#    x 1.946920 0.120050 -0.061640 
#    y 0.120050 1.757250 -0.040830 
#    z -0.061640 -0.040830 1.844160 
# 
# From -- ./inp_files/217703.got.cif
#   From: 2010.05.17/outbox.cif.g08.bks.cpg/sg2_109_cif.got.tgz:217703.got - 2010.06.03 11:33:40.
