data_PCOD9070090
_publ_section_title
;
Structure prediction by ZEFSAII (Michael W. Deem and Ramdas Pophale) SiO2 
 PCOD9070090
Probable space group: P -1
;
_chemical_formula_sum "Si O2"
_cell_formula_units_Z 16
_cell_length_a 8.997673
_cell_length_b 9.729987
_cell_length_c 11.667133
_cell_angle_alpha 58.297209
_cell_angle_beta 108.746034
_cell_angle_gamma 123.500709
_cell_volume 723.945975
_symmetry_space_group_name_H-M "P -1"
_symmetry_group_IT_number 2
_symmetry_cell_setting 'triclinic'
loop_
_space_group_symop_operation_xyz
x,y,z
-x,-y,-z
loop_
_atom_site_type_symbol
_atom_site_label
_atom_site_fract_x
_atom_site_fract_y
_atom_site_fract_z
Si Si1 0.353836 0.971860 0.760065
Si Si2 0.111358 0.539240 0.847417
Si Si3 0.116357 0.072264 0.822948
Si Si4 0.562041 0.348453 0.559985
Si Si5 0.138452 0.462324 0.623266
Si Si6 0.406574 0.173024 0.030021
Si Si7 0.291912 0.564542 0.189216
Si Si8 0.249388 0.294747 0.125207
O O1 0.223836 0.759236 0.792063
O O2 0.531951 0.973832 0.852896
O O3 0.247155 0.027345 0.799152
O O4 0.417600 0.134626 0.612351
O O5 0.120263 0.499043 0.734352
O O6 0.906165 0.462608 0.868719
O O7 0.194623 0.431469 0.985012
O O8 0.116062 0.257801 0.702479
O O9 0.211089 0.099966 0.958236
O O10 0.920631 0.904850 0.833395
O O11 0.500000 0.500000 0.500000
O O12 0.675584 0.404547 0.448602
O O13 0.669458 0.379147 0.693400
O O14 0.000000 0.500000 0.500000
O O15 0.403333 0.281929 0.095924
O O16 0.550508 0.291083 0.916480
O O17 0.288603 0.375613 0.228421
#
# Coordination Sequence:
#
# PCOD9070090 Si02
#       8
#     2   2   2   2   2   2   2   2
#     4  12  26  45  75 107 142 188 238 297 361 428
#     4  12  26  48  73 106 149 183 237 303 358 424
#     4  12  25  47  72 106 148 189 237 292 360 432
#     4  12  27  49  72  99 143 196 242 287 350 426
#     4  12  27  49  73 103 141 197 244 287 345 426
#     4  12  25  41  72 111 145 183 236 295 369 422
#     4  12  24  45  74 101 145 189 228 300 357 421
#     4  12  26  43  72 114 146 177 237 302 370 416
#
# _framework density 22.101095999999998
#
# number of rings (size 3 to 8) (size 9 to 14) (size 15 to 20)
#    0.000    0.000    7.500    2.250    3.500    0.500 
#    2.250    1.875    0.000    0.000    0.000    0.000 
#    0.000    0.000    0.000    0.000    0.000    0.000 
#
# Total GULP energy -89455.007382 kJ/mol
# GULP energy per Si atom -5590.937961 kJ/mol
# Density = 2.205079 g / cm^3
# Si number density = 22.101096 Si / 1000 Ang^3
#
#
#
# Elastic Constant Matrix: (Units=GPa)
#
#
# Indices 1 2 3 4 5 6 
#
# 1 116.1261 23.0535 23.3058 -11.9945 -11.2502 -17.3246
# 2 23.0535 102.9973 27.4619 -28.1508 -5.8757 -8.5456
# 3 23.3058 27.4619 53.6156 -15.1932 2.0368 -11.6991
# 4 -11.9945 -28.1508 -15.1932 41.9184 -8.0138 -4.2726
# 5 -11.2502 -5.8757 2.0368 -8.0138 49.1648 -1.4569
# 6 -17.3246 -8.5456 -11.6991 -4.2726 -1.4569 44.5538
#
#
#
# Elastic Compliance Matrix: (Units=1/GPa)
#
#
# Indices 1 2 3 4 5 6 
#
# 1 0.010353 -0.000370 -0.002921 0.002584 0.002972 0.003533
# 2 -0.000370 0.013511 -0.004013 0.008345 0.003125 0.002297
# 3 -0.002921 -0.004013 0.024765 0.005760 -0.001083 0.005115
# 4 0.002584 0.008345 0.005760 0.034442 0.007191 0.007656
# 5 0.002972 0.003125 -0.001083 0.007191 0.022696 0.002902
# 6 0.003533 0.002297 0.005115 0.007656 0.002902 0.026431
#
#
# Mechanical properties :
#
#
# Convention : Reuss Voigt Hill
#
# Bulk Modulus (GPa) = 29.39152 46.70902 38.05027
# Shear Modulus (GPa) = 31.61645 40.38860 36.00252
#
# Velocity S-wave (km/s) = 3.78635 4.27950 4.04046
# Velocity P-wave (km/s) = 5.69586 6.75270 6.24667
#
# Compressibility (1/GPa) = 0.03402342
#
# Stress axis : x y z
#
# Youngs Moduli (GPa) = 96.59346 74.01264 40.37879
#
# Poissons Ratio (x) = 0.02736 0.11793
# Poissons Ratio (y) = 0.03571 0.16202
# Poissons Ratio (z) = 0.28212 0.29698
#
# Static dielectric constant tensor:
#      x y z
#    x 2.268730 -0.092990 -0.066620 
#    y -0.092990 1.910310 0.068750 
#    z -0.066620 0.068750 1.850480 
# 
# From -- ./inp_files/185342.got.cif
#   From: 2010.05.17/outbox.cif.g08.bks.cpg/sg2_93_cif.got.tgz:185342.got - 2010.06.03 11:33:40.
