data_PCOD9070157
_publ_section_title
;
Structure prediction by ZEFSAII (Michael W. Deem and Ramdas Pophale) SiO2 
 PCOD9070157
Probable space group: P -1
;
_chemical_formula_sum "Si O2"
_cell_formula_units_Z 15
_cell_length_a 9.027532
_cell_length_b 18.321664
_cell_length_c 9.040566
_cell_angle_alpha 57.172133
_cell_angle_beta 32.848611
_cell_angle_gamma 72.906023
_cell_volume 637.341616
_symmetry_space_group_name_H-M "P -1"
_symmetry_group_IT_number 2
_symmetry_cell_setting 'triclinic'
loop_
_space_group_symop_operation_xyz
x,y,z
-x,-y,-z
loop_
_atom_site_type_symbol
_atom_site_label
_atom_site_fract_x
_atom_site_fract_y
_atom_site_fract_z
Si Si1 0.219738 0.046484 0.897270
Si Si2 0.144708 0.846114 0.795344
Si Si3 0.788494 0.557446 0.108399
Si Si4 0.690479 0.597066 0.807686
Si Si5 0.061067 0.240032 0.227655
Si Si6 0.566353 0.174796 0.934586
Si Si7 0.714428 0.283605 0.972935
Si Si8 0.500000 0.000000 0.000000
O O1 0.543080 0.075858 0.526734
O O2 0.122713 0.132272 0.934383
O O3 0.248687 0.998488 0.081299
O O4 0.000000 0.000000 0.000000
O O5 0.122271 0.840322 0.642407
O O6 0.166432 0.752530 0.944850
O O7 0.500000 0.500000 0.500000
O O8 0.714481 0.576254 0.982674
O O9 0.000000 0.500000 0.000000
O O10 0.931578 0.660630 0.940387
O O11 0.012982 0.640131 0.420817
O O12 0.500000 0.500000 0.000000
O O13 0.527494 0.671016 0.844444
O O14 0.891745 0.215630 0.550255
O O15 0.383757 0.238327 0.965575
O O16 0.591774 0.193064 0.067725
O O17 0.418605 0.075833 0.089760
#
# Coordination Sequence:
#
# PCOD9070157 Si02
#       8
#     2   2   2   2   2   2   2   1
#     4  12  27  48  71 111 148 186 249 310 367 442
#     4  12  26  47  72 105 140 191 241 300 366 435
#     4  12  26  44  74 106 140 184 233 300 360 435
#     4  12  27  46  69 106 143 186 245 292 370 453
#     4  12  24  47  70 101 145 181 243 291 358 438
#     4  12  24  46  71 102 140 193 241 299 358 439
#     4  12  25  48  72 101 144 194 234 307 373 429
#     4  12  26  46  78 106 148 198 248 304 382 428
#
# _framework density 23.535259
#
# number of rings (size 3 to 8) (size 9 to 14) (size 15 to 20)
#    0.000    0.000    5.333    4.000    3.733    3.200 
#    0.000    0.000    0.000    0.000    0.000    0.000 
#    0.000    0.000    0.000    0.000    0.000    0.000 
#
# Total GULP energy -83696.713718 kJ/mol
# GULP energy per Si atom -5579.780915 kJ/mol
# Density = 2.348169 g / cm^3
# Si number density = 23.535259 Si / 1000 Ang^3
#
#
#
# Elastic Constant Matrix: (Units=GPa)
#
#
# Indices 1 2 3 4 5 6 
#
# 1 138.1742 35.9575 -6.2210 0.1482 -1.1016 2.6786
# 2 35.9575 131.3652 0.2339 22.8692 -9.6985 -9.8305
# 3 -6.2210 0.2339 61.9470 6.5714 -11.4479 -7.9242
# 4 0.1482 22.8692 6.5714 28.6432 0.0580 -10.1083
# 5 -1.1016 -9.6985 -11.4479 0.0580 25.7698 -2.1091
# 6 2.6786 -9.8305 -7.9242 -10.1083 -2.1091 61.4717
#
#
#
# Elastic Compliance Matrix: (Units=1/GPa)
#
#
# Indices 1 2 3 4 5 6 
#
# 1 0.007921 -0.002532 0.000488 0.001722 -0.000436 -0.000419
# 2 -0.002532 0.010103 0.001484 -0.008145 0.004431 0.000730
# 3 0.000488 0.001484 0.018634 -0.004721 0.009044 0.002152
# 4 0.001722 -0.008145 -0.004721 0.044312 -0.004768 0.005137
# 5 -0.000436 0.004431 0.009044 -0.004768 0.044699 0.002643
# 6 -0.000419 0.000730 0.002152 0.005137 0.002643 0.017615
#
#
# Mechanical properties :
#
#
# Convention : Reuss Voigt Hill
#
# Bulk Modulus (GPa) = 28.13988 43.49193 35.81590
# Shear Modulus (GPa) = 32.00012 43.27802 37.63907
#
# Velocity S-wave (km/s) = 3.69137 4.29284 4.00342
# Velocity P-wave (km/s) = 5.49096 6.56437 6.05151
#
# Compressibility (1/GPa) = 0.03553675
#
# Stress axis : x y z
#
# Youngs Moduli (GPa) = 126.24654 98.98501 53.66627
#
# Poissons Ratio (x) = 0.25066 -0.02620
# Poissons Ratio (y) = 0.31969 -0.07963
# Poissons Ratio (z) = -0.06164 -0.14687
#
# Static dielectric constant tensor:
#      x y z
#    x 1.909670 0.055040 -0.013810 
#    y 0.055040 1.966790 -0.119280 
#    z -0.013810 -0.119280 1.967640 
# 
# From -- ./inp_files/216933.got.cif
#   From: 2010.05.17/outbox.cif.g08.bks.cpg/sg2_109_cif.got.tgz:216933.got - 2010.06.03 11:33:40.
