data_PCOD9070789
_publ_section_title
;
Structure prediction by ZEFSAII (Michael W. Deem and Ramdas Pophale) SiO2 
 PCOD9070789
Probable space group: P -1
;
_chemical_formula_sum "Si O2"
_cell_formula_units_Z 14
_cell_length_a 15.661186
_cell_length_b 5.391981
_cell_length_c 18.520100
_cell_angle_alpha 54.046421
_cell_angle_beta 151.693191
_cell_angle_gamma 115.969454
_cell_volume 587.461271
_symmetry_space_group_name_H-M "P -1"
_symmetry_group_IT_number 2
_symmetry_cell_setting 'triclinic'
loop_
_space_group_symop_operation_xyz
x,y,z
-x,-y,-z
loop_
_atom_site_type_symbol
_atom_site_label
_atom_site_fract_x
_atom_site_fract_y
_atom_site_fract_z
Si Si1 0.503071 0.319994 0.109743
Si Si2 0.074906 0.812938 0.514772
Si Si3 0.757196 0.589201 0.622193
Si Si4 0.442964 0.808427 0.559222
Si Si5 0.669990 0.232608 0.893651
Si Si6 0.121491 0.686927 0.832360
Si Si7 0.121315 0.727173 0.091797
O O1 0.703381 0.292773 0.298840
O O2 0.474637 0.961699 0.150560
O O3 0.500000 0.500000 0.000000
O O4 0.318792 0.508091 0.980057
O O5 0.000000 0.500000 0.500000
O O6 0.000000 0.000000 0.500000
O O7 0.984697 0.052301 0.345016
O O8 0.647721 0.451700 0.502790
O O9 0.744816 0.449556 0.716538
O O10 0.967754 0.494221 0.770371
O O11 0.687364 0.954771 0.524792
O O12 0.596966 0.601792 0.760405
O O13 0.500000 0.000000 0.500000
O O14 0.757678 0.131288 0.899313
O O15 0.832540 0.168853 0.082943
O O16 0.000000 0.500000 0.000000
O O17 0.000000 0.000000 0.000000
#
# Coordination Sequence:
#
# PCOD9070789 Si02
#       7
#     2   2   2   2   2   2   2
#     4  12  28  54  83 119 165 211 276 348 410 492
#     4  12  29  54  84 116 160 213 273 345 418 490
#     4  12  27  49  77 113 167 213 274 336 404 491
#     4  12  28  49  77 117 166 217 274 341 404 480
#     4  12  29  47  81 118 164 219 274 338 415 485
#     4  12  29  49  83 120 162 217 277 336 421 489
#     4  12  25  46  75 115 161 213 271 333 398 488
#
# _framework density 23.831358000000002
#
# number of rings (size 3 to 8) (size 9 to 14) (size 15 to 20)
#    0.000    0.000    4.286    3.857    8.000    1.143 
#    0.000    0.000    0.000    0.000    0.000    0.000 
#    0.000    0.000    0.000    0.000    0.000    0.000 
#
# Total GULP energy -78300.448847 kJ/mol
# GULP energy per Si atom -5592.889203 kJ/mol
# Density = 2.377712 g / cm^3
# Si number density = 23.831358 Si / 1000 Ang^3
#
#
#
# Elastic Constant Matrix: (Units=GPa)
#
#
# Indices 1 2 3 4 5 6 
#
# 1 137.5397 43.0293 60.8107 -14.1111 3.6210 0.8125
# 2 43.0293 94.4991 44.2322 4.8816 0.4522 -7.4532
# 3 60.8107 44.2322 180.1830 -8.1402 -3.4786 1.7031
# 4 -14.1111 4.8816 -8.1402 54.1014 0.3946 2.0351
# 5 3.6210 0.4522 -3.4786 0.3946 62.7569 -9.5909
# 6 0.8125 -7.4532 1.7031 2.0351 -9.5909 51.2855
#
#
#
# Elastic Compliance Matrix: (Units=1/GPa)
#
#
# Indices 1 2 3 4 5 6 
#
# 1 0.009673 -0.003525 -0.002292 0.002534 -0.000804 -0.000840
# 2 -0.003525 0.013560 -0.002270 -0.002572 0.000343 0.002268
# 3 -0.002292 -0.002270 0.006924 0.000663 0.000457 -0.000464
# 4 0.002534 -0.002572 0.000663 0.019528 -0.000410 -0.001288
# 5 -0.000804 0.000343 0.000457 -0.000410 0.016487 0.003147
# 6 -0.000840 0.002268 -0.000464 -0.001288 0.003147 0.020497
#
#
# Mechanical properties :
#
#
# Convention : Reuss Voigt Hill
#
# Bulk Modulus (GPa) = 71.52007 78.70737 75.11372
# Shear Modulus (GPa) = 46.50985 51.23871 48.87428
#
# Velocity S-wave (km/s) = 4.42251 4.64190 4.53353
# Velocity P-wave (km/s) = 7.49361 7.86309 7.68057
#
# Compressibility (1/GPa) = 0.01398209
#
# Stress axis : x y z
#
# Youngs Moduli (GPa) = 103.38081 73.74737 144.42427
#
# Poissons Ratio (x) = 0.25994 0.33108
# Poissons Ratio (y) = 0.36440 0.32787
# Poissons Ratio (z) = 0.23699 0.16742
#
# Static dielectric constant tensor:
#      x y z
#    x -19.212190 22.512170 15.028430 
#    y 22.512170 -22.041470 -16.067890 
#    z 15.028430 -16.067890 -8.668440 
# 
# From -- ./inp_files/571601.got.cif
#   From: 2010.05.17/outbox.cif.g08.bks.cpg/sg2_286_cif.got.tgz:571601.got - 2010.06.03 11:33:40.
