data_PCOD9070896
_publ_section_title
;
Structure prediction by ZEFSAII (Michael W. Deem and Ramdas Pophale) SiO2 
 PCOD9070896
Probable space group: P -1
;
_chemical_formula_sum "Si O2"
_cell_formula_units_Z 16
_cell_length_a 9.962778
_cell_length_b 9.595955
_cell_length_c 14.097709
_cell_angle_alpha 70.889335
_cell_angle_beta 96.695495
_cell_angle_gamma 44.229931
_cell_volume 751.711722
_symmetry_space_group_name_H-M "P -1"
_symmetry_group_IT_number 2
_symmetry_cell_setting 'triclinic'
loop_
_space_group_symop_operation_xyz
x,y,z
-x,-y,-z
loop_
_atom_site_type_symbol
_atom_site_label
_atom_site_fract_x
_atom_site_fract_y
_atom_site_fract_z
Si Si1 0.173816 0.434999 0.772167
Si Si2 0.598221 0.467639 0.274730
Si Si3 0.576687 0.021215 0.230782
Si Si4 0.843821 0.501534 0.020997
Si Si5 0.064334 0.991411 0.112760
Si Si6 0.696837 0.232534 0.527127
Si Si7 0.858894 0.046040 0.266784
Si Si8 0.648579 0.926443 0.616186
O O1 0.248813 0.520763 0.708643
O O2 0.321216 0.177204 0.795294
O O3 0.212785 0.424813 0.889569
O O4 0.905979 0.641751 0.692284
O O5 0.669243 0.290064 0.401182
O O6 0.655231 0.337530 0.209602
O O7 0.335807 0.740936 0.202014
O O8 0.773524 0.956712 0.298182
O O9 0.463665 0.030781 0.305204
O O10 0.384014 0.290344 0.105977
O O11 0.977831 0.231742 0.075995
O O12 0.000000 0.500000 0.000000
O O13 0.943729 0.990872 0.178947
O O14 0.000000 0.000000 0.000000
O O15 0.500000 0.500000 0.500000
O O16 0.933141 0.083826 0.621587
O O17 0.666804 0.087408 0.580095
O O18 0.500000 0.000000 0.500000
#
# Coordination Sequence:
#
# PCOD9070896 Si02
#       8
#     2   2   2   2   2   2   2   2
#     4  12  27  47  75 107 147 194 245 296 365 436
#     4  12  25  47  78 103 144 196 240 295 369 428
#     4  12  29  46  76 109 149 193 242 301 368 428
#     4  12  25  50  76 104 149 192 242 301 365 432
#     4  12  28  46  73 108 148 187 244 304 359 432
#     4  12  25  48  78 102 147 194 239 299 365 426
#     4  12  27  48  71 111 146 189 247 297 361 437
#     4  12  28  50  72 111 151 187 247 305 354 437
#
# _framework density 21.284754
#
# number of rings (size 3 to 8) (size 9 to 14) (size 15 to 20)
#    0.000    0.000    5.000    3.750    7.000    2.500 
#    0.000    0.000    0.000    0.000    0.000    0.000 
#    0.000    0.000    0.000    0.000    0.000    0.000 
#
# Total GULP energy -89631.336467 kJ/mol
# GULP energy per Si atom -5601.958529 kJ/mol
# Density = 2.123631 g / cm^3
# Si number density = 21.284754 Si / 1000 Ang^3
#
#
#
# Elastic Constant Matrix: (Units=GPa)
#
#
# Indices 1 2 3 4 5 6 
#
# 1 142.0826 43.8518 49.3369 -3.2402 -0.7827 -13.5291
# 2 43.8518 144.9566 43.2001 -4.5399 -0.0439 -19.6212
# 3 49.3369 43.2001 127.5176 6.0081 3.6040 -14.4782
# 4 -3.2402 -4.5399 6.0081 28.1187 6.8635 -4.4889
# 5 -0.7827 -0.0439 3.6040 6.8635 23.9123 8.6917
# 6 -13.5291 -19.6212 -14.4782 -4.4889 8.6917 33.9364
#
#
#
# Elastic Compliance Matrix: (Units=1/GPa)
#
#
# Indices 1 2 3 4 5 6 
#
# 1 0.008649 -0.001520 -0.002700 0.001717 -0.000445 0.001758
# 2 -0.001520 0.008625 -0.001893 0.002886 -0.002221 0.004524
# 3 -0.002700 -0.001893 0.009932 -0.001916 -0.001872 0.002292
# 4 0.001717 0.002886 -0.001916 0.042294 -0.015857 0.011192
# 5 -0.000445 -0.002221 -0.001872 -0.015857 0.053168 -0.017975
# 6 0.001758 0.004524 0.002292 0.011192 -0.017975 0.039845
#
#
# Mechanical properties :
#
#
# Convention : Reuss Voigt Hill
#
# Bulk Modulus (GPa) = 66.76351 76.37049 71.56700
# Shear Modulus (GPa) = 27.81916 35.73803 31.77860
#
# Velocity S-wave (km/s) = 3.61917 4.10206 3.86816
# Velocity P-wave (km/s) = 6.99281 7.64160 7.32440
#
# Compressibility (1/GPa) = 0.01497824
#
# Stress axis : x y z
#
# Youngs Moduli (GPa) = 115.61978 115.94522 100.68940
#
# Poissons Ratio (x) = 0.17625 0.27187
# Poissons Ratio (y) = 0.17576 0.19064
# Poissons Ratio (z) = 0.31218 0.21952
#
# Static dielectric constant tensor:
#      x y z
#    x 1.704890 0.132240 0.077620 
#    y 0.132240 1.307150 -0.233750 
#    z 0.077620 -0.233750 1.648140 
# 
# From -- ./inp_files/494680.got.cif
#   From: 2010.05.17/outbox.cif.g08.bks.cpg/sg2_248_cif.got.tgz:494680.got - 2010.06.03 11:33:40.
