data_PCOD9070376
_publ_section_title
;
Structure prediction by ZEFSAII (Michael W. Deem and Ramdas Pophale) SiO2 
 PCOD9070376
Probable space group: P -1
;
_chemical_formula_sum "Si O2"
_cell_formula_units_Z 16
_cell_length_a 13.863420
_cell_length_b 6.617989
_cell_length_c 9.860813
_cell_angle_alpha 67.234425
_cell_angle_beta 113.064994
_cell_angle_gamma 138.536609
_cell_volume 544.646202
_symmetry_space_group_name_H-M "P -1"
_symmetry_group_IT_number 2
_symmetry_cell_setting 'triclinic'
loop_
_space_group_symop_operation_xyz
x,y,z
-x,-y,-z
loop_
_atom_site_type_symbol
_atom_site_label
_atom_site_fract_x
_atom_site_fract_y
_atom_site_fract_z
Si Si1 0.924859 0.676069 0.109291
Si Si2 0.198519 0.657406 0.144313
Si Si3 0.727501 0.080925 0.428116
Si Si4 0.260777 0.449504 0.727587
Si Si5 0.434302 0.283062 0.150658
Si Si6 0.962045 0.166675 0.356578
Si Si7 0.766585 0.846660 0.760913
Si Si8 0.444244 0.791234 0.161525
O O1 0.776185 0.520317 0.147855
O O2 0.118800 0.552421 0.977943
O O3 0.056596 0.839074 0.247113
O O4 0.000000 0.000000 0.000000
O O5 0.242307 0.993350 0.143086
O O6 0.096016 0.454542 0.268487
O O7 0.248437 0.448566 0.196660
O O8 0.778033 0.395613 0.423448
O O9 0.859940 0.176495 0.386978
O O10 0.695955 0.875912 0.587973
O O11 0.580049 0.925592 0.302865
O O12 0.417904 0.595374 0.726967
O O13 0.153905 0.089140 0.752606
O O14 0.384325 0.947141 0.156589
O O15 0.406494 0.476320 0.173789
O O16 0.500000 0.500000 0.000000
O O17 0.000000 0.000000 0.500000
O O18 0.500000 0.000000 0.000000
#
# Coordination Sequence:
#
# PCOD9070376 Si02
#       8
#     2   2   2   2   2   2   2   2
#     4  12  24  47  78 115 158 211 274 340 414 487
#     4  12  27  48  80 116 160 214 274 347 415 488
#     4  12  29  52  84 122 167 220 278 343 419 497
#     4  12  27  52  80 114 168 215 268 347 411 494
#     4  12  29  51  77 122 161 215 283 342 415 502
#     4  12  29  53  81 120 166 217 279 340 417 504
#     4  12  28  50  80 119 165 215 277 343 419 497
#     4  12  24  50  82 116 163 221 274 342 412 491
#
# _framework density 29.376868999999999
#
# number of rings (size 3 to 8) (size 9 to 14) (size 15 to 20)
#    0.000    0.000    3.750    4.875    3.500    4.000 
#    0.000    0.000    0.000    0.000    0.000    0.000 
#    0.000    0.000    0.000    0.000    0.000    0.000 
#
# Total GULP energy -89405.090422 kJ/mol
# GULP energy per Si atom -5587.818151 kJ/mol
# Density = 2.931001 g / cm^3
# Si number density = 29.376869 Si / 1000 Ang^3
#
#
#
# Elastic Constant Matrix: (Units=GPa)
#
#
# Indices 1 2 3 4 5 6 
#
# 1 219.4898 87.0377 62.1743 -16.7547 5.5787 -11.9267
# 2 87.0377 302.7487 84.1709 -13.1137 0.2894 10.0731
# 3 62.1743 84.1709 166.6612 -21.0264 3.6524 11.8522
# 4 -16.7547 -13.1137 -21.0264 62.4450 -0.3103 6.4180
# 5 5.5787 0.2894 3.6524 -0.3103 49.5032 -10.8583
# 6 -11.9267 10.0731 11.8522 6.4180 -10.8583 67.9355
#
#
#
# Elastic Compliance Matrix: (Units=1/GPa)
#
#
# Indices 1 2 3 4 5 6 
#
# 1 0.005580 -0.001209 -0.001484 0.000606 -0.000218 0.001326
# 2 -0.001209 0.004111 -0.001582 0.000062 0.000112 -0.000534
# 3 -0.001484 -0.001582 0.007748 0.002049 -0.000753 -0.001692
# 4 0.000606 0.000062 0.002049 0.017078 -0.000543 -0.001960
# 5 -0.000218 0.000112 -0.000753 -0.000543 0.021043 0.003491
# 6 0.001326 -0.000534 -0.001692 -0.001960 0.003491 0.016070
#
#
# Mechanical properties :
#
#
# Convention : Reuss Voigt Hill
#
# Bulk Modulus (GPa) = 112.50210 128.40728 120.45469
# Shear Modulus (GPa) = 60.13821 66.34454 63.24138
#
# Velocity S-wave (km/s) = 4.52943 4.75741 4.64482
# Velocity P-wave (km/s) = 8.10763 8.60131 8.35811
#
# Compressibility (1/GPa) = 0.00888872
#
# Stress axis : x y z
#
# Youngs Moduli (GPa) = 179.22112 243.26243 129.06732
#
# Poissons Ratio (x) = 0.29415 0.19152
# Poissons Ratio (y) = 0.21672 0.20415
# Poissons Ratio (z) = 0.26594 0.38478
#
# Static dielectric constant tensor:
#      x y z
#    x 2.445640 -0.070880 0.182010 
#    y -0.070880 2.494670 0.023850 
#    z 0.182010 0.023850 2.356200 
# 
# From -- ./inp_files/441836.got.cif
#   From: 2010.05.17/outbox.cif.g08.bks.cpg/sg2_221_cif.got.tgz:441836.got - 2010.06.03 11:33:40.
