data_PCOD9070837
_publ_section_title
;
Structure prediction by ZEFSAII (Michael W. Deem and Ramdas Pophale) SiO2 
 PCOD9070837
Probable space group: P -1
;
_chemical_formula_sum "Si O2"
_cell_formula_units_Z 14
_cell_length_a 12.012293
_cell_length_b 19.005277
_cell_length_c 8.424867
_cell_angle_alpha 150.342318
_cell_angle_beta 47.646501
_cell_angle_gamma 145.845948
_cell_volume 527.123044
_symmetry_space_group_name_H-M "P -1"
_symmetry_group_IT_number 2
_symmetry_cell_setting 'triclinic'
loop_
_space_group_symop_operation_xyz
x,y,z
-x,-y,-z
loop_
_atom_site_type_symbol
_atom_site_label
_atom_site_fract_x
_atom_site_fract_y
_atom_site_fract_z
Si Si1 0.615784 0.978585 0.474970
Si Si2 0.558166 0.373796 0.202259
Si Si3 0.051324 0.809533 0.846250
Si Si4 0.947069 0.722334 0.408113
Si Si5 0.723890 0.314298 0.526030
Si Si6 0.208636 0.304341 0.818633
Si Si7 0.525170 0.779761 0.684615
O O1 0.469737 0.852550 0.511727
O O2 0.500000 0.000000 0.500000
O O3 0.624019 0.827876 0.092438
O O4 0.833553 0.181402 0.676822
O O5 0.500000 0.500000 0.500000
O O6 0.772172 0.494486 0.146128
O O7 0.581869 0.344062 0.300199
O O8 0.089223 0.664673 0.558963
O O9 0.977061 0.787009 0.691923
O O10 0.920070 0.789632 0.079665
O O11 0.275457 0.010939 0.049538
O O12 0.877412 0.782855 0.449240
O O13 0.638164 0.229409 0.267216
O O14 0.760413 0.506488 0.858116
O O15 0.391016 0.306431 0.658780
#
# Coordination Sequence:
#
# PCOD9070837 Si02
#       7
#     2   2   2   2   2   2   2
#     4  12  25  47  72 109 150 192 250 307 376 453
#     4  12  25  47  72 109 150 192 250 307 376 453
#     4  12  27  47  75 114 151 200 256 315 383 452
#     4  12  26  48  80 108 156 194 256 310 388 446
#     4  12  25  49  74 108 156 199 252 319 377 455
#     4  12  27  47  75 114 151 200 256 315 383 452
#     4  12  25  49  74 108 156 199 252 319 377 455
#
# _framework density 26.559265
#
# number of rings (size 3 to 8) (size 9 to 14) (size 15 to 20)
#    0.000    0.000    5.714    3.429    0.000    6.857 
#    0.000    0.000    0.000    0.000    0.000    0.000 
#    0.000    0.000    0.000    0.000    0.000    0.000 
#
# Total GULP energy -78301.605306 kJ/mol
# GULP energy per Si atom -5592.971808 kJ/mol
# Density = 2.649881 g / cm^3
# Si number density = 26.559265 Si / 1000 Ang^3
#
#
#
# Elastic Constant Matrix: (Units=GPa)
#
#
# Indices 1 2 3 4 5 6 
#
# 1 129.0166 31.3142 12.4390 -12.7437 8.7899 -22.0709
# 2 31.3142 191.9610 7.0069 -7.6632 8.1100 -21.0753
# 3 12.4390 7.0069 114.1523 2.1986 -8.6067 3.6867
# 4 -12.7437 -7.6632 2.1986 44.9626 -1.1949 8.8761
# 5 8.7899 8.1100 -8.6067 -1.1949 37.4076 -7.6769
# 6 -22.0709 -21.0753 3.6867 8.8761 -7.6769 54.7220
#
#
#
# Elastic Compliance Matrix: (Units=1/GPa)
#
#
# Indices 1 2 3 4 5 6 
#
# 1 0.008850 -0.000962 -0.001143 0.001813 -0.001508 0.002771
# 2 -0.000962 0.005603 -0.000353 0.000358 -0.000723 0.001634
# 3 -0.001143 -0.000353 0.009114 -0.000613 0.002260 -0.000795
# 4 0.001813 0.000358 -0.000613 0.023416 -0.000504 -0.002958
# 5 -0.001508 -0.000723 0.002260 -0.000504 0.028368 0.003022
# 6 0.002771 0.001634 -0.000795 -0.002958 0.003022 0.020979
#
#
# Mechanical properties :
#
#
# Convention : Reuss Voigt Hill
#
# Bulk Modulus (GPa) = 53.61608 59.62778 56.62193
# Shear Modulus (GPa) = 46.52679 53.04310 49.78494
#
# Velocity S-wave (km/s) = 4.19000 4.47381 4.33423
# Velocity P-wave (km/s) = 6.60601 7.01329 6.81269
#
# Compressibility (1/GPa) = 0.01865112
#
# Stress axis : x y z
#
# Youngs Moduli (GPa) = 112.98890 178.46089 109.71692
#
# Poissons Ratio (x) = 0.17163 0.12546
# Poissons Ratio (y) = 0.10867 0.03877
# Poissons Ratio (z) = 0.12920 0.06306
#
# Static dielectric constant tensor:
#      x y z
#    x 2.081390 0.011790 0.092310 
#    y 0.011790 2.068450 -0.010470 
#    z 0.092310 -0.010470 2.245480 
# 
# From -- ./inp_files/278762.got.cif
#   From: 2010.05.17/outbox.cif.g08.bks.cpg/sg2_140_cif.got.tgz:278762.got - 2010.06.03 11:33:40.
