data_PCOD9070974
_publ_section_title
;
Structure prediction by ZEFSAII (Michael W. Deem and Ramdas Pophale) SiO2 
 PCOD9070974
Probable space group: P -1
;
_chemical_formula_sum "Si O2"
_cell_formula_units_Z 12
_cell_length_a 9.075252
_cell_length_b 15.051710
_cell_length_c 8.936015
_cell_angle_alpha 54.126632
_cell_angle_beta 127.811007
_cell_angle_gamma 86.989768
_cell_volume 598.337100
_symmetry_space_group_name_H-M "P -1"
_symmetry_group_IT_number 2
_symmetry_cell_setting 'triclinic'
loop_
_space_group_symop_operation_xyz
x,y,z
-x,-y,-z
loop_
_atom_site_type_symbol
_atom_site_label
_atom_site_fract_x
_atom_site_fract_y
_atom_site_fract_z
Si Si1 0.265797 0.900250 0.673555
Si Si2 0.758992 0.579180 0.376292
Si Si3 0.419844 0.072226 0.712455
Si Si4 0.988192 0.607831 0.781986
Si Si5 0.732173 0.127600 0.655769
Si Si6 0.461014 0.552603 0.751630
O O1 0.253823 0.885381 0.502922
O O2 0.371335 0.981349 0.680877
O O3 0.490860 0.735909 0.027122
O O4 0.000000 0.000000 0.500000
O O5 0.864418 0.602263 0.563267
O O6 0.692876 0.475233 0.415618
O O7 0.000000 0.500000 0.500000
O O8 0.174889 0.230596 0.429842
O O9 0.576776 0.097677 0.684389
O O10 0.500000 0.000000 0.000000
O O11 0.000000 0.500000 0.000000
O O12 0.260092 0.548706 0.018960
O O13 0.646725 0.283920 0.484030
O O14 0.000000 0.000000 0.000000
O O15 0.500000 0.500000 0.000000
#
# Coordination Sequence:
#
# PCOD9070974 Si02
#       6
#     2   2   2   2   2   2
#     4  12  26  47  76 111 147 196 248 304 380 448
#     4  12  26  45  81 107 146 201 247 300 381 442
#     4  12  26  47  74 102 151 194 241 308 368 439
#     4  12  26  48  73 112 147 188 253 306 372 442
#     4  12  28  46  72 112 146 193 251 303 373 443
#     4  12  25  48  76 106 150 193 247 311 369 445
#
# _framework density 20.055584
#
# number of rings (size 3 to 8) (size 9 to 14) (size 15 to 20)
#    0.000    0.000    6.667    2.500    4.667    2.000 
#    0.000    0.000    0.000    0.000    0.000    0.000 
#    0.000    0.000    0.000    0.000    0.000    0.000 
#
# Total GULP energy -66803.049478 kJ/mol
# GULP energy per Si atom -5566.920790 kJ/mol
# Density = 2.000994 g / cm^3
# Si number density = 20.055584 Si / 1000 Ang^3
#
#
#
# Elastic Constant Matrix: (Units=GPa)
#
#
# Indices 1 2 3 4 5 6 
#
# 1 125.9887 37.7048 47.3060 -25.1004 29.9278 17.3052
# 2 37.7048 153.0395 49.3824 -19.7424 14.0171 18.8148
# 3 47.3060 49.3824 133.1855 -28.1997 22.2176 -4.1740
# 4 -25.1004 -19.7424 -28.1997 47.6841 3.3223 -0.5173
# 5 29.9278 14.0171 22.2176 3.3223 37.3951 -1.0045
# 6 17.3052 18.8148 -4.1740 -0.5173 -1.0045 40.5635
#
#
#
# Elastic Compliance Matrix: (Units=1/GPa)
#
#
# Indices 1 2 3 4 5 6 
#
# 1 0.013149 -0.000200 -0.001715 0.006469 -0.010161 -0.005862
# 2 -0.000200 0.008273 -0.002403 0.001980 -0.001797 -0.004019
# 3 -0.001715 -0.002403 0.010897 0.004896 -0.004557 0.002917
# 4 0.006469 0.001980 0.004896 0.028857 -0.011475 -0.003090
# 5 -0.010161 -0.001797 -0.004557 -0.011475 0.039423 0.005529
# 6 -0.005862 -0.004019 0.002917 -0.003090 0.005529 0.029415
#
#
# Mechanical properties :
#
#
# Convention : Reuss Voigt Hill
#
# Bulk Modulus (GPa) = 42.22713 75.66666 58.94690
# Shear Modulus (GPa) = 34.11917 43.64992 38.88454
#
# Velocity S-wave (km/s) = 4.12907 4.67030 4.40800
# Velocity P-wave (km/s) = 6.62065 8.17879 7.44062
#
# Compressibility (1/GPa) = 0.02368146
#
# Stress axis : x y z
#
# Youngs Moduli (GPa) = 76.05250 120.87297 91.76997
#
# Poissons Ratio (x) = 0.02420 0.15740
# Poissons Ratio (y) = 0.01523 0.22055
# Poissons Ratio (z) = 0.13044 0.29050
#
# Static dielectric constant tensor:
#      x y z
#    x 1.672500 -0.032750 -0.008980 
#    y -0.032750 1.692310 -0.010020 
#    z -0.008980 -0.010020 1.708910 
# 
# From -- ./inp_files/148585.got.cif
#   From: 2010.05.17/outbox.cif.g08.bks.cpg/sg2_75_cif.got.tgz:148585.got - 2010.06.03 11:33:40.
