data_PCOD9070155
_publ_section_title
;
Structure prediction by ZEFSAII (Michael W. Deem and Ramdas Pophale) SiO2 
 PCOD9070155
Probable space group: P -1
;
_chemical_formula_sum "Si O2"
_cell_formula_units_Z 11
_cell_length_a 17.455068
_cell_length_b 8.953543
_cell_length_c 7.823864
_cell_angle_alpha 33.801814
_cell_angle_beta 39.429211
_cell_angle_gamma 49.633103
_cell_volume 431.979906
_symmetry_space_group_name_H-M "P -1"
_symmetry_group_IT_number 2
_symmetry_cell_setting 'triclinic'
loop_
_space_group_symop_operation_xyz
x,y,z
-x,-y,-z
loop_
_atom_site_type_symbol
_atom_site_label
_atom_site_fract_x
_atom_site_fract_y
_atom_site_fract_z
Si Si1 0.641305 0.892345 0.580417
Si Si2 0.000000 0.500000 0.000000
Si Si3 0.670918 0.403978 0.233735
Si Si4 0.049062 0.732381 0.074632
Si Si5 0.615044 0.264420 0.830156
Si Si6 0.760447 0.772460 0.162310
O O1 0.746310 0.898751 0.254147
O O2 0.614812 0.191606 0.402852
O O3 0.675671 0.694581 0.863877
O O4 0.516822 0.779811 0.825108
O O5 0.891863 0.707860 0.928222
O O6 0.009863 0.668885 0.007648
O O7 0.600804 0.378827 0.555504
O O8 0.805660 0.292031 0.145154
O O9 0.000000 0.500000 0.500000
O O10 0.000000 0.000000 0.000000
O O11 0.699953 0.481178 0.565251
O O12 0.685203 0.979410 0.979577
#
# Coordination Sequence:
#
# PCOD9070155 Si02
#       6
#     2   1   2   2   2   2
#     4  12  25  46  74 106 145 194 239 309 378 446
#     4  12  28  50  78 108 158 200 256 312 384 440
#     4  12  24  46  70 108 143 186 250 302 377 445
#     4  12  28  49  76 111 153 202 256 312 375 460
#     4  12  25  46  72 107 146 188 246 304 371 455
#     4  12  26  45  72 106 146 194 247 303 373 447
#
# _framework density 25.464148000000002
#
# number of rings (size 3 to 8) (size 9 to 14) (size 15 to 20)
#    0.000    0.000    1.818    8.727    2.545    2.909 
#    0.000    0.000    0.000    0.000    0.000    0.000 
#    0.000    0.000    0.000    0.000    0.000    0.000 
#
# Total GULP energy -61391.700420 kJ/mol
# GULP energy per Si atom -5581.063675 kJ/mol
# Density = 2.540619 g / cm^3
# Si number density = 25.464148 Si / 1000 Ang^3
#
#
#
# Elastic Constant Matrix: (Units=GPa)
#
#
# Indices 1 2 3 4 5 6 
#
# 1 85.3539 27.7601 14.6327 -12.4524 10.8616 9.8726
# 2 27.7601 143.6228 27.2349 -20.6115 21.0878 -0.1096
# 3 14.6327 27.2349 94.4483 -23.6036 14.6166 5.7048
# 4 -12.4524 -20.6115 -23.6036 36.2991 7.4963 1.3653
# 5 10.8616 21.0878 14.6166 7.4963 33.3387 -7.3475
# 6 9.8726 -0.1096 5.7048 1.3653 -7.3475 61.1038
#
#
#
# Elastic Compliance Matrix: (Units=1/GPa)
#
#
# Indices 1 2 3 4 5 6 
#
# 1 0.014005 -0.001041 0.000875 0.006227 -0.006405 -0.003256
# 2 -0.001041 0.009102 0.000350 0.006566 -0.007239 -0.000865
# 3 0.000875 0.000350 0.015457 0.012918 -0.010889 -0.003182
# 4 0.006227 0.006566 0.012918 0.046948 -0.023748 -0.006105
# 5 -0.006405 -0.007239 -0.010889 -0.023748 0.048630 0.008417
# 6 -0.003256 -0.000865 -0.003182 -0.006105 0.008417 0.018336
#
#
# Mechanical properties :
#
#
# Convention : Reuss Voigt Hill
#
# Bulk Modulus (GPa) = 25.68622 51.40891 38.54757
# Shear Modulus (GPa) = 30.28712 43.06814 36.67763
#
# Velocity S-wave (km/s) = 3.45251 4.11703 3.79933
# Velocity P-wave (km/s) = 5.09924 6.54466 5.86663
#
# Compressibility (1/GPa) = 0.03893138
#
# Stress axis : x y z
#
# Youngs Moduli (GPa) = 71.40439 109.86507 64.69507
#
# Poissons Ratio (x) = 0.11438 -0.05658
# Poissons Ratio (y) = 0.07434 -0.02266
# Poissons Ratio (z) = -0.06245 -0.03848
#
# Static dielectric constant tensor:
#      x y z
#    x 2.124290 0.008540 -0.099920 
#    y 0.008540 2.069280 0.010920 
#    z -0.099920 0.010920 2.006420 
# 
# From -- ./inp_files/22337.got.cif
#   From: 2010.05.17/outbox.cif.g08.bks.cpg/sg2_12_cif.got.tgz:22337.got - 2010.06.03 11:33:40.
