data_PCOD9070582
_publ_section_title
;
Structure prediction by ZEFSAII (Michael W. Deem and Ramdas Pophale) SiO2 
 PCOD9070582
Probable space group: P -1
;
_chemical_formula_sum "Si O2"
_cell_formula_units_Z 14
_cell_length_a 4.892067
_cell_length_b 27.762162
_cell_length_c 16.212996
_cell_angle_alpha 17.816625
_cell_angle_beta 80.539975
_cell_angle_gamma 90.287058
_cell_volume 561.441101
_symmetry_space_group_name_H-M "P -1"
_symmetry_group_IT_number 2
_symmetry_cell_setting 'triclinic'
loop_
_space_group_symop_operation_xyz
x,y,z
-x,-y,-z
loop_
_atom_site_type_symbol
_atom_site_label
_atom_site_fract_x
_atom_site_fract_y
_atom_site_fract_z
Si Si1 0.126748 0.361299 0.219799
Si Si2 0.621009 0.862871 0.728114
Si Si3 0.153942 0.809810 0.088624
Si Si4 0.869893 0.372703 0.459070
Si Si5 0.135239 0.014519 0.062482
Si Si6 0.413401 0.403824 0.967009
Si Si7 0.371385 0.281079 0.864568
O O1 0.207226 0.436863 0.288854
O O2 0.500000 0.500000 0.000000
O O3 0.167794 0.311245 0.206232
O O4 0.000000 0.500000 0.000000
O O5 0.500000 0.000000 0.500000
O O6 0.551128 0.743988 0.843984
O O7 0.529890 0.742206 0.011356
O O8 0.000000 0.000000 0.500000
O O9 0.016672 0.629079 0.450120
O O10 0.489821 0.823704 0.026015
O O11 0.983897 0.801543 0.024427
O O12 0.078649 0.934937 0.948946
O O13 0.925317 0.177284 0.584750
O O14 0.749767 0.511755 0.219498
O O15 0.526867 0.173751 0.784961
O O16 0.000000 0.000000 0.000000
O O17 0.500000 0.500000 0.500000
#
# Coordination Sequence:
#
# PCOD9070582 Si02
#       7
#     2   2   2   2   2   2   2
#     4  12  31  53  79 118 158 207 261 330 410 486
#     4  12  28  49  79 118 163 216 267 324 401 485
#     4  12  25  47  80 111 160 200 270 326 399 454
#     4  12  24  51  82 119 153 218 264 332 403 472
#     4  12  30  53  87 118 160 209 277 332 405 490
#     4  12  27  51  82 114 171 208 266 335 407 474
#     4  12  26  48  78 116 156 206 271 327 392 467
#
# _framework density 24.935828999999998
#
# number of rings (size 3 to 8) (size 9 to 14) (size 15 to 20)
#    0.000    0.000    2.857    5.571    8.000    0.571 
#    0.000    0.714    0.000    0.000    0.000    0.000 
#    0.000    0.000    0.000    0.000    0.000    0.000 
#
# Total GULP energy -78206.135309 kJ/mol
# GULP energy per Si atom -5586.152522 kJ/mol
# Density = 2.487907 g / cm^3
# Si number density = 24.935829 Si / 1000 Ang^3
#
#
#
# Elastic Constant Matrix: (Units=GPa)
#
#
# Indices 1 2 3 4 5 6 
#
# 1 157.2604 25.5495 63.1108 -0.4796 34.0890 -0.0765
# 2 25.5495 146.4559 77.8817 1.6874 9.5423 -6.7738
# 3 63.1108 77.8817 192.9846 14.9459 32.7253 -2.3634
# 4 -0.4796 1.6874 14.9459 36.6997 4.1704 3.6972
# 5 34.0890 9.5423 32.7253 4.1704 54.8937 2.1816
# 6 -0.0765 -6.7738 -2.3634 3.6972 2.1816 35.9428
#
#
#
# Elastic Compliance Matrix: (Units=1/GPa)
#
#
# Indices 1 2 3 4 5 6 
#
# 1 0.008035 -0.000078 -0.002050 0.001386 -0.003858 -0.000041
# 2 -0.000078 0.008812 -0.003685 0.000897 0.000594 0.001290
# 3 -0.002050 -0.003685 0.008014 -0.002847 -0.002659 0.000282
# 4 0.001386 0.000897 -0.002847 0.028835 -0.001395 -0.002897
# 5 -0.003858 0.000594 -0.002659 -0.001395 0.022251 -0.001278
# 6 -0.000041 0.001290 0.000282 -0.002897 -0.001278 0.028459
#
#
# Mechanical properties :
#
#
# Convention : Reuss Voigt Hill
#
# Bulk Modulus (GPa) = 75.55839 92.19834 83.87836
# Shear Modulus (GPa) = 41.51341 47.51785 44.51563
#
# Velocity S-wave (km/s) = 4.08463 4.37006 4.22976
# Velocity P-wave (km/s) = 7.25345 7.90682 7.58717
#
# Compressibility (1/GPa) = 0.01323480
#
# Stress axis : x y z
#
# Youngs Moduli (GPa) = 124.46275 113.48363 124.78056
#
# Poissons Ratio (x) = 0.00888 0.25575
# Poissons Ratio (y) = 0.00974 0.45982
# Poissons Ratio (z) = 0.25510 0.41819
#
# Static dielectric constant tensor:
#      x y z
#    x 1.969660 -0.034460 -0.068270 
#    y -0.034460 2.195360 -0.001560 
#    z -0.068270 -0.001560 1.946330 
# 
# From -- ./inp_files/485941.got.cif
#   From: 2010.05.17/outbox.cif.g08.bks.cpg/sg2_243_cif.got.tgz:485941.got - 2010.06.03 11:33:40.
