data_PCOD9070305
_publ_section_title
;
Structure prediction by ZEFSAII (Michael W. Deem and Ramdas Pophale) SiO2 
 PCOD9070305
Probable space group: P -1
;
_chemical_formula_sum "Si O2"
_cell_formula_units_Z 12
_cell_length_a 9.336497
_cell_length_b 8.700782
_cell_length_c 9.513476
_cell_angle_alpha 97.690582
_cell_angle_beta 129.171824
_cell_angle_gamma 75.421938
_cell_volume 579.522032
_symmetry_space_group_name_H-M "P -1"
_symmetry_group_IT_number 2
_symmetry_cell_setting 'triclinic'
loop_
_space_group_symop_operation_xyz
x,y,z
-x,-y,-z
loop_
_atom_site_type_symbol
_atom_site_label
_atom_site_fract_x
_atom_site_fract_y
_atom_site_fract_z
Si Si1 0.834759 0.065680 0.521320
Si Si2 0.917555 0.099553 0.090945
Si Si3 0.686618 0.444778 0.508438
Si Si4 0.338507 0.433545 0.812292
Si Si5 0.976400 0.448050 0.140702
Si Si6 0.509534 0.935328 0.155273
O O1 0.783849 0.254685 0.551957
O O2 0.635705 0.028477 0.339589
O O3 0.000000 0.000000 0.500000
O O4 0.935705 0.963829 0.701640
O O5 0.913054 0.282441 0.083653
O O6 0.709622 0.064894 0.961568
O O7 0.000000 0.000000 0.000000
O O8 0.500000 0.500000 0.500000
O O9 0.676292 0.480054 0.338391
O O10 0.823148 0.551906 0.666619
O O11 0.168853 0.452670 0.823319
O O12 0.389890 0.247868 0.791180
O O13 0.500000 0.500000 0.000000
O O14 0.000000 0.500000 0.000000
O O15 0.500000 0.000000 0.000000
#
# Coordination Sequence:
#
# PCOD9070305 Si02
#       6
#     2   2   2   2   2   2
#     4  12  25  49  77 106 148 193 244 301 368 440
#     4  12  28  46  73 111 145 189 244 301 369 434
#     4  12  28  47  75 110 146 194 245 302 370 436
#     4  12  24  47  73 104 145 188 245 298 364 435
#     4  12  26  48  73 104 148 192 243 304 361 435
#     4  12  26  46  78 106 145 192 243 302 367 438
#
# _framework density 20.706717000000001
#
# number of rings (size 3 to 8) (size 9 to 14) (size 15 to 20)
#    0.000    0.000    3.333    6.500    7.000    0.667 
#    0.000    0.000    0.000    0.000    0.000    0.000 
#    0.000    0.000    0.000    0.000    0.000    0.000 
#
# Total GULP energy -66889.997908 kJ/mol
# GULP energy per Si atom -5574.166492 kJ/mol
# Density = 2.065959 g / cm^3
# Si number density = 20.706717 Si / 1000 Ang^3
#
#
#
# Elastic Constant Matrix: (Units=GPa)
#
#
# Indices 1 2 3 4 5 6 
#
# 1 190.3972 31.4213 68.8555 -5.3667 9.0450 -2.6204
# 2 31.4213 65.3121 -14.5920 -7.1183 -2.1915 -5.4530
# 3 68.8555 -14.5920 145.3646 6.3024 -7.0040 10.6681
# 4 -5.3667 -7.1183 6.3024 39.3881 14.8294 1.2100
# 5 9.0450 -2.1915 -7.0040 14.8294 55.3933 2.7583
# 6 -2.6204 -5.4530 10.6681 1.2100 2.7583 28.7805
#
#
#
# Elastic Compliance Matrix: (Units=1/GPa)
#
#
# Indices 1 2 3 4 5 6 
#
# 1 0.007820 -0.004504 -0.004489 0.001903 -0.002617 0.001693
# 2 -0.004504 0.018691 0.003906 0.001535 0.001484 0.001477
# 3 -0.004489 0.003906 0.009909 -0.002508 0.002987 -0.003522
# 4 0.001903 0.001535 -0.002508 0.029502 -0.008513 0.000969
# 5 -0.002617 0.001484 0.002987 -0.008513 0.021332 -0.002751
# 6 0.001693 0.001477 -0.003522 0.000969 -0.002751 0.036708
#
#
# Mechanical properties :
#
#
# Convention : Reuss Voigt Hill
#
# Bulk Modulus (GPa) = 38.10058 63.60482 50.85270
# Shear Modulus (GPa) = 34.99297 45.73833 40.36565
#
# Velocity S-wave (km/s) = 4.11534 4.70495 4.41999
# Velocity P-wave (km/s) = 6.40480 7.76525 7.11760
#
# Compressibility (1/GPa) = 0.02624632
#
# Stress axis : x y z
#
# Youngs Moduli (GPa) = 127.87292 53.50100 100.91839
#
# Poissons Ratio (x) = 0.24098 0.45305
# Poissons Ratio (y) = 0.57598 -0.39423
# Poissons Ratio (z) = 0.57405 -0.20900
#
# Static dielectric constant tensor:
#      x y z
#    x 1.957250 -0.068290 -0.102560 
#    y -0.068290 1.627210 -0.043670 
#    z -0.102560 -0.043670 1.727910 
# 
# From -- ./inp_files/148714.got.cif
#   From: 2010.05.17/outbox.cif.g08.bks.cpg/sg2_75_cif.got.tgz:148714.got - 2010.06.03 11:33:40.
