data_PCOD9070326
_publ_section_title
;
Structure prediction by ZEFSAII (Michael W. Deem and Ramdas Pophale) SiO2 
 PCOD9070326
Probable space group: P -1
;
_chemical_formula_sum "Si O2"
_cell_formula_units_Z 14
_cell_length_a 15.193312
_cell_length_b 8.925369
_cell_length_c 12.737426
_cell_angle_alpha 49.181393
_cell_angle_beta 150.960172
_cell_angle_gamma 119.664408
_cell_volume 620.585795
_symmetry_space_group_name_H-M "P -1"
_symmetry_group_IT_number 2
_symmetry_cell_setting 'triclinic'
loop_
_space_group_symop_operation_xyz
x,y,z
-x,-y,-z
loop_
_atom_site_type_symbol
_atom_site_label
_atom_site_fract_x
_atom_site_fract_y
_atom_site_fract_z
Si Si1 0.631281 0.681405 0.843833
Si Si2 0.073158 0.377247 0.238962
Si Si3 0.665042 0.340412 0.296070
Si Si4 0.580979 0.469881 0.481617
Si Si5 0.168522 0.972683 0.105135
Si Si6 0.987123 0.552821 0.620623
Si Si7 0.022343 0.933824 0.359647
O O1 0.443199 0.745956 0.684408
O O2 0.581440 0.535912 0.767652
O O3 0.699389 0.879901 0.787218
O O4 0.806212 0.556212 0.149268
O O5 0.294123 0.364120 0.479181
O O6 0.004372 0.479223 0.230789
O O7 0.014833 0.162744 0.279217
O O8 0.000000 0.500000 0.000000
O O9 0.824238 0.449848 0.456010
O O10 0.766249 0.167868 0.402943
O O11 0.500000 0.500000 0.000000
O O12 0.500000 0.500000 0.500000
O O13 0.721448 0.254264 0.702897
O O14 0.000000 0.000000 0.000000
O O15 0.087217 0.054388 0.869665
O O16 0.955587 0.783628 0.441525
#
# Coordination Sequence:
#
# PCOD9070326 Si02
#       7
#     2   2   2   2   2   2   2
#     4  12  25  46  77 106 149 194 252 314 374 449
#     4  12  26  49  74 104 155 198 244 304 379 455
#     4  12  24  47  74 110 148 195 251 311 377 448
#     4  12  27  46  71 112 150 200 253 313 377 453
#     4  12  26  47  76 110 153 201 254 312 382 453
#     4  12  25  51  74 110 149 195 249 315 381 443
#     4  12  26  45  77 110 147 198 249 310 378 450
#
# _framework density 22.559332999999999
#
# number of rings (size 3 to 8) (size 9 to 14) (size 15 to 20)
#    0.000    0.000    5.714    4.714    4.000    0.000 
#    0.000    1.429    0.000    0.000    0.000    0.000 
#    0.000    0.000    0.000    0.000    0.000    0.000 
#
# Total GULP energy -78292.474548 kJ/mol
# GULP energy per Si atom -5592.319611 kJ/mol
# Density = 2.250799 g / cm^3
# Si number density = 22.559333 Si / 1000 Ang^3
#
#
#
# Elastic Constant Matrix: (Units=GPa)
#
#
# Indices 1 2 3 4 5 6 
#
# 1 120.6208 25.7281 14.4080 8.1538 4.5709 13.7644
# 2 25.7281 132.8760 32.7663 13.2414 1.4836 22.3899
# 3 14.4080 32.7663 115.5981 8.4705 1.2889 6.0454
# 4 8.1538 13.2414 8.4705 46.8237 6.6283 3.9692
# 5 4.5709 1.4836 1.2889 6.6283 38.3715 3.4891
# 6 13.7644 22.3899 6.0454 3.9692 3.4891 44.6564
#
#
#
# Elastic Compliance Matrix: (Units=1/GPa)
#
#
# Indices 1 2 3 4 5 6 
#
# 1 0.008916 -0.001153 -0.000612 -0.000855 -0.000671 -0.001959
# 2 -0.001153 0.009076 -0.002109 -0.001734 0.000502 -0.003795
# 3 -0.000612 -0.002109 0.009395 -0.001003 0.000006 0.000063
# 4 -0.000855 -0.001734 -0.001003 0.022738 -0.003683 -0.000465
# 5 -0.000671 0.000502 0.000006 -0.003683 0.026923 -0.001822
# 6 -0.001959 -0.003795 0.000063 -0.000465 -0.001822 0.025075
#
#
# Mechanical properties :
#
#
# Convention : Reuss Voigt Hill
#
# Bulk Modulus (GPa) = 50.91803 57.21107 54.06455
# Shear Modulus (GPa) = 42.94932 45.71649 44.33290
#
# Velocity S-wave (km/s) = 4.36803 4.50655 4.43783
# Velocity P-wave (km/s) = 6.93248 7.24527 7.09060
#
# Compressibility (1/GPa) = 0.01963941
#
# Stress axis : x y z
#
# Youngs Moduli (GPa) = 112.15561 110.18528 106.44141
#
# Poissons Ratio (x) = 0.12701 0.06514
# Poissons Ratio (y) = 0.12928 0.22448
# Poissons Ratio (z) = 0.06864 0.23237
#
# Static dielectric constant tensor:
#      x y z
#    x 1.891350 0.007810 -0.024500 
#    y 0.007810 1.839420 -0.011810 
#    z -0.024500 -0.011810 1.906940 
# 
# From -- ./inp_files/183785.got.cif
#   From: 2010.05.17/outbox.cif.g08.bks.cpg/sg2_92_cif.got.tgz:183785.got - 2010.06.03 11:33:40.
