data_PCOD9070199
_publ_section_title
;
Structure prediction by ZEFSAII (Michael W. Deem and Ramdas Pophale) SiO2 
 PCOD9070199
Probable space group: P -1
;
_chemical_formula_sum "Si O2"
_cell_formula_units_Z 10
_cell_length_a 8.201109
_cell_length_b 11.761615
_cell_length_c 9.224019
_cell_angle_alpha 59.186091
_cell_angle_beta 149.821898
_cell_angle_gamma 112.521814
_cell_volume 380.421034
_symmetry_space_group_name_H-M "P -1"
_symmetry_group_IT_number 2
_symmetry_cell_setting 'triclinic'
loop_
_space_group_symop_operation_xyz
x,y,z
-x,-y,-z
loop_
_atom_site_type_symbol
_atom_site_label
_atom_site_fract_x
_atom_site_fract_y
_atom_site_fract_z
Si Si1 0.196893 0.243580 0.327914
Si Si2 0.504467 0.659367 0.237814
Si Si3 0.856856 0.012426 0.719293
Si Si4 0.197702 0.626998 0.421398
Si Si5 0.441465 0.713616 0.816471
O O1 0.316318 0.244292 0.585476
O O2 0.520990 0.284729 0.471675
O O3 0.070782 0.109172 0.259176
O O4 0.866298 0.347464 0.988701
O O5 0.719348 0.514801 0.498779
O O6 0.458479 0.704872 0.007053
O O7 0.807420 0.154250 0.507489
O O8 0.500000 0.000000 0.500000
O O9 0.000000 0.000000 0.000000
O O10 0.281812 0.603817 0.672435
O O11 0.826417 0.698862 0.073340
#
# Coordination Sequence:
#
# PCOD9070199 Si02
#       5
#     2   2   2   2   2
#     4  12  26  45  74 105 146 192 235 299 358 418
#     4  12  26  46  70 113 151 180 234 301 367 418
#     4  12  26  47  74 103 138 189 253 292 346 437
#     4  12  24  46  74 108 145 194 238 283 355 445
#     4  12  26  44  77 105 144 193 238 295 355 423
#
# _framework density 26.286664999999999
#
# number of rings (size 3 to 8) (size 9 to 14) (size 15 to 20)
#    0.000    0.000    2.000    8.400    0.000    1.600 
#    0.000    0.000    0.000    0.000    0.000    0.000 
#    0.000    0.000    0.000    0.000    0.000    0.000 
#
# Total GULP energy -55913.946211 kJ/mol
# GULP energy per Si atom -5591.394621 kJ/mol
# Density = 2.622684 g / cm^3
# Si number density = 26.286665 Si / 1000 Ang^3
#
#
#
# Elastic Constant Matrix: (Units=GPa)
#
#
# Indices 1 2 3 4 5 6 
#
# 1 105.1476 43.2009 73.8262 -2.4727 -1.7919 -16.1691
# 2 43.2009 144.2052 80.5955 7.4996 -11.9655 -42.8464
# 3 73.8262 80.5955 238.1240 25.1612 -16.6126 -20.6664
# 4 -2.4727 7.4996 25.1612 53.5119 -2.4063 -8.6252
# 5 -1.7919 -11.9655 -16.6126 -2.4063 66.1808 18.6812
# 6 -16.1691 -42.8464 -20.6664 -8.6252 18.6812 35.1757
#
#
#
# Elastic Compliance Matrix: (Units=1/GPa)
#
#
# Indices 1 2 3 4 5 6 
#
# 1 0.013374 -0.000674 -0.003983 0.003278 -0.002012 0.004858
# 2 -0.000674 0.013490 -0.003381 0.002150 -0.002927 0.016217
# 3 -0.003983 -0.003381 0.006740 -0.003414 0.001937 -0.003855
# 4 0.003278 0.002150 -0.003414 0.021411 -0.001978 0.008421
# 5 -0.002012 -0.002927 0.001937 -0.001978 0.018850 -0.013848
# 6 0.004858 0.016217 -0.003855 0.008421 -0.013848 0.057570
#
#
# Mechanical properties :
#
#
# Convention : Reuss Voigt Hill
#
# Bulk Modulus (GPa) = 57.05377 98.08022 77.56699
# Shear Modulus (GPa) = 32.60442 50.29731 41.45086
#
# Velocity S-wave (km/s) = 3.52567 4.37901 3.97530
# Velocity P-wave (km/s) = 6.19075 7.93476 7.11638
#
# Compressibility (1/GPa) = 0.01752733
#
# Stress axis : x y z
#
# Youngs Moduli (GPa) = 74.77149 74.13050 148.36971
#
# Poissons Ratio (x) = 0.04999 0.59100
# Poissons Ratio (y) = 0.05042 0.50159
# Poissons Ratio (z) = 0.29783 0.25061
#
# Static dielectric constant tensor:
#      x y z
#    x 2.154520 0.065790 -0.065270 
#    y 0.065790 1.301490 0.270610 
#    z -0.065270 0.270610 1.880610 
# 
# From -- ./inp_files/388.got.cif
#   From: 2010.05.17/outbox.cif.g08.bks.cpg/sg2_1_cif.got.tgz:388.got - 2010.06.03 11:33:40.
