data_PCOD9070359
_publ_section_title
;
Structure prediction by ZEFSAII (Michael W. Deem and Ramdas Pophale) SiO2 
 PCOD9070359
Probable space group: P -1
;
_chemical_formula_sum "Si O2"
_cell_formula_units_Z 16
_cell_length_a 20.662178
_cell_length_b 11.205763
_cell_length_c 8.371417
_cell_angle_alpha 49.530190
_cell_angle_beta 29.575873
_cell_angle_gamma 41.387491
_cell_volume 632.476952
_symmetry_space_group_name_H-M "P -1"
_symmetry_group_IT_number 2
_symmetry_cell_setting 'triclinic'
loop_
_space_group_symop_operation_xyz
x,y,z
-x,-y,-z
loop_
_atom_site_type_symbol
_atom_site_label
_atom_site_fract_x
_atom_site_fract_y
_atom_site_fract_z
Si Si1 0.709709 0.999383 0.790593
Si Si2 0.832877 0.577458 0.868310
Si Si3 0.798122 0.042672 0.198034
Si Si4 0.128397 0.712728 0.719398
Si Si5 0.289853 0.551070 0.004651
Si Si6 0.838494 0.540282 0.363760
Si Si7 0.452527 0.624841 0.154922
Si Si8 0.336051 0.056220 0.727040
O O1 0.547643 0.184808 0.988756
O O2 0.746947 0.791634 0.883265
O O3 0.767667 0.011438 0.475127
O O4 0.752790 0.986632 0.902812
O O5 0.709881 0.534376 0.090013
O O6 0.000000 0.500000 0.500000
O O7 0.872821 0.453806 0.046157
O O8 0.687516 0.027843 0.315031
O O9 0.968779 0.887966 0.926532
O O10 0.789128 0.235394 0.034088
O O11 0.173452 0.633792 0.514867
O O12 0.271580 0.718848 0.473229
O O13 0.199214 0.466591 0.366440
O O14 0.443364 0.489785 0.823979
O O15 0.735291 0.733270 0.341013
O O16 0.000000 0.500000 0.000000
O O17 0.500000 0.500000 0.000000
O O18 0.500000 0.000000 0.500000
#
# Coordination Sequence:
#
# PCOD9070359 Si02
#       8
#     2   2   2   2   2   2   2   2
#     4  12  28  50  85 114 164 212 277 335 415 485
#     4  12  26  48  78 116 159 206 272 340 406 480
#     4  12  29  51  80 125 159 218 279 338 419 492
#     4  12  26  48  79 112 164 206 273 335 408 486
#     4  12  29  49  79 114 169 209 275 338 411 493
#     4  12  24  47  76 111 153 212 268 334 400 476
#     4  12  28  53  77 118 163 216 266 337 414 492
#     4  12  28  48  80 117 165 216 273 336 413 493
#
# _framework density 25.297364000000002
#
# number of rings (size 3 to 8) (size 9 to 14) (size 15 to 20)
#    0.000    0.000    5.000    3.750    3.500    5.500 
#    0.000    0.000    0.000    0.000    0.000    0.000 
#    0.000    0.000    0.000    0.000    0.000    0.000 
#
# Total GULP energy -89123.137034 kJ/mol
# GULP energy per Si atom -5570.196065 kJ/mol
# Density = 2.523979 g / cm^3
# Si number density = 25.297364 Si / 1000 Ang^3
#
#
#
# Elastic Constant Matrix: (Units=GPa)
#
#
# Indices 1 2 3 4 5 6 
#
# 1 145.8256 31.2173 30.7957 7.6637 -8.8524 -0.9871
# 2 31.2173 206.9142 14.2455 1.7144 11.4413 -19.5981
# 3 30.7957 14.2455 103.5818 -4.9734 -9.9500 -25.1207
# 4 7.6637 1.7144 -4.9734 26.7843 -12.6153 12.7165
# 5 -8.8524 11.4413 -9.9500 -12.6153 41.0154 -2.4839
# 6 -0.9871 -19.5981 -25.1207 12.7165 -2.4839 44.5723
#
#
#
# Elastic Compliance Matrix: (Units=1/GPa)
#
#
# Indices 1 2 3 4 5 6 
#
# 1 0.007745 -0.001146 -0.002433 -0.001642 0.000824 -0.001189
# 2 -0.001146 0.005439 -0.000047 -0.002543 -0.002380 0.002933
# 3 -0.002433 -0.000047 0.012395 0.001386 0.003327 0.006701
# 4 -0.001642 -0.002543 0.001386 0.052650 0.016007 -0.014502
# 5 0.000824 -0.002380 0.003327 0.016007 0.030832 -0.002002
# 6 -0.001189 0.002933 0.006701 -0.014502 -0.002002 0.031501
#
#
# Mechanical properties :
#
#
# Convention : Reuss Voigt Hill
#
# Bulk Modulus (GPa) = 54.56049 67.64875 61.10462
# Shear Modulus (GPa) = 32.48366 47.81194 40.14780
#
# Velocity S-wave (km/s) = 3.58728 4.35213 3.98808
# Velocity P-wave (km/s) = 6.22677 7.21486 6.73895
#
# Compressibility (1/GPa) = 0.01832828
#
# Stress axis : x y z
#
# Youngs Moduli (GPa) = 129.11862 183.84249 80.67475
#
# Poissons Ratio (x) = 0.21060 0.19629
# Poissons Ratio (y) = 0.14791 0.00380
# Poissons Ratio (z) = 0.31416 0.00865
#
# Static dielectric constant tensor:
#      x y z
#    x 2.106860 0.084000 -0.052710 
#    y 0.084000 1.976700 -0.079780 
#    z -0.052710 -0.079780 2.138390 
# 
# From -- ./inp_files/345921.got.cif
#   From: 2010.05.17/outbox.cif.g08.bks.cpg/sg2_173_cif.got.tgz:345921.got - 2010.06.03 11:33:40.
