data_PCOD9070846
_publ_section_title
;
Structure prediction by ZEFSAII (Michael W. Deem and Ramdas Pophale) SiO2 
 PCOD9070846
Probable space group: P -1
;
_chemical_formula_sum "Si O2"
_cell_formula_units_Z 16
_cell_length_a 19.290751
_cell_length_b 9.306231
_cell_length_c 16.820939
_cell_angle_alpha 31.084449
_cell_angle_beta 150.025216
_cell_angle_gamma 147.909481
_cell_volume 711.032876
_symmetry_space_group_name_H-M "P -1"
_symmetry_group_IT_number 2
_symmetry_cell_setting 'triclinic'
loop_
_space_group_symop_operation_xyz
x,y,z
-x,-y,-z
loop_
_atom_site_type_symbol
_atom_site_label
_atom_site_fract_x
_atom_site_fract_y
_atom_site_fract_z
Si Si1 0.903813 0.621678 0.400830
Si Si2 0.046087 0.358076 0.377409
Si Si3 0.879986 0.709780 0.970188
Si Si4 0.064188 0.237031 0.186377
Si Si5 0.607550 0.339248 0.151246
Si Si6 0.580665 0.359318 0.936295
Si Si7 0.611895 0.691656 0.454011
Si Si8 0.606642 0.353126 0.447682
O O1 0.953685 0.586419 0.555130
O O2 0.731201 0.420270 0.305002
O O3 0.000000 0.500000 0.500000
O O4 0.938413 0.954542 0.242427
O O5 0.215806 0.564166 0.419909
O O6 0.932638 0.440940 0.171972
O O7 0.000000 0.000000 0.500000
O O8 0.900868 0.791022 0.859119
O O9 0.708609 0.573670 0.899562
O O10 0.000000 0.000000 0.000000
O O11 0.217733 0.261594 0.372739
O O12 0.000000 0.500000 0.000000
O O13 0.568499 0.981993 0.267635
O O14 0.500000 0.500000 0.000000
O O15 0.658013 0.441022 0.061788
O O16 0.442556 0.464751 0.753632
O O17 0.500000 0.000000 0.000000
O O18 0.500000 0.500000 0.500000
O O19 0.581983 0.502133 0.433439
O O20 0.500000 0.000000 0.500000
#
# Coordination Sequence:
#
# PCOD9070846 Si02
#       8
#     2   2   2   2   2   2   2   2
#     4  12  25  47  77 105 148 193 250 304 368 438
#     4  12  26  47  75 108 142 194 247 301 364 441
#     4  12  26  46  72 105 146 189 241 297 366 436
#     4  12  27  47  74 110 148 194 242 304 373 442
#     4  12  28  47  75 109 146 198 251 305 369 443
#     4  12  25  47  73 105 147 193 248 303 366 436
#     4  12  28  48  73 106 156 195 243 307 375 440
#     4  12  27  47  75 109 150 194 245 305 374 447
#
# _framework density 22.502476999999999
#
# number of rings (size 3 to 8) (size 9 to 14) (size 15 to 20)
#    0.000    0.000    2.500    7.500    5.250    0.000 
#    0.000    0.000    0.000    0.000    0.000    0.000 
#    0.000    0.000    0.000    0.000    0.000    0.000 
#
# Total GULP energy -89339.134493 kJ/mol
# GULP energy per Si atom -5583.695906 kJ/mol
# Density = 2.245126 g / cm^3
# Si number density = 22.502477 Si / 1000 Ang^3
#
#
#
# Elastic Constant Matrix: (Units=GPa)
#
#
# Indices 1 2 3 4 5 6 
#
# 1 124.9436 30.2577 2.5405 -1.4589 -5.6234 -15.7788
# 2 30.2577 97.2332 6.4354 -13.0953 7.8150 -15.6823
# 3 2.5405 6.4354 93.0908 -11.8501 11.3407 -19.3210
# 4 -1.4589 -13.0953 -11.8501 47.7938 -3.7872 -1.4728
# 5 -5.6234 7.8150 11.3407 -3.7872 46.9741 2.9201
# 6 -15.7788 -15.6823 -19.3210 -1.4728 2.9201 28.7714
#
#
#
# Elastic Compliance Matrix: (Units=1/GPa)
#
#
# Indices 1 2 3 4 5 6 
#
# 1 0.009109 -0.002308 0.000621 0.000009 0.001074 0.004046
# 2 -0.002308 0.012816 0.001518 0.003809 -0.002917 0.007230
# 3 0.000621 0.001518 0.013898 0.003913 -0.003908 0.011098
# 4 0.000009 0.003809 0.003913 0.023113 -0.000081 0.005900
# 5 0.001074 -0.002917 -0.003908 -0.000081 0.023211 -0.005985
# 6 0.004046 0.007230 0.011098 0.005900 -0.005985 0.049279
#
#
# Mechanical properties :
#
#
# Convention : Reuss Voigt Hill
#
# Bulk Modulus (GPa) = 28.18115 43.74834 35.96475
# Shear Modulus (GPa) = 34.82071 43.11014 38.96543
#
# Velocity S-wave (km/s) = 3.93799 4.38173 4.16577
# Velocity P-wave (km/s) = 5.76435 6.71440 6.25743
#
# Compressibility (1/GPa) = 0.03548471
#
# Stress axis : x y z
#
# Youngs Moduli (GPa) = 109.77664 78.02769 71.95349
#
# Poissons Ratio (x) = 0.18011 -0.04469
# Poissons Ratio (y) = 0.25340 -0.10922
# Poissons Ratio (z) = -0.06819 -0.11844
#
# Static dielectric constant tensor:
#      x y z
#    x 1.878070 -0.121660 -0.049510 
#    y -0.121660 1.929680 0.052870 
#    z -0.049510 0.052870 1.826290 
# 
# From -- ./inp_files/577528.got.cif
#   From: 2010.05.17/outbox.cif.g08.bks.cpg/sg2_289_cif.got.tgz:577528.got - 2010.06.03 11:33:40.
