data_PCOD9070354
_publ_section_title
;
Structure prediction by ZEFSAII (Michael W. Deem and Ramdas Pophale) SiO2 
 PCOD9070354
Probable space group: P -1
;
_chemical_formula_sum "Si O2"
_cell_formula_units_Z 12
_cell_length_a 9.421523
_cell_length_b 12.293791
_cell_length_c 6.666033
_cell_angle_alpha 114.782885
_cell_angle_beta 118.864688
_cell_angle_gamma 54.578785
_cell_volume 540.413264
_symmetry_space_group_name_H-M "P -1"
_symmetry_group_IT_number 2
_symmetry_cell_setting 'triclinic'
loop_
_space_group_symop_operation_xyz
x,y,z
-x,-y,-z
loop_
_atom_site_type_symbol
_atom_site_label
_atom_site_fract_x
_atom_site_fract_y
_atom_site_fract_z
Si Si1 0.199498 0.421465 0.986354
Si Si2 0.986424 0.140425 0.015282
Si Si3 0.623137 0.393893 0.834069
Si Si4 0.298752 0.031029 0.803002
Si Si5 0.780384 0.776718 0.483427
Si Si6 0.469033 0.245120 0.368585
O O1 0.270085 0.531337 0.122189
O O2 0.332620 0.300054 0.129630
O O3 0.188041 0.360015 0.715954
O O4 0.000000 0.500000 0.000000
O O5 0.055302 0.217753 0.278914
O O6 0.775932 0.246674 0.903397
O O7 0.129186 0.102072 0.895790
O O8 0.000000 0.000000 0.000000
O O9 0.498528 0.365669 0.572069
O O10 0.500000 0.500000 0.000000
O O11 0.266812 0.114605 0.641977
O O12 0.336764 0.878689 0.660539
O O13 0.500000 0.000000 0.000000
O O14 0.620220 0.805724 0.557488
#
# Coordination Sequence:
#
# PCOD9070354 Si02
#       6
#     2   2   2   2   2   2
#     4  12  27  46  74 109 148 196 253 301 371 441
#     4  12  30  49  76 113 149 196 249 308 372 438
#     4  12  28  49  73 110 151 195 245 305 373 436
#     4  12  25  46  76 110 144 193 254 298 370 439
#     4  12  24  47  76 106 150 193 248 305 371 439
#     4  12  26  46  78 106 149 200 244 308 369 443
#
# _framework density 22.205228000000002
#
# number of rings (size 3 to 8) (size 9 to 14) (size 15 to 20)
#    0.000    0.000    5.000    4.000    7.000    5.333 
#    0.000    0.000    0.000    0.000    0.000    0.000 
#    0.000    0.000    0.000    0.000    0.000    0.000 
#
# Total GULP energy -67137.639325 kJ/mol
# GULP energy per Si atom -5594.803277 kJ/mol
# Density = 2.215469 g / cm^3
# Si number density = 22.205228 Si / 1000 Ang^3
#
#
#
# Elastic Constant Matrix: (Units=GPa)
#
#
# Indices 1 2 3 4 5 6 
#
# 1 95.3756 19.1028 15.7594 -2.2147 -1.0578 5.0270
# 2 19.1028 101.5328 11.9325 3.3801 -9.3035 -2.4231
# 3 15.7594 11.9325 118.0327 20.5335 9.7048 -5.6830
# 4 -2.2147 3.3801 20.5335 39.6589 3.5454 -2.6133
# 5 -1.0578 -9.3035 9.7048 3.5454 29.0813 4.1392
# 6 5.0270 -2.4231 -5.6830 -2.6133 4.1392 44.3109
#
#
#
# Elastic Compliance Matrix: (Units=1/GPa)
#
#
# Indices 1 2 3 4 5 6 
#
# 1 0.011280 -0.001979 -0.001677 0.001532 0.000370 -0.001547
# 2 -0.001979 0.010712 -0.000966 -0.000838 0.003739 0.000288
# 3 -0.001677 -0.000966 0.009968 -0.004780 -0.003319 0.001444
# 4 0.001532 -0.000838 -0.004780 0.028111 -0.002191 0.001030
# 5 0.000370 0.003739 -0.003319 -0.002191 0.037526 -0.003898
# 6 -0.001547 0.000288 0.001444 0.001030 -0.003898 0.023369
#
#
# Mechanical properties :
#
#
# Convention : Reuss Voigt Hill
#
# Bulk Modulus (GPa) = 44.02546 45.39230 44.70888
# Shear Modulus (GPa) = 36.28906 40.48663 38.38785
#
# Velocity S-wave (km/s) = 4.04698 4.27464 4.16236
# Velocity P-wave (km/s) = 6.45810 6.69701 6.57864
#
# Compressibility (1/GPa) = 0.02271413
#
# Stress axis : x y z
#
# Youngs Moduli (GPa) = 88.65521 93.35041 100.32151
#
# Poissons Ratio (x) = 0.18475 0.16828
# Poissons Ratio (y) = 0.17545 0.09695
# Poissons Ratio (z) = 0.14871 0.09022
#
# Static dielectric constant tensor:
#      x y z
#    x 1.754600 0.013010 -0.006480 
#    y 0.013010 1.858630 0.047760 
#    z -0.006480 0.047760 1.861600 
# 
# From -- ./inp_files/21674.got.cif
#   From: 2010.05.17/outbox.cif.g08.bks.cpg/sg2_11_cif.got.tgz:21674.got - 2010.06.03 11:33:40.
