data_PCOD9070566
_publ_section_title
;
Structure prediction by ZEFSAII (Michael W. Deem and Ramdas Pophale) SiO2 
 PCOD9070566
Probable space group: P -1
;
_chemical_formula_sum "Si O2"
_cell_formula_units_Z 13
_cell_length_a 8.878484
_cell_length_b 9.723290
_cell_length_c 9.141683
_cell_angle_alpha 117.936302
_cell_angle_beta 105.787464
_cell_angle_gamma 47.036823
_cell_volume 508.856886
_symmetry_space_group_name_H-M "P -1"
_symmetry_group_IT_number 2
_symmetry_cell_setting 'triclinic'
loop_
_space_group_symop_operation_xyz
x,y,z
-x,-y,-z
loop_
_atom_site_type_symbol
_atom_site_label
_atom_site_fract_x
_atom_site_fract_y
_atom_site_fract_z
Si Si1 0.471505 0.637277 0.693591
Si Si2 0.272784 0.045066 0.372949
Si Si3 0.000000 0.500000 0.500000
Si Si4 0.019421 0.028181 0.691751
Si Si5 0.630222 0.588979 0.286219
Si Si6 0.660774 0.836843 0.844225
Si Si7 0.076345 0.603251 0.990588
O O1 0.500000 0.500000 0.500000
O O2 0.451829 0.533351 0.772864
O O3 0.641834 0.662402 0.752362
O O4 0.256124 0.864877 0.721737
O O5 0.130452 0.275362 0.513679
O O6 0.378018 0.062637 0.272493
O O7 0.113306 0.012114 0.275176
O O8 0.451822 0.831355 0.393456
O O9 0.179391 0.506068 0.600802
O O10 0.931062 0.251513 0.825468
O O11 0.000000 0.000000 0.500000
O O12 0.717156 0.548917 0.124697
O O13 0.891320 0.742910 0.893483
O O14 0.500000 0.000000 0.000000
O O15 0.000000 0.500000 0.000000
#
# Coordination Sequence:
#
# PCOD9070566 Si02
#       7
#     2   2   1   2   2   2   2
#     4  12  27  49  78 117 159 211 261 334 389 481
#     4  12  28  50  81 115 159 215 261 329 398 481
#     4  12  24  50  80 114 162 206 262 324 394 474
#     4  12  29  51  79 116 162 211 269 330 404 479
#     4  12  28  50  81 116 161 210 272 324 405 465
#     4  12  26  50  79 113 159 207 270 323 398 472
#     4  12  29  50  79 117 162 212 268 337 398 474
#
# _framework density 25.547457999999999
#
# number of rings (size 3 to 8) (size 9 to 14) (size 15 to 20)
#    0.000    0.000    4.615    3.231    8.615    1.846 
#    0.000    0.000    0.000    0.000    0.000    0.000 
#    0.000    0.000    0.000    0.000    0.000    0.000 
#
# Total GULP energy -72574.796352 kJ/mol
# GULP energy per Si atom -5582.676642 kJ/mol
# Density = 2.548931 g / cm^3
# Si number density = 25.547458 Si / 1000 Ang^3
#
#
#
# Elastic Constant Matrix: (Units=GPa)
#
#
# Indices 1 2 3 4 5 6 
#
# 1 119.7411 19.9734 67.3825 8.7070 4.0356 31.2763
# 2 19.9734 129.7388 39.4125 10.5831 4.5075 5.5998
# 3 67.3825 39.4125 93.2283 27.4833 1.1353 15.3821
# 4 8.7070 10.5831 27.4833 38.8154 3.2569 8.0128
# 5 4.0356 4.5075 1.1353 3.2569 51.9762 -3.6270
# 6 31.2763 5.5998 15.3821 8.0128 -3.6270 69.2786
#
#
#
# Elastic Compliance Matrix: (Units=1/GPa)
#
#
# Indices 1 2 3 4 5 6 
#
# 1 0.017029 0.001372 -0.014018 0.007054 -0.001968 -0.005605
# 2 0.001372 0.008983 -0.004988 0.000927 -0.000862 -0.000390
# 3 -0.014018 -0.004988 0.027036 -0.015352 0.002075 0.002613
# 4 0.007054 0.000927 -0.015352 0.035892 -0.002831 -0.004150
# 5 -0.001968 -0.000862 0.002075 -0.002831 0.019729 0.001858
# 6 -0.005605 -0.000390 0.002613 -0.004150 0.001858 0.016994
#
#
# Mechanical properties :
#
#
# Convention : Reuss Voigt Hill
#
# Bulk Modulus (GPa) = 56.24479 66.24944 61.24711
# Shear Modulus (GPa) = 29.96575 46.41002 38.18788
#
# Velocity S-wave (km/s) = 3.42854 4.26681 3.87044
# Velocity P-wave (km/s) = 6.14303 7.08960 6.63322
#
# Compressibility (1/GPa) = 0.01777942
#
# Stress axis : x y z
#
# Youngs Moduli (GPa) = 58.72475 111.32285 36.98731
#
# Poissons Ratio (x) = -0.15272 0.51851
# Poissons Ratio (y) = -0.08056 0.18448
# Poissons Ratio (z) = 0.82323 0.55523
#
# Static dielectric constant tensor:
#      x y z
#    x 2.028700 -0.021050 -0.014330 
#    y -0.021050 2.093940 -0.011970 
#    z -0.014330 -0.011970 2.055660 
# 
# From -- ./inp_files/159814.got.cif
#   From: 2010.05.17/outbox.cif.g08.bks.cpg/sg2_80_cif.got.tgz:159814.got - 2010.06.03 11:33:40.
