data_PCOD9070336
_publ_section_title
;
Structure prediction by ZEFSAII (Michael W. Deem and Ramdas Pophale) SiO2 
 PCOD9070336
Probable space group: P -1
;
_chemical_formula_sum "Si O2"
_cell_formula_units_Z 16
_cell_length_a 8.833167
_cell_length_b 11.128778
_cell_length_c 19.964648
_cell_angle_alpha 147.689407
_cell_angle_beta 43.691192
_cell_angle_gamma 127.731525
_cell_volume 724.625152
_symmetry_space_group_name_H-M "P -1"
_symmetry_group_IT_number 2
_symmetry_cell_setting 'triclinic'
loop_
_space_group_symop_operation_xyz
x,y,z
-x,-y,-z
loop_
_atom_site_type_symbol
_atom_site_label
_atom_site_fract_x
_atom_site_fract_y
_atom_site_fract_z
Si Si1 0.043907 0.231550 0.352016
Si Si2 0.327822 0.295652 0.960220
Si Si3 0.726612 0.111729 0.965904
Si Si4 0.597887 0.951808 0.375756
Si Si5 0.248795 0.478035 0.928590
Si Si6 0.217066 0.157878 0.509161
Si Si7 0.847273 0.370304 0.186352
Si Si8 0.435078 0.167684 0.303081
O O1 0.244213 0.182579 0.315644
O O2 0.000000 0.500000 0.500000
O O3 0.116757 0.101747 0.199385
O O4 0.820935 0.094790 0.371375
O O5 0.247640 0.330254 0.926322
O O6 0.469475 0.078011 0.827278
O O7 0.500000 0.500000 0.000000
O O8 0.107328 0.307550 0.081903
O O9 0.682077 0.267483 0.987478
O O10 0.787745 0.265252 0.083115
O O11 0.500000 0.000000 0.000000
O O12 0.629152 0.685660 0.237294
O O13 0.500000 0.000000 0.500000
O O14 0.423395 0.025482 0.410862
O O15 0.000000 0.500000 0.000000
O O16 0.161048 0.361510 0.673668
O O17 0.308896 0.242549 0.447277
O O18 0.000000 0.000000 0.500000
O O19 0.655169 0.288401 0.260372
#
# Coordination Sequence:
#
# PCOD9070336 Si02
#       8
#     2   2   2   2   2   2   2   2
#     4  12  27  50  78 111 155 206 261 325 392 468
#     4  12  26  46  75 110 152 201 262 316 389 457
#     4  12  26  49  80 113 154 200 265 321 391 460
#     4  12  26  45  76 109 148 202 264 315 388 456
#     4  12  24  47  75 106 148 201 256 324 374 461
#     4  12  27  51  75 115 161 208 260 323 395 473
#     4  12  26  48  78 112 156 210 260 323 393 467
#     4  12  26  51  72 117 159 204 258 329 397 472
#
# _framework density 22.080382
#
# number of rings (size 3 to 8) (size 9 to 14) (size 15 to 20)
#    0.000    0.000    5.000    4.500    1.750    0.000 
#    2.250    0.000    0.000    0.000    0.000    0.000 
#    0.000    0.000    0.000    0.000    0.000    0.000 
#
# Total GULP energy -89177.188041 kJ/mol
# GULP energy per Si atom -5573.574253 kJ/mol
# Density = 2.203013 g / cm^3
# Si number density = 22.080382 Si / 1000 Ang^3
#
#
#
# Elastic Constant Matrix: (Units=GPa)
#
#
# Indices 1 2 3 4 5 6 
#
# 1 104.4334 35.1341 47.5714 6.6026 -15.2047 10.5278
# 2 35.1341 134.0975 42.1975 -8.9499 -7.7887 24.3422
# 3 47.5714 42.1975 172.6267 9.5302 -1.3373 7.4816
# 4 6.6026 -8.9499 9.5302 59.2144 -3.1379 -8.0425
# 5 -15.2047 -7.7887 -1.3373 -3.1379 43.9672 -3.7690
# 6 10.5278 24.3422 7.4816 -8.0425 -3.7690 37.2890
#
#
#
# Elastic Compliance Matrix: (Units=1/GPa)
#
#
# Indices 1 2 3 4 5 6 
#
# 1 0.012228 -0.001938 -0.002733 -0.001236 0.003582 -0.001543
# 2 -0.001938 0.009509 -0.001639 0.001272 0.000627 -0.004993
# 3 -0.002733 -0.001639 0.006996 -0.001115 -0.001095 0.000087
# 4 -0.001236 0.001272 -0.001115 0.017980 0.001369 0.003759
# 5 0.003582 0.000627 -0.001095 0.001369 0.024291 0.001550
# 6 -0.001543 -0.004993 0.000087 0.003759 0.001550 0.031463
#
#
# Mechanical properties :
#
#
# Convention : Reuss Voigt Hill
#
# Bulk Modulus (GPa) = 62.06627 73.44042 67.75335
# Shear Modulus (GPa) = 41.50831 47.17774 44.34303
#
# Velocity S-wave (km/s) = 4.34045 4.62739 4.48622
# Velocity P-wave (km/s) = 7.29998 7.86658 7.58857
#
# Compressibility (1/GPa) = 0.01611181
#
# Stress axis : x y z
#
# Youngs Moduli (GPa) = 81.78218 105.16786 142.93864
#
# Poissons Ratio (x) = 0.20381 0.39065
# Poissons Ratio (y) = 0.15849 0.23431
# Poissons Ratio (z) = 0.22351 0.17239
#
# Static dielectric constant tensor:
#      x y z
#    x 1.854390 -0.076600 -0.004800 
#    y -0.076600 1.856670 0.005780 
#    z -0.004800 0.005780 1.846350 
# 
# From -- ./inp_files/589693.got.cif
#   From: 2010.05.17/outbox.cif.g08.bks.cpg/sg2_295_cif.got.tgz:589693.got - 2010.06.03 11:33:40.
