data_PCOD9070317
_publ_section_title
;
Structure prediction by ZEFSAII (Michael W. Deem and Ramdas Pophale) SiO2 
 PCOD9070317
Probable space group: P -1
;
_chemical_formula_sum "Si O2"
_cell_formula_units_Z 16
_cell_length_a 8.684732
_cell_length_b 18.202151
_cell_length_c 6.957455
_cell_angle_alpha 138.632672
_cell_angle_beta 96.750843
_cell_angle_gamma 79.950625
_cell_volume 715.563069
_symmetry_space_group_name_H-M "P -1"
_symmetry_group_IT_number 2
_symmetry_cell_setting 'triclinic'
loop_
_space_group_symop_operation_xyz
x,y,z
-x,-y,-z
loop_
_atom_site_type_symbol
_atom_site_label
_atom_site_fract_x
_atom_site_fract_y
_atom_site_fract_z
Si Si1 0.912140 0.207138 0.468403
Si Si2 0.839005 0.034539 0.434032
Si Si3 0.638207 0.424823 0.254296
Si Si4 0.432700 0.339082 0.730882
Si Si5 0.842974 0.473093 0.036131
Si Si6 0.398108 0.940109 0.222931
Si Si7 0.354784 0.724587 0.701298
Si Si8 0.265811 0.114760 0.217854
O O1 0.862687 0.134403 0.491642
O O2 0.875870 0.338834 0.761160
O O3 0.788670 0.196456 0.260899
O O4 0.089934 0.162211 0.353905
O O5 0.737153 0.076576 0.681841
O O6 0.000000 0.000000 0.500000
O O7 0.764324 0.942974 0.107759
O O8 0.500000 0.500000 0.500000
O O9 0.712277 0.344119 0.275282
O O10 0.545494 0.351503 0.951711
O O11 0.767884 0.482230 0.264092
O O12 0.545484 0.352691 0.592056
O O13 0.363708 0.220755 0.464870
O O14 0.291467 0.440430 0.915655
O O15 0.000000 0.500000 0.000000
O O16 0.500000 0.000000 0.500000
O O17 0.347330 0.017836 0.183817
O O18 0.472116 0.813107 0.945308
#
# Coordination Sequence:
#
# PCOD9070317 Si02
#       8
#     2   2   2   2   2   2   2   2
#     4  12  24  47  74 104 148 198 249 313 386 453
#     4  12  25  47  74 105 148 200 249 315 385 456
#     4  12  25  48  79 110 150 204 259 311 385 460
#     4  12  26  48  76 109 156 198 253 322 382 454
#     4  12  25  49  76 110 153 196 254 321 381 454
#     4  12  26  43  70 110 148 194 254 306 382 459
#     4  12  25  45  76 107 145 203 252 308 384 459
#     4  12  26  46  71 111 154 193 252 321 381 455
#
# _framework density 22.360014
#
# number of rings (size 3 to 8) (size 9 to 14) (size 15 to 20)
#    0.000    0.000    6.250    4.500    1.750    1.000 
#    0.000    3.750    0.000    0.000    0.000    0.000 
#    0.000    0.000    0.000    0.000    0.000    0.000 
#
# Total GULP energy -89153.603607 kJ/mol
# GULP energy per Si atom -5572.100225 kJ/mol
# Density = 2.230912 g / cm^3
# Si number density = 22.360014 Si / 1000 Ang^3
#
#
#
# Elastic Constant Matrix: (Units=GPa)
#
#
# Indices 1 2 3 4 5 6 
#
# 1 98.7953 41.5936 30.5923 -16.2422 -15.4682 24.3365
# 2 41.5936 147.6986 32.6542 -17.7779 6.6747 17.2125
# 3 30.5923 32.6542 127.9377 -9.3583 -3.7859 15.9262
# 4 -16.2422 -17.7779 -9.3583 40.9268 0.9897 5.0470
# 5 -15.4682 6.6747 -3.7859 0.9897 37.1237 0.2533
# 6 24.3365 17.2125 15.9262 5.0470 0.2533 41.1936
#
#
#
# Elastic Compliance Matrix: (Units=1/GPa)
#
#
# Indices 1 2 3 4 5 6 
#
# 1 0.015779 -0.002797 -0.001411 0.005587 0.006842 -0.008334
# 2 -0.002797 0.008458 -0.001171 0.002578 -0.002863 -0.001727
# 3 -0.001411 -0.001171 0.008836 0.001217 0.000507 -0.002246
# 4 0.005587 0.002578 0.001217 0.029056 0.001271 -0.008416
# 5 0.006842 -0.002863 0.000507 0.001271 0.030343 -0.003384
# 6 -0.008334 -0.001727 -0.002246 -0.008416 -0.003384 0.031841
#
#
# Mechanical properties :
#
#
# Convention : Reuss Voigt Hill
#
# Bulk Modulus (GPa) = 44.81124 64.90130 54.85627
# Shear Modulus (GPa) = 35.08516 41.82158 38.45337
#
# Velocity S-wave (km/s) = 3.96549 4.32947 4.15147
# Velocity P-wave (km/s) = 6.40711 7.35398 6.89682
#
# Compressibility (1/GPa) = 0.02231583
#
# Stress axis : x y z
#
# Youngs Moduli (GPa) = 63.37513 118.22876 113.17303
#
# Poissons Ratio (x) = 0.33070 0.15963
# Poissons Ratio (y) = 0.17727 0.13253
# Poissons Ratio (z) = 0.08939 0.13845
#
# Static dielectric constant tensor:
#      x y z
#    x 1.638630 0.006770 0.127440 
#    y 0.006770 1.805660 0.032410 
#    z 0.127440 0.032410 1.943240 
# 
# From -- ./inp_files/49330.got.cif
#   From: 2010.05.17/outbox.cif.g08.bks.cpg/sg2_25_cif.got.tgz:49330.got - 2010.06.03 11:33:40.
