data_PCOD9070727
_publ_section_title
;
Structure prediction by ZEFSAII (Michael W. Deem and Ramdas Pophale) SiO2 
 PCOD9070727
Probable space group: P -1
;
_chemical_formula_sum "Si O2"
_cell_formula_units_Z 14
_cell_length_a 9.579799
_cell_length_b 11.281528
_cell_length_c 17.402395
_cell_angle_alpha 141.714153
_cell_angle_beta 148.696708
_cell_angle_gamma 55.353654
_cell_volume 574.153583
_symmetry_space_group_name_H-M "P -1"
_symmetry_group_IT_number 2
_symmetry_cell_setting 'triclinic'
loop_
_space_group_symop_operation_xyz
x,y,z
-x,-y,-z
loop_
_atom_site_type_symbol
_atom_site_label
_atom_site_fract_x
_atom_site_fract_y
_atom_site_fract_z
Si Si1 0.954234 0.492324 0.107971
Si Si2 0.736631 0.116565 0.730265
Si Si3 0.404296 0.566609 0.884744
Si Si4 0.925351 0.142540 0.472737
Si Si5 0.473366 0.792059 0.556673
Si Si6 0.016815 0.230828 0.140896
Si Si7 0.696553 0.898050 0.085047
O O1 0.229241 0.682964 0.325478
O O2 0.069167 0.357655 0.151927
O O3 0.811081 0.353741 0.899271
O O4 0.698480 0.559389 0.057216
O O5 0.615828 0.014036 0.702674
O O6 0.031424 0.087329 0.830876
O O7 0.500000 0.000000 0.500000
O O8 0.179356 0.342550 0.668761
O O9 0.255593 0.721286 0.929304
O O10 0.515823 0.669842 0.907474
O O11 0.684483 0.209586 0.437776
O O12 0.811340 0.013938 0.277641
O O13 0.722712 0.697130 0.640016
O O14 0.000000 0.000000 0.500000
O O15 0.000000 0.000000 0.000000
O O16 0.500000 0.000000 0.000000
#
# Coordination Sequence:
#
# PCOD9070727 Si02
#       7
#     2   2   2   2   2   2   2
#     4  12  26  46  79 112 150 201 265 323 393 471
#     4  12  27  50  73 110 161 210 259 319 397 484
#     4  12  27  49  79 114 157 205 269 318 405 467
#     4  12  27  48  84 121 158 205 272 335 397 478
#     4  12  26  45  78 113 149 199 265 329 395 453
#     4  12  25  45  75 117 156 194 251 340 395 454
#     4  12  30  50  77 114 166 214 263 328 404 480
#
# _framework density 24.383718999999999
#
# number of rings (size 3 to 8) (size 9 to 14) (size 15 to 20)
#    0.000    0.000    2.857    6.857    4.000    4.000 
#    0.000    0.000    0.000    0.000    0.000    0.000 
#    0.000    0.000    0.000    0.000    0.000    0.000 
#
# Total GULP energy -78377.884401 kJ/mol
# GULP energy per Si atom -5598.420314 kJ/mol
# Density = 2.432822 g / cm^3
# Si number density = 24.383719 Si / 1000 Ang^3
#
#
#
# Elastic Constant Matrix: (Units=GPa)
#
#
# Indices 1 2 3 4 5 6 
#
# 1 71.7319 34.1891 67.3719 5.8105 14.6482 -0.2962
# 2 34.1891 165.4685 73.6400 -10.1392 13.1645 -2.3579
# 3 67.3719 73.6400 168.7444 8.0980 19.3701 -5.9117
# 4 5.8105 -10.1392 8.0980 47.4419 6.0227 10.6203
# 5 14.6482 13.1645 19.3701 6.0227 51.6838 9.6698
# 6 -0.2962 -2.3579 -5.9117 10.6203 9.6698 46.3797
#
#
#
# Elastic Compliance Matrix: (Units=1/GPa)
#
#
# Indices 1 2 3 4 5 6 
#
# 1 0.022925 -0.000836 -0.008392 -0.001157 -0.002990 -0.000077
# 2 -0.000836 0.007815 -0.003119 0.002499 -0.000799 -0.000411
# 3 -0.008392 -0.003119 0.010906 -0.001771 -0.001045 0.001801
# 4 -0.001157 0.002499 -0.001771 0.023392 -0.001403 -0.005170
# 5 -0.002990 -0.000799 -0.001045 -0.001403 0.021780 -0.004413
# 6 -0.000077 -0.000411 0.001801 -0.005170 -0.004413 0.023873
#
#
# Mechanical properties :
#
#
# Convention : Reuss Voigt Hill
#
# Bulk Modulus (GPa) = 58.99218 84.03853 71.51536
# Shear Modulus (GPa) = 35.45159 44.48400 39.96779
#
# Velocity S-wave (km/s) = 3.81715 4.27585 4.05299
# Velocity P-wave (km/s) = 6.60857 7.67575 7.16206
#
# Compressibility (1/GPa) = 0.01695140
#
# Stress axis : x y z
#
# Youngs Moduli (GPa) = 43.61991 127.95520 91.69225
#
# Poissons Ratio (x) = 0.10699 0.76949
# Poissons Ratio (y) = 0.03647 0.28602
# Poissons Ratio (z) = 0.36606 0.39914
#
# Static dielectric constant tensor:
#      x y z
#    x 1.998960 -0.009340 -0.034130 
#    y -0.009340 1.941320 0.003860 
#    z -0.034130 0.003860 2.013820 
# 
# From -- ./inp_files/610554.got.cif
#   From: 2010.05.17/outbox.cif.g08.bks.cpg/sg2_306_cif.got.tgz:610554.got - 2010.06.03 11:33:40.
