data_PCOD9070721
_publ_section_title
;
Structure prediction by ZEFSAII (Michael W. Deem and Ramdas Pophale) SiO2 
 PCOD9070721
Probable space group: P -1
;
_chemical_formula_sum "Si O2"
_cell_formula_units_Z 16
_cell_length_a 17.946878
_cell_length_b 22.079412
_cell_length_c 27.580051
_cell_angle_alpha 10.506851
_cell_angle_beta 20.101737
_cell_angle_gamma 20.683652
_cell_volume 671.817973
_symmetry_space_group_name_H-M "P -1"
_symmetry_group_IT_number 2
_symmetry_cell_setting 'triclinic'
loop_
_space_group_symop_operation_xyz
x,y,z
-x,-y,-z
loop_
_atom_site_type_symbol
_atom_site_label
_atom_site_fract_x
_atom_site_fract_y
_atom_site_fract_z
Si Si1 0.306348 0.324097 0.375409
Si Si2 0.568556 0.232189 0.970819
Si Si3 0.864455 0.288508 0.614669
Si Si4 0.583146 0.621834 0.902511
Si Si5 0.588790 0.354292 0.348404
Si Si6 0.938186 0.567285 0.245037
Si Si7 0.218185 0.841122 0.521820
Si Si8 0.286463 0.425025 0.716154
O O1 0.327980 0.470056 0.301475
O O2 0.070267 0.295105 0.519952
O O3 0.500000 0.000000 0.500000
O O4 0.391261 0.610632 0.066493
O O5 0.436206 0.361660 0.900836
O O6 0.761038 0.913667 0.090438
O O7 0.379261 0.111760 0.213457
O O8 0.651285 0.569563 0.538630
O O9 0.930526 0.353592 0.467435
O O10 0.780044 0.937289 0.949657
O O11 0.817406 0.369653 0.963932
O O12 0.629284 0.996733 0.578225
O O13 0.500000 0.500000 0.000000
O O14 0.773955 0.328378 0.297064
O O15 0.889574 0.402952 0.352567
O O16 0.319959 0.553562 0.648109
O O17 0.000000 0.000000 0.500000
O O18 0.500000 0.500000 0.500000
#
# Coordination Sequence:
#
# PCOD9070721 Si02
#       8
#     2   2   2   2   2   2   2   2
#     4  12  27  47  75 115 158 199 248 311 377 455
#     4  12  27  50  75 111 153 196 253 306 385 447
#     4  12  26  46  79 109 152 204 248 308 381 452
#     4  12  25  45  75 110 154 194 254 307 375 448
#     4  12  26  49  73 111 147 199 254 306 381 447
#     4  12  25  47  75 114 148 199 250 315 375 446
#     4  12  27  48  76 103 150 198 250 321 366 449
#     4  12  25  48  74 108 146 190 255 311 373 442
#
# _framework density 23.815975000000002
#
# number of rings (size 3 to 8) (size 9 to 14) (size 15 to 20)
#    0.000    0.000    6.250    2.250    3.500    5.000 
#    0.000    0.000    0.000    0.000    0.000    0.000 
#    0.000    0.000    0.000    0.000    0.000    0.000 
#
# Total GULP energy -89345.101484 kJ/mol
# GULP energy per Si atom -5584.068843 kJ/mol
# Density = 2.376177 g / cm^3
# Si number density = 23.815975 Si / 1000 Ang^3
#
#
#
# Elastic Constant Matrix: (Units=GPa)
#
#
# Indices 1 2 3 4 5 6 
#
# 1 164.7556 10.4839 44.8595 3.4965 -6.7224 -26.4457
# 2 10.4839 84.8958 29.7178 1.9126 -1.9991 -26.3463
# 3 44.8595 29.7178 98.6162 6.1825 -3.7327 -9.5876
# 4 3.4965 1.9126 6.1825 22.6195 -2.6399 -1.5964
# 5 -6.7224 -1.9991 -3.7327 -2.6399 50.9155 3.6039
# 6 -26.4457 -26.3463 -9.5876 -1.5964 3.6039 45.2136
#
#
#
# Elastic Compliance Matrix: (Units=1/GPa)
#
#
# Indices 1 2 3 4 5 6 
#
# 1 0.007709 0.001782 -0.003565 0.000025 0.000491 0.004753
# 2 0.001782 0.016162 -0.004786 0.000318 -0.000135 0.009467
# 3 -0.003565 -0.004786 0.013175 -0.002764 0.000320 -0.002203
# 4 0.000025 0.000318 -0.002764 0.045251 0.002085 0.001045
# 5 0.000491 -0.000135 0.000320 0.002085 0.019919 -0.001237
# 6 0.004753 0.009467 -0.002203 0.001045 -0.001237 0.030082
#
#
# Mechanical properties :
#
#
# Convention : Reuss Voigt Hill
#
# Bulk Modulus (GPa) = 41.82398 57.59890 49.71144
# Shear Modulus (GPa) = 32.59322 41.29680 36.94501
#
# Velocity S-wave (km/s) = 3.70340 4.16865 3.94289
# Velocity P-wave (km/s) = 5.99052 6.88532 6.45345
#
# Compressibility (1/GPa) = 0.02390973
#
# Stress axis : x y z
#
# Youngs Moduli (GPa) = 129.71335 61.87380 75.90014
#
# Poissons Ratio (x) = -0.11026 0.27056
# Poissons Ratio (y) = -0.23114 0.36323
# Poissons Ratio (z) = 0.46239 0.29610
#
# Static dielectric constant tensor:
#      x y z
#    x 2.058390 0.152510 -0.041130 
#    y 0.152510 2.017990 -0.155570 
#    z -0.041130 -0.155570 1.940960 
# 
# From -- ./inp_files/623936.got.cif
#   From: 2010.05.17/outbox.cif.g08.bks.cpg/sg2_312_cif.got.tgz:623936.got - 2010.06.03 11:33:40.
