data_PCOD9070693
_publ_section_title
;
Structure prediction by ZEFSAII (Michael W. Deem and Ramdas Pophale) SiO2 
 PCOD9070693
Probable space group: P -1
;
_chemical_formula_sum "Si O2"
_cell_formula_units_Z 16
_cell_length_a 8.818144
_cell_length_b 7.846681
_cell_length_c 12.168164
_cell_angle_alpha 89.333920
_cell_angle_beta 88.785271
_cell_angle_gamma 50.994114
_cell_volume 654.117890
_symmetry_space_group_name_H-M "P -1"
_symmetry_group_IT_number 2
_symmetry_cell_setting 'triclinic'
loop_
_space_group_symop_operation_xyz
x,y,z
-x,-y,-z
loop_
_atom_site_type_symbol
_atom_site_label
_atom_site_fract_x
_atom_site_fract_y
_atom_site_fract_z
Si Si1 0.656072 0.634882 0.796578
Si Si2 0.580419 0.636413 0.382874
Si Si3 0.741325 0.189278 0.295064
Si Si4 0.540141 0.104436 0.840361
Si Si5 0.794947 0.051003 0.518458
Si Si6 0.802233 0.664446 0.568584
Si Si7 0.184537 0.490022 0.979395
Si Si8 0.032298 0.055839 0.118730
O O1 0.456537 0.678680 0.772425
O O2 0.780398 0.579636 0.684360
O O3 0.591198 0.870140 0.832711
O O4 0.762953 0.476077 0.900395
O O5 0.729504 0.379688 0.355485
O O6 0.550544 0.767395 0.273497
O O7 0.366328 0.718850 0.420569
O O8 0.644964 0.704017 0.484463
O O9 0.732568 0.058637 0.393629
O O10 0.931700 0.027380 0.220224
O O11 0.375457 0.262682 0.931382
O O12 0.743855 0.055644 0.863256
O O13 0.792764 0.874755 0.584854
O O14 0.000000 0.000000 0.500000
O O15 0.000000 0.500000 0.500000
O O16 0.107006 0.679410 0.890725
O O17 0.000000 0.500000 0.000000
O O18 0.000000 0.000000 0.000000
#
# Coordination Sequence:
#
# PCOD9070693 Si02
#       8
#     2   2   2   2   2   2   2   2
#     4  12  27  48  76 108 151 198 253 304 376 442
#     4  12  25  48  74 106 155 194 245 306 375 441
#     4  12  27  46  75 110 149 194 248 310 372 445
#     4  12  26  50  79 107 151 198 246 314 372 445
#     4  12  25  45  72 108 149 194 248 301 371 439
#     4  12  28  46  73 110 151 199 247 305 368 450
#     4  12  28  49  78 110 148 199 250 307 373 445
#     4  12  29  50  75 112 149 194 253 312 376 440
#
# _framework density 24.460424
#
# number of rings (size 3 to 8) (size 9 to 14) (size 15 to 20)
#    0.000    0.000    5.000    4.125    8.750    2.000 
#    0.000    0.000    0.000    0.000    0.000    0.000 
#    0.000    0.000    0.000    0.000    0.000    0.000 
#
# Total GULP energy -89638.166395 kJ/mol
# GULP energy per Si atom -5602.385400 kJ/mol
# Density = 2.440475 g / cm^3
# Si number density = 24.460424 Si / 1000 Ang^3
#
#
#
# Elastic Constant Matrix: (Units=GPa)
#
#
# Indices 1 2 3 4 5 6 
#
# 1 107.2769 16.3941 32.6956 16.5750 -1.2753 -29.8458
# 2 16.3941 68.7536 18.6408 19.7813 -13.6123 -21.8358
# 3 32.6956 18.6408 140.9620 7.0441 -20.7858 -24.2975
# 4 16.5750 19.7813 7.0441 52.1537 -11.5213 -5.9217
# 5 -1.2753 -13.6123 -20.7858 -11.5213 44.6717 3.2362
# 6 -29.8458 -21.8358 -24.2975 -5.9217 3.2362 41.5113
#
#
#
# Elastic Compliance Matrix: (Units=1/GPa)
#
#
# Indices 1 2 3 4 5 6 
#
# 1 0.012463 0.000676 -0.001683 -0.003458 -0.001691 0.007969
# 2 0.000676 0.019958 -0.000278 -0.005813 0.003770 0.009698
# 3 -0.001683 -0.000278 0.008655 0.000715 0.003824 0.003514
# 4 -0.003458 -0.005813 0.000715 0.023148 0.004591 -0.002182
# 5 -0.001691 0.003770 0.003824 0.004591 0.026333 0.001608
# 6 0.007969 0.009698 0.003514 -0.002182 0.001608 0.036541
#
#
# Mechanical properties :
#
#
# Convention : Reuss Voigt Hill
#
# Bulk Modulus (GPa) = 25.97004 50.27263 38.12133
# Shear Modulus (GPa) = 35.08700 44.28481 39.68590
#
# Velocity S-wave (km/s) = 3.79151 4.25958 4.03234
# Velocity P-wave (km/s) = 5.45963 6.69248 6.10724
#
# Compressibility (1/GPa) = 0.03850591
#
# Stress axis : x y z
#
# Youngs Moduli (GPa) = 80.23927 50.10550 115.53958
#
# Poissons Ratio (x) = -0.03387 0.19444
# Poissons Ratio (y) = -0.05424 0.03212
# Poissons Ratio (z) = 0.13503 0.01393
#
# Static dielectric constant tensor:
#      x y z
#    x 1.964260 0.004470 0.013460 
#    y 0.004470 2.038150 -0.042600 
#    z 0.013460 -0.042600 2.014590 
# 
# From -- ./inp_files/187282.got.cif
#   From: 2010.05.17/outbox.cif.g08.bks.cpg/sg2_94_cif.got.tgz:187282.got - 2010.06.03 11:33:40.
