data_PCOD9070955
_publ_section_title
;
Structure prediction by ZEFSAII (Michael W. Deem and Ramdas Pophale) SiO2 
 PCOD9070955
Probable space group: P -1
;
_chemical_formula_sum "Si O2"
_cell_formula_units_Z 11
_cell_length_a 9.369586
_cell_length_b 15.066935
_cell_length_c 8.352049
_cell_angle_alpha 134.716443
_cell_angle_beta 30.928728
_cell_angle_gamma 132.482969
_cell_volume 422.218953
_symmetry_space_group_name_H-M "P -1"
_symmetry_group_IT_number 2
_symmetry_cell_setting 'triclinic'
loop_
_space_group_symop_operation_xyz
x,y,z
-x,-y,-z
loop_
_atom_site_type_symbol
_atom_site_label
_atom_site_fract_x
_atom_site_fract_y
_atom_site_fract_z
Si Si1 0.749579 0.284490 0.161003
Si Si2 0.500000 0.500000 0.500000
Si Si3 0.589774 0.365411 0.773668
Si Si4 0.224387 0.972411 0.624568
Si Si5 0.905183 0.694503 0.590593
Si Si6 0.790014 0.877138 0.484156
O O1 0.700030 0.399605 0.245064
O O2 0.671074 0.315842 0.459954
O O3 0.505892 0.164203 0.193741
O O4 0.050575 0.242546 0.821195
O O5 0.707983 0.614485 0.546024
O O6 0.865241 0.377367 0.637809
O O7 0.500000 0.500000 0.000000
O O8 0.320806 0.286957 0.029842
O O9 0.096043 0.826515 0.511566
O O10 0.500000 0.000000 0.500000
O O11 0.270566 0.072843 0.566879
O O12 0.000000 0.000000 0.000000
O O13 0.000000 0.000000 0.500000
#
# Coordination Sequence:
#
# PCOD9070955 Si02
#       6
#     2   1   2   2   2   2
#     4  12  27  48  75 106 150 198 251 313 372 459
#     4  12  30  48  74 118 156 202 254 314 402 452
#     4  12  25  48  74 110 149 200 250 306 384 457
#     4  12  25  48  77 111 145 196 263 316 370 445
#     4  12  27  47  76 112 157 195 255 318 381 461
#     4  12  27  49  73 106 150 200 248 306 385 446
#
# _framework density 26.052831000000001
#
# number of rings (size 3 to 8) (size 9 to 14) (size 15 to 20)
#    0.000    0.000    1.818    8.727    2.545    5.818 
#    0.000    0.000    0.000    0.000    0.000    0.000 
#    0.000    0.000    0.000    0.000    0.000    0.000 
#
# Total GULP energy -61437.864026 kJ/mol
# GULP energy per Si atom -5585.260366 kJ/mol
# Density = 2.599353 g / cm^3
# Si number density = 26.052831 Si / 1000 Ang^3
#
#
#
# Elastic Constant Matrix: (Units=GPa)
#
#
# Indices 1 2 3 4 5 6 
#
# 1 178.0571 59.7605 57.7272 17.6058 -49.8793 -0.7336
# 2 59.7605 98.5753 18.4732 21.5093 -6.8222 13.6180
# 3 57.7272 18.4732 131.1522 -6.4322 -34.4848 -8.3686
# 4 17.6058 21.5093 -6.4322 43.3745 -3.5367 -10.5924
# 5 -49.8793 -6.8222 -34.4848 -3.5367 46.1390 4.7668
# 6 -0.7336 13.6180 -8.3686 -10.5924 4.7668 59.1818
#
#
#
# Elastic Compliance Matrix: (Units=1/GPa)
#
#
# Indices 1 2 3 4 5 6 
#
# 1 0.010655 -0.005311 -0.001479 -0.001089 0.009526 0.000183
# 2 -0.005311 0.015675 -0.001825 -0.007475 -0.004857 -0.004878
# 3 -0.001479 -0.001825 0.010455 0.004066 0.006038 0.002122
# 4 -0.001089 -0.007475 0.004066 0.029808 0.002273 0.007434
# 5 0.009526 -0.004857 0.006038 0.002273 0.035982 -0.000402
# 6 0.000183 -0.004878 0.002122 0.007434 -0.000402 0.019685
#
#
# Mechanical properties :
#
#
# Convention : Reuss Voigt Hill
#
# Bulk Modulus (GPa) = 51.13617 75.52294 63.32955
# Shear Modulus (GPa) = 34.24473 47.86064 41.05268
#
# Velocity S-wave (km/s) = 3.62945 4.29074 3.97388
# Velocity P-wave (km/s) = 6.10199 7.32111 6.73917
#
# Compressibility (1/GPa) = 0.01955563
#
# Stress axis : x y z
#
# Youngs Moduli (GPa) = 93.85319 63.79606 95.64590
#
# Poissons Ratio (x) = 0.33880 0.14145
# Poissons Ratio (y) = 0.49842 0.17458
# Poissons Ratio (z) = 0.13880 0.11644
#
# Static dielectric constant tensor:
#      x y z
#    x 2.018370 0.029410 0.041570 
#    y 0.029410 2.134010 0.005350 
#    z 0.041570 0.005350 2.011060 
# 
# From -- ./inp_files/177100.got.cif
#   From: 2010.05.17/outbox.cif.g08.bks.cpg/sg2_89_cif.got.tgz:177100.got - 2010.06.03 11:33:40.
