data_PCOD9070984
_publ_section_title
;
Structure prediction by ZEFSAII (Michael W. Deem and Ramdas Pophale) SiO2 
 PCOD9070984
Probable space group: P -1
;
_chemical_formula_sum "Si O2"
_cell_formula_units_Z 16
_cell_length_a 8.092506
_cell_length_b 5.516493
_cell_length_c 15.641046
_cell_angle_alpha 62.587134
_cell_angle_beta 91.053805
_cell_angle_gamma 94.137771
_cell_volume 618.143893
_symmetry_space_group_name_H-M "P -1"
_symmetry_group_IT_number 2
_symmetry_cell_setting 'triclinic'
loop_
_space_group_symop_operation_xyz
x,y,z
-x,-y,-z
loop_
_atom_site_type_symbol
_atom_site_label
_atom_site_fract_x
_atom_site_fract_y
_atom_site_fract_z
Si Si1 0.783855 0.156012 0.113991
Si Si2 0.563227 0.719258 0.867371
Si Si3 0.747984 0.169357 0.916938
Si Si4 0.705768 0.581407 0.292647
Si Si5 0.857777 0.853865 0.581124
Si Si6 0.991628 0.409363 0.212449
Si Si7 0.529219 0.892181 0.650977
Si Si8 0.683070 0.635573 0.467880
O O1 0.626845 0.339988 0.094456
O O2 0.950688 0.285001 0.138980
O O3 0.722967 0.888415 0.210322
O O4 0.800767 0.087996 0.025883
O O5 0.640098 0.433989 0.889934
O O6 0.568916 0.894310 0.750882
O O7 0.654781 0.918612 0.906312
O O8 0.903682 0.303073 0.843762
O O9 0.524692 0.426603 0.316878
O O10 0.770234 0.560832 0.393166
O O11 0.815001 0.436505 0.249076
O O12 0.919098 0.768469 0.688218
O O13 0.687938 0.994195 0.579976
O O14 0.790566 0.609410 0.557145
O O15 0.000000 0.000000 0.500000
O O16 0.369425 0.053283 0.599524
O O17 0.500000 0.500000 0.500000
#
# Coordination Sequence:
#
# PCOD9070984 Si02
#       8
#     2   2   2   2   2   2   2   2
#     4  12  27  50  80 111 157 208 264 313 397 474
#     4  12  26  50  84 115 156 204 267 325 384 467
#     4  12  30  50  81 122 156 206 263 334 390 459
#     4  12  25  48  77 109 150 214 260 314 393 469
#     4  12  27  48  74 112 150 195 262 320 397 465
#     4  12  29  48  74 112 163 202 252 330 395 467
#     4  12  25  49  79 106 157 200 261 327 390 465
#     4  12  27  46  79 107 145 206 262 322 391 466
#
# _framework density 25.883942000000001
#
# number of rings (size 3 to 8) (size 9 to 14) (size 15 to 20)
#    0.000    0.000    5.000    3.750    7.000    2.000 
#    0.000    0.000    0.000    0.000    0.000    0.000 
#    0.000    0.000    0.000    0.000    0.000    0.000 
#
# Total GULP energy -89596.314770 kJ/mol
# GULP energy per Si atom -5599.769673 kJ/mol
# Density = 2.582503 g / cm^3
# Si number density = 25.883942 Si / 1000 Ang^3
#
#
#
# Elastic Constant Matrix: (Units=GPa)
#
#
# Indices 1 2 3 4 5 6 
#
# 1 79.1364 22.0641 23.6598 3.6493 -5.5939 17.6853
# 2 22.0641 104.9193 20.4686 9.9358 19.5298 19.0588
# 3 23.6598 20.4686 132.1197 32.5568 4.1365 13.0084
# 4 3.6493 9.9358 32.5568 58.7520 14.3549 2.8082
# 5 -5.5939 19.5298 4.1365 14.3549 48.4587 5.9925
# 6 17.6853 19.0588 13.0084 2.8082 5.9925 40.2408
#
#
#
# Elastic Compliance Matrix: (Units=1/GPa)
#
#
# Indices 1 2 3 4 5 6 
#
# 1 0.015410 -0.002545 -0.001915 -0.000102 0.003677 -0.005488
# 2 -0.002545 0.011707 -0.000854 -0.000087 -0.004483 -0.003477
# 3 -0.001915 -0.000854 0.009437 -0.005143 0.001039 -0.001600
# 4 -0.000102 -0.000087 -0.005143 0.021300 -0.005990 0.001154
# 5 0.003677 -0.004483 0.001039 -0.005990 0.024940 -0.003124
# 6 -0.005488 -0.003477 -0.001600 0.001154 -0.003124 0.029811
#
#
# Mechanical properties :
#
#
# Convention : Reuss Voigt Hill
#
# Bulk Modulus (GPa) = 38.57129 49.84005 44.20567
# Shear Modulus (GPa) = 37.91517 46.15583 42.03550
#
# Velocity S-wave (km/s) = 3.83144 4.22736 4.03426
# Velocity P-wave (km/s) = 5.87429 6.56692 6.23023
#
# Compressibility (1/GPa) = 0.02592602
#
# Stress axis : x y z
#
# Youngs Moduli (GPa) = 64.89477 85.41758 105.97128
#
# Poissons Ratio (x) = 0.21737 0.20293
# Poissons Ratio (y) = 0.16514 0.09049
# Poissons Ratio (z) = 0.12427 0.07294
#
# Static dielectric constant tensor:
#      x y z
#    x 2.070080 -0.076800 0.068540 
#    y -0.076800 2.136370 -0.035330 
#    z 0.068540 -0.035330 2.035070 
# 
# From -- ./inp_files/488185.got.cif
#   From: 2010.05.17/outbox.cif.g08.bks.cpg/sg2_245_cif.got.tgz:488185.got - 2010.06.03 11:33:40.
