data_PCOD9070457
_publ_section_title
;
Structure prediction by ZEFSAII (Michael W. Deem and Ramdas Pophale) SiO2 
 PCOD9070457
Probable space group: P -1
;
_chemical_formula_sum "Si O2"
_cell_formula_units_Z 11
_cell_length_a 10.976551
_cell_length_b 11.701806
_cell_length_c 9.625284
_cell_angle_alpha 140.793513
_cell_angle_beta 120.135190
_cell_angle_gamma 38.582576
_cell_volume 470.217526
_symmetry_space_group_name_H-M "P -1"
_symmetry_group_IT_number 2
_symmetry_cell_setting 'triclinic'
loop_
_space_group_symop_operation_xyz
x,y,z
-x,-y,-z
loop_
_atom_site_type_symbol
_atom_site_label
_atom_site_fract_x
_atom_site_fract_y
_atom_site_fract_z
Si Si1 0.617513 0.534704 0.306906
Si Si2 0.174883 0.975244 0.535619
Si Si3 0.288555 0.089461 0.979112
Si Si4 0.500000 0.000000 0.500000
Si Si5 0.286282 0.933648 0.116854
Si Si6 0.051613 0.633675 0.478765
O O1 0.388462 0.687118 0.352670
O O2 0.597777 0.744271 0.414321
O O3 0.743976 0.452267 0.442545
O O4 0.717614 0.273487 0.038569
O O5 0.218916 0.071599 0.777126
O O6 0.000000 0.000000 0.500000
O O7 0.097678 0.148583 0.517738
O O8 0.121627 0.380066 0.218119
O O9 0.500000 0.000000 0.000000
O O10 0.310207 0.921691 0.954368
O O11 0.459961 0.887873 0.248279
O O12 0.083342 0.221109 0.323815
#
# Coordination Sequence:
#
# PCOD9070457 Si02
#       6
#     2   2   2   1   2   2
#     4  12  27  50  78 115 158 198 265 326 392 454
#     4  12  28  48  77 116 156 209 258 322 395 474
#     4  12  26  50  79 113 159 211 256 327 391 462
#     4  12  24  48  76 112 150 200 258 324 380 458
#     4  12  27  47  81 113 156 205 259 327 390 465
#     4  12  26  50  77 114 153 203 266 314 392 460
#
# _framework density 23.393429000000001
#
# number of rings (size 3 to 8) (size 9 to 14) (size 15 to 20)
#    0.000    0.000    5.455    3.273    2.545    2.909 
#    0.000    0.000    0.000    0.000    0.000    0.000 
#    0.000    0.000    0.000    0.000    0.000    0.000 
#
# Total GULP energy -61292.739829 kJ/mol
# GULP energy per Si atom -5572.067257 kJ/mol
# Density = 2.334018 g / cm^3
# Si number density = 23.393429 Si / 1000 Ang^3
#
#
#
# Elastic Constant Matrix: (Units=GPa)
#
#
# Indices 1 2 3 4 5 6 
#
# 1 55.8385 25.5179 19.3670 -2.8436 -3.1923 -7.8884
# 2 25.5179 129.7284 45.8786 -21.8258 -1.0406 -12.1053
# 3 19.3670 45.8786 121.8339 7.9245 19.2561 8.6679
# 4 -2.8436 -21.8258 7.9245 44.7978 -3.6872 1.2047
# 5 -3.1923 -1.0406 19.2561 -3.6872 37.0383 2.4927
# 6 -7.8884 -12.1053 8.6679 1.2047 2.4927 33.4084
#
#
#
# Elastic Compliance Matrix: (Units=1/GPa)
#
#
# Indices 1 2 3 4 5 6 
#
# 1 0.021048 -0.002311 -0.003394 0.000954 0.003290 0.004733
# 2 -0.002311 0.011570 -0.005244 0.006559 0.003200 0.004532
# 3 -0.003394 -0.005244 0.012582 -0.005446 -0.007171 -0.005235
# 4 0.000954 0.006559 -0.005446 0.026933 0.005602 0.002626
# 5 0.003290 0.003200 -0.007171 0.005602 0.031575 0.001239
# 6 0.004733 0.004532 -0.005235 0.002626 0.001239 0.033863
#
#
# Mechanical properties :
#
#
# Convention : Reuss Voigt Hill
#
# Bulk Modulus (GPa) = 42.91804 54.32533 48.62169
# Shear Modulus (GPa) = 29.89767 37.49140 33.69453
#
# Velocity S-wave (km/s) = 3.57884 4.00765 3.79930
# Velocity P-wave (km/s) = 5.95512 6.68490 6.33054
#
# Compressibility (1/GPa) = 0.02330022
#
# Stress axis : x y z
#
# Youngs Moduli (GPa) = 47.51139 86.43188 79.47635
#
# Poissons Ratio (x) = 0.19976 0.26976
# Poissons Ratio (y) = 0.10981 0.41680
# Poissons Ratio (z) = 0.16127 0.45327
#
# Static dielectric constant tensor:
#      x y z
#    x 1.410210 -0.226660 0.084600 
#    y -0.226660 1.783320 0.043850 
#    z 0.084600 0.043850 1.805520 
# 
# From -- ./inp_files/255596.got.cif
#   From: 2010.05.17/outbox.cif.g08.bks.cpg/sg2_128_cif.got.tgz:255596.got - 2010.06.03 11:33:40.
