data_PCOD9070393
_publ_section_title
;
Structure prediction by ZEFSAII (Michael W. Deem and Ramdas Pophale) SiO2 
 PCOD9070393
Probable space group: P -1
;
_chemical_formula_sum "Si O2"
_cell_formula_units_Z 13
_cell_length_a 12.304428
_cell_length_b 8.481976
_cell_length_c 7.742564
_cell_angle_alpha 52.316980
_cell_angle_beta 60.382215
_cell_angle_gamma 51.571108
_cell_volume 492.390519
_symmetry_space_group_name_H-M "P -1"
_symmetry_group_IT_number 2
_symmetry_cell_setting 'triclinic'
loop_
_space_group_symop_operation_xyz
x,y,z
-x,-y,-z
loop_
_atom_site_type_symbol
_atom_site_label
_atom_site_fract_x
_atom_site_fract_y
_atom_site_fract_z
Si Si1 0.857415 0.497216 0.061562
Si Si2 0.596713 0.900286 0.158948
Si Si3 0.093296 0.301677 0.432608
Si Si4 0.795277 0.160157 0.182736
Si Si5 0.507353 0.609914 0.605025
Si Si6 0.000000 0.000000 0.500000
Si Si7 0.757929 0.182117 0.830158
O O1 0.827859 0.607308 0.820271
O O2 0.729037 0.658821 0.171636
O O3 0.877525 0.241473 0.203450
O O4 0.000000 0.500000 0.000000
O O5 0.511197 0.841118 0.407158
O O6 0.500000 0.000000 0.000000
O O7 0.661482 0.064940 0.040588
O O8 0.000000 0.500000 0.500000
O O9 0.187631 0.079234 0.615904
O O10 0.994634 0.220802 0.459291
O O11 0.633216 0.342709 0.212639
O O12 0.846141 0.159456 0.949442
O O13 0.500000 0.500000 0.500000
O O14 0.649313 0.436050 0.701913
O O15 0.152911 0.949131 0.317294
#
# Coordination Sequence:
#
# PCOD9070393 Si02
#       7
#     2   2   2   2   2   1   2
#     4  12  27  47  80 111 155 209 263 325 401 475
#     4  12  25  46  77 111 148 205 263 316 391 472
#     4  12  28  47  76 112 158 206 262 322 404 477
#     4  12  28  51  76 117 162 202 267 338 397 480
#     4  12  24  47  82 111 152 211 268 322 395 478
#     4  12  26  50  78 112 158 206 266 322 404 482
#     4  12  28  47  79 115 159 207 261 332 403 475
#
# _framework density 26.401807999999999
#
# number of rings (size 3 to 8) (size 9 to 14) (size 15 to 20)
#    0.000    0.000    4.615    4.154    4.308    3.077 
#    0.000    0.000    0.000    0.000    0.000    0.000 
#    0.000    0.000    0.000    0.000    0.000    0.000 
#
# Total GULP energy -72805.425215 kJ/mol
# GULP energy per Si atom -5600.417324 kJ/mol
# Density = 2.634172 g / cm^3
# Si number density = 26.401808 Si / 1000 Ang^3
#
#
#
# Elastic Constant Matrix: (Units=GPa)
#
#
# Indices 1 2 3 4 5 6 
#
# 1 94.2319 31.9996 11.0083 2.5067 1.2433 3.2626
# 2 31.9996 134.2948 24.3459 -1.3143 5.3263 0.8119
# 3 11.0083 24.3459 132.7996 -6.3472 -7.1328 9.0480
# 4 2.5067 -1.3143 -6.3472 52.3952 4.7461 0.5870
# 5 1.2433 5.3263 -7.1328 4.7461 44.8554 -6.3219
# 6 3.2626 0.8119 9.0480 0.5870 -6.3219 54.7534
#
#
#
# Elastic Compliance Matrix: (Units=1/GPa)
#
#
# Indices 1 2 3 4 5 6 
#
# 1 0.011617 -0.002683 -0.000468 -0.000665 -0.000089 -0.000578
# 2 -0.002683 0.008382 -0.001371 0.000275 -0.001150 0.000126
# 3 -0.000468 -0.001371 0.008004 0.000862 0.001196 -0.001146
# 4 -0.000665 0.000275 0.000862 0.019417 -0.002009 -0.000547
# 5 -0.000089 -0.001150 0.001196 -0.002009 0.023191 0.002524
# 6 -0.000578 0.000126 -0.001146 -0.000547 0.002524 0.018783
#
#
# Mechanical properties :
#
#
# Convention : Reuss Voigt Hill
#
# Bulk Modulus (GPa) = 52.74972 55.11489 53.93231
# Shear Modulus (GPa) = 47.72932 49.99898 48.86415
#
# Velocity S-wave (km/s) = 4.25644 4.35647 4.30675
# Velocity P-wave (km/s) = 6.64676 6.79896 6.72329
#
# Compressibility (1/GPa) = 0.01895744
#
# Stress axis : x y z
#
# Youngs Moduli (GPa) = 86.08304 119.30767 124.93930
#
# Poissons Ratio (x) = 0.32005 0.05851
# Poissons Ratio (y) = 0.23093 0.17135
# Poissons Ratio (z) = 0.04032 0.16363
#
# Static dielectric constant tensor:
#      x y z
#    x 2.004040 0.051790 -0.082190 
#    y 0.051790 1.944330 -0.010180 
#    z -0.082190 -0.010180 2.027770 
# 
# From -- ./inp_files/236494.got.cif
#   From: 2010.05.17/outbox.cif.g08.bks.cpg/sg2_119_cif.got.tgz:236494.got - 2010.06.03 11:33:40.
