data_PCOD9070220
_publ_section_title
;
Structure prediction by ZEFSAII (Michael W. Deem and Ramdas Pophale) SiO2 
 PCOD9070220
Probable space group: P -1
;
_chemical_formula_sum "Si O2"
_cell_formula_units_Z 16
_cell_length_a 9.311967
_cell_length_b 6.702091
_cell_length_c 20.752613
_cell_angle_alpha 107.504480
_cell_angle_beta 48.232326
_cell_angle_gamma 129.616728
_cell_volume 726.608924
_symmetry_space_group_name_H-M "P -1"
_symmetry_group_IT_number 2
_symmetry_cell_setting 'triclinic'
loop_
_space_group_symop_operation_xyz
x,y,z
-x,-y,-z
loop_
_atom_site_type_symbol
_atom_site_label
_atom_site_fract_x
_atom_site_fract_y
_atom_site_fract_z
Si Si1 0.248753 0.210838 0.533885
Si Si2 0.218097 0.974564 0.655915
Si Si3 0.746052 0.223111 0.572592
Si Si4 0.961184 0.819401 0.163262
Si Si5 0.655736 0.089843 0.852011
Si Si6 0.232731 0.499735 0.925742
Si Si7 0.901432 0.347470 0.670529
Si Si8 0.306079 0.239191 0.992490
O O1 0.500000 0.500000 0.500000
O O2 0.062997 0.273605 0.582988
O O3 0.177729 0.047810 0.605430
O O4 0.256776 0.030341 0.462110
O O5 0.069084 0.656885 0.670201
O O6 0.507484 0.135556 0.595622
O O7 0.123674 0.071277 0.747853
O O8 0.715445 0.272812 0.661007
O O9 0.000000 0.500000 0.500000
O O10 0.755062 0.569388 0.158543
O O11 0.134729 0.766909 0.142276
O O12 0.109229 0.032619 0.082972
O O13 0.780468 0.174220 0.753576
O O14 0.462691 0.147404 0.913266
O O15 0.490359 0.781445 0.889208
O O16 0.205540 0.304826 0.969256
O O17 0.000000 0.500000 0.000000
O O18 0.500000 0.500000 0.000000
#
# Coordination Sequence:
#
# PCOD9070220 Si02
#       8
#     2   2   2   2   2   2   2   2
#     4  12  24  49  76 104 147 193 244 302 376 445
#     4  12  27  48  71 112 152 185 244 312 371 439
#     4  12  26  47  80 106 147 197 244 302 377 452
#     4  12  26  47  73 105 149 196 242 306 372 434
#     4  12  27  47  71 108 145 194 250 300 363 440
#     4  12  27  46  73 107 146 194 252 299 360 445
#     4  12  27  46  75 109 147 192 247 311 365 438
#     4  12  24  46  76 100 147 197 237 297 371 433
#
# _framework density 22.020099999999999
#
# number of rings (size 3 to 8) (size 9 to 14) (size 15 to 20)
#    0.000    0.000    6.250    3.750    1.750    3.000 
#    0.000    0.000    0.000    0.000    0.000    0.000 
#    0.000    0.000    0.000    0.000    0.000    0.000 
#
# Total GULP energy -89499.860796 kJ/mol
# GULP energy per Si atom -5593.741300 kJ/mol
# Density = 2.196998 g / cm^3
# Si number density = 22.020100 Si / 1000 Ang^3
#
#
#
# Elastic Constant Matrix: (Units=GPa)
#
#
# Indices 1 2 3 4 5 6 
#
# 1 101.8364 18.9030 20.9344 9.4565 21.9616 -4.6934
# 2 18.9030 75.5443 19.5197 5.0908 -6.3435 -0.7827
# 3 20.9344 19.5197 74.4558 4.8435 10.0087 -5.3558
# 4 9.4565 5.0908 4.8435 34.5451 -2.6226 7.6202
# 5 21.9616 -6.3435 10.0087 -2.6226 38.2019 1.0923
# 6 -4.6934 -0.7827 -5.3558 7.6202 1.0923 37.8731
#
#
#
# Elastic Compliance Matrix: (Units=1/GPa)
#
#
# Indices 1 2 3 4 5 6 
#
# 1 0.012885 -0.003272 -0.001263 -0.003998 -0.007963 0.002385
# 2 -0.003272 0.015543 -0.003930 -0.000262 0.005495 -0.000746
# 3 -0.001263 -0.003930 0.015713 -0.002163 -0.004264 0.002542
# 4 -0.003998 -0.000262 -0.002163 0.032435 0.005262 -0.007484
# 5 -0.007963 0.005495 -0.004264 0.005262 0.033245 -0.003494
# 6 0.002385 -0.000746 0.002542 -0.007484 -0.003494 0.028650
#
#
# Mechanical properties :
#
#
# Convention : Reuss Voigt Hill
#
# Bulk Modulus (GPa) = 36.75060 41.17233 38.96146
# Shear Modulus (GPa) = 30.40038 34.95597 32.67818
#
# Velocity S-wave (km/s) = 3.71964 3.98861 3.85647
# Velocity P-wave (km/s) = 5.93072 6.32062 6.12877
#
# Compressibility (1/GPa) = 0.02721044
#
# Stress axis : x y z
#
# Youngs Moduli (GPa) = 77.60932 64.33803 63.64145
#
# Poissons Ratio (x) = 0.21053 0.08038
# Poissons Ratio (y) = 0.25396 0.25011
# Poissons Ratio (z) = 0.09802 0.25285
#
# Static dielectric constant tensor:
#      x y z
#    x 1.812080 -0.012400 -0.016380 
#    y -0.012400 1.868010 0.036960 
#    z -0.016380 0.036960 1.783880 
# 
# From -- ./inp_files/340117.got.cif
#   From: 2010.05.17/outbox.cif.g08.bks.cpg/sg2_171_cif.got.tgz:340117.got - 2010.06.03 11:33:40.
