data_PCOD9070129
_publ_section_title
;
Structure prediction by ZEFSAII (Michael W. Deem and Ramdas Pophale) SiO2 
 PCOD9070129
Probable space group: P -1
;
_chemical_formula_sum "Si O2"
_cell_formula_units_Z 12
_cell_length_a 8.949713
_cell_length_b 10.382284
_cell_length_c 8.646049
_cell_angle_alpha 57.084094
_cell_angle_beta 132.172020
_cell_angle_gamma 97.358518
_cell_volume 462.226855
_symmetry_space_group_name_H-M "P -1"
_symmetry_group_IT_number 2
_symmetry_cell_setting 'triclinic'
loop_
_space_group_symop_operation_xyz
x,y,z
-x,-y,-z
loop_
_atom_site_type_symbol
_atom_site_label
_atom_site_fract_x
_atom_site_fract_y
_atom_site_fract_z
Si Si1 0.961130 0.851998 0.982807
Si Si2 0.381875 0.256141 0.682123
Si Si3 0.186872 0.851998 0.813196
Si Si4 0.361984 0.256139 0.305598
Si Si5 0.695879 0.425331 0.417945
Si Si6 0.878788 0.425332 0.231392
O O1 0.715716 0.870138 0.761422
O O2 0.086272 0.827458 0.922542
O O3 0.076942 0.694670 0.273929
O O4 0.000000 0.000000 0.000000
O O5 0.391932 0.216130 0.533869
O O6 0.410344 0.430555 0.624686
O O7 0.128931 0.308135 0.515901
O O8 0.585852 0.129863 0.001696
O O9 0.228388 0.694670 0.836729
O O10 0.000000 0.000000 0.500000
O O11 0.562935 0.308131 0.367835
O O12 0.159103 0.430553 0.014206
O O13 0.750843 0.498309 0.251690
#
# Coordination Sequence:
#
# PCOD9070129 Si02
#       6
#     2   2   2   2   2   2
#     4  12  27  49  72 104 151 197 250 306 366 437
#     4  12  24  45  77 108 146 196 244 300 365 433
#     4  12  27  49  72 104 151 197 250 306 366 437
#     4  12  24  45  77 108 146 196 244 300 365 433
#     4  12  25  44  76 116 150 187 246 304 363 437
#     4  12  25  44  76 116 150 187 246 304 363 437
#
# _framework density 25.961279000000001
#
# number of rings (size 3 to 8) (size 9 to 14) (size 15 to 20)
#    0.000    0.000    6.667    4.000    0.000    1.333 
#    0.000    0.000    0.000    0.000    0.000    0.000 
#    0.000    0.000    0.000    0.000    0.000    0.000 
#
# Total GULP energy -67190.664869 kJ/mol
# GULP energy per Si atom -5599.222072 kJ/mol
# Density = 2.590219 g / cm^3
# Si number density = 25.961279 Si / 1000 Ang^3
#
#
#
# Elastic Constant Matrix: (Units=GPa)
#
#
# Indices 1 2 3 4 5 6 
#
# 1 91.7596 9.6499 22.3672 30.5399 3.8600 7.4064
# 2 9.6499 142.4343 39.8968 50.8068 5.0684 20.5704
# 3 22.3672 39.8968 170.4599 46.7728 26.4072 4.2492
# 4 30.5399 50.8068 46.7728 48.7741 12.4483 14.0953
# 5 3.8600 5.0684 26.4072 12.4483 47.6830 22.2479
# 6 7.4064 20.5704 4.2492 14.0953 22.2479 39.1045
#
#
#
# Elastic Compliance Matrix: (Units=1/GPa)
#
#
# Indices 1 2 3 4 5 6 
#
# 1 0.015198 0.004111 0.000785 -0.014821 0.002268 -0.001075
# 2 0.004111 0.012878 0.000325 -0.016185 0.004305 -0.004204
# 3 0.000785 0.000325 0.008949 -0.009599 -0.004846 0.004925
# 4 -0.014821 -0.016185 -0.009599 0.058766 -0.004072 -0.006501
# 5 0.002268 0.004305 -0.004846 -0.004072 0.033223 -0.019602
# 6 -0.001075 -0.004204 0.004925 -0.006501 -0.019602 0.040948
#
#
# Mechanical properties :
#
#
# Convention : Reuss Voigt Hill
#
# Bulk Modulus (GPa) = 21.06590 60.94238 41.00414
# Shear Modulus (GPa) = 28.51582 49.29500 38.90541
#
# Velocity S-wave (km/s) = 3.31780 4.36224 3.87537
# Velocity P-wave (km/s) = 4.77588 6.99267 5.98776
#
# Compressibility (1/GPa) = 0.04747008
#
# Stress axis : x y z
#
# Youngs Moduli (GPa) = 65.79712 77.64953 111.74263
#
# Poissons Ratio (x) = -0.31925 -0.08777
# Poissons Ratio (y) = -0.27052 -0.03634
# Poissons Ratio (z) = -0.05168 -0.02526
#
# Static dielectric constant tensor:
#      x y z
#    x 1.961870 0.039860 0.058860 
#    y 0.039860 2.090760 -0.028260 
#    z 0.058860 -0.028260 2.073780 
# 
# From -- ./inp_files/153362.got.cif
#   From: 2010.05.17/outbox.cif.g08.bks.cpg/sg2_77_cif.got.tgz:153362.got - 2010.06.03 11:33:40.
