data_PCOD9070839
_publ_section_title
;
Structure prediction by ZEFSAII (Michael W. Deem and Ramdas Pophale) SiO2 
 PCOD9070839
Probable space group: P -1
;
_chemical_formula_sum "Si O2"
_cell_formula_units_Z 15
_cell_length_a 11.404917
_cell_length_b 20.913852
_cell_length_c 4.899498
_cell_angle_alpha 114.883749
_cell_angle_beta 76.019150
_cell_angle_gamma 148.716718
_cell_volume 532.946045
_symmetry_space_group_name_H-M "P -1"
_symmetry_group_IT_number 2
_symmetry_cell_setting 'triclinic'
loop_
_space_group_symop_operation_xyz
x,y,z
-x,-y,-z
loop_
_atom_site_type_symbol
_atom_site_label
_atom_site_fract_x
_atom_site_fract_y
_atom_site_fract_z
Si Si1 0.500000 0.500000 0.500000
Si Si2 0.962128 0.388022 0.315507
Si Si3 0.307066 0.843039 0.331547
Si Si4 0.520420 0.258247 0.245254
Si Si5 0.002049 0.216283 0.237266
Si Si6 0.706625 0.455084 0.092246
Si Si7 0.680206 0.956432 0.671680
Si Si8 0.923405 0.893088 0.679448
O O1 0.241494 0.365130 0.252702
O O2 0.579442 0.464743 0.244815
O O3 0.801744 0.243117 0.036576
O O4 0.182682 0.494931 0.177914
O O5 0.782611 0.363155 0.346131
O O6 0.066458 0.436513 0.643535
O O7 0.099983 0.778696 0.488184
O O8 0.500000 0.000000 0.500000
O O9 0.449682 0.853338 0.435061
O O10 0.548762 0.310588 0.030198
O O11 0.349728 0.228502 0.445792
O O12 0.387055 0.119549 0.155175
O O13 0.069183 0.177725 0.293176
O O14 0.797986 0.088854 0.925187
O O15 0.889590 0.021485 0.513634
O O16 0.000000 0.000000 0.000000
#
# Coordination Sequence:
#
# PCOD9070839 Si02
#       8
#     1   2   2   2   2   2   2   2
#     4  12  28  52  78 118 164 218 268 336 400 496
#     4  12  28  52  78 117 164 213 274 328 406 486
#     4  12  25  47  78 116 155 206 270 333 404 479
#     4  12  26  48  78 115 155 213 268 336 401 483
#     4  12  26  50  75 113 158 211 265 332 410 480
#     4  12  29  52  81 115 164 215 273 330 406 489
#     4  12  27  48  82 114 157 213 268 346 401 489
#     4  12  25  47  72 116 157 198 268 330 412 474
#
# _framework density 28.145440000000001
#
# number of rings (size 3 to 8) (size 9 to 14) (size 15 to 20)
#    0.000    0.000    5.333    4.000    1.867    3.733 
#    0.000    0.000    0.000    0.000    0.000    0.000 
#    0.000    0.000    0.000    0.000    0.000    0.000 
#
# Total GULP energy -83804.076432 kJ/mol
# GULP energy per Si atom -5586.938429 kJ/mol
# Density = 2.808138 g / cm^3
# Si number density = 28.145440 Si / 1000 Ang^3
#
#
#
# Elastic Constant Matrix: (Units=GPa)
#
#
# Indices 1 2 3 4 5 6 
#
# 1 157.4473 46.8081 23.1536 -8.8470 -25.3338 28.7542
# 2 46.8081 157.7814 15.4896 7.6671 -1.1143 13.6905
# 3 23.1536 15.4896 96.0623 11.1975 -15.6714 2.8497
# 4 -8.8470 7.6671 11.1975 36.2091 11.5046 -3.0413
# 5 -25.3338 -1.1143 -15.6714 11.5046 57.6556 6.8333
# 6 28.7542 13.6905 2.8497 -3.0413 6.8333 71.4176
#
#
#
# Elastic Compliance Matrix: (Units=1/GPa)
#
#
# Indices 1 2 3 4 5 6 
#
# 1 0.008375 -0.002141 -0.001206 0.001532 0.003381 -0.003171
# 2 -0.002141 0.007149 -0.000503 -0.001757 -0.000528 -0.000512
# 3 -0.001206 -0.000503 0.012019 -0.005157 0.003813 -0.000482
# 4 0.001532 -0.001757 -0.005157 0.032508 -0.007489 0.002027
# 5 0.003381 -0.000528 0.003813 -0.007489 0.021803 -0.003817
# 6 -0.003171 -0.000512 -0.000482 0.002027 -0.003817 0.015848
#
#
# Mechanical properties :
#
#
# Convention : Reuss Voigt Hill
#
# Bulk Modulus (GPa) = 50.39876 64.68816 57.54346
# Shear Modulus (GPa) = 44.63626 54.77908 49.70767
#
# Velocity S-wave (km/s) = 3.98667 4.41646 4.20706
# Velocity P-wave (km/s) = 6.25595 7.00287 6.63992
#
# Compressibility (1/GPa) = 0.01984176
#
# Stress axis : x y z
#
# Youngs Moduli (GPa) = 119.40905 139.88726 83.19965
#
# Poissons Ratio (x) = 0.29956 0.10036
# Poissons Ratio (y) = 0.25571 0.04183
# Poissons Ratio (z) = 0.14403 0.07033
#
# Static dielectric constant tensor:
#      x y z
#    x 2.201180 -0.094310 0.003930 
#    y -0.094310 2.356980 0.154260 
#    z 0.003930 0.154260 2.299330 
# 
# From -- ./inp_files/84104.got.cif
#   From: 2010.05.17/outbox.cif.g08.bks.cpg/sg2_43_cif.got.tgz:84104.got - 2010.06.03 11:33:40.
