data_PCOD9070427
_publ_section_title
;
Structure prediction by ZEFSAII (Michael W. Deem and Ramdas Pophale) SiO2 
 PCOD9070427
Probable space group: P -1
;
_chemical_formula_sum "Si O2"
_cell_formula_units_Z 16
_cell_length_a 8.941128
_cell_length_b 15.310234
_cell_length_c 9.605071
_cell_angle_alpha 67.620184
_cell_angle_beta 77.858250
_cell_angle_gamma 34.041981
_cell_volume 666.417368
_symmetry_space_group_name_H-M "P -1"
_symmetry_group_IT_number 2
_symmetry_cell_setting 'triclinic'
loop_
_space_group_symop_operation_xyz
x,y,z
-x,-y,-z
loop_
_atom_site_type_symbol
_atom_site_label
_atom_site_fract_x
_atom_site_fract_y
_atom_site_fract_z
Si Si1 0.461046 0.923306 0.132998
Si Si2 0.390145 0.137170 0.538135
Si Si3 0.958411 0.570483 0.114014
Si Si4 0.828726 0.042615 0.379329
Si Si5 0.361965 0.659552 0.505107
Si Si6 0.644444 0.456656 0.856055
Si Si7 0.121140 0.512962 0.575097
Si Si8 0.892980 0.133157 0.046381
O O1 0.531902 0.902953 0.291495
O O2 0.652578 0.757099 0.104967
O O3 0.154627 0.046286 0.117363
O O4 0.500000 0.000000 0.000000
O O5 0.061683 0.301152 0.516546
O O6 0.500000 0.000000 0.500000
O O7 0.549434 0.145404 0.435362
O O8 0.143258 0.566844 0.128430
O O9 0.984870 0.467655 0.269831
O O10 0.000000 0.500000 0.000000
O O11 0.053400 0.846559 0.417280
O O12 0.760702 0.143723 0.197379
O O13 0.000000 0.000000 0.500000
O O14 0.500000 0.500000 0.500000
O O15 0.442039 0.599431 0.688861
O O16 0.561766 0.640191 0.421431
O O17 0.500000 0.500000 0.000000
O O18 0.759327 0.292109 0.896032
O O19 0.000000 0.500000 0.500000
O O20 0.000000 0.000000 0.000000
#
# Coordination Sequence:
#
# PCOD9070427 Si02
#       8
#     2   2   2   2   2   2   2   2
#     4  12  26  49  72 105 153 190 244 310 366 442
#     4  12  28  46  78 110 146 195 251 307 375 443
#     4  12  29  48  77 107 148 201 248 304 377 442
#     4  12  25  47  73 106 146 191 246 303 366 439
#     4  12  26  47  76 105 146 194 245 304 373 440
#     4  12  28  47  70 109 153 189 245 309 367 447
#     4  12  24  48  74 103 147 194 249 307 365 436
#     4  12  28  46  76 107 151 198 243 303 381 441
#
# _framework density 24.008977000000002
#
# number of rings (size 3 to 8) (size 9 to 14) (size 15 to 20)
#    0.000    0.000    5.000    3.750    8.750    0.000 
#    0.000    0.000    0.000    0.000    0.000    0.000 
#    0.000    0.000    0.000    0.000    0.000    0.000 
#
# Total GULP energy -89287.312408 kJ/mol
# GULP energy per Si atom -5580.457025 kJ/mol
# Density = 2.395433 g / cm^3
# Si number density = 24.008977 Si / 1000 Ang^3
#
#
#
# Elastic Constant Matrix: (Units=GPa)
#
#
# Indices 1 2 3 4 5 6 
#
# 1 53.0038 -0.4651 20.9854 1.0332 -32.3238 5.3785
# 2 -0.4651 106.8545 11.4506 3.6520 6.9274 7.5763
# 3 20.9854 11.4506 157.0498 24.7554 -20.2346 -2.3784
# 4 1.0332 3.6520 24.7554 47.6666 -0.2108 6.4050
# 5 -32.3238 6.9274 -20.2346 -0.2108 24.9581 12.6425
# 6 5.3785 7.5763 -2.3784 6.4050 12.6425 50.9104
#
#
#
# Elastic Compliance Matrix: (Units=1/GPa)
#
#
# Indices 1 2 3 4 5 6 
#
# 1 -1.511898 0.111820 -0.106087 -0.032643 -2.456466 0.752244
# 2 0.111820 0.001473 0.006716 0.002331 0.178403 -0.056314
# 3 -0.106087 0.006716 0.000530 -0.006215 -0.165249 0.052051
# 4 -0.032643 0.002331 -0.006215 0.022677 -0.054621 0.013522
# 5 -2.456466 0.178403 -0.165249 -0.054621 -3.938291 1.210105
# 6 0.752244 -0.056314 0.052051 0.013522 1.210105 -0.351221
#
#
# Mechanical properties :
#
#
# Convention : Reuss Voigt Hill
#
# Bulk Modulus (GPa) = -0.67340 42.31668 20.82164
# Shear Modulus (GPa) = -0.79408 43.70282 21.45437
#
# Velocity S-wave (km/s) = -0.57573 4.27109 2.99255
# Velocity P-wave (km/s) = 0.85031 6.47970 4.54222
#
# Compressibility (1/GPa) = -1.48499578
#
# Stress axis : x y z
#
# Youngs Moduli (GPa) = -0.66142 678.98507 1885.44595
#
# Poissons Ratio (x) = -75.92410 200.02125
# Poissons Ratio (y) = 0.07396 -12.66338
# Poissons Ratio (z) = -0.07017 -4.56032
#
# Static dielectric constant tensor:
#      x y z
#    x 1.984870 0.242330 -0.223490 
#    y 0.242330 2.215200 -0.321800 
#    z -0.223490 -0.321800 2.121590 
# 
# From -- ./inp_files/206310.got.cif
#   From: 2010.05.17/outbox.cif.g08.bks.cpg/sg2_104_cif.got.tgz:206310.got - 2010.06.03 11:33:40.
