data_PCOD9070440
_publ_section_title
;
Structure prediction by ZEFSAII (Michael W. Deem and Ramdas Pophale) SiO2 
 PCOD9070440
Probable space group: P -1
;
_chemical_formula_sum "Si O2"
_cell_formula_units_Z 14
_cell_length_a 18.647642
_cell_length_b 10.993105
_cell_length_c 18.390963
_cell_angle_alpha 22.506916
_cell_angle_beta 156.846683
_cell_angle_gamma 146.432867
_cell_volume 564.150378
_symmetry_space_group_name_H-M "P -1"
_symmetry_group_IT_number 2
_symmetry_cell_setting 'triclinic'
loop_
_space_group_symop_operation_xyz
x,y,z
-x,-y,-z
loop_
_atom_site_type_symbol
_atom_site_label
_atom_site_fract_x
_atom_site_fract_y
_atom_site_fract_z
Si Si1 0.583864 0.195244 0.289323
Si Si2 0.312095 0.811527 0.001570
Si Si3 0.990398 0.461522 0.887002
Si Si4 0.432461 0.788213 0.489617
Si Si5 0.954171 0.285123 0.643451
Si Si6 0.085197 0.459410 0.383182
Si Si7 0.607291 0.771606 0.413396
O O1 0.733913 0.288118 0.434593
O O2 0.446093 0.993585 0.315427
O O3 0.669669 0.980280 0.422171
O O4 0.500000 0.500000 0.000000
O O5 0.438350 0.544887 0.219921
O O6 0.453783 0.931880 0.126010
O O7 0.151312 0.617882 0.992861
O O8 0.201952 0.115385 0.692407
O O9 0.039797 0.519173 0.816453
O O10 0.789976 0.639536 0.614765
O O11 0.981551 0.088927 0.098759
O O12 0.230453 0.708156 0.363236
O O13 0.500000 0.000000 0.500000
O O14 0.011605 0.435286 0.689668
O O15 0.000000 0.500000 0.500000
O O16 0.500000 0.500000 0.500000
#
# Coordination Sequence:
#
# PCOD9070440 Si02
#       7
#     2   2   2   2   2   2   2
#     4  12  27  48  74 113 146 197 249 305 378 445
#     4  12  26  49  75 112 149 194 255 308 374 439
#     4  12  27  50  77 108 152 198 252 311 378 441
#     4  12  24  48  75 106 151 194 246 309 368 442
#     4  12  29  48  73 112 153 197 249 313 376 448
#     4  12  26  49  78 109 149 201 250 313 373 448
#     4  12  26  46  76 110 150 198 249 309 375 445
#
# _framework density 24.816077
#
# number of rings (size 3 to 8) (size 9 to 14) (size 15 to 20)
#    0.000    0.000    5.714    2.143    8.000    1.143 
#    0.000    0.000    0.000    0.000    0.000    0.000 
#    0.000    0.000    0.000    0.000    0.000    0.000 
#
# Total GULP energy -78456.713267 kJ/mol
# GULP energy per Si atom -5604.050948 kJ/mol
# Density = 2.475959 g / cm^3
# Si number density = 24.816077 Si / 1000 Ang^3
#
#
#
# Elastic Constant Matrix: (Units=GPa)
#
#
# Indices 1 2 3 4 5 6 
#
# 1 122.2248 27.5893 23.0606 -17.1083 -10.6935 0.5456
# 2 27.5893 66.6669 20.5302 2.8063 -3.1890 3.1005
# 3 23.0606 20.5302 94.6325 -13.6214 -24.1869 3.0431
# 4 -17.1083 2.8063 -13.6214 46.2510 9.8941 -1.2104
# 5 -10.6935 -3.1890 -24.1869 9.8941 33.1076 0.5597
# 6 0.5456 3.1005 3.0431 -1.2104 0.5597 42.2937
#
#
#
# Elastic Compliance Matrix: (Units=1/GPa)
#
#
# Indices 1 2 3 4 5 6 
#
# 1 0.009786 -0.003918 -0.000744 0.003384 0.001223 0.000295
# 2 -0.003918 0.017893 -0.003688 -0.003392 -0.001205 -0.001077
# 3 -0.000744 -0.003688 0.014228 0.002157 0.009168 -0.000803
# 4 0.003384 -0.003392 0.002157 0.024825 -0.005091 0.000828
# 5 0.001223 -0.001205 0.009168 -0.005091 0.038724 -0.001245
# 6 0.000295 -0.001077 -0.000803 0.000828 -0.001245 0.023817
#
#
# Mechanical properties :
#
#
# Convention : Reuss Voigt Hill
#
# Bulk Modulus (GPa) = 39.67529 47.32048 43.49789
# Shear Modulus (GPa) = 32.38846 38.48674 35.43760
#
# Velocity S-wave (km/s) = 3.61659 3.94239 3.78300
# Velocity P-wave (km/s) = 5.78464 6.31135 6.05373
#
# Compressibility (1/GPa) = 0.02520460
#
# Stress axis : x y z
#
# Youngs Moduli (GPa) = 102.18711 55.88914 70.28287
#
# Poissons Ratio (x) = 0.21899 0.05232
# Poissons Ratio (y) = 0.40040 0.25923
# Poissons Ratio (z) = 0.07606 0.20614
#
# Static dielectric constant tensor:
#      x y z
#    x 2.030260 -0.055340 -0.012690 
#    y -0.055340 1.984350 -0.022870 
#    z -0.012690 -0.022870 1.983000 
# 
# From -- ./inp_files/222051.got.cif
#   From: 2010.05.17/outbox.cif.g08.bks.cpg/sg2_112_cif.got.tgz:222051.got - 2010.06.03 11:33:40.
