data_PCOD9070377
_publ_section_title
;
Structure prediction by ZEFSAII (Michael W. Deem and Ramdas Pophale) SiO2 
 PCOD9070377
Probable space group: P -1
;
_chemical_formula_sum "Si O2"
_cell_formula_units_Z 14
_cell_length_a 15.585005
_cell_length_b 22.108784
_cell_length_c 12.444768
_cell_angle_alpha 151.772157
_cell_angle_beta 37.564879
_cell_angle_gamma 161.898515
_cell_volume 600.147781
_symmetry_space_group_name_H-M "P -1"
_symmetry_group_IT_number 2
_symmetry_cell_setting 'triclinic'
loop_
_space_group_symop_operation_xyz
x,y,z
-x,-y,-z
loop_
_atom_site_type_symbol
_atom_site_label
_atom_site_fract_x
_atom_site_fract_y
_atom_site_fract_z
Si Si1 0.353574 0.347581 0.516630
Si Si2 0.943493 0.336979 0.388448
Si Si3 0.194858 0.501206 0.632527
Si Si4 0.284830 0.841519 0.065848
Si Si5 0.275819 0.491367 0.988085
Si Si6 0.156457 0.245795 0.918881
Si Si7 0.365378 0.014204 0.477519
O O1 0.500000 0.500000 0.500000
O O2 0.548739 0.396104 0.456439
O O3 0.381988 0.498945 0.793189
O O4 0.039446 0.036068 0.316567
O O5 0.614202 0.104194 0.387391
O O6 0.000000 0.500000 0.500000
O O7 0.118065 0.468960 0.533899
O O8 0.020032 0.261142 0.139830
O O9 0.301774 0.719692 0.917473
O O10 0.921859 0.241527 0.569091
O O11 0.969040 0.607928 0.964407
O O12 0.325204 0.980352 0.334900
O O13 0.500000 0.000000 0.000000
O O14 0.133526 0.270086 0.856401
O O15 0.503078 0.750068 0.238091
O O16 0.500000 0.500000 0.000000
#
# Coordination Sequence:
#
# PCOD9070377 Si02
#       7
#     2   2   2   2   2   2   2
#     4  12  30  51  75 113 159 209 266 319 389 470
#     4  12  24  47  78 117 151 199 262 323 390 472
#     4  12  26  48  76 110 160 203 257 329 395 462
#     4  12  26  46  79 109 153 202 263 326 390 465
#     4  12  27  49  76 111 155 199 263 324 388 474
#     4  12  28  49  78 111 155 207 262 319 393 464
#     4  12  26  45  78 116 153 200 258 319 402 453
#
# _framework density 23.327587999999999
#
# number of rings (size 3 to 8) (size 9 to 14) (size 15 to 20)
#    0.000    0.000    2.857    6.429    6.000    0.571 
#    0.000    0.000    0.000    0.000    0.000    0.000 
#    0.000    0.000    0.000    0.000    0.000    0.000 
#
# Total GULP energy -78298.925214 kJ/mol
# GULP energy per Si atom -5592.780372 kJ/mol
# Density = 2.327449 g / cm^3
# Si number density = 23.327588 Si / 1000 Ang^3
#
#
#
# Elastic Constant Matrix: (Units=GPa)
#
#
# Indices 1 2 3 4 5 6 
#
# 1 93.4057 24.8042 38.7401 -5.4889 15.2342 5.9742
# 2 24.8042 123.2282 65.7719 -2.9372 6.1598 -4.0061
# 3 38.7401 65.7719 147.1925 -3.3377 20.6743 -24.5941
# 4 -5.4889 -2.9372 -3.3377 43.1195 -1.4415 1.5455
# 5 15.2342 6.1598 20.6743 -1.4415 40.7685 -10.4398
# 6 5.9742 -4.0061 -24.5941 1.5455 -10.4398 50.0216
#
#
#
# Elastic Compliance Matrix: (Units=1/GPa)
#
#
# Indices 1 2 3 4 5 6 
#
# 1 0.013292 -0.000870 -0.003175 0.001394 -0.004238 -0.004146
# 2 -0.000870 0.010856 -0.004953 0.000321 0.000878 -0.001289
# 3 -0.003175 -0.004953 0.010993 -0.000146 -0.002392 0.004893
# 4 0.001394 0.000321 -0.000146 0.023415 0.000098 -0.000916
# 5 -0.004238 0.000878 -0.002392 0.000098 0.028569 0.005360
# 6 -0.004146 -0.001289 0.004893 -0.000916 0.005360 0.023936
#
#
# Mechanical properties :
#
#
# Convention : Reuss Voigt Hill
#
# Bulk Modulus (GPa) = 58.33224 69.16211 63.74717
# Shear Modulus (GPa) = 37.09929 42.41594 39.75762
#
# Velocity S-wave (km/s) = 3.99226 4.26875 4.13282
# Velocity P-wave (km/s) = 6.80521 7.34907 7.08236
#
# Compressibility (1/GPa) = 0.01714318
#
# Stress axis : x y z
#
# Youngs Moduli (GPa) = 75.23098 92.11692 90.96673
#
# Poissons Ratio (x) = 0.08018 0.28886
# Poissons Ratio (y) = 0.06548 0.45057
# Poissons Ratio (z) = 0.23889 0.45626
#
# Static dielectric constant tensor:
#      x y z
#    x 1.900410 0.032240 -0.023160 
#    y 0.032240 1.837000 0.002830 
#    z -0.023160 0.002830 2.044320 
# 
# From -- ./inp_files/457728.got.cif
#   From: 2010.05.17/outbox.cif.g08.bks.cpg/sg2_229_cif.got.tgz:457728.got - 2010.06.03 11:33:40.
