data_PCOD9070811
_publ_section_title
;
Structure prediction by ZEFSAII (Michael W. Deem and Ramdas Pophale) SiO2 
 PCOD9070811
Probable space group: P -1
;
_chemical_formula_sum "Si O2"
_cell_formula_units_Z 12
_cell_length_a 12.849081
_cell_length_b 15.307122
_cell_length_c 9.288037
_cell_angle_alpha 45.863337
_cell_angle_beta 144.740935
_cell_angle_gamma 152.724746
_cell_volume 480.277663
_symmetry_space_group_name_H-M "P -1"
_symmetry_group_IT_number 2
_symmetry_cell_setting 'triclinic'
loop_
_space_group_symop_operation_xyz
x,y,z
-x,-y,-z
loop_
_atom_site_type_symbol
_atom_site_label
_atom_site_fract_x
_atom_site_fract_y
_atom_site_fract_z
Si Si1 0.925536 0.751556 0.907317
Si Si2 0.960420 0.696907 0.536398
Si Si3 0.463389 0.910249 0.210251
Si Si4 0.678223 0.809739 0.111563
Si Si5 0.235731 0.518973 0.725910
Si Si6 0.567792 0.359379 0.664755
O O1 0.156317 0.776898 0.079235
O O2 0.808355 0.623437 0.061961
O O3 0.667493 0.660239 0.618696
O O4 0.109329 0.967697 0.893983
O O5 0.844629 0.770262 0.353777
O O6 0.791001 0.543861 0.392636
O O7 0.875962 0.570166 0.723530
O O8 0.287398 0.894923 0.638945
O O9 0.503284 0.791532 0.346745
O O10 0.500000 0.000000 0.000000
O O11 0.471746 0.700950 0.144313
O O12 0.516907 0.725011 0.874337
O O13 0.000000 0.500000 0.500000
#
# Coordination Sequence:
#
# PCOD9070811 Si02
#       6
#     2   2   2   2   2   2
#     4  12  26  48  78 108 151 194 244 309 365 436
#     4  12  27  48  75 107 150 197 247 297 371 441
#     4  12  26  45  75 113 147 185 248 303 368 432
#     4  12  25  46  78 109 147 191 250 303 368 437
#     4  12  29  49  71 109 151 198 249 298 368 444
#     4  12  26  48  80 111 147 194 244 311 369 430
#
# _framework density 24.985547
#
# number of rings (size 3 to 8) (size 9 to 14) (size 15 to 20)
#    0.000    0.000    5.000    4.500    2.333    5.333 
#    0.000    0.000    0.000    0.000    0.000    0.000 
#    0.000    0.000    0.000    0.000    0.000    0.000 
#
# Total GULP energy -67249.776636 kJ/mol
# GULP energy per Si atom -5604.148053 kJ/mol
# Density = 2.492868 g / cm^3
# Si number density = 24.985547 Si / 1000 Ang^3
#
#
#
# Elastic Constant Matrix: (Units=GPa)
#
#
# Indices 1 2 3 4 5 6 
#
# 1 105.8691 31.6304 20.4808 6.2776 0.3413 -19.9980
# 2 31.6304 119.4761 32.3550 18.8505 -8.0130 -21.6995
# 3 20.4808 32.3550 72.5639 -1.3677 2.2197 -12.8297
# 4 6.2776 18.8505 -1.3677 32.4009 -10.2034 4.6362
# 5 0.3413 -8.0130 2.2197 -10.2034 44.0634 7.0522
# 6 -19.9980 -21.6995 -12.8297 4.6362 7.0522 31.8337
#
#
#
# Elastic Compliance Matrix: (Units=1/GPa)
#
#
# Indices 1 2 3 4 5 6 
#
# 1 0.011559 -0.000978 -0.001607 -0.003378 -0.002073 0.006898
# 2 -0.000978 0.012401 -0.004047 -0.008512 -0.000722 0.007607
# 3 -0.001607 -0.004047 0.016642 0.002498 -0.001447 0.002896
# 4 -0.003378 -0.008512 0.002498 0.042105 0.010565 -0.015390
# 5 -0.002073 -0.000722 -0.001447 0.010565 0.026671 -0.009825
# 6 0.006898 0.007607 0.002896 -0.015390 -0.009825 0.046517
#
#
# Mechanical properties :
#
#
# Convention : Reuss Voigt Hill
#
# Bulk Modulus (GPa) = 36.57849 51.87127 44.22488
# Shear Modulus (GPa) = 28.04722 35.88912 31.96817
#
# Velocity S-wave (km/s) = 3.35406 3.79409 3.58084
# Velocity P-wave (km/s) = 5.44714 6.32448 5.90214
#
# Compressibility (1/GPa) = 0.02733847
#
# Stress axis : x y z
#
# Youngs Moduli (GPa) = 86.51496 80.63947 60.08826
#
# Poissons Ratio (x) = 0.07888 0.09656
# Poissons Ratio (y) = 0.08462 0.24315
# Poissons Ratio (z) = 0.13902 0.32631
#
# Static dielectric constant tensor:
#      x y z
#    x 2.037150 0.020610 -0.003730 
#    y 0.020610 1.972000 0.064960 
#    z -0.003730 0.064960 2.003480 
# 
# From -- ./inp_files/234497.got.cif
#   From: 2010.05.17/outbox.cif.g08.bks.cpg/sg2_118_cif.got.tgz:234497.got - 2010.06.03 11:33:40.
