data_PCOD9070664
_publ_section_title
;
Structure prediction by ZEFSAII (Michael W. Deem and Ramdas Pophale) SiO2 
 PCOD9070664
Probable space group: P -1
;
_chemical_formula_sum "Si O2"
_cell_formula_units_Z 16
_cell_length_a 11.624882
_cell_length_b 23.025065
_cell_length_c 28.627031
_cell_angle_alpha 10.203582
_cell_angle_beta 148.911377
_cell_angle_gamma 149.342399
_cell_volume 688.091509
_symmetry_space_group_name_H-M "P -1"
_symmetry_group_IT_number 2
_symmetry_cell_setting 'triclinic'
loop_
_space_group_symop_operation_xyz
x,y,z
-x,-y,-z
loop_
_atom_site_type_symbol
_atom_site_label
_atom_site_fract_x
_atom_site_fract_y
_atom_site_fract_z
Si Si1 0.672391 0.878200 0.943495
Si Si2 0.008753 0.825062 0.842005
Si Si3 0.880553 0.099564 0.487461
Si Si4 0.739454 0.115731 0.274121
Si Si5 0.472733 0.860069 0.226886
Si Si6 0.092395 0.147125 0.814076
Si Si7 0.911268 0.874233 0.873558
Si Si8 0.502017 0.226355 0.454518
O O1 0.472541 0.822325 0.879655
O O2 0.642775 0.176474 0.732698
O O3 0.904316 0.934840 0.950897
O O4 0.647428 0.572481 0.213253
O O5 0.976501 0.958648 0.776380
O O6 0.279015 0.907643 0.862325
O O7 0.899150 0.027325 0.605203
O O8 0.877174 0.443147 0.089810
O O9 0.659128 0.892233 0.550973
O O10 0.883910 0.481518 0.178201
O O11 0.088603 0.992045 0.617677
O O12 0.650639 0.826977 0.509665
O O13 0.500000 0.500000 0.500000
O O14 0.327284 0.063528 0.981920
O O15 0.000000 0.500000 0.500000
O O16 0.080864 0.031064 0.848490
O O17 0.674555 0.980561 0.717707
#
# Coordination Sequence:
#
# PCOD9070664 Si02
#       8
#     2   2   2   2   2   2   2   2
#     4  12  27  51  85 108 156 208 258 319 401 470
#     4  12  27  47  79 116 157 201 257 322 399 465
#     4  12  25  44  75 114 159 198 248 313 398 467
#     4  12  25  48  79 118 153 201 251 319 400 483
#     4  12  29  52  80 114 156 209 270 329 383 453
#     4  12  30  56  79 110 156 216 274 320 385 466
#     4  12  29  45  75 112 152 202 261 317 384 461
#     4  12  26  46  76 114 160 199 246 313 399 478
#
# _framework density 23.252721000000001
#
# number of rings (size 3 to 8) (size 9 to 14) (size 15 to 20)
#    0.000    0.000    5.000    3.750    7.000    1.000 
#    0.000    0.000    0.000    0.000    0.000    0.000 
#    0.000    0.000    0.000    0.000    0.000    0.000 
#
# Total GULP energy -89547.147787 kJ/mol
# GULP energy per Si atom -5596.696737 kJ/mol
# Density = 2.319980 g / cm^3
# Si number density = 23.252721 Si / 1000 Ang^3
#
#
#
# Elastic Constant Matrix: (Units=GPa)
#
#
# Indices 1 2 3 4 5 6 
#
# 1 257.1684 -70.4148 -97.7290 6.2914 -2.3442 46.4718
# 2 -70.4148 164.4553 92.9371 7.5787 -13.1556 -81.2475
# 3 -97.7290 92.9371 268.4810 -20.9633 -48.8080 -79.3092
# 4 6.2914 7.5787 -20.9633 35.8299 -0.0084 5.6637
# 5 -2.3442 -13.1556 -48.8080 -0.0084 43.2714 13.3745
# 6 46.4718 -81.2475 -79.3092 5.6637 13.3745 97.0933
#
#
#
# Elastic Compliance Matrix: (Units=1/GPa)
#
#
# Indices 1 2 3 4 5 6 
#
# 1 0.004983 0.001185 0.001822 -0.000013 0.002774 -0.000286
# 2 0.001185 0.011873 -0.001777 -0.005077 -0.000909 0.008338
# 3 0.001822 -0.001777 0.007305 0.003951 0.007055 0.002405
# 4 -0.000013 -0.005077 0.003951 0.031839 0.003976 -0.003420
# 5 0.002774 -0.000909 0.007055 0.003976 0.031207 -0.000856
# 6 -0.000286 0.008338 0.002405 -0.003420 -0.000856 0.019695
#
#
# Mechanical properties :
#
#
# Convention : Reuss Voigt Hill
#
# Bulk Modulus (GPa) = 37.56625 59.96569 48.76597
# Shear Modulus (GPa) = 44.12436 86.25967 65.19201
#
# Velocity S-wave (km/s) = 4.36087 6.09730 5.30068
# Velocity P-wave (km/s) = 6.44569 8.68413 7.64726
#
# Compressibility (1/GPa) = 0.02661964
#
# Stress axis : x y z
#
# Youngs Moduli (GPa) = 200.69147 84.22644 136.89593
#
# Poissons Ratio (x) = -0.09978 -0.24947
# Poissons Ratio (y) = -0.23776 0.24332
# Poissons Ratio (z) = -0.36573 0.14970
#
# Static dielectric constant tensor:
#      x y z
#    x 1.861540 0.010290 0.024350 
#    y 0.010290 1.885810 -0.021230 
#    z 0.024350 -0.021230 1.886940 
# 
# From -- ./inp_files/623206.got.cif
#   From: 2010.05.17/outbox.cif.g08.bks.cpg/sg2_312_cif.got.tgz:623206.got - 2010.06.03 11:33:40.
