data_PCOD9070575
_publ_section_title
;
Structure prediction by ZEFSAII (Michael W. Deem and Ramdas Pophale) SiO2 
 PCOD9070575
Probable space group: P -1
;
_chemical_formula_sum "Si O2"
_cell_formula_units_Z 12
_cell_length_a 8.930402
_cell_length_b 25.846499
_cell_length_c 28.217094
_cell_angle_alpha 170.956203
_cell_angle_beta 149.448757
_cell_angle_gamma 30.575240
_cell_volume 515.891548
_symmetry_space_group_name_H-M "P -1"
_symmetry_group_IT_number 2
_symmetry_cell_setting 'triclinic'
loop_
_space_group_symop_operation_xyz
x,y,z
-x,-y,-z
loop_
_atom_site_type_symbol
_atom_site_label
_atom_site_fract_x
_atom_site_fract_y
_atom_site_fract_z
Si Si1 0.580412 0.611580 0.174375
Si Si2 0.698575 0.908706 0.312229
Si Si3 0.429331 0.016735 0.764254
Si Si4 0.851125 0.516804 0.314272
Si Si5 0.758336 0.970317 0.081797
Si Si6 0.740282 0.671328 0.902718
O O1 0.930338 0.503992 0.177704
O O2 0.500000 0.000000 0.500000
O O3 0.500000 0.500000 0.000000
O O4 0.398664 0.425091 0.994339
O O5 0.712254 0.889360 0.241180
O O6 0.430698 0.203019 0.517715
O O7 0.000000 0.000000 0.500000
O O8 0.466568 0.620242 0.416120
O O9 0.723186 0.196766 0.010842
O O10 0.248390 0.156479 0.887427
O O11 0.067939 0.708817 0.578586
O O12 0.022882 0.358762 0.172140
O O13 0.650501 0.920917 0.061144
O O14 0.500000 0.000000 0.000000
#
# Coordination Sequence:
#
# PCOD9070575 Si02
#       6
#     2   2   2   2   2   2
#     4  12  28  44  69 106 147 195 256 297 361 441
#     4  12  28  49  77 109 158 207 251 300 378 452
#     4  12  25  47  74 107 154 196 240 305 383 439
#     4  12  24  51  75 109 152 194 248 312 379 446
#     4  12  27  52  84 110 143 199 258 319 384 439
#     4  12  25  47  73 108 150 193 252 319 362 451
#
# _framework density 23.260701999999998
#
# number of rings (size 3 to 8) (size 9 to 14) (size 15 to 20)
#    0.000    0.000    5.000    3.500    7.000    0.667 
#    0.000    5.833    0.000    0.000    0.000    0.000 
#    0.000    0.000    0.000    0.000    0.000    0.000 
#
# Total GULP energy -67206.782086 kJ/mol
# GULP energy per Si atom -5600.565174 kJ/mol
# Density = 2.320776 g / cm^3
# Si number density = 23.260702 Si / 1000 Ang^3
#
#
#
# Elastic Constant Matrix: (Units=GPa)
#
#
# Indices 1 2 3 4 5 6 
#
# 1 148.4629 62.0285 53.3663 -1.7188 -13.3003 30.7334
# 2 62.0285 108.4032 48.3779 -31.4218 6.8791 24.7220
# 3 53.3663 48.3779 156.2361 -35.6883 -0.6220 14.1073
# 4 -1.7188 -31.4218 -35.6883 42.1895 0.1777 -1.5165
# 5 -13.3003 6.8791 -0.6220 0.1777 54.1719 -0.1241
# 6 30.7334 24.7220 14.1073 -1.5165 -0.1241 23.8644
#
#
#
# Elastic Compliance Matrix: (Units=1/GPa)
#
#
# Indices 1 2 3 4 5 6 
#
# 1 0.012368 -0.006057 -0.003199 -0.007024 0.003773 -0.008189
# 2 -0.006057 0.019638 0.000287 0.014214 -0.004051 -0.011830
# 3 -0.003199 0.000287 0.009319 0.007927 -0.000744 -0.001187
# 4 -0.007024 0.014214 0.007927 0.040442 -0.003589 -0.007814
# 5 0.003773 -0.004051 -0.000744 -0.003589 0.019903 -0.000348
# 6 -0.008189 -0.011830 -0.001187 -0.007814 -0.000348 0.064908
#
#
# Mechanical properties :
#
#
# Convention : Reuss Voigt Hill
#
# Bulk Modulus (GPa) = 42.75902 82.29418 62.52660
# Shear Modulus (GPa) = 25.99925 40.66712 33.33318
#
# Velocity S-wave (km/s) = 3.34688 4.18583 3.78964
# Velocity P-wave (km/s) = 5.77563 7.66925 6.78879
#
# Compressibility (1/GPa) = 0.02338688
#
# Stress axis : x y z
#
# Youngs Moduli (GPa) = 80.85162 50.92233 107.30331
#
# Poissons Ratio (x) = 0.30846 0.34327
# Poissons Ratio (y) = 0.48975 -0.03081
# Poissons Ratio (z) = 0.25865 -0.01462
#
# Static dielectric constant tensor:
#      x y z
#    x 1.943340 -0.022850 0.014680 
#    y -0.022850 1.803950 0.040390 
#    z 0.014680 0.040390 1.825660 
# 
# From -- ./inp_files/617613.got.cif
#   From: 2010.05.17/outbox.cif.g08.bks.cpg/sg2_309_cif.got.tgz:617613.got - 2010.06.03 11:33:40.
