data_PCOD9070068
_publ_section_title
;
Structure prediction by ZEFSAII (Michael W. Deem and Ramdas Pophale) SiO2 
 PCOD9070068
Probable space group: P -1
;
_chemical_formula_sum "Si O2"
_cell_formula_units_Z 16
_cell_length_a 20.019844
_cell_length_b 6.805141
_cell_length_c 8.477002
_cell_angle_alpha 62.199479
_cell_angle_beta 47.244077
_cell_angle_gamma 57.460157
_cell_volume 705.236012
_symmetry_space_group_name_H-M "P -1"
_symmetry_group_IT_number 2
_symmetry_cell_setting 'triclinic'
loop_
_space_group_symop_operation_xyz
x,y,z
-x,-y,-z
loop_
_atom_site_type_symbol
_atom_site_label
_atom_site_fract_x
_atom_site_fract_y
_atom_site_fract_z
Si Si1 0.402617 0.197090 0.141299
Si Si2 0.102219 0.353506 0.815797
Si Si3 0.858195 0.160609 0.956729
Si Si4 0.394104 0.083043 0.564809
Si Si5 0.240282 0.563399 0.678312
Si Si6 0.052884 0.245671 0.583161
Si Si7 0.672904 0.284087 0.033122
Si Si8 0.734170 0.028668 0.713093
O O1 0.395759 0.168642 0.350664
O O2 0.312196 0.145799 0.227712
O O3 0.396850 0.455208 0.995384
O O4 0.500000 0.000000 0.000000
O O5 0.173212 0.498392 0.679968
O O6 0.085760 0.289023 0.688661
O O7 0.146026 0.101041 0.924215
O O8 0.000000 0.500000 0.000000
O O9 0.823652 0.311027 0.116217
O O10 0.779279 0.289506 0.904127
O O11 0.969847 0.128805 0.762161
O O12 0.322411 0.315640 0.680753
O O13 0.500000 0.000000 0.500000
O O14 0.359639 0.855991 0.723742
O O15 0.280398 0.752496 0.463958
O O16 0.000000 0.500000 0.500000
O O17 0.151192 0.095170 0.395873
O O18 0.682109 0.126739 0.922329
#
# Coordination Sequence:
#
# PCOD9070068 Si02
#       8
#     2   2   2   2   2   2   2   2
#     4  12  29  53  79 113 150 192 249 311 373 446
#     4  12  24  45  70 103 143 197 246 300 367 433
#     4  12  26  47  70 109 143 201 249 301 368 437
#     4  12  28  50  80 114 147 198 246 307 381 442
#     4  12  25  48  76 104 154 191 250 308 366 445
#     4  12  27  43  70 106 149 194 251 302 366 436
#     4  12  29  49  79 110 153 196 248 304 375 445
#     4  12  27  49  74 108 153 197 245 312 366 438
#
# _framework density 22.687439999999999
#
# number of rings (size 3 to 8) (size 9 to 14) (size 15 to 20)
#    0.000    0.000    5.000    4.125   10.500    2.000 
#    0.000    0.000    0.000    0.000    0.000    0.000 
#    0.000    0.000    0.000    0.000    0.000    0.000 
#
# Total GULP energy -89642.103490 kJ/mol
# GULP energy per Si atom -5602.631468 kJ/mol
# Density = 2.263580 g / cm^3
# Si number density = 22.687440 Si / 1000 Ang^3
#
#
#
# Elastic Constant Matrix: (Units=GPa)
#
#
# Indices 1 2 3 4 5 6 
#
# 1 77.1358 11.5206 -5.7718 -2.4880 -11.1575 -15.0218
# 2 11.5206 139.7589 34.4256 -11.0288 -0.4101 -33.8207
# 3 -5.7718 34.4256 52.8774 -13.9509 -9.2064 -17.0545
# 4 -2.4880 -11.0288 -13.9509 36.9407 -8.0711 -3.3915
# 5 -11.1575 -0.4101 -9.2064 -8.0711 32.0045 -3.2040
# 6 -15.0218 -33.8207 -17.0545 -3.3915 -3.2040 41.8624
#
#
#
# Elastic Compliance Matrix: (Units=1/GPa)
#
#
# Indices 1 2 3 4 5 6 
#
# 1 0.018565 -0.000446 0.011204 0.009423 0.013332 0.012649
# 2 -0.000446 0.009851 -0.003857 0.002045 0.000017 0.006394
# 3 0.011204 -0.003857 0.038410 0.020776 0.022140 0.019930
# 4 0.009423 0.002045 0.020776 0.042659 0.021911 0.018630
# 5 0.013332 0.000017 0.022140 0.021911 0.049730 0.019399
# 6 0.012649 0.006394 0.019930 0.018630 0.019399 0.044706
#
#
# Mechanical properties :
#
#
# Convention : Reuss Voigt Hill
#
# Bulk Modulus (GPa) = 12.40291 38.90231 25.65261
# Shear Modulus (GPa) = 23.04191 37.46803 30.25497
#
# Velocity S-wave (km/s) = 3.19034 4.06826 3.65575
# Velocity P-wave (km/s) = 4.36461 6.26514 5.39915
#
# Compressibility (1/GPa) = 0.08062626
#
# Stress axis : x y z
#
# Youngs Moduli (GPa) = 53.86499 101.51462 26.03479
#
# Poissons Ratio (x) = 0.04531 -0.29170
# Poissons Ratio (y) = 0.02404 0.10043
# Poissons Ratio (z) = -0.60351 0.39159
#
# Static dielectric constant tensor:
#      x y z
#    x 1.635430 0.259760 -0.178520 
#    y 0.259760 1.503690 0.157660 
#    z -0.178520 0.157660 1.804930 
# 
# From -- ./inp_files/323415.got.cif
#   From: 2010.05.17/outbox.cif.g08.bks.cpg/sg2_162_cif.got.tgz:323415.got - 2010.06.03 11:33:40.
