data_PCOD9070167
_publ_section_title
;
Structure prediction by ZEFSAII (Michael W. Deem and Ramdas Pophale) SiO2 
 PCOD9070167
Probable space group: P -1
;
_chemical_formula_sum "Si O2"
_cell_formula_units_Z 14
_cell_length_a 24.765830
_cell_length_b 24.869591
_cell_length_c 13.746268
_cell_angle_alpha 158.861289
_cell_angle_beta 158.321989
_cell_angle_gamma 11.667622
_cell_volume 602.740474
_symmetry_space_group_name_H-M "P -1"
_symmetry_group_IT_number 2
_symmetry_cell_setting 'triclinic'
loop_
_space_group_symop_operation_xyz
x,y,z
-x,-y,-z
loop_
_atom_site_type_symbol
_atom_site_label
_atom_site_fract_x
_atom_site_fract_y
_atom_site_fract_z
Si Si1 0.242694 0.999012 0.947694
Si Si2 0.872028 0.110798 0.255865
Si Si3 0.593179 0.590616 0.315346
Si Si4 0.849319 0.884708 0.670072
Si Si5 0.701946 0.694369 0.850668
Si Si6 0.830664 0.607938 0.301254
Si Si7 0.568927 0.263285 0.387332
O O1 0.097552 0.019683 0.818321
O O2 0.350584 0.824376 0.737751
O O3 0.521390 0.821185 0.163307
O O4 0.021818 0.314413 0.079680
O O5 0.604233 0.439459 0.380616
O O6 0.144780 0.975577 0.478095
O O7 0.844342 0.028781 0.978501
O O8 0.652915 0.593851 0.529485
O O9 0.861099 0.375375 0.335812
O O10 0.370169 0.891726 0.402927
O O11 0.500000 0.500000 0.000000
O O12 0.804002 0.774941 0.470668
O O13 0.621275 0.707911 0.845635
O O14 0.000000 0.500000 0.000000
O O15 0.500000 0.000000 0.000000
O O16 0.000000 0.500000 0.500000
#
# Coordination Sequence:
#
# PCOD9070167 Si02
#       7
#     2   2   2   2   2   2   2
#     4  12  26  44  74 103 147 188 240 289 363 438
#     4  12  24  46  72 108 141 186 235 294 360 436
#     4  12  27  49  75 109 145 191 252 306 364 433
#     4  12  26  43  78 104 145 187 238 297 369 423
#     4  12  28  49  74 106 147 191 247 305 365 432
#     4  12  26  45  69 107 147 189 238 296 357 436
#     4  12  27  47  72 102 144 189 238 294 362 430
#
# _framework density 23.227243000000001
#
# number of rings (size 3 to 8) (size 9 to 14) (size 15 to 20)
#    0.000    0.000    1.429    8.571    8.000    0.000 
#    0.000    0.000    0.000    0.000    0.000    0.000 
#    0.000    0.000    0.000    0.000    0.000    0.000 
#
# Total GULP energy -78516.028029 kJ/mol
# GULP energy per Si atom -5608.287716 kJ/mol
# Density = 2.317438 g / cm^3
# Si number density = 23.227243 Si / 1000 Ang^3
#
#
#
# Elastic Constant Matrix: (Units=GPa)
#
#
# Indices 1 2 3 4 5 6 
#
# 1 60.6445 10.0805 9.1880 -8.6419 1.6194 -4.4680
# 2 10.0805 161.9152 15.8622 12.8853 -1.3044 -13.8454
# 3 9.1880 15.8622 67.6492 -6.1163 -2.0739 -5.9582
# 4 -8.6419 12.8853 -6.1163 54.4398 -15.0497 0.8077
# 5 1.6194 -1.3044 -2.0739 -15.0497 49.9974 2.6228
# 6 -4.4680 -13.8454 -5.9582 0.8077 2.6228 42.1972
#
#
#
# Elastic Compliance Matrix: (Units=1/GPa)
#
#
# Indices 1 2 3 4 5 6 
#
# 1 0.017416 -0.001034 -0.001758 0.002829 0.000125 0.001195
# 2 -0.001034 0.006716 -0.001470 -0.002111 -0.000591 0.001964
# 3 -0.001758 -0.001470 0.015725 0.002159 0.001245 0.001433
# 4 0.002829 -0.002111 0.002159 0.021347 0.006416 -0.000896
# 5 0.000125 -0.000591 0.001245 0.006416 0.022043 -0.001498
# 6 0.001195 0.001964 0.001433 -0.000896 -0.001498 0.024782
#
#
# Mechanical properties :
#
#
# Convention : Reuss Voigt Hill
#
# Bulk Modulus (GPa) = 31.91660 40.05226 35.98443
# Shear Modulus (GPa) = 39.37111 46.33208 42.85159
#
# Velocity S-wave (km/s) = 4.12155 4.47109 4.29987
# Velocity P-wave (km/s) = 6.03494 6.62837 6.33860
#
# Compressibility (1/GPa) = 0.03133166
#
# Stress axis : x y z
#
# Youngs Moduli (GPa) = 57.41997 148.90614 63.59195
#
# Poissons Ratio (x) = 0.15396 0.11180
# Poissons Ratio (y) = 0.05937 0.09350
# Poissons Ratio (z) = 0.10095 0.21894
#
# Static dielectric constant tensor:
#      x y z
#    x 1.868920 0.015870 -0.012300 
#    y 0.015870 1.809540 -0.023770 
#    z -0.012300 -0.023770 1.913120 
# 
# From -- ./inp_files/544601.got.cif
#   From: 2010.05.17/outbox.cif.g08.bks.cpg/sg2_273_cif.got.tgz:544601.got - 2010.06.03 11:33:40.
