data_PCOD9070491
_publ_section_title
;
Structure prediction by ZEFSAII (Michael W. Deem and Ramdas Pophale) SiO2 
 PCOD9070491
Probable space group: P -1
;
_chemical_formula_sum "Si O2"
_cell_formula_units_Z 11
_cell_length_a 11.233372
_cell_length_b 10.450996
_cell_length_c 9.664304
_cell_angle_alpha 28.110168
_cell_angle_beta 69.084832
_cell_angle_gamma 59.756136
_cell_volume 451.077161
_symmetry_space_group_name_H-M "P -1"
_symmetry_group_IT_number 2
_symmetry_cell_setting 'triclinic'
loop_
_space_group_symop_operation_xyz
x,y,z
-x,-y,-z
loop_
_atom_site_type_symbol
_atom_site_label
_atom_site_fract_x
_atom_site_fract_y
_atom_site_fract_z
Si Si1 0.098307 0.226181 0.625863
Si Si2 0.103249 0.083215 0.471373
Si Si3 0.604180 0.652619 0.289161
Si Si4 0.709679 0.579430 0.005294
Si Si5 0.279577 0.542501 0.277511
Si Si6 0.500000 0.500000 0.000000
O O1 0.027592 0.207636 0.528947
O O2 0.218161 0.330854 0.432177
O O3 0.000000 0.500000 0.500000
O O4 0.169465 0.895664 0.977987
O O5 0.234154 0.761459 0.752724
O O6 0.173914 0.290027 0.183943
O O7 0.000000 0.000000 0.500000
O O8 0.500000 0.500000 0.500000
O O9 0.681861 0.571873 0.187034
O O10 0.699617 0.562017 0.472444
O O11 0.500000 0.000000 0.000000
O O12 0.568184 0.718265 0.842140
O O13 0.419741 0.499312 0.180471
#
# Coordination Sequence:
#
# PCOD9070491 Si02
#       6
#     2   2   2   2   2   1
#     4  12  27  51  77 111 151 208 267 322 392 457
#     4  12  27  51  75 111 151 211 268 324 393 463
#     4  12  26  46  70 113 155 196 243 314 395 475
#     4  12  27  47  78 110 158 202 259 325 403 473
#     4  12  27  47  79 112 155 201 257 326 396 471
#     4  12  24  48  82 112 158 196 262 324 402 478
#
# _framework density 24.386073
#
# number of rings (size 3 to 8) (size 9 to 14) (size 15 to 20)
#    0.000    0.000    5.455    3.273    2.545    1.455 
#    0.000    0.000    0.000    0.000    0.000    0.000 
#    0.000    0.000    0.000    0.000    0.000    0.000 
#
# Total GULP energy -61324.995464 kJ/mol
# GULP energy per Si atom -5574.999588 kJ/mol
# Density = 2.433057 g / cm^3
# Si number density = 24.386073 Si / 1000 Ang^3
#
#
#
# Elastic Constant Matrix: (Units=GPa)
#
#
# Indices 1 2 3 4 5 6 
#
# 1 96.5480 46.5644 36.0830 19.1782 -19.9347 25.1036
# 2 46.5644 192.8690 53.5617 31.5188 9.1337 29.2471
# 3 36.0830 53.5617 159.9208 1.7337 -8.4888 5.0992
# 4 19.1782 31.5188 1.7337 39.9551 3.0135 -2.1212
# 5 -19.9347 9.1337 -8.4888 3.0135 33.7555 3.9640
# 6 25.1036 29.2471 5.0992 -2.1212 3.9640 43.8103
#
#
#
# Elastic Compliance Matrix: (Units=1/GPa)
#
#
# Indices 1 2 3 4 5 6 
#
# 1 0.020023 -0.001173 -0.002899 -0.010238 0.013748 -0.012092
# 2 -0.001173 0.007761 -0.002263 -0.005511 -0.002365 -0.004298
# 3 -0.002899 -0.002263 0.007570 0.002957 0.000257 0.002411
# 4 -0.010238 -0.005511 0.002957 0.035410 -0.008343 0.011671
# 5 0.013748 -0.002365 0.000257 -0.008343 0.040413 -0.010389
# 6 -0.012092 -0.004298 0.002411 0.011671 -0.010389 0.033849
#
#
# Mechanical properties :
#
#
# Convention : Reuss Voigt Hill
#
# Bulk Modulus (GPa) = 44.08493 80.19512 62.14002
# Shear Modulus (GPa) = 30.25571 44.37940 37.31755
#
# Velocity S-wave (km/s) = 3.52617 4.27062 3.91613
# Velocity P-wave (km/s) = 5.89030 7.56800 6.78123
#
# Compressibility (1/GPa) = 0.02268349
#
# Stress axis : x y z
#
# Youngs Moduli (GPa) = 49.94217 128.84749 132.10211
#
# Poissons Ratio (x) = 0.15119 0.38290
# Poissons Ratio (y) = 0.05860 0.29900
# Poissons Ratio (z) = 0.14476 0.29164
#
# Static dielectric constant tensor:
#      x y z
#    x 2.204280 -0.074470 0.248950 
#    y -0.074470 2.055940 -0.109620 
#    z 0.248950 -0.109620 2.312600 
# 
# From -- ./inp_files/177107.got.cif
#   From: 2010.05.17/outbox.cif.g08.bks.cpg/sg2_89_cif.got.tgz:177107.got - 2010.06.03 11:33:40.
