data_PCOD9070758
_publ_section_title
;
Structure prediction by ZEFSAII (Michael W. Deem and Ramdas Pophale) SiO2 
 PCOD9070758
Probable space group: P -1
;
_chemical_formula_sum "Si O2"
_cell_formula_units_Z 9
_cell_length_a 7.645409
_cell_length_b 12.707270
_cell_length_c 7.655623
_cell_angle_alpha 46.944815
_cell_angle_beta 139.744005
_cell_angle_gamma 111.640466
_cell_volume 332.435368
_symmetry_space_group_name_H-M "P -1"
_symmetry_group_IT_number 2
_symmetry_cell_setting 'triclinic'
loop_
_space_group_symop_operation_xyz
x,y,z
-x,-y,-z
loop_
_atom_site_type_symbol
_atom_site_label
_atom_site_fract_x
_atom_site_fract_y
_atom_site_fract_z
Si Si1 0.613266 0.448716 0.450868
Si Si2 0.362606 0.955577 0.618781
Si Si3 0.000000 0.500000 0.500000
Si Si4 0.823482 0.711679 0.766300
Si Si5 0.043556 0.238749 0.558066
O O1 0.500000 0.500000 0.500000
O O2 0.637165 0.571338 0.193253
O O3 0.466247 0.328026 0.417804
O O4 0.968053 0.386249 0.812720
O O5 0.134890 0.875498 0.478416
O O6 0.500000 0.000000 0.500000
O O7 0.212439 0.114673 0.421791
O O8 0.622116 0.856885 0.049259
O O9 0.944842 0.358347 0.500736
O O10 0.973377 0.670735 0.739565
#
# Coordination Sequence:
#
# PCOD9070758 Si02
#       5
#     2   2   1   2   2
#     4  12  26  47  72 106 145 186 236 292 353 423
#     4  12  25  46  71 104 142 184 241 290 354 418
#     4  12  28  46  74 104 148 184 242 282 362 416
#     4  12  25  48  73 104 143 185 241 294 352 420
#     4  12  26  44  72 104 141 190 233 291 354 422
#
# _framework density 27.072928999999998
#
# number of rings (size 3 to 8) (size 9 to 14) (size 15 to 20)
#    0.000    0.000    2.222    8.000    0.000    1.778 
#    0.000    0.000    0.000    0.000    0.000    0.000 
#    0.000    0.000    0.000    0.000    0.000    0.000 
#
# Total GULP energy -50355.224925 kJ/mol
# GULP energy per Si atom -5595.024992 kJ/mol
# Density = 2.701131 g / cm^3
# Si number density = 27.072929 Si / 1000 Ang^3
#
#
#
# Elastic Constant Matrix: (Units=GPa)
#
#
# Indices 1 2 3 4 5 6 
#
# 1 195.5161 70.7946 -10.0945 32.0139 -7.9547 0.1014
# 2 70.7946 298.4163 70.2911 49.1088 25.9588 20.9457
# 3 -10.0945 70.2911 136.5509 17.8605 -9.9639 -8.5216
# 4 32.0139 49.1088 17.8605 47.5695 6.2481 13.9951
# 5 -7.9547 25.9588 -9.9639 6.2481 43.6522 14.9627
# 6 0.1014 20.9457 -8.5216 13.9951 14.9627 66.3193
#
#
#
# Elastic Compliance Matrix: (Units=1/GPa)
#
#
# Indices 1 2 3 4 5 6 
#
# 1 0.006678 -0.001750 0.002232 -0.004229 0.003015 0.001041
# 2 -0.001750 0.005170 -0.002761 -0.002469 -0.003434 -0.000689
# 3 0.002232 -0.002761 0.009778 -0.003428 0.004113 0.001921
# 4 -0.004229 -0.002469 -0.003428 0.029602 -0.002492 -0.005339
# 5 0.003015 -0.003434 0.004113 -0.002492 0.028248 -0.004239
# 6 0.001041 -0.000689 0.001921 -0.005339 -0.004239 0.017624
#
#
# Mechanical properties :
#
#
# Convention : Reuss Voigt Hill
#
# Bulk Modulus (GPa) = 58.58534 99.16285 78.87409
# Shear Modulus (GPa) = 46.57780 64.80766 55.69273
#
# Velocity S-wave (km/s) = 4.15234 4.89797 4.54049
# Velocity P-wave (km/s) = 6.68401 8.28821 7.52896
#
# Compressibility (1/GPa) = 0.01706912
#
# Stress axis : x y z
#
# Youngs Moduli (GPa) = 149.74646 193.42737 102.26967
#
# Poissons Ratio (x) = 0.33841 -0.22830
# Poissons Ratio (y) = 0.26199 0.28239
# Poissons Ratio (z) = -0.33429 0.53409
#
# Static dielectric constant tensor:
#      x y z
#    x 2.507130 -0.032350 -0.079190 
#    y -0.032350 2.044160 -0.047610 
#    z -0.079190 -0.047610 2.403160 
# 
# From -- ./inp_files/462.got.cif
#   From: 2010.05.17/outbox.cif.g08.bks.cpg/sg2_1_cif.got.tgz:462.got - 2010.06.03 11:33:40.
