data_PCOD9070127
_publ_section_title
;
Structure prediction by ZEFSAII (Michael W. Deem and Ramdas Pophale) SiO2 
 PCOD9070127
Probable space group: P -1
;
_chemical_formula_sum "Si O2"
_cell_formula_units_Z 15
_cell_length_a 10.330501
_cell_length_b 8.293936
_cell_length_c 9.278225
_cell_angle_alpha 61.120366
_cell_angle_beta 75.519046
_cell_angle_gamma 74.203739
_cell_volume 663.143757
_symmetry_space_group_name_H-M "P -1"
_symmetry_group_IT_number 2
_symmetry_cell_setting 'triclinic'
loop_
_space_group_symop_operation_xyz
x,y,z
-x,-y,-z
loop_
_atom_site_type_symbol
_atom_site_label
_atom_site_fract_x
_atom_site_fract_y
_atom_site_fract_z
Si Si1 0.768898 0.679109 0.689708
Si Si2 0.497461 0.683046 0.317891
Si Si3 0.385533 0.407114 0.994301
Si Si4 0.047606 0.777856 0.579456
Si Si5 0.204201 0.729212 0.270366
Si Si6 0.807698 0.236619 0.169472
Si Si7 0.000000 0.000000 0.000000
Si Si8 0.375170 0.057542 0.617525
O O1 0.753853 0.475885 0.722613
O O2 0.740305 0.816948 0.501675
O O3 0.920744 0.682246 0.696939
O O4 0.658335 0.742644 0.818781
O O5 0.500000 0.500000 0.500000
O O6 0.567239 0.640662 0.160421
O O7 0.341579 0.772829 0.285480
O O8 0.577297 0.820692 0.321807
O O9 0.247204 0.558628 0.961469
O O10 0.500000 0.500000 0.000000
O O11 0.100227 0.714303 0.434957
O O12 0.165633 0.737133 0.680976
O O13 0.000000 0.000000 0.500000
O O14 0.127440 0.875996 0.113443
O O15 0.940885 0.122107 0.106979
O O16 0.688095 0.116746 0.235645
O O17 0.500000 0.000000 0.500000
#
# Coordination Sequence:
#
# PCOD9070127 Si02
#       8
#     2   2   2   2   2   2   1   2
#     4  12  25  45  74 102 143 190 235 297 361 429
#     4  12  24  45  77 106 138 190 242 297 362 433
#     4  12  24  49  71 105 147 184 236 305 362 424
#     4  12  25  45  71 102 138 189 243 290 350 427
#     4  12  24  47  70 103 144 185 238 295 359 429
#     4  12  26  46  70  99 147 184 235 301 354 425
#     4  12  24  46  70  98 148 186 226 296 366 404
#     4  12  25  44  72 105 138 187 241 293 360 430
#
# _framework density 22.619530999999998
#
# number of rings (size 3 to 8) (size 9 to 14) (size 15 to 20)
#    0.000    0.000    6.667    3.600    0.000    1.600 
#    0.000    3.333    0.000    0.000    0.000    0.000 
#    0.000    0.000    0.000    0.000    0.000    0.000 
#
# Total GULP energy -83683.306950 kJ/mol
# GULP energy per Si atom -5578.887130 kJ/mol
# Density = 2.256805 g / cm^3
# Si number density = 22.619531 Si / 1000 Ang^3
#
#
#
# Elastic Constant Matrix: (Units=GPa)
#
#
# Indices 1 2 3 4 5 6 
#
# 1 90.4988 14.5107 24.7886 0.2750 0.8263 18.7183
# 2 14.5107 45.4787 19.6596 19.0156 4.2424 -3.1262
# 3 24.7886 19.6596 119.3867 28.6307 8.7340 9.4877
# 4 0.2750 19.0156 28.6307 46.0530 -13.4704 7.7838
# 5 0.8263 4.2424 8.7340 -13.4704 42.9981 3.4440
# 6 18.7183 -3.1262 9.4877 7.7838 3.4440 47.0812
#
#
#
# Elastic Compliance Matrix: (Units=1/GPa)
#
#
# Indices 1 2 3 4 5 6 
#
# 1 0.014485 -0.007061 -0.003302 0.007217 0.003914 -0.007042
# 2 -0.007061 0.033154 0.000373 -0.018142 -0.009586 0.008634
# 3 -0.003302 0.000373 0.011444 -0.008906 -0.005159 0.000881
# 4 0.007217 -0.018142 -0.008906 0.041519 0.017301 -0.010409
# 5 0.003914 -0.009586 -0.005159 0.017301 0.031099 -0.006288
# 6 -0.007042 0.008634 0.000881 -0.010409 -0.006288 0.026616
#
#
# Mechanical properties :
#
#
# Convention : Reuss Voigt Hill
#
# Bulk Modulus (GPa) = 25.57498 41.47577 33.52537
# Shear Modulus (GPa) = 26.13250 40.32015 33.22632
#
# Velocity S-wave (km/s) = 3.40267 4.22659 3.83681
# Velocity P-wave (km/s) = 5.17384 6.49575 5.87212
#
# Compressibility (1/GPa) = 0.03910072
#
# Stress axis : x y z
#
# Youngs Moduli (GPa) = 69.03460 30.16264 87.38416
#
# Poissons Ratio (x) = 0.21298 0.28858
# Poissons Ratio (y) = 0.48746 -0.03256
# Poissons Ratio (z) = 0.22798 -0.01124
#
# Static dielectric constant tensor:
#      x y z
#    x 1.808510 -0.055600 0.036230 
#    y -0.055600 1.778190 0.017190 
#    z 0.036230 0.017190 1.879580 
# 
# From -- ./inp_files/157352.got.cif
#   From: 2010.05.17/outbox.cif.g08.bks.cpg/sg2_79_cif.got.tgz:157352.got - 2010.06.03 11:33:40.
