data_PCOD9070465
_publ_section_title
;
Structure prediction by ZEFSAII (Michael W. Deem and Ramdas Pophale) SiO2 
 PCOD9070465
Probable space group: P -1
;
_chemical_formula_sum "Si O2"
_cell_formula_units_Z 14
_cell_length_a 15.954099
_cell_length_b 9.351808
_cell_length_c 8.426277
_cell_angle_alpha 123.229464
_cell_angle_beta 34.471682
_cell_angle_gamma 113.000081
_cell_volume 590.250963
_symmetry_space_group_name_H-M "P -1"
_symmetry_group_IT_number 2
_symmetry_cell_setting 'triclinic'
loop_
_space_group_symop_operation_xyz
x,y,z
-x,-y,-z
loop_
_atom_site_type_symbol
_atom_site_label
_atom_site_fract_x
_atom_site_fract_y
_atom_site_fract_z
Si Si1 0.834195 0.561159 0.851525
Si Si2 0.696900 0.171804 0.256782
Si Si3 0.731985 0.786225 0.884070
Si Si4 0.984742 0.701877 0.196213
Si Si5 0.571945 0.188162 0.799034
Si Si6 0.388912 0.662805 0.825211
Si Si7 0.857446 0.904868 0.221061
O O1 0.724004 0.626455 0.917928
O O2 0.000000 0.500000 0.500000
O O3 0.769699 0.408077 0.949312
O O4 0.845115 0.731050 0.038743
O O5 0.627632 0.252950 0.578568
O O6 0.610209 0.210635 0.249432
O O7 0.852357 0.242007 0.030314
O O8 0.720635 0.964821 0.107078
O O9 0.892572 0.739258 0.523658
O O10 0.600415 0.816701 0.979677
O O11 0.892230 0.832791 0.297946
O O12 0.000000 0.500000 0.000000
O O13 0.700530 0.026680 0.529110
O O14 0.570279 0.277508 0.027718
O O15 0.500000 0.500000 0.500000
O O16 0.000000 0.000000 0.000000
#
# Coordination Sequence:
#
# PCOD9070465 Si02
#       7
#     2   2   2   2   2   2   2
#     4  12  26  48  76 111 150 195 253 313 376 450
#     4  12  26  52  77 108 152 201 255 307 379 458
#     4  12  27  48  78 111 153 197 256 318 374 454
#     4  12  27  46  75 114 150 198 256 313 377 452
#     4  12  28  49  81 110 153 200 256 313 385 448
#     4  12  30  48  74 112 155 196 249 316 385 448
#     4  12  24  48  77 107 148 198 255 308 371 458
#
# _framework density 23.718724999999999
#
# number of rings (size 3 to 8) (size 9 to 14) (size 15 to 20)
#    0.000    0.000    2.857    6.000    8.000    2.286 
#    0.000    0.000    0.000    0.000    0.000    0.000 
#    0.000    0.000    0.000    0.000    0.000    0.000 
#
# Total GULP energy -78286.738214 kJ/mol
# GULP energy per Si atom -5591.909872 kJ/mol
# Density = 2.366474 g / cm^3
# Si number density = 23.718725 Si / 1000 Ang^3
#
#
#
# Elastic Constant Matrix: (Units=GPa)
#
#
# Indices 1 2 3 4 5 6 
#
# 1 138.7645 33.8959 45.1304 3.9284 19.3803 -10.3049
# 2 33.8959 55.5613 -1.4300 0.7612 7.0118 -30.4824
# 3 45.1304 -1.4300 127.7518 -1.2210 15.6147 2.5729
# 4 3.9284 0.7612 -1.2210 29.7473 0.5673 6.3397
# 5 19.3803 7.0118 15.6147 0.5673 51.3732 -3.0941
# 6 -10.3049 -30.4824 2.5729 6.3397 -3.0941 47.8743
#
#
#
# Elastic Compliance Matrix: (Units=1/GPa)
#
#
# Indices 1 2 3 4 5 6 
#
# 1 0.010235 -0.007345 -0.003421 -0.000774 -0.001950 -0.002313
# 2 -0.007345 0.033938 0.002698 -0.004094 -0.001412 0.020334
# 3 -0.003421 0.002698 0.009300 0.000745 -0.001897 0.000261
# 4 -0.000774 -0.004094 0.000745 0.035462 -0.000220 -0.007524
# 5 -0.001950 -0.001412 -0.001897 -0.000220 0.020983 0.000169
# 6 -0.002313 0.020334 0.000261 -0.007524 0.000169 0.034331
#
#
# Mechanical properties :
#
#
# Convention : Reuss Voigt Hill
#
# Bulk Modulus (GPa) = 26.78066 53.03003 39.90535
# Shear Modulus (GPa) = 28.93028 42.09770 35.51399
#
# Velocity S-wave (km/s) = 3.49624 4.21749 3.87369
# Velocity P-wave (km/s) = 5.25488 6.79137 6.07192
#
# Compressibility (1/GPa) = 0.03734037
#
# Stress axis : x y z
#
# Youngs Moduli (GPa) = 97.69966 29.46516 107.52694
#
# Poissons Ratio (x) = 0.21641 0.36780
# Poissons Ratio (y) = 0.71756 -0.29015
# Poissons Ratio (z) = 0.33419 -0.07951
#
# Static dielectric constant tensor:
#      x y z
#    x 2.064950 -0.115340 0.063030 
#    y -0.115340 1.973390 -0.069610 
#    z 0.063030 -0.069610 1.878910 
# 
# From -- ./inp_files/329370.got.cif
#   From: 2010.05.17/outbox.cif.g08.bks.cpg/sg2_165_cif.got.tgz:329370.got - 2010.06.03 11:33:40.
