data_PCOD9070751
_publ_section_title
;
Structure prediction by ZEFSAII (Michael W. Deem and Ramdas Pophale) SiO2 
 PCOD9070751
Probable space group: P -1
;
_chemical_formula_sum "Si O2"
_cell_formula_units_Z 16
_cell_length_a 16.225987
_cell_length_b 7.908622
_cell_length_c 9.026661
_cell_angle_alpha 89.993060
_cell_angle_beta 136.119220
_cell_angle_gamma 113.496047
_cell_volume 656.886642
_symmetry_space_group_name_H-M "P -1"
_symmetry_group_IT_number 2
_symmetry_cell_setting 'triclinic'
loop_
_space_group_symop_operation_xyz
x,y,z
-x,-y,-z
loop_
_atom_site_type_symbol
_atom_site_label
_atom_site_fract_x
_atom_site_fract_y
_atom_site_fract_z
Si Si1 0.392628 0.258150 0.332247
Si Si2 0.400390 0.118738 0.664549
Si Si3 0.140485 0.634049 0.081521
Si Si4 0.923929 0.026378 0.044045
Si Si5 0.849224 0.950909 0.470900
Si Si6 0.077761 0.415852 0.687417
Si Si7 0.407934 0.748567 0.639245
Si Si8 0.658992 0.506436 0.152584
O O1 0.500000 0.500000 0.500000
O O2 0.406075 0.155564 0.497329
O O3 0.454016 0.208876 0.270870
O O4 0.226905 0.188765 0.108506
O O5 0.238237 0.018233 0.515772
O O6 0.443132 0.961090 0.753559
O O7 0.506616 0.341033 0.878019
O O8 0.279525 0.683225 0.354322
O O9 0.131767 0.826894 0.035814
O O10 0.118346 0.508014 0.904953
O O11 0.000000 0.500000 0.000000
O O12 0.049474 0.110507 0.327224
O O13 0.000000 0.000000 0.000000
O O14 0.722730 0.747918 0.222256
O O15 0.962360 0.167990 0.541315
O O16 0.223759 0.500563 0.788213
O O17 0.000000 0.500000 0.500000
O O18 0.354078 0.575624 0.696540
#
# Coordination Sequence:
#
# PCOD9070751 Si02
#       8
#     2   2   2   2   2   2   2   2
#     4  12  28  46  78 113 153 195 258 316 388 451
#     4  12  25  51  76 109 152 203 252 320 378 451
#     4  12  25  45  81 110 153 200 253 317 378 451
#     4  12  25  47  77 112 151 197 250 319 384 450
#     4  12  26  49  74 112 152 198 260 310 379 454
#     4  12  27  49  76 114 153 201 254 311 385 452
#     4  12  26  50  75 115 152 200 261 310 378 456
#     4  12  28  48  76 108 159 203 252 313 383 451
#
# _framework density 24.357322
#
# number of rings (size 3 to 8) (size 9 to 14) (size 15 to 20)
#    0.000    0.000    2.500    7.500    7.000    0.000 
#    2.250    0.000    0.000    0.000    0.000    0.000 
#    0.000    0.000    0.000    0.000    0.000    0.000 
#
# Total GULP energy -89670.019537 kJ/mol
# GULP energy per Si atom -5604.376221 kJ/mol
# Density = 2.430188 g / cm^3
# Si number density = 24.357322 Si / 1000 Ang^3
#
#
#
# Elastic Constant Matrix: (Units=GPa)
#
#
# Indices 1 2 3 4 5 6 
#
# 1 176.7896 8.3963 56.6733 -15.4171 23.1134 10.7748
# 2 8.3963 90.5249 45.2614 -3.8123 1.5266 -3.9769
# 3 56.6733 45.2614 126.0931 10.6319 5.2022 7.4154
# 4 -15.4171 -3.8123 10.6319 37.2252 8.7789 -3.6267
# 5 23.1134 1.5266 5.2022 8.7789 46.2643 6.6025
# 6 10.7748 -3.9769 7.4154 -3.6267 6.6025 38.5718
#
#
#
# Elastic Compliance Matrix: (Units=1/GPa)
#
#
# Indices 1 2 3 4 5 6 
#
# 1 0.008233 0.001950 -0.004730 0.006122 -0.004838 0.000214
# 2 0.001950 0.014551 -0.006612 0.004977 -0.002091 0.003053
# 3 -0.004730 -0.006612 0.013111 -0.007375 0.002946 -0.003079
# 4 0.006122 0.004977 -0.007375 0.034814 -0.009736 0.005161
# 5 -0.004838 -0.002091 0.002946 -0.009736 0.026309 -0.004849
# 6 0.000214 0.003053 -0.003079 0.005161 -0.004849 0.028088
#
#
# Mechanical properties :
#
#
# Convention : Reuss Voigt Hill
#
# Bulk Modulus (GPa) = 58.44042 68.22995 63.33518
# Shear Modulus (GPa) = 33.42347 43.28403 38.35375
#
# Velocity S-wave (km/s) = 3.70836 4.22007 3.97246
# Velocity P-wave (km/s) = 6.51007 7.19849 6.86292
#
# Compressibility (1/GPa) = 0.01711145
#
# Stress axis : x y z
#
# Youngs Moduli (GPa) = 121.45585 68.72422 76.26936
#
# Poissons Ratio (x) = -0.13401 0.36073
# Poissons Ratio (y) = -0.23684 0.50432
# Poissons Ratio (z) = 0.57445 0.45443
#
# Static dielectric constant tensor:
#      x y z
#    x 1.496870 -0.121050 -0.236960 
#    y -0.121050 1.827260 -0.095260 
#    z -0.236960 -0.095260 1.851070 
# 
# From -- ./inp_files/298967.got.cif
#   From: 2010.05.17/outbox.cif.g08.bks.cpg/sg2_150_cif.got.tgz:298967.got - 2010.06.03 11:33:40.
