data_PCOD9070191
_publ_section_title
;
Structure prediction by ZEFSAII (Michael W. Deem and Ramdas Pophale) SiO2 
 PCOD9070191
Probable space group: P -1
;
_chemical_formula_sum "Si O2"
_cell_formula_units_Z 15
_cell_length_a 14.164106
_cell_length_b 11.920428
_cell_length_c 14.373255
_cell_angle_alpha 59.677938
_cell_angle_beta 149.983860
_cell_angle_gamma 139.607146
_cell_volume 691.454045
_symmetry_space_group_name_H-M "P -1"
_symmetry_group_IT_number 2
_symmetry_cell_setting 'triclinic'
loop_
_space_group_symop_operation_xyz
x,y,z
-x,-y,-z
loop_
_atom_site_type_symbol
_atom_site_label
_atom_site_fract_x
_atom_site_fract_y
_atom_site_fract_z
Si Si1 0.345907 0.343891 0.519239
Si Si2 0.434381 0.457391 0.171922
Si Si3 0.159846 0.570776 0.832315
Si Si4 0.018636 0.643887 0.513027
Si Si5 0.432430 0.088455 0.650693
Si Si6 0.463512 0.836608 0.503286
Si Si7 0.258598 0.836226 0.937794
Si Si8 0.000000 0.000000 0.000000
O O1 0.500000 0.500000 0.500000
O O2 0.481413 0.461968 0.683462
O O3 0.359472 0.194482 0.582839
O O4 0.013871 0.213106 0.287039
O O5 0.705960 0.527528 0.327902
O O6 0.152338 0.222899 0.021019
O O7 0.365623 0.555014 0.017822
O O8 0.170236 0.647137 0.907682
O O9 0.214783 0.702565 0.743200
O O10 0.832664 0.364073 0.622703
O O11 0.000000 0.500000 0.500000
O O12 0.171772 0.850641 0.514586
O O13 0.563022 0.179193 0.623327
O O14 0.641547 0.127984 0.886332
O O15 0.500000 0.000000 0.500000
O O16 0.733957 0.897079 0.745098
O O17 0.500000 0.000000 0.000000
#
# Coordination Sequence:
#
# PCOD9070191 Si02
#       8
#     2   2   2   2   2   2   2   1
#     4  12  27  48  74 115 151 188 256 314 376 448
#     4  12  26  45  77 104 150 197 246 312 373 439
#     4  12  24  47  74 105 148 193 242 312 383 433
#     4  12  28  50  71 109 154 197 251 309 371 460
#     4  12  28  45  80 113 143 197 257 304 379 458
#     4  12  26  47  72 106 147 195 248 307 372 449
#     4  12  25  47  77 107 153 195 240 316 381 448
#     4  12  24  46  74 104 142 204 244 296 382 434
#
# _framework density 21.693417
#
# number of rings (size 3 to 8) (size 9 to 14) (size 15 to 20)
#    0.000    0.000    6.667    2.400    3.733    3.733 
#    0.000    0.000    0.000    0.000    0.000    0.000 
#    0.000    0.000    0.000    0.000    0.000    0.000 
#
# Total GULP energy -83584.383055 kJ/mol
# GULP energy per Si atom -5572.292204 kJ/mol
# Density = 2.164404 g / cm^3
# Si number density = 21.693417 Si / 1000 Ang^3
#
#
#
# Elastic Constant Matrix: (Units=GPa)
#
#
# Indices 1 2 3 4 5 6 
#
# 1 87.4922 24.6660 37.4907 -1.3310 4.0102 -10.0186
# 2 24.6660 110.6230 29.6690 -0.5567 16.9628 -13.9273
# 3 37.4907 29.6690 126.4497 -19.6082 -0.4205 5.0769
# 4 -1.3310 -0.5567 -19.6082 39.0168 -5.1981 -10.6034
# 5 4.0102 16.9628 -0.4205 -5.1981 25.4184 0.2533
# 6 -10.0186 -13.9273 5.0769 -10.6034 0.2533 38.8477
#
#
#
# Elastic Compliance Matrix: (Units=1/GPa)
#
#
# Indices 1 2 3 4 5 6 
#
# 1 0.014031 -0.001348 -0.004126 -0.000892 -0.001599 0.003441
# 2 -0.001348 0.011795 -0.002747 -0.001250 -0.007999 0.003951
# 3 -0.004126 -0.002747 0.010664 0.005113 0.003727 -0.002071
# 4 -0.000892 -0.001250 0.005113 0.031054 0.007339 0.007082
# 5 -0.001599 -0.007999 0.003727 0.007339 0.046515 -0.002067
# 6 0.003441 0.003951 -0.002071 0.007082 -0.002067 0.030263
#
#
# Mechanical properties :
#
#
# Convention : Reuss Voigt Hill
#
# Bulk Modulus (GPa) = 49.87689 56.46848 53.17269
# Shear Modulus (GPa) = 29.86045 36.17252 33.01648
#
# Velocity S-wave (km/s) = 3.71411 4.08786 3.90546
# Velocity P-wave (km/s) = 6.43696 6.95468 6.70082
#
# Compressibility (1/GPa) = 0.02004936
#
# Stress axis : x y z
#
# Youngs Moduli (GPa) = 71.26936 84.78440 93.77044
#
# Poissons Ratio (x) = 0.11431 0.38685
# Poissons Ratio (y) = 0.09608 0.25756
# Poissons Ratio (z) = 0.29402 0.23288
#
# Static dielectric constant tensor:
#      x y z
#    x 1.800970 0.000850 -0.019740 
#    y 0.000850 1.855760 0.019280 
#    z -0.019740 0.019280 1.772060 
# 
# From -- ./inp_files/532498.got.cif
#   From: 2010.05.17/outbox.cif.g08.bks.cpg/sg2_267_cif.got.tgz:532498.got - 2010.06.03 11:33:40.
