data_PCOD9070222
_publ_section_title
;
Structure prediction by ZEFSAII (Michael W. Deem and Ramdas Pophale) SiO2 
 PCOD9070222
Probable space group: P -1
;
_chemical_formula_sum "Si O2"
_cell_formula_units_Z 12
_cell_length_a 16.385906
_cell_length_b 11.593258
_cell_length_c 19.294959
_cell_angle_alpha 22.528023
_cell_angle_beta 22.348669
_cell_angle_gamma 35.234168
_cell_volume 515.985088
_symmetry_space_group_name_H-M "P -1"
_symmetry_group_IT_number 2
_symmetry_cell_setting 'triclinic'
loop_
_space_group_symop_operation_xyz
x,y,z
-x,-y,-z
loop_
_atom_site_type_symbol
_atom_site_label
_atom_site_fract_x
_atom_site_fract_y
_atom_site_fract_z
Si Si1 0.307313 0.619199 0.547027
Si Si2 0.426396 0.229031 0.377067
Si Si3 0.876712 0.357297 0.106177
Si Si4 0.897079 0.370766 0.579026
Si Si5 0.568460 0.786018 0.121628
Si Si6 0.313468 0.332986 0.183565
O O1 0.500000 0.500000 0.500000
O O2 0.363144 0.617545 0.423274
O O3 0.310382 0.972058 0.372292
O O4 0.068781 0.398651 0.875912
O O5 0.264895 0.416677 0.433913
O O6 0.500000 0.000000 0.500000
O O7 0.268879 0.993079 0.577129
O O8 0.617298 0.471185 0.050456
O O9 0.705864 0.560121 0.108971
O O10 0.000000 0.500000 0.000000
O O11 0.000000 0.500000 0.500000
O O12 0.080713 0.355228 0.386592
O O13 0.739898 0.024874 0.904658
O O14 0.500000 0.000000 0.000000
O O15 0.500000 0.500000 0.000000
#
# Coordination Sequence:
#
# PCOD9070222 Si02
#       6
#     2   2   2   2   2   2
#     4  12  26  44  74 106 138 187 242 289 349 422
#     4  12  28  46  71 108 149 181 232 299 357 411
#     4  12  25  44  73 106 138 183 242 286 344 426
#     4  12  24  46  76 102 140 192 238 283 351 428
#     4  12  26  45  71 105 144 181 231 298 354 407
#     4  12  25  45  74 104 140 189 239 288 350 424
#
# _framework density 23.256487
#
# number of rings (size 3 to 8) (size 9 to 14) (size 15 to 20)
#    0.000    0.000    6.667    3.000    2.333    2.667 
#    0.000    0.000    0.000    0.000    0.000    0.000 
#    0.000    0.000    0.000    0.000    0.000    0.000 
#
# Total GULP energy -67245.202673 kJ/mol
# GULP energy per Si atom -5603.766889 kJ/mol
# Density = 2.320355 g / cm^3
# Si number density = 23.256487 Si / 1000 Ang^3
#
#
#
# Elastic Constant Matrix: (Units=GPa)
#
#
# Indices 1 2 3 4 5 6 
#
# 1 78.6420 35.5339 16.8468 9.2777 28.3699 -7.4108
# 2 35.5339 193.7926 49.7319 23.3801 28.3926 -26.7182
# 3 16.8468 49.7319 114.9663 12.9005 22.7974 4.2050
# 4 9.2777 23.3801 12.9005 57.7430 17.5090 5.3059
# 5 28.3699 28.3926 22.7974 17.5090 48.8325 -10.2784
# 6 -7.4108 -26.7182 4.2050 5.3059 -10.2784 31.2454
#
#
#
# Elastic Compliance Matrix: (Units=1/GPa)
#
#
# Indices 1 2 3 4 5 6 
#
# 1 0.016685 -0.002009 0.000165 0.000957 -0.009146 -0.000954
# 2 -0.002009 0.007535 -0.003047 -0.002933 0.000760 0.007125
# 3 0.000165 -0.003047 0.011115 0.000786 -0.005026 -0.005849
# 4 0.000957 -0.002933 0.000786 0.021699 -0.008891 -0.008996
# 5 -0.009146 0.000760 -0.005026 -0.008891 0.033333 0.011631
# 6 -0.000954 0.007125 -0.005849 -0.008996 0.011631 0.044012
#
#
# Mechanical properties :
#
#
# Convention : Reuss Voigt Hill
#
# Bulk Modulus (GPa) = 39.13439 65.73624 52.43532
# Shear Modulus (GPa) = 32.74864 46.58340 39.66602
#
# Velocity S-wave (km/s) = 3.75660 4.48038 4.13436
# Velocity P-wave (km/s) = 5.97327 7.42241 6.73692
#
# Compressibility (1/GPa) = 0.02555297
#
# Stress axis : x y z
#
# Youngs Moduli (GPa) = 59.93485 132.70771 89.97143
#
# Poissons Ratio (x) = 0.26655 -0.01486
# Poissons Ratio (y) = 0.12038 0.27418
# Poissons Ratio (z) = -0.00990 0.40442
#
# Static dielectric constant tensor:
#      x y z
#    x 1.952190 0.015030 -0.047390 
#    y 0.015030 1.873550 -0.018960 
#    z -0.047390 -0.018960 1.891710 
# 
# From -- ./inp_files/150574.got.cif
#   From: 2010.05.17/outbox.cif.g08.bks.cpg/sg2_76_cif.got.tgz:150574.got - 2010.06.03 11:33:40.
