data_PCOD9070301
_publ_section_title
;
Structure prediction by ZEFSAII (Michael W. Deem and Ramdas Pophale) SiO2 
 PCOD9070301
Probable space group: P -1
;
_chemical_formula_sum "Si O2"
_cell_formula_units_Z 12
_cell_length_a 8.566453
_cell_length_b 12.594830
_cell_length_c 9.666326
_cell_angle_alpha 36.380409
_cell_angle_beta 121.275021
_cell_angle_gamma 103.282956
_cell_volume 490.929549
_symmetry_space_group_name_H-M "P -1"
_symmetry_group_IT_number 2
_symmetry_cell_setting 'triclinic'
loop_
_space_group_symop_operation_xyz
x,y,z
-x,-y,-z
loop_
_atom_site_type_symbol
_atom_site_label
_atom_site_fract_x
_atom_site_fract_y
_atom_site_fract_z
Si Si1 0.506013 0.198982 0.511584
Si Si2 0.506893 0.709054 0.272293
Si Si3 0.075603 0.870497 0.804758
Si Si4 0.888279 0.576046 0.072773
Si Si5 0.100265 0.802025 0.414508
Si Si6 0.771631 0.778426 0.094183
O O1 0.477011 0.217980 0.643282
O O2 0.307181 0.313533 0.220527
O O3 0.679150 0.271267 0.466882
O O4 0.596806 0.971587 0.760325
O O5 0.500000 0.500000 0.500000
O O6 0.680716 0.698290 0.261560
O O7 0.299039 0.839862 0.972859
O O8 0.045695 0.666597 0.000025
O O9 0.000000 0.000000 0.500000
O O10 0.946301 0.998130 0.736261
O O11 0.930471 0.349770 0.331740
O O12 0.847501 0.633579 0.155006
O O13 0.945321 0.827643 0.193876
#
# Coordination Sequence:
#
# PCOD9070301 Si02
#       6
#     2   2   2   2   2   2
#     4  12  25  46  73 103 142 184 232 290 346 412
#     4  12  27  46  71 105 143 184 233 287 350 414
#     4  12  28  47  72 104 144 183 233 291 347 412
#     4  12  27  46  75 104 139 185 236 286 345 418
#     4  12  26  47  73 102 141 187 234 284 349 415
#     4  12  24  47  73 100 142 185 234 285 349 413
#
# _framework density 24.443422999999999
#
# number of rings (size 3 to 8) (size 9 to 14) (size 15 to 20)
#    0.000    0.000    3.333    6.500    7.000    0.667 
#    0.000    0.000    0.000    0.000    0.000    0.000 
#    0.000    0.000    0.000    0.000    0.000    0.000 
#
# Total GULP energy -67346.790265 kJ/mol
# GULP energy per Si atom -5612.232522 kJ/mol
# Density = 2.438779 g / cm^3
# Si number density = 24.443423 Si / 1000 Ang^3
#
#
#
# Elastic Constant Matrix: (Units=GPa)
#
#
# Indices 1 2 3 4 5 6 
#
# 1 124.8045 28.5664 7.8934 26.2598 -18.6860 11.0961
# 2 28.5664 50.8901 13.9971 13.5112 -1.9361 -2.2702
# 3 7.8934 13.9971 101.0376 18.3715 -4.1281 8.5958
# 4 26.2598 13.5112 18.3715 60.2068 13.2842 -5.3404
# 5 -18.6860 -1.9361 -4.1281 13.2842 46.8121 -1.3248
# 6 11.0961 -2.2702 8.5958 -5.3404 -1.3248 38.9029
#
#
#
# Elastic Compliance Matrix: (Units=1/GPa)
#
#
# Indices 1 2 3 4 5 6 
#
# 1 0.011810 -0.005388 0.001611 -0.006232 0.006270 -0.004681
# 2 -0.005388 0.024039 -0.002923 -0.001671 -0.000846 0.003327
# 3 0.001611 -0.002923 0.011407 -0.004446 0.002686 -0.003669
# 4 -0.006232 -0.001671 -0.004446 0.023651 -0.009502 0.005585
# 5 0.006270 -0.000846 0.002686 -0.009502 0.026683 -0.002827
# 6 -0.004681 0.003327 -0.003669 0.005585 -0.002827 0.028716
#
#
# Mechanical properties :
#
#
# Convention : Reuss Voigt Hill
#
# Bulk Modulus (GPa) = 29.53748 41.96066 35.74907
# Shear Modulus (GPa) = 33.11475 44.26939 38.69207
#
# Velocity S-wave (km/s) = 3.68469 4.26031 3.98291
# Velocity P-wave (km/s) = 5.49662 6.43460 5.98402
#
# Compressibility (1/GPa) = 0.03385530
#
# Stress axis : x y z
#
# Youngs Moduli (GPa) = 84.67336 41.59974 87.66850
#
# Poissons Ratio (x) = 0.22415 -0.14127
# Poissons Ratio (y) = 0.45625 0.25626
# Poissons Ratio (z) = -0.13644 0.12160
#
# Static dielectric constant tensor:
#      x y z
#    x 1.973190 -0.001980 -0.025120 
#    y -0.001980 1.902040 -0.042430 
#    z -0.025120 -0.042430 1.932700 
# 
# From -- ./inp_files/147321.got.cif
#   From: 2010.05.17/outbox.cif.g08.bks.cpg/sg2_74_cif.got.tgz:147321.got - 2010.06.03 11:33:40.
