data_PCOD9070828
_publ_section_title
;
Structure prediction by ZEFSAII (Michael W. Deem and Ramdas Pophale) SiO2 
 PCOD9070828
Probable space group: P -1
;
_chemical_formula_sum "Si O2"
_cell_formula_units_Z 15
_cell_length_a 17.668018
_cell_length_b 4.990479
_cell_length_c 9.155889
_cell_angle_alpha 60.842663
_cell_angle_beta 66.899626
_cell_angle_gamma 82.869947
_cell_volume 646.206834
_symmetry_space_group_name_H-M "P -1"
_symmetry_group_IT_number 2
_symmetry_cell_setting 'triclinic'
loop_
_space_group_symop_operation_xyz
x,y,z
-x,-y,-z
loop_
_atom_site_type_symbol
_atom_site_label
_atom_site_fract_x
_atom_site_fract_y
_atom_site_fract_z
Si Si1 0.674706 0.789027 0.872069
Si Si2 0.466359 0.332302 0.419262
Si Si3 0.243970 0.416480 0.856180
Si Si4 0.273863 0.110235 0.634266
Si Si5 0.944098 0.221784 0.685846
Si Si6 0.500000 0.500000 0.000000
Si Si7 0.941296 0.545978 0.896560
Si Si8 0.770983 0.418913 0.669621
O O1 0.584648 0.714640 0.896395
O O2 0.737403 0.604414 0.780045
O O3 0.702005 0.148734 0.752422
O O4 0.687770 0.660766 0.057560
O O5 0.500000 0.500000 0.500000
O O6 0.366659 0.268650 0.513230
O O7 0.500000 0.000000 0.500000
O O8 0.492499 0.473049 0.202239
O O9 0.244373 0.141494 0.813631
O O10 0.268607 0.756770 0.682841
O O11 0.153188 0.433633 0.986713
O O12 0.216030 0.321587 0.531683
O O13 0.946140 0.284655 0.841113
O O14 0.851900 0.256953 0.690480
O O15 0.000000 0.500000 0.500000
O O16 0.968706 0.883453 0.721427
O O17 0.000000 0.500000 0.000000
#
# Coordination Sequence:
#
# PCOD9070828 Si02
#       8
#     2   2   2   2   2   1   2   2
#     4  12  25  47  73 104 143 196 250 300 371 448
#     4  12  28  50  72 113 154 195 262 324 383 463
#     4  12  25  47  73 103 145 195 238 312 372 440
#     4  12  26  45  72 103 142 192 244 301 373 441
#     4  12  26  48  75 108 147 189 238 307 372 448
#     4  12  28  48  82 108 154 212 256 322 400 448
#     4  12  27  47  72 109 144 189 248 296 372 459
#     4  12  25  47  71 103 148 185 242 302 361 454
#
# _framework density 23.212382000000002
#
# number of rings (size 3 to 8) (size 9 to 14) (size 15 to 20)
#    0.000    0.000    4.000    5.600    5.600    2.133 
#    0.000    0.000    0.000    0.000    0.000    0.000 
#    0.000    0.000    0.000    0.000    0.000    0.000 
#
# Total GULP energy -83720.678691 kJ/mol
# GULP energy per Si atom -5581.378579 kJ/mol
# Density = 2.315955 g / cm^3
# Si number density = 23.212382 Si / 1000 Ang^3
#
#
#
# Elastic Constant Matrix: (Units=GPa)
#
#
# Indices 1 2 3 4 5 6 
#
# 1 86.2317 8.9060 27.8151 -9.2432 10.9151 27.8019
# 2 8.9060 99.3177 15.1878 -11.6013 10.8484 5.3921
# 3 27.8151 15.1878 89.5073 -1.5073 4.9967 11.2781
# 4 -9.2432 -11.6013 -1.5073 47.9574 7.0142 2.2934
# 5 10.9151 10.8484 4.9967 7.0142 45.8990 2.1290
# 6 27.8019 5.3921 11.2781 2.2934 2.1290 21.7532
#
#
#
# Elastic Compliance Matrix: (Units=1/GPa)
#
#
# Indices 1 2 3 4 5 6 
#
# 1 0.023032 0.001342 -0.003431 0.006757 -0.005145 -0.028199
# 2 0.001342 0.011154 -0.001606 0.003544 -0.003150 -0.003712
# 3 -0.003431 -0.001606 0.012724 -0.000563 -0.000022 -0.001752
# 4 0.006757 0.003544 -0.000563 0.024348 -0.005583 -0.011243
# 5 -0.005145 -0.003150 -0.000022 -0.005583 0.024352 0.005574
# 6 -0.028199 -0.003712 -0.001752 -0.011243 0.005574 0.084478
#
#
# Mechanical properties :
#
#
# Convention : Reuss Voigt Hill
#
# Bulk Modulus (GPa) = 25.30493 42.09715 33.70104
# Shear Modulus (GPa) = 24.91888 37.99844 31.45866
#
# Velocity S-wave (km/s) = 3.28001 4.05036 3.68537
# Velocity P-wave (km/s) = 5.02690 6.32842 5.71484
#
# Compressibility (1/GPa) = 0.03951799
#
# Stress axis : x y z
#
# Youngs Moduli (GPa) = 43.41814 89.65682 78.59458
#
# Poissons Ratio (x) = -0.12028 0.26965
# Poissons Ratio (y) = -0.05825 0.12624
# Poissons Ratio (z) = 0.14896 0.14401
#
# Static dielectric constant tensor:
#      x y z
#    x 1.881960 0.024200 0.006660 
#    y 0.024200 1.834910 0.041370 
#    z 0.006660 0.041370 1.960220 
# 
# From -- ./inp_files/322105.got.cif
#   From: 2010.05.17/outbox.cif.g08.bks.cpg/sg2_162_cif.got.tgz:322105.got - 2010.06.03 11:33:40.
