data_PCOD9070775
_publ_section_title
;
Structure prediction by ZEFSAII (Michael W. Deem and Ramdas Pophale) SiO2 
 PCOD9070775
Probable space group: P -1
;
_chemical_formula_sum "Si O2"
_cell_formula_units_Z 16
_cell_length_a 11.734133
_cell_length_b 10.138764
_cell_length_c 9.344286
_cell_angle_alpha 115.499062
_cell_angle_beta 52.929931
_cell_angle_gamma 130.869793
_cell_volume 669.558738
_symmetry_space_group_name_H-M "P -1"
_symmetry_group_IT_number 2
_symmetry_cell_setting 'triclinic'
loop_
_space_group_symop_operation_xyz
x,y,z
-x,-y,-z
loop_
_atom_site_type_symbol
_atom_site_label
_atom_site_fract_x
_atom_site_fract_y
_atom_site_fract_z
Si Si1 0.315802 0.647858 0.706691
Si Si2 0.498282 0.332747 0.966239
Si Si3 0.693951 0.155665 0.438137
Si Si4 0.802864 0.744570 0.335878
Si Si5 0.353904 0.134443 0.272118
Si Si6 0.854529 0.371589 0.662289
Si Si7 0.140452 0.765131 0.116220
Si Si8 0.197167 0.072919 0.860007
O O1 0.291961 0.681544 0.576057
O O2 0.296913 0.464193 0.660421
O O3 0.502044 0.805327 0.689267
O O4 0.196417 0.679865 0.915398
O O5 0.691311 0.384099 0.817972
O O6 0.343806 0.177850 0.916890
O O7 0.500000 0.500000 0.000000
O O8 0.447489 0.276616 0.141811
O O9 0.761993 0.189310 0.562508
O O10 0.500000 0.000000 0.500000
O O11 0.803806 0.099776 0.246192
O O12 0.785172 0.841685 0.531578
O O13 0.747949 0.803027 0.263816
O O14 0.995558 0.795824 0.191334
O O15 0.288582 0.950726 0.158266
O O16 0.926304 0.363120 0.755907
O O17 0.000000 0.500000 0.500000
O O18 0.000000 0.000000 0.000000
#
# Coordination Sequence:
#
# PCOD9070775 Si02
#       8
#     2   2   2   2   2   2   2   2
#     4  12  25  46  74 105 144 189 244 296 360 433
#     4  12  28  47  73 107 150 189 239 301 370 432
#     4  12  25  46  75 105 144 190 245 299 359 432
#     4  12  27  47  72 109 147 191 240 301 365 437
#     4  12  26  46  75 105 145 190 242 299 366 435
#     4  12  28  47  74 107 145 192 242 300 363 433
#     4  12  26  48  74 106 144 191 246 298 360 434
#     4  12  27  48  75 109 149 192 241 300 370 434
#
# _framework density 23.896332999999998
#
# number of rings (size 3 to 8) (size 9 to 14) (size 15 to 20)
#    0.000    0.000    2.500    7.500    5.250    0.000 
#    0.000    0.000    0.000    0.000    0.000    0.000 
#    0.000    0.000    0.000    0.000    0.000    0.000 
#
# Total GULP energy -89543.043180 kJ/mol
# GULP energy per Si atom -5596.440199 kJ/mol
# Density = 2.384194 g / cm^3
# Si number density = 23.896333 Si / 1000 Ang^3
#
#
#
# Elastic Constant Matrix: (Units=GPa)
#
#
# Indices 1 2 3 4 5 6 
#
# 1 102.8799 0.1069 23.5536 -14.3095 10.4664 -2.5745
# 2 0.1069 77.5705 0.4006 -9.0806 6.8392 -12.6989
# 3 23.5536 0.4006 108.3766 -12.3414 -4.0762 -9.9925
# 4 -14.3095 -9.0806 -12.3414 41.0474 1.5154 4.7837
# 5 10.4664 6.8392 -4.0762 1.5154 46.0065 -8.9640
# 6 -2.5745 -12.6989 -9.9925 4.7837 -8.9640 42.0829
#
#
#
# Elastic Compliance Matrix: (Units=1/GPa)
#
#
# Indices 1 2 3 4 5 6 
#
# 1 0.010994 0.000555 -0.002173 0.003498 -0.003032 -0.000719
# 2 0.000555 0.013986 0.000457 0.003052 -0.001547 0.003686
# 3 -0.002173 0.000457 0.010236 0.002055 0.001768 0.002578
# 4 0.003498 0.003052 0.002055 0.027191 -0.002346 -0.001968
# 5 -0.003032 -0.001547 0.001768 -0.002346 0.023888 0.005123
# 6 -0.000719 0.003686 0.002578 -0.001968 0.005123 0.026758
#
#
# Mechanical properties :
#
#
# Convention : Reuss Voigt Hill
#
# Bulk Modulus (GPa) = 30.40191 37.43881 33.92036
# Shear Modulus (GPa) = 39.57608 43.47843 41.52725
#
# Velocity S-wave (km/s) = 4.07401 4.27014 4.17323
# Velocity P-wave (km/s) = 5.90593 6.32561 6.11937
#
# Compressibility (1/GPa) = 0.03289267
#
# Stress axis : x y z
#
# Youngs Moduli (GPa) = 90.95882 71.50238 97.69411
#
# Poissons Ratio (x) = -0.03969 0.21233
# Poissons Ratio (y) = -0.05049 -0.04464
# Poissons Ratio (z) = 0.19769 -0.03267
#
# Static dielectric constant tensor:
#      x y z
#    x 1.613850 -0.072980 0.126270 
#    y -0.072980 1.911780 0.046770 
#    z 0.126270 0.046770 1.784300 
# 
# From -- ./inp_files/262982.got.cif
#   From: 2010.05.17/outbox.cif.g08.bks.cpg/sg2_132_cif.got.tgz:262982.got - 2010.06.03 11:33:40.
