data_PCOD9070735
_publ_section_title
;
Structure prediction by ZEFSAII (Michael W. Deem and Ramdas Pophale) SiO2 
 PCOD9070735
Probable space group: P -1
;
_chemical_formula_sum "Si O2"
_cell_formula_units_Z 14
_cell_length_a 17.711867
_cell_length_b 6.776760
_cell_length_c 8.223181
_cell_angle_alpha 59.443992
_cell_angle_beta 111.906699
_cell_angle_gamma 70.971414
_cell_volume 602.295803
_symmetry_space_group_name_H-M "P -1"
_symmetry_group_IT_number 2
_symmetry_cell_setting 'triclinic'
loop_
_space_group_symop_operation_xyz
x,y,z
-x,-y,-z
loop_
_atom_site_type_symbol
_atom_site_label
_atom_site_fract_x
_atom_site_fract_y
_atom_site_fract_z
Si Si1 0.884396 0.242635 0.379427
Si Si2 0.381294 0.308426 0.812826
Si Si3 0.210954 0.223644 0.695787
Si Si4 0.422701 0.675845 0.512232
Si Si5 0.731115 0.690236 0.811462
Si Si6 0.113909 0.254040 0.282043
Si Si7 0.622773 0.496823 0.901155
O O1 0.859578 0.532627 0.320475
O O2 0.864690 0.059274 0.558087
O O3 0.811439 0.385706 0.101713
O O4 0.000000 0.000000 0.500000
O O5 0.294578 0.277245 0.708470
O O6 0.367182 0.553993 0.586137
O O7 0.369318 0.411881 0.948165
O O8 0.500000 0.000000 0.000000
O O9 0.124617 0.317273 0.449713
O O10 0.292140 0.859592 0.918358
O O11 0.500000 0.500000 0.500000
O O12 0.502571 0.622615 0.737549
O O13 0.334798 0.018603 0.249780
O O14 0.796487 0.744070 0.728217
O O15 0.642157 0.660378 0.711340
O O16 0.000000 0.500000 0.000000
#
# Coordination Sequence:
#
# PCOD9070735 Si02
#       7
#     2   2   2   2   2   2   2
#     4  12  26  54  75 107 148 192 254 318 374 440
#     4  12  25  45  76 110 155 203 247 299 373 452
#     4  12  25  48  79 107 151 202 242 311 384 434
#     4  12  26  43  71 116 152 197 251 298 372 456
#     4  12  25  48  75 103 157 191 245 314 367 440
#     4  12  28  51  75 112 145 195 258 317 372 442
#     4  12  25  48  73 110 157 196 245 302 374 457
#
# _framework density 23.244394
#
# number of rings (size 3 to 8) (size 9 to 14) (size 15 to 20)
#    0.000    0.000    5.714    4.286    4.000    1.143 
#    2.571    0.000    0.000    0.000    0.000    0.000 
#    0.000    0.000    0.000    0.000    0.000    0.000 
#
# Total GULP energy -78155.176051 kJ/mol
# GULP energy per Si atom -5582.512575 kJ/mol
# Density = 2.319149 g / cm^3
# Si number density = 23.244394 Si / 1000 Ang^3
#
#
#
# Elastic Constant Matrix: (Units=GPa)
#
#
# Indices 1 2 3 4 5 6 
#
# 1 126.5109 44.3450 17.0510 -26.2746 -19.9687 3.6313
# 2 44.3450 113.3580 30.5667 -20.7011 1.8066 12.6148
# 3 17.0510 30.5667 94.1852 -30.5647 -3.7078 11.6459
# 4 -26.2746 -20.7011 -30.5647 45.4244 7.7137 5.1916
# 5 -19.9687 1.8066 -3.7078 7.7137 49.5548 -7.6363
# 6 3.6313 12.6148 11.6459 5.1916 -7.6363 38.6588
#
#
#
# Elastic Compliance Matrix: (Units=1/GPa)
#
#
# Indices 1 2 3 4 5 6 
#
# 1 0.010566 -0.003632 0.000811 0.004345 0.003792 0.000114
# 2 -0.003632 0.011776 -0.001812 0.003030 -0.003113 -0.003978
# 3 0.000811 -0.001812 0.015192 0.010689 -0.001012 -0.005697
# 4 0.004345 0.003030 0.010689 0.035050 -0.004592 -0.010231
# 5 0.003792 -0.003113 -0.001012 -0.004592 0.023417 0.006207
# 6 0.000114 -0.003978 -0.005697 -0.010231 0.006207 0.031471
#
#
# Mechanical properties :
#
#
# Convention : Reuss Voigt Hill
#
# Bulk Modulus (GPa) = 35.37351 57.55328 46.46340
# Shear Modulus (GPa) = 34.20930 42.86702 38.53816
#
# Velocity S-wave (km/s) = 3.84047 4.29906 4.07622
# Velocity P-wave (km/s) = 5.90903 7.03252 6.49512
#
# Compressibility (1/GPa) = 0.02826974
#
# Stress axis : x y z
#
# Youngs Moduli (GPa) = 94.64492 84.91525 65.82552
#
# Poissons Ratio (x) = 0.30837 -0.05340
# Poissons Ratio (y) = 0.34371 0.11926
# Poissons Ratio (z) = -0.07677 0.15384
#
# Static dielectric constant tensor:
#      x y z
#    x 2.004600 0.049520 0.039970 
#    y 0.049520 1.952920 0.056340 
#    z 0.039970 0.056340 1.951040 
# 
# From -- ./inp_files/323335.got.cif
#   From: 2010.05.17/outbox.cif.g08.bks.cpg/sg2_162_cif.got.tgz:323335.got - 2010.06.03 11:33:40.
