data_PCOD9070042
_publ_section_title
;
Structure prediction by ZEFSAII (Michael W. Deem and Ramdas Pophale) SiO2 
 PCOD9070042
Probable space group: P -1
;
_chemical_formula_sum "Si O2"
_cell_formula_units_Z 11
_cell_length_a 9.779982
_cell_length_b 9.754926
_cell_length_c 5.154742
_cell_angle_alpha 69.333457
_cell_angle_beta 82.145919
_cell_angle_gamma 96.297620
_cell_volume 449.150960
_symmetry_space_group_name_H-M "P -1"
_symmetry_group_IT_number 2
_symmetry_cell_setting 'triclinic'
loop_
_space_group_symop_operation_xyz
x,y,z
-x,-y,-z
loop_
_atom_site_type_symbol
_atom_site_label
_atom_site_fract_x
_atom_site_fract_y
_atom_site_fract_z
Si Si1 0.131757 0.516393 0.763718
Si Si2 0.137329 0.251996 0.618893
Si Si3 0.629166 0.630716 0.920724
Si Si4 0.000000 0.000000 0.000000
Si Si5 0.134449 0.855594 0.572490
Si Si6 0.576095 0.948166 0.768543
O O1 0.090872 0.405094 0.608027
O O2 0.173794 0.693093 0.619871
O O3 0.258740 0.440616 0.892390
O O4 0.000000 0.500000 0.000000
O O5 0.277445 0.301665 0.394194
O O6 0.001516 0.144869 0.585362
O O7 0.142873 0.129898 0.915019
O O8 0.566942 0.772597 0.931721
O O9 0.500000 0.500000 0.000000
O O10 0.088222 0.892185 0.849063
O O11 0.264587 0.973452 0.372280
O O12 0.500000 0.000000 0.500000
O O13 0.500000 0.000000 0.000000
#
# Coordination Sequence:
#
# PCOD9070042 Si02
#       6
#     2   2   2   1   2   2
#     4  12  26  47  75 117 159 200 270 334 413 490
#     4  12  26  44  78 114 156 207 268 342 410 486
#     4  12  29  50  77 114 162 216 267 340 415 497
#     4  12  24  44  76 112 158 192 278 332 412 466
#     4  12  27  47  80 115 159 212 272 346 404 498
#     4  12  32  54  80 117 166 223 276 338 418 498
#
# _framework density 24.490653999999999
#
# number of rings (size 3 to 8) (size 9 to 14) (size 15 to 20)
#    0.000    0.000    5.455    2.182   10.182    0.727 
#    0.000    0.000    0.000    0.000    0.000    0.000 
#    0.000    0.000    0.000    0.000    0.000    0.000 
#
# Total GULP energy -61327.568018 kJ/mol
# GULP energy per Si atom -5575.233456 kJ/mol
# Density = 2.443491 g / cm^3
# Si number density = 24.490654 Si / 1000 Ang^3
#
#
#
# Elastic Constant Matrix: (Units=GPa)
#
#
# Indices 1 2 3 4 5 6 
#
# 1 137.3697 62.4974 49.9563 -13.1508 -4.5315 5.0196
# 2 62.4974 268.9036 50.9422 -10.9781 -16.5603 -16.3834
# 3 49.9563 50.9422 108.2666 10.5791 -26.2786 8.7383
# 4 -13.1508 -10.9781 10.5791 61.6189 -8.3501 -13.7316
# 5 -4.5315 -16.5603 -26.2786 -8.3501 46.8255 -18.7231
# 6 5.0196 -16.3834 8.7383 -13.7316 -18.7231 49.7480
#
#
#
# Elastic Compliance Matrix: (Units=1/GPa)
#
#
# Indices 1 2 3 4 5 6 
#
# 1 0.009742 -0.001527 -0.004407 0.002080 -0.002066 -0.000915
# 2 -0.001527 0.004774 -0.001404 0.001856 0.002445 0.003405
# 3 -0.004407 -0.001404 0.013721 -0.002996 0.005817 -0.001065
# 4 0.002080 0.001856 -0.002996 0.020380 0.006393 0.008959
# 5 -0.002066 0.002445 0.005817 0.006393 0.031933 0.013775
# 6 -0.000915 0.003405 -0.001065 0.008959 0.013775 0.029159
#
#
# Mechanical properties :
#
#
# Convention : Reuss Voigt Hill
#
# Bulk Modulus (GPa) = 73.74900 93.48131 83.61516
# Shear Modulus (GPa) = 38.78801 55.04808 46.91804
#
# Velocity S-wave (km/s) = 3.98400 4.74615 4.38168
# Velocity P-wave (km/s) = 7.16530 8.26364 7.73399
#
# Compressibility (1/GPa) = 0.01355951
#
# Stress axis : x y z
#
# Youngs Moduli (GPa) = 102.65303 209.48727 72.87944
#
# Poissons Ratio (x) = 0.31994 0.32119
# Poissons Ratio (y) = 0.15678 0.10233
# Poissons Ratio (z) = 0.45240 0.29414
#
# Static dielectric constant tensor:
#      x y z
#    x 1.780170 0.256530 -0.243150 
#    y 0.256530 1.752020 0.385370 
#    z -0.243150 0.385370 1.404380 
# 
# From -- ./inp_files/17180.got.cif
#   From: 2010.05.17/outbox.cif.g08.bks.cpg/sg2_9_cif.got.tgz:17180.got - 2010.06.03 11:33:40.
