data_PCOD9070436
_publ_section_title
;
Structure prediction by ZEFSAII (Michael W. Deem and Ramdas Pophale) SiO2 
 PCOD9070436
Probable space group: P -1
;
_chemical_formula_sum "Si O2"
_cell_formula_units_Z 16
_cell_length_a 9.664144
_cell_length_b 8.293822
_cell_length_c 14.670993
_cell_angle_alpha 75.345408
_cell_angle_beta 45.341547
_cell_angle_gamma 97.683210
_cell_volume 721.571726
_symmetry_space_group_name_H-M "P -1"
_symmetry_group_IT_number 2
_symmetry_cell_setting 'triclinic'
loop_
_space_group_symop_operation_xyz
x,y,z
-x,-y,-z
loop_
_atom_site_type_symbol
_atom_site_label
_atom_site_fract_x
_atom_site_fract_y
_atom_site_fract_z
Si Si1 0.243006 0.542844 0.904193
Si Si2 0.599666 0.156410 0.855443
Si Si3 0.091944 0.770026 0.598034
Si Si4 0.482850 0.681500 0.445305
Si Si5 0.621903 0.798987 0.557836
Si Si6 0.241782 0.167005 0.886285
Si Si7 0.027622 0.312496 0.529052
Si Si8 0.288748 0.530937 0.090277
O O1 0.416583 0.693299 0.734161
O O2 0.244569 0.345080 0.912224
O O3 0.287344 0.608940 0.979197
O O4 0.000000 0.500000 0.000000
O O5 0.405877 0.122757 0.879394
O O6 0.806254 0.168446 0.701771
O O7 0.695050 0.344521 0.846499
O O8 0.500000 0.000000 0.000000
O O9 0.249909 0.670538 0.529092
O O10 0.954605 0.745426 0.573682
O O11 0.927676 0.664285 0.770427
O O12 0.234192 0.988856 0.511143
O O13 0.500000 0.500000 0.500000
O O14 0.553779 0.807167 0.484839
O O15 0.641664 0.763729 0.274897
O O16 0.766939 0.685812 0.514351
O O17 0.000000 0.000000 0.000000
O O18 0.000000 0.500000 0.500000
O O19 0.500000 0.500000 0.000000
#
# Coordination Sequence:
#
# PCOD9070436 Si02
#       8
#     2   2   2   2   2   2   2   2
#     4  12  28  47  73 109 156 197 241 303 375 445
#     4  12  29  48  76 110 147 195 249 310 372 441
#     4  12  27  46  73 108 148 196 245 309 369 440
#     4  12  26  48  76 104 146 197 254 301 365 440
#     4  12  28  46  74 110 148 195 249 303 373 443
#     4  12  29  50  75 109 149 195 250 309 369 445
#     4  12  24  48  75 103 147 192 251 306 364 435
#     4  12  27  46  74 104 154 194 242 303 379 439
#
# _framework density 22.173818000000001
#
# number of rings (size 3 to 8) (size 9 to 14) (size 15 to 20)
#    0.000    0.000    5.000    3.750   10.500    0.000 
#    0.000    0.000    0.000    0.000    0.000    0.000 
#    0.000    0.000    0.000    0.000    0.000    0.000 
#
# Total GULP energy -89505.866559 kJ/mol
# GULP energy per Si atom -5594.116660 kJ/mol
# Density = 2.212335 g / cm^3
# Si number density = 22.173818 Si / 1000 Ang^3
#
#
#
# Elastic Constant Matrix: (Units=GPa)
#
#
# Indices 1 2 3 4 5 6 
#
# 1 152.8504 5.0602 55.3753 6.4908 8.0623 9.5897
# 2 5.0602 53.8410 22.2138 -12.3094 4.0639 6.8486
# 3 55.3753 22.2138 182.2351 -3.0860 3.5031 -12.4761
# 4 6.4908 -12.3094 -3.0860 37.0217 2.5853 0.3570
# 5 8.0623 4.0639 3.5031 2.5853 44.4520 10.4211
# 6 9.5897 6.8486 -12.4761 0.3570 10.4211 42.8192
#
#
#
# Elastic Compliance Matrix: (Units=1/GPa)
#
#
# Indices 1 2 3 4 5 6 
#
# 1 0.007695 0.000363 -0.002557 -0.001377 -0.000591 -0.002371
# 2 0.000363 0.022015 -0.002936 0.007141 -0.001276 -0.004207
# 3 -0.002557 -0.002936 0.006851 0.000051 -0.000555 0.003173
# 4 -0.001377 0.007141 0.000051 0.029777 -0.002003 -0.000580
# 5 -0.000591 -0.001276 -0.000555 -0.002003 0.024217 -0.005702
# 6 -0.002371 -0.004207 0.003173 -0.000580 -0.005702 0.026875
#
#
# Mechanical properties :
#
#
# Convention : Reuss Voigt Hill
#
# Bulk Modulus (GPa) = 38.02227 61.58055 49.80141
# Shear Modulus (GPa) = 36.64170 45.27707 40.95939
#
# Velocity S-wave (km/s) = 4.06948 4.52366 4.30256
# Velocity P-wave (km/s) = 6.26621 7.42406 6.86958
#
# Compressibility (1/GPa) = 0.02630037
#
# Stress axis : x y z
#
# Youngs Moduli (GPa) = 129.95364 45.42439 145.96351
#
# Poissons Ratio (x) = -0.01649 0.37320
# Poissons Ratio (y) = -0.04717 0.42860
# Poissons Ratio (z) = 0.33227 0.13338
#
# Static dielectric constant tensor:
#      x y z
#    x 1.641000 0.289390 0.021550 
#    y 0.289390 1.599770 0.025880 
#    z 0.021550 0.025880 1.769050 
# 
# From -- ./inp_files/244365.got.cif
#   From: 2010.05.17/outbox.cif.g08.bks.cpg/sg2_123_cif.got.tgz:244365.got - 2010.06.03 11:33:40.
