data_PCOD9070110
_publ_section_title
;
Structure prediction by ZEFSAII (Michael W. Deem and Ramdas Pophale) SiO2 
 PCOD9070110
Probable space group: P -1
;
_chemical_formula_sum "Si O2"
_cell_formula_units_Z 16
_cell_length_a 11.788127
_cell_length_b 9.550433
_cell_length_c 8.861573
_cell_angle_alpha 84.303451
_cell_angle_beta 131.165290
_cell_angle_gamma 107.681501
_cell_volume 708.483644
_symmetry_space_group_name_H-M "P -1"
_symmetry_group_IT_number 2
_symmetry_cell_setting 'triclinic'
loop_
_space_group_symop_operation_xyz
x,y,z
-x,-y,-z
loop_
_atom_site_type_symbol
_atom_site_label
_atom_site_fract_x
_atom_site_fract_y
_atom_site_fract_z
Si Si1 0.268860 0.068933 0.915302
Si Si2 0.512197 0.859328 0.619424
Si Si3 0.517601 0.643910 0.101397
Si Si4 0.166232 0.709673 0.448361
Si Si5 0.213546 0.750387 0.821065
Si Si6 0.060534 0.420685 0.194852
Si Si7 0.055544 0.970463 0.219770
Si Si8 0.324682 0.277573 0.450753
O O1 0.359563 0.216452 0.889901
O O2 0.083330 0.041844 0.780309
O O3 0.294200 0.926763 0.874790
O O4 0.342998 0.084395 0.145169
O O5 0.354544 0.786205 0.584902
O O6 0.544910 0.737629 0.551522
O O7 0.500000 0.000000 0.500000
O O8 0.591076 0.645857 0.331577
O O9 0.500000 0.500000 0.000000
O O10 0.347407 0.670925 0.963104
O O11 0.126685 0.708915 0.589549
O O12 0.118564 0.545418 0.360334
O O13 0.090103 0.814633 0.275570
O O14 0.087396 0.707664 0.850744
O O15 0.203401 0.360853 0.279797
O O16 0.000000 0.500000 0.000000
O O17 0.210933 0.106059 0.388952
O O18 0.000000 0.000000 0.000000
#
# Coordination Sequence:
#
# PCOD9070110 Si02
#       8
#     2   2   2   2   2   2   2   2
#     4  12  26  46  76 104 150 191 245 301 368 433
#     4  12  25  45  76 110 147 191 249 305 357 439
#     4  12  29  48  73 111 150 192 244 302 370 438
#     4  12  27  47  75 106 149 197 246 303 370 433
#     4  12  27  50  74 106 148 194 246 304 367 447
#     4  12  30  49  74 108 149 193 243 310 376 437
#     4  12  24  45  75 111 146 192 251 306 360 435
#     4  12  26  48  76 106 149 195 247 297 371 441
#
# _framework density 22.583442000000002
#
# number of rings (size 3 to 8) (size 9 to 14) (size 15 to 20)
#    0.000    0.000    5.000    3.750    7.000    1.500 
#    0.000    0.000    0.000    0.000    0.000    0.000 
#    0.000    0.000    0.000    0.000    0.000    0.000 
#
# Total GULP energy -89673.331904 kJ/mol
# GULP energy per Si atom -5604.583244 kJ/mol
# Density = 2.253204 g / cm^3
# Si number density = 22.583442 Si / 1000 Ang^3
#
#
#
# Elastic Constant Matrix: (Units=GPa)
#
#
# Indices 1 2 3 4 5 6 
#
# 1 71.3442 14.4715 10.1408 -18.6012 0.0232 -18.1349
# 2 14.4715 108.9704 7.4067 1.6991 0.6513 -23.9704
# 3 10.1408 7.4067 63.5793 -2.3661 -13.4778 -11.6637
# 4 -18.6012 1.6991 -2.3661 43.4935 -7.4762 0.4807
# 5 0.0232 0.6513 -13.4778 -7.4762 35.3263 -0.1751
# 6 -18.1349 -23.9704 -11.6637 0.4807 -0.1751 45.8556
#
#
#
# Elastic Compliance Matrix: (Units=1/GPa)
#
#
# Indices 1 2 3 4 5 6 
#
# 1 0.018008 -0.001084 -0.001038 0.007843 0.001303 0.006214
# 2 -0.001084 0.010453 -0.000274 -0.001026 -0.000489 0.004974
# 3 -0.001038 -0.000274 0.018314 0.001788 0.007392 0.004114
# 4 0.007843 -0.001026 0.001788 0.027578 0.006546 0.002756
# 5 0.001303 -0.000489 0.007392 0.006546 0.032532 0.002195
# 6 0.006214 0.004974 0.004114 0.002756 0.002195 0.027891
#
#
# Mechanical properties :
#
#
# Convention : Reuss Voigt Hill
#
# Bulk Modulus (GPa) = 23.81969 34.21466 29.01718
# Shear Modulus (GPa) = 32.56008 39.06009 35.81008
#
# Velocity S-wave (km/s) = 3.80118 4.16335 3.98638
# Velocity P-wave (km/s) = 5.46220 6.18825 5.83653
#
# Compressibility (1/GPa) = 0.04198207
#
# Stress axis : x y z
#
# Youngs Moduli (GPa) = 55.53137 95.67051 54.60285
#
# Poissons Ratio (x) = 0.10372 0.05668
# Poissons Ratio (y) = 0.06020 0.01496
# Poissons Ratio (z) = 0.05764 0.02622
#
# Static dielectric constant tensor:
#      x y z
#    x 1.835480 0.003200 0.004680 
#    y 0.003200 1.816700 -0.000560 
#    z 0.004680 -0.000560 1.827580 
# 
# From -- ./inp_files/244256.got.cif
#   From: 2010.05.17/outbox.cif.g08.bks.cpg/sg2_123_cif.got.tgz:244256.got - 2010.06.03 11:33:40.
