data_PCOD9070291
_publ_section_title
;
Structure prediction by ZEFSAII (Michael W. Deem and Ramdas Pophale) SiO2 
 PCOD9070291
Probable space group: P -1
;
_chemical_formula_sum "Si O2"
_cell_formula_units_Z 16
_cell_length_a 8.597293
_cell_length_b 9.270105
_cell_length_c 12.605455
_cell_angle_alpha 50.900072
_cell_angle_beta 95.449435
_cell_angle_gamma 83.114696
_cell_volume 754.807613
_symmetry_space_group_name_H-M "P -1"
_symmetry_group_IT_number 2
_symmetry_cell_setting 'triclinic'
loop_
_space_group_symop_operation_xyz
x,y,z
-x,-y,-z
loop_
_atom_site_type_symbol
_atom_site_label
_atom_site_fract_x
_atom_site_fract_y
_atom_site_fract_z
Si Si1 0.423694 0.132751 0.234816
Si Si2 0.452233 0.312928 0.536252
Si Si3 0.110203 0.293603 0.594389
Si Si4 0.948823 0.705440 0.850186
Si Si5 0.462494 0.819189 0.017325
Si Si6 0.565944 0.376808 0.296758
Si Si7 0.938723 0.223237 0.404994
Si Si8 0.915918 0.033891 0.094485
O O1 0.241815 0.232512 0.204622
O O2 0.536906 0.232888 0.268695
O O3 0.441149 0.904443 0.351686
O O4 0.467175 0.170732 0.099837
O O5 0.500000 0.500000 0.500000
O O6 0.294831 0.295497 0.596789
O O7 0.441333 0.356292 0.390517
O O8 0.083420 0.161170 0.751321
O O9 0.000000 0.500000 0.500000
O O10 0.053934 0.244997 0.498139
O O11 0.031960 0.694832 0.745856
O O12 0.000713 0.849442 0.870804
O O13 0.000000 0.500000 0.000000
O O14 0.534740 0.602287 0.162845
O O15 0.500000 0.000000 0.000000
O O16 0.269386 0.855787 0.984079
O O17 0.750244 0.301627 0.382637
O O18 0.000000 0.000000 0.500000
O O19 0.000000 0.000000 0.000000
#
# Coordination Sequence:
#
# PCOD9070291 Si02
#       8
#     2   2   2   2   2   2   2   2
#     4  12  24  47  70 104 144 186 242 293 355 426
#     4  12  26  46  71 105 142 184 239 291 361 424
#     4  12  28  46  75 105 145 190 238 299 360 429
#     4  12  26  45  75 106 143 190 241 297 356 425
#     4  12  26  47  72 103 145 188 241 295 355 428
#     4  12  26  44  75 105 142 191 236 296 358 427
#     4  12  24  47  73 107 146 185 240 295 360 425
#     4  12  28  49  73 104 146 190 241 296 360 427
#
# _framework density 21.197452999999999
#
# number of rings (size 3 to 8) (size 9 to 14) (size 15 to 20)
#    0.000    0.000    2.500    7.500    7.000    0.000 
#    0.000    0.000    0.000    0.000    0.000    0.000 
#    0.000    0.000    0.000    0.000    0.000    0.000 
#
# Total GULP energy -89415.243743 kJ/mol
# GULP energy per Si atom -5588.452734 kJ/mol
# Density = 2.114921 g / cm^3
# Si number density = 21.197453 Si / 1000 Ang^3
#
#
#
# Elastic Constant Matrix: (Units=GPa)
#
#
# Indices 1 2 3 4 5 6 
#
# 1 85.5798 7.1447 18.9127 -9.6471 -2.9450 1.8910
# 2 7.1447 98.9269 49.3132 -12.6371 -14.0139 1.2678
# 3 18.9127 49.3132 166.2843 -22.3006 -26.6962 -3.0525
# 4 -9.6471 -12.6371 -22.3006 57.6236 -15.6219 2.9453
# 5 -2.9450 -14.0139 -26.6962 -15.6219 40.9520 1.9028
# 6 1.8910 1.2678 -3.0525 2.9453 1.9028 31.7420
#
#
#
# Elastic Compliance Matrix: (Units=1/GPa)
#
#
# Indices 1 2 3 4 5 6 
#
# 1 0.012185 0.000027 -0.000971 0.002015 0.001071 -0.001072
# 2 0.000027 0.012334 -0.002769 0.002644 0.003482 -0.001215
# 3 -0.000971 -0.002769 0.008484 0.004151 0.006085 0.000234
# 4 0.002015 0.002644 0.004151 0.023503 0.012850 -0.002778
# 5 0.001071 0.003482 0.006085 0.012850 0.034691 -0.002890
# 6 -0.001072 -0.001215 0.000234 -0.002778 -0.002890 0.032070
#
#
# Mechanical properties :
#
#
# Convention : Reuss Voigt Hill
#
# Bulk Modulus (GPa) = 39.10153 55.72580 47.41366
# Shear Modulus (GPa) = 35.91477 44.42489 40.16983
#
# Velocity S-wave (km/s) = 4.12065 4.58292 4.35792
# Velocity P-wave (km/s) = 6.41296 7.37226 6.90928
#
# Compressibility (1/GPa) = 0.02557445
#
# Stress axis : x y z
#
# Youngs Moduli (GPa) = 82.06749 81.07956 117.87498
#
# Poissons Ratio (x) = -0.00219 0.11451
# Poissons Ratio (y) = -0.00222 0.32645
# Poissons Ratio (z) = 0.07973 0.22455
#
# Static dielectric constant tensor:
#      x y z
#    x 1.816790 -0.001420 -0.006810 
#    y -0.001420 1.749460 -0.011720 
#    z -0.006810 -0.011720 1.724700 
# 
# From -- ./inp_files/244366.got.cif
#   From: 2010.05.17/outbox.cif.g08.bks.cpg/sg2_123_cif.got.tgz:244366.got - 2010.06.03 11:33:40.
