data_PCOD9070011
_publ_section_title
;
Structure prediction by ZEFSAII (Michael W. Deem and Ramdas Pophale) SiO2 
 PCOD9070011
Probable space group: P -1
;
_chemical_formula_sum "Si O2"
_cell_formula_units_Z 12
_cell_length_a 9.145503
_cell_length_b 8.349937
_cell_length_c 9.705154
_cell_angle_alpha 99.846959
_cell_angle_beta 46.446551
_cell_angle_gamma 87.993223
_cell_volume 516.939084
_symmetry_space_group_name_H-M "P -1"
_symmetry_group_IT_number 2
_symmetry_cell_setting 'triclinic'
loop_
_space_group_symop_operation_xyz
x,y,z
-x,-y,-z
loop_
_atom_site_type_symbol
_atom_site_label
_atom_site_fract_x
_atom_site_fract_y
_atom_site_fract_z
Si Si1 0.924139 0.326668 0.016490
Si Si2 0.770934 0.170058 0.594446
Si Si3 0.861379 0.677813 0.575595
Si Si4 0.735774 0.838926 0.412231
Si Si5 0.571560 0.329990 0.015125
Si Si6 0.373419 0.677366 0.556814
O O1 0.737367 0.340168 0.028927
O O2 0.117622 0.187437 0.819028
O O3 0.836418 0.287365 0.215110
O O4 0.000000 0.500000 0.000000
O O5 0.678529 0.199179 0.810737
O O6 0.660554 0.316396 0.583325
O O7 0.007378 0.186970 0.447073
O O8 0.740127 0.004075 0.517285
O O9 0.836690 0.689696 0.428979
O O10 0.000000 0.500000 0.500000
O O11 0.635409 0.709739 0.792153
O O12 0.509915 0.811547 0.522753
O O13 0.500000 0.500000 0.000000
O O14 0.500000 0.500000 0.500000
#
# Coordination Sequence:
#
# PCOD9070011 Si02
#       6
#     2   2   2   2   2   2
#     4  12  26  43  74 101 138 187 234 284 346 418
#     4  12  28  44  73 106 144 181 229 300 350 403
#     4  12  24  44  74 104 137 185 236 282 345 420
#     4  12  26  47  69 106 147 178 233 294 352 407
#     4  12  25  44  72 105 136 183 239 284 344 417
#     4  12  25  46  73 103 139 189 236 283 344 425
#
# _framework density 23.213567999999999
#
# number of rings (size 3 to 8) (size 9 to 14) (size 15 to 20)
#    0.000    0.000    6.667    3.000    2.333    2.667 
#    0.000    0.000    0.000    0.000    0.000    0.000 
#    0.000    0.000    0.000    0.000    0.000    0.000 
#
# Total GULP energy -67254.088740 kJ/mol
# GULP energy per Si atom -5604.507395 kJ/mol
# Density = 2.316073 g / cm^3
# Si number density = 23.213568 Si / 1000 Ang^3
#
#
#
# Elastic Constant Matrix: (Units=GPa)
#
#
# Indices 1 2 3 4 5 6 
#
# 1 112.5172 31.1462 30.6086 -10.1809 -0.0345 30.2225
# 2 31.1462 74.1789 44.0520 8.0356 -14.4850 34.3093
# 3 30.6086 44.0520 174.8954 -7.1530 -15.2304 34.2478
# 4 -10.1809 8.0356 -7.1530 38.3010 8.1478 -0.5473
# 5 -0.0345 -14.4850 -15.2304 8.1478 41.5630 -13.7817
# 6 30.2225 34.3093 34.2478 -0.5473 -13.7817 61.4703
#
#
#
# Elastic Compliance Matrix: (Units=1/GPa)
#
#
# Indices 1 2 3 4 5 6 
#
# 1 0.011605 -0.004009 -0.000365 0.004602 -0.003773 -0.004070
# 2 -0.004009 0.022590 -0.003327 -0.007737 0.005652 -0.007586
# 3 -0.000365 -0.003327 0.007085 0.001794 0.000493 -0.001785
# 4 0.004602 -0.007737 0.001794 0.031048 -0.008297 -0.000527
# 5 -0.003773 0.005652 0.000493 -0.008297 0.029478 0.004961
# 6 -0.004070 -0.007586 -0.001785 -0.000527 0.004961 0.024605
#
#
# Mechanical properties :
#
#
# Convention : Reuss Voigt Hill
#
# Bulk Modulus (GPa) = 38.64130 63.68947 51.16538
# Shear Modulus (GPa) = 33.23585 45.31917 39.27751
#
# Velocity S-wave (km/s) = 3.78794 4.42324 4.11786
# Velocity P-wave (km/s) = 5.98444 7.32002 6.68566
#
# Compressibility (1/GPa) = 0.02587905
#
# Stress axis : x y z
#
# Youngs Moduli (GPa) = 86.17063 44.26651 141.13636
#
# Poissons Ratio (x) = 0.17746 0.05146
# Poissons Ratio (y) = 0.34546 0.46959
# Poissons Ratio (z) = 0.03142 0.14728
#
# Static dielectric constant tensor:
#      x y z
#    x 1.900380 -0.053030 -0.010540 
#    y -0.053030 1.925310 -0.000280 
#    z -0.010540 -0.000280 1.843010 
# 
# From -- ./inp_files/149738.got.cif
#   From: 2010.05.17/outbox.cif.g08.bks.cpg/sg2_75_cif.got.tgz:149738.got - 2010.06.03 11:33:40.
