data_PCOD9070357
_publ_section_title
;
Structure prediction by ZEFSAII (Michael W. Deem and Ramdas Pophale) SiO2 
 PCOD9070357
Probable space group: P -1
;
_chemical_formula_sum "Si O2"
_cell_formula_units_Z 12
_cell_length_a 13.482207
_cell_length_b 10.437813
_cell_length_c 9.903108
_cell_angle_alpha 133.367887
_cell_angle_beta 64.566124
_cell_angle_gamma 145.726566
_cell_volume 537.140521
_symmetry_space_group_name_H-M "P -1"
_symmetry_group_IT_number 2
_symmetry_cell_setting 'triclinic'
loop_
_space_group_symop_operation_xyz
x,y,z
-x,-y,-z
loop_
_atom_site_type_symbol
_atom_site_label
_atom_site_fract_x
_atom_site_fract_y
_atom_site_fract_z
Si Si1 0.884820 0.330068 0.806203
Si Si2 0.996755 0.666743 0.716980
Si Si3 0.534386 0.166417 0.231323
Si Si4 0.381697 0.702967 0.434672
Si Si5 0.639795 0.725416 0.199277
Si Si6 0.200472 0.191855 0.573817
O O1 0.980751 0.570345 0.807641
O O2 0.673529 0.114920 0.792771
O O3 0.845278 0.074844 0.609662
O O4 0.000000 0.500000 0.000000
O O5 0.000000 0.500000 0.500000
O O6 0.820209 0.562815 0.710876
O O7 0.185444 0.995081 0.792829
O O8 0.651876 0.272834 0.374594
O O9 0.633347 0.481864 0.361945
O O10 0.500000 0.000000 0.000000
O O11 0.514404 0.702304 0.345005
O O12 0.500000 0.000000 0.500000
O O13 0.728634 0.702972 0.236867
O O14 0.500000 0.500000 0.000000
O O15 0.000000 0.000000 0.500000
#
# Coordination Sequence:
#
# PCOD9070357 Si02
#       6
#     2   2   2   2   2   2
#     4  12  27  45  73 113 143 200 252 303 377 448
#     4  12  24  48  77 105 151 195 248 307 374 449
#     4  12  27  45  76 104 150 198 246 308 380 442
#     4  12  24  47  76 108 148 194 255 302 377 447
#     4  12  29  47  77 115 150 197 250 314 383 450
#     4  12  26  48  71 110 156 191 252 313 375 446
#
# _framework density 22.340523999999998
#
# number of rings (size 3 to 8) (size 9 to 14) (size 15 to 20)
#    0.000    0.000    6.667    2.500    7.000    2.000 
#    0.000    0.000    0.000    0.000    0.000    0.000 
#    0.000    0.000    0.000    0.000    0.000    0.000 
#
# Total GULP energy -66817.075047 kJ/mol
# GULP energy per Si atom -5568.089587 kJ/mol
# Density = 2.228968 g / cm^3
# Si number density = 22.340524 Si / 1000 Ang^3
#
#
#
# Elastic Constant Matrix: (Units=GPa)
#
#
# Indices 1 2 3 4 5 6 
#
# 1 83.2882 30.3868 35.0324 -12.5708 29.1259 0.8037
# 2 30.3868 164.2368 29.5841 3.9832 30.4700 -17.0622
# 3 35.0324 29.5841 105.4713 -13.3773 51.6686 -10.0299
# 4 -12.5708 3.9832 -13.3773 45.9209 2.9597 12.4487
# 5 29.1259 30.4700 51.6686 2.9597 40.5967 -10.1610
# 6 0.8037 -17.0622 -10.0299 12.4487 -10.1610 44.1819
#
#
#
# Elastic Compliance Matrix: (Units=1/GPa)
#
#
# Indices 1 2 3 4 5 6 
#
# 1 0.020141 -0.001506 0.006124 0.011206 -0.023992 -0.008233
# 2 -0.001506 0.007393 0.001031 -0.001023 -0.005150 0.002220
# 3 0.006124 0.001031 0.033760 0.017112 -0.051568 -0.008730
# 4 0.011206 -0.001023 0.017112 0.036298 -0.035477 -0.015101
# 5 -0.023992 -0.005150 -0.051568 -0.035477 0.120021 0.024339
# 6 -0.008233 0.002220 -0.008730 -0.015101 0.024339 0.031511
#
#
# Mechanical properties :
#
#
# Convention : Reuss Voigt Hill
#
# Bulk Modulus (GPa) = 13.77558 60.33365 37.05462
# Shear Modulus (GPa) = 19.08233 43.33944 31.21088
#
# Velocity S-wave (km/s) = 2.92577 4.40926 3.74177
# Velocity P-wave (km/s) = 4.19441 7.27923 5.94055
#
# Compressibility (1/GPa) = 0.07259221
#
# Stress axis : x y z
#
# Youngs Moduli (GPa) = 49.65108 135.27126 29.62051
#
# Poissons Ratio (x) = 0.20365 -0.18140
# Poissons Ratio (y) = 0.07475 -0.03053
# Poissons Ratio (z) = -0.30407 -0.13943
#
# Static dielectric constant tensor:
#      x y z
#    x 1.836240 0.010850 -0.048400 
#    y 0.010850 1.726050 -0.061520 
#    z -0.048400 -0.061520 1.958440 
# 
# From -- ./inp_files/157761.got.cif
#   From: 2010.05.17/outbox.cif.g08.bks.cpg/sg2_79_cif.got.tgz:157761.got - 2010.06.03 11:33:40.
