data_PCOD9070635
_publ_section_title
;
Structure prediction by ZEFSAII (Michael W. Deem and Ramdas Pophale) SiO2 
 PCOD9070635
Probable space group: P -1
;
_chemical_formula_sum "Si O2"
_cell_formula_units_Z 14
_cell_length_a 19.912418
_cell_length_b 8.541522
_cell_length_c 8.113638
_cell_angle_alpha 33.489873
_cell_angle_beta 57.716875
_cell_angle_gamma 51.492378
_cell_volume 595.511042
_symmetry_space_group_name_H-M "P -1"
_symmetry_group_IT_number 2
_symmetry_cell_setting 'triclinic'
loop_
_space_group_symop_operation_xyz
x,y,z
-x,-y,-z
loop_
_atom_site_type_symbol
_atom_site_label
_atom_site_fract_x
_atom_site_fract_y
_atom_site_fract_z
Si Si1 0.819077 0.329629 0.737071
Si Si2 0.431890 0.079281 0.165475
Si Si3 0.437601 0.682188 0.780088
Si Si4 0.284645 0.054128 0.847835
Si Si5 0.009502 0.185627 0.171959
Si Si6 0.272159 0.951956 0.335541
Si Si7 0.165369 0.601635 0.962399
O O1 0.784422 0.605767 0.405692
O O2 0.831634 0.428942 0.816809
O O3 0.900838 0.032385 0.834886
O O4 0.747104 0.193232 0.972449
O O5 0.346524 0.014489 0.285166
O O6 0.478965 0.826055 0.463112
O O7 0.409916 0.425457 0.951989
O O8 0.500000 0.000000 0.000000
O O9 0.369472 0.985282 0.691009
O O10 0.500000 0.500000 0.000000
O O11 0.301020 0.937553 0.118325
O O12 0.931895 0.215141 0.124918
O O13 0.000000 0.000000 0.500000
O O14 0.000000 0.500000 0.000000
O O15 0.235314 0.718335 0.679184
O O16 0.188438 0.260713 0.167350
#
# Coordination Sequence:
#
# PCOD9070635 Si02
#       7
#     2   2   2   2   2   2   2
#     4  12  25  44  69 100 137 180 228 282 340 405
#     4  12  26  46  71 103 139 180 228 285 345 411
#     4  12  26  46  71 103 139 180 228 285 345 411
#     4  12  25  44  69 100 137 181 227 279 342 409
#     4  12  25  44  69 102 139 182 231 284 341 406
#     4  12  25  44  69 100 137 181 227 279 342 409
#     4  12  25  44  69 100 137 180 228 282 340 405
#
# _framework density 23.509221
#
# number of rings (size 3 to 8) (size 9 to 14) (size 15 to 20)
#    0.000    0.000    0.000   12.429    0.000    2.286 
#    0.000    4.286    0.000    0.000    0.000    0.000 
#    0.000    0.000    0.000    0.000    0.000    0.000 
#
# Total GULP energy -78167.857553 kJ/mol
# GULP energy per Si atom -5583.418397 kJ/mol
# Density = 2.345571 g / cm^3
# Si number density = 23.509221 Si / 1000 Ang^3
#
#
#
# Elastic Constant Matrix: (Units=GPa)
#
#
# Indices 1 2 3 4 5 6 
#
# 1 72.4873 25.8288 19.5699 0.8905 9.7117 8.9939
# 2 25.8288 110.4621 21.2470 13.2298 7.2442 -0.8526
# 3 19.5699 21.2470 142.7132 9.8805 5.6518 -0.2106
# 4 0.8905 13.2298 9.8805 43.7233 6.2961 3.6460
# 5 9.7117 7.2442 5.6518 6.2961 34.3902 1.4176
# 6 8.9939 -0.8526 -0.2106 3.6460 1.4176 16.5271
#
#
#
# Elastic Compliance Matrix: (Units=1/GPa)
#
#
# Indices 1 2 3 4 5 6 
#
# 1 0.017383 -0.003844 -0.001854 0.002612 -0.003864 -0.009926
# 2 -0.003844 0.010544 -0.000798 -0.003130 -0.000570 0.003365
# 3 -0.001854 -0.000798 0.007498 -0.001486 -0.000327 0.001419
# 4 0.002612 -0.003130 -0.001486 0.025271 -0.004180 -0.006818
# 5 -0.003864 -0.000570 -0.000327 -0.004180 0.031095 0.000324
# 6 -0.009926 0.003365 0.001419 -0.006818 0.000324 0.067576
#
#
# Mechanical properties :
#
#
# Convention : Reuss Voigt Hill
#
# Bulk Modulus (GPa) = 44.57926 50.99488 47.78707
# Shear Modulus (GPa) = 27.80300 36.19593 31.99947
#
# Velocity S-wave (km/s) = 3.44269 3.92809 3.69337
# Velocity P-wave (km/s) = 5.89970 6.50475 6.20960
#
# Compressibility (1/GPa) = 0.02243195
#
# Stress axis : x y z
#
# Youngs Moduli (GPa) = 57.52785 94.84516 133.36751
#
# Poissons Ratio (x) = 0.36459 0.24724
# Poissons Ratio (y) = 0.22114 0.10647
# Poissons Ratio (z) = 0.10665 0.07572
#
# Static dielectric constant tensor:
#      x y z
#    x 2.020270 -0.036680 0.031260 
#    y -0.036680 1.878760 0.002400 
#    z 0.031260 0.002400 1.869980 
# 
# From -- ./inp_files/343186.got.cif
#   From: 2010.05.17/outbox.cif.g08.bks.cpg/sg2_172_cif.got.tgz:343186.got - 2010.06.03 11:33:40.
