data_PCOD9070321
_publ_section_title
;
Structure prediction by ZEFSAII (Michael W. Deem and Ramdas Pophale) SiO2 
 PCOD9070321
Probable space group: P -1
;
_chemical_formula_sum "Si O2"
_cell_formula_units_Z 16
_cell_length_a 6.264101
_cell_length_b 7.909310
_cell_length_c 19.078850
_cell_angle_alpha 65.395428
_cell_angle_beta 121.655225
_cell_angle_gamma 113.647869
_cell_volume 710.909422
_symmetry_space_group_name_H-M "P -1"
_symmetry_group_IT_number 2
_symmetry_cell_setting 'triclinic'
loop_
_space_group_symop_operation_xyz
x,y,z
-x,-y,-z
loop_
_atom_site_type_symbol
_atom_site_label
_atom_site_fract_x
_atom_site_fract_y
_atom_site_fract_z
Si Si1 0.905487 0.812030 0.832955
Si Si2 0.780671 0.416356 0.310090
Si Si3 0.356259 0.615324 0.193860
Si Si4 0.502211 0.186095 0.423890
Si Si5 0.279943 0.614185 0.443652
Si Si6 0.911702 0.130696 0.291059
Si Si7 0.411288 0.868945 0.291668
Si Si8 0.216407 0.906071 0.008505
O O1 0.786526 0.598926 0.819075
O O2 0.092986 0.904564 0.786096
O O3 0.044812 0.805747 0.931276
O O4 0.717486 0.957824 0.782310
O O5 0.648614 0.591860 0.248847
O O6 0.608104 0.241304 0.355417
O O7 0.818319 0.322169 0.259360
O O8 0.033508 0.486144 0.386891
O O9 0.313827 0.692026 0.251325
O O10 0.294527 0.764850 0.102667
O O11 0.706115 0.334603 0.481459
O O12 0.198738 0.178668 0.364555
O O13 0.500000 0.000000 0.500000
O O14 0.500000 0.500000 0.500000
O O15 0.347551 0.798339 0.372015
O O16 0.718686 0.948214 0.323052
O O17 0.500000 0.000000 0.000000
O O18 0.000000 0.000000 0.000000
#
# Coordination Sequence:
#
# PCOD9070321 Si02
#       8
#     2   2   2   2   2   2   2   2
#     4  12  26  52  78 117 153 199 260 315 399 470
#     4  12  26  47  71 109 151 202 267 316 397 471
#     4  12  26  51  80 113 153 208 252 325 399 478
#     4  12  26  44  67 105 149 203 260 321 392 455
#     4  12  26  44  69 104 150 205 258 324 383 465
#     4  12  24  47  74 106 153 200 257 325 388 471
#     4  12  27  47  75 109 154 202 259 319 393 462
#     4  12  29  54  85 124 161 207 263 332 402 492
#
# _framework density 22.506381999999999
#
# number of rings (size 3 to 8) (size 9 to 14) (size 15 to 20)
#    0.000    0.000    5.000    4.500    7.000    2.000 
#    0.000    1.875    0.000    0.000    0.000    0.000 
#    0.000    0.000    0.000    0.000    0.000    0.000 
#
# Total GULP energy -89195.412240 kJ/mol
# GULP energy per Si atom -5574.713265 kJ/mol
# Density = 2.245516 g / cm^3
# Si number density = 22.506382 Si / 1000 Ang^3
#
#
#
# Elastic Constant Matrix: (Units=GPa)
#
#
# Indices 1 2 3 4 5 6 
#
# 1 95.0611 39.9375 39.2378 3.2537 2.4802 -2.7746
# 2 39.9375 100.3039 26.6617 17.2046 5.7355 -6.5400
# 3 39.2378 26.6617 146.7545 7.2822 7.4764 -17.1834
# 4 3.2537 17.2046 7.2822 54.2341 -11.6523 -4.4430
# 5 2.4802 5.7355 7.4764 -11.6523 35.3997 -0.5439
# 6 -2.7746 -6.5400 -17.1834 -4.4430 -0.5439 43.6931
#
#
#
# Elastic Compliance Matrix: (Units=1/GPa)
#
#
# Indices 1 2 3 4 5 6 
#
# 1 0.013766 -0.005018 -0.002984 0.001283 0.000887 -0.000909
# 2 -0.005018 0.013101 -0.000555 -0.004364 -0.003076 0.000942
# 3 -0.002984 -0.000555 0.008173 -0.000869 -0.001670 0.002832
# 4 0.001283 -0.004364 -0.000869 0.021687 0.007961 0.001391
# 5 0.000887 -0.003076 -0.001670 0.007961 0.031660 0.000143
# 6 -0.000909 0.000942 0.002832 0.001391 0.000143 0.024227
#
#
# Mechanical properties :
#
#
# Convention : Reuss Voigt Hill
#
# Bulk Modulus (GPa) = 55.78672 61.53259 58.65966
# Shear Modulus (GPa) = 36.84503 42.41753 39.63128
#
# Velocity S-wave (km/s) = 4.05049 4.34601 4.20085
# Velocity P-wave (km/s) = 6.83492 7.25142 7.04625
#
# Compressibility (1/GPa) = 0.01792541
#
# Stress axis : x y z
#
# Youngs Moduli (GPa) = 72.64329 76.32985 122.35952
#
# Poissons Ratio (x) = 0.38301 0.36515
# Poissons Ratio (y) = 0.36452 0.06790
# Poissons Ratio (z) = 0.21679 0.04236
#
# Static dielectric constant tensor:
#      x y z
#    x 1.917660 0.028990 -0.001230 
#    y 0.028990 1.881560 -0.011460 
#    z -0.001230 -0.011460 1.588360 
# 
# From -- ./inp_files/547929.got.cif
#   From: 2010.05.17/outbox.cif.g08.bks.cpg/sg2_274_cif.got.tgz:547929.got - 2010.06.03 11:33:40.
