data_PCOD9070578
_publ_section_title
;
Structure prediction by ZEFSAII (Michael W. Deem and Ramdas Pophale) SiO2 
 PCOD9070578
Probable space group: P -1
;
_chemical_formula_sum "Si O2"
_cell_formula_units_Z 16
_cell_length_a 16.701251
_cell_length_b 21.820294
_cell_length_c 10.910478
_cell_angle_alpha 20.604139
_cell_angle_beta 146.863655
_cell_angle_gamma 150.869412
_cell_volume 676.605083
_symmetry_space_group_name_H-M "P -1"
_symmetry_group_IT_number 2
_symmetry_cell_setting 'triclinic'
loop_
_space_group_symop_operation_xyz
x,y,z
-x,-y,-z
loop_
_atom_site_type_symbol
_atom_site_label
_atom_site_fract_x
_atom_site_fract_y
_atom_site_fract_z
Si Si1 0.878476 0.403522 0.636997
Si Si2 0.719127 0.035439 0.973555
Si Si3 0.103015 0.739314 0.459725
Si Si4 0.299648 0.546025 0.151699
Si Si5 0.373398 0.970297 0.729072
Si Si6 0.439448 0.669541 0.546572
Si Si7 0.985383 0.280383 0.370894
Si Si8 0.443358 0.409713 0.388151
O O1 0.806027 0.174215 0.942072
O O2 0.721961 0.446720 0.359604
O O3 0.000000 0.500000 0.500000
O O4 0.985964 0.516625 0.679399
O O5 0.825975 0.123853 0.822843
O O6 0.538011 0.029922 0.744378
O O7 0.690541 0.817768 0.367490
O O8 0.007607 0.788797 0.351330
O O9 0.253027 0.722021 0.750670
O O10 0.366341 0.530541 0.132275
O O11 0.426290 0.586133 0.350031
O O12 0.143837 0.338187 0.380271
O O13 0.190581 0.872259 0.623406
O O14 0.414576 0.163877 0.499644
O O15 0.381844 0.800523 0.141368
O O16 0.479248 0.541560 0.739572
O O17 0.000000 0.500000 0.000000
#
# Coordination Sequence:
#
# PCOD9070578 Si02
#       8
#     2   2   2   2   2   2   2   2
#     4   9  17  29  50  78 100 120 161 206 235 276
#     4   9  18  32  51  74  98 125 161 198 237 286
#     4  10  18  31  53  74  96 128 160 201 245 277
#     4  10  21  33  48  72 100 126 162 201 238 289
#     4   9  17  27  46  73  94 117 163 207 229 273
#     4   9  15  29  49  67  93 130 159 191 241 284
#     4  10  18  29  46  70  96 123 161 203 238 278
#     4  10  20  34  49  70  99 131 160 195 242 292
#
# _framework density 23.647475
#
# number of rings (size 3 to 8) (size 9 to 14) (size 15 to 20)
#    0.000    2.500    0.000    6.000    0.000    2.000 
#    0.000    3.125    0.000    9.750    0.000    0.000 
#    0.000    0.000    0.000    0.000    0.000    0.000 
#
# Total GULP energy -89230.910081 kJ/mol
# GULP energy per Si atom -5576.931880 kJ/mol
# Density = 2.359365 g / cm^3
# Si number density = 23.647475 Si / 1000 Ang^3
#
#
#
# Elastic Constant Matrix: (Units=GPa)
#
#
# Indices 1 2 3 4 5 6 
#
# 1 138.2412 25.3117 4.5237 -14.4337 9.0005 -3.2295
# 2 25.3117 105.3717 -5.3988 -17.5280 -3.0878 -15.2918
# 3 4.5237 -5.3988 31.0464 -3.5731 -2.2719 1.5140
# 4 -14.4337 -17.5280 -3.5731 14.6913 0.6886 -3.3053
# 5 9.0005 -3.0878 -2.2719 0.6886 22.4917 -9.9051
# 6 -3.2295 -15.2918 1.5140 -3.3053 -9.9051 30.1343
#
#
#
# Elastic Compliance Matrix: (Units=1/GPa)
#
#
# Indices 1 2 3 4 5 6 
#
# 1 0.008431 -0.001028 -0.000879 0.007009 -0.003849 -0.000070
# 2 -0.001028 0.015600 0.005289 0.021327 0.007934 0.012488
# 3 -0.000879 0.005289 0.035184 0.014718 0.006143 0.004456
# 4 0.007009 0.021327 0.014718 0.109378 0.009724 0.026028
# 5 -0.003849 0.007934 0.006143 0.009724 0.057689 0.023334
# 6 -0.000070 0.012488 0.004456 0.026028 0.023334 0.049815
#
#
# Mechanical properties :
#
#
# Convention : Reuss Voigt Hill
#
# Bulk Modulus (GPa) = 15.15608 35.94805 25.55207
# Shear Modulus (GPa) = 17.16287 30.14496 23.65392
#
# Velocity S-wave (km/s) = 2.69695 3.57426 3.16614
# Velocity P-wave (km/s) = 4.01512 5.68053 4.91882
#
# Compressibility (1/GPa) = 0.06598011
#
# Stress axis : x y z
#
# Youngs Moduli (GPa) = 118.60475 64.10090 28.42220
#
# Poissons Ratio (x) = 0.06586 0.02498
# Poissons Ratio (y) = 0.12187 -0.15032
# Poissons Ratio (z) = 0.10424 -0.33901
#
# Static dielectric constant tensor:
#      x y z
#    x 2.032910 0.048740 -0.017600 
#    y 0.048740 1.933960 0.030720 
#    z -0.017600 0.030720 1.931480 
# 
# From -- ./inp_files/457446.got.cif
#   From: 2010.05.17/outbox.cif.g08.bks.cpg/sg2_229_cif.got.tgz:457446.got - 2010.06.03 11:33:40.
