data_PCOD9070665
_publ_section_title
;
Structure prediction by ZEFSAII (Michael W. Deem and Ramdas Pophale) SiO2 
 PCOD9070665
Probable space group: P -1
;
_chemical_formula_sum "Si O2"
_cell_formula_units_Z 14
_cell_length_a 8.505343
_cell_length_b 26.530209
_cell_length_c 28.909138
_cell_angle_alpha 169.804367
_cell_angle_beta 147.116885
_cell_angle_gamma 31.514549
_cell_volume 603.553967
_symmetry_space_group_name_H-M "P -1"
_symmetry_group_IT_number 2
_symmetry_cell_setting 'triclinic'
loop_
_space_group_symop_operation_xyz
x,y,z
-x,-y,-z
loop_
_atom_site_type_symbol
_atom_site_label
_atom_site_fract_x
_atom_site_fract_y
_atom_site_fract_z
Si Si1 0.291272 0.705890 0.917821
Si Si2 0.338580 0.351107 0.285381
Si Si3 0.139821 0.156764 0.215569
Si Si4 0.736332 0.210988 0.418203
Si Si5 0.315587 0.255436 0.862692
Si Si6 0.208045 0.688627 0.375704
Si Si7 0.708900 0.351726 0.959970
O O1 0.576726 0.569179 0.833064
O O2 0.020960 0.556856 0.709032
O O3 0.439403 0.699624 0.998683
O O4 0.131276 0.021002 0.141452
O O5 0.500000 0.500000 0.500000
O O6 0.308546 0.493727 0.355485
O O7 0.500000 0.000000 0.000000
O O8 0.483172 0.085752 0.219479
O O9 0.000000 0.500000 0.500000
O O10 0.000000 0.000000 0.000000
O O11 0.646905 0.269747 0.502294
O O12 0.052935 0.966383 0.275957
O O13 0.491858 0.279248 0.880316
O O14 0.207797 0.972035 0.599058
O O15 0.000000 0.500000 0.000000
O O16 0.913397 0.586470 0.226586
O O17 0.500000 0.500000 0.000000
#
# Coordination Sequence:
#
# PCOD9070665 Si02
#       7
#     2   2   2   2   2   2   2
#     4  12  26  48  76 111 160 210 266 345 411 493
#     4  12  30  49  78 120 168 222 287 348 426 498
#     4  12  25  44  76 110 154 206 268 327 398 484
#     4  12  26  48  76 111 160 210 266 345 411 493
#     4  12  28  50  81 118 161 212 275 343 421 506
#     4  12  25  49  82 112 164 208 273 335 428 488
#     4  12  28  50  81 118 161 212 275 343 421 506
#
# _framework density 23.195937000000001
#
# number of rings (size 3 to 8) (size 9 to 14) (size 15 to 20)
#    0.000    0.000    2.857    6.000    6.000    5.714 
#    0.000    0.000    0.000    0.000    0.000    0.000 
#    0.000    0.000    0.000    0.000    0.000    0.000 
#
# Total GULP energy -78061.538066 kJ/mol
# GULP energy per Si atom -5575.824148 kJ/mol
# Density = 2.314314 g / cm^3
# Si number density = 23.195937 Si / 1000 Ang^3
#
#
#
# Elastic Constant Matrix: (Units=GPa)
#
#
# Indices 1 2 3 4 5 6 
#
# 1 106.8869 22.6656 25.1763 25.1261 14.8945 31.6001
# 2 22.6656 137.6403 52.5353 23.2340 -3.5908 30.1240
# 3 25.1763 52.5353 110.8470 24.6754 9.1369 28.1529
# 4 25.1261 23.2340 24.6754 52.3553 4.5891 13.3479
# 5 14.8945 -3.5908 9.1369 4.5891 44.2755 -0.0664
# 6 31.6001 30.1240 28.1529 13.3479 -0.0664 32.6303
#
#
#
# Elastic Compliance Matrix: (Units=1/GPa)
#
#
# Indices 1 2 3 4 5 6 
#
# 1 0.014771 0.000818 0.001205 -0.003902 -0.004769 -0.014513
# 2 0.000818 0.010091 -0.002932 -0.001869 0.001332 -0.006811
# 3 0.001205 -0.002932 0.013272 -0.003053 -0.003079 -0.008669
# 4 -0.003902 -0.001869 -0.003053 0.023696 -0.000668 -0.001557
# 5 -0.004769 0.001332 -0.003079 -0.000668 0.025012 0.006369
# 6 -0.014513 -0.006811 -0.008669 -0.001557 0.006369 0.059118
#
#
# Mechanical properties :
#
#
# Convention : Reuss Voigt Hill
#
# Bulk Modulus (GPa) = 27.53596 61.79205 44.66400
# Shear Modulus (GPa) = 31.27276 42.85201 37.06238
#
# Velocity S-wave (km/s) = 3.67577 4.30279 4.00158
# Velocity P-wave (km/s) = 5.46917 7.16815 6.37551
#
# Compressibility (1/GPa) = 0.03631615
#
# Stress axis : x y z
#
# Youngs Moduli (GPa) = 67.70165 99.10222 75.34416
#
# Poissons Ratio (x) = -0.08110 -0.09079
# Poissons Ratio (y) = -0.05540 0.22092
# Poissons Ratio (z) = -0.08158 0.29058
#
# Static dielectric constant tensor:
#      x y z
#    x 1.953070 0.056850 0.112960 
#    y 0.056850 1.548480 0.476250 
#    z 0.112960 0.476250 1.378300 
# 
# From -- ./inp_files/480835.got.cif
#   From: 2010.05.17/outbox.cif.g08.bks.cpg/sg2_241_cif.got.tgz:480835.got - 2010.06.03 11:33:40.
