data_PCOD9070392
_publ_section_title
;
Structure prediction by ZEFSAII (Michael W. Deem and Ramdas Pophale) SiO2 
 PCOD9070392
Probable space group: P -1
;
_chemical_formula_sum "Si O2"
_cell_formula_units_Z 13
_cell_length_a 12.119186
_cell_length_b 7.899506
_cell_length_c 8.934151
_cell_angle_alpha 80.863462
_cell_angle_beta 37.501739
_cell_angle_gamma 96.776677
_cell_volume 469.842703
_symmetry_space_group_name_H-M "P -1"
_symmetry_group_IT_number 2
_symmetry_cell_setting 'triclinic'
loop_
_space_group_symop_operation_xyz
x,y,z
-x,-y,-z
loop_
_atom_site_type_symbol
_atom_site_label
_atom_site_fract_x
_atom_site_fract_y
_atom_site_fract_z
Si Si1 0.046138 0.343655 0.561266
Si Si2 0.786676 0.360495 0.308762
Si Si3 0.500000 0.500000 0.000000
Si Si4 0.627417 0.720713 0.165329
Si Si5 0.059084 0.806077 0.607895
Si Si6 0.156330 0.924350 0.918363
Si Si7 0.583106 0.853832 0.864382
O O1 0.000000 0.500000 0.500000
O O2 0.961656 0.181591 0.548003
O O3 0.949535 0.249834 0.831864
O O4 0.277823 0.406945 0.316928
O O5 0.591400 0.404533 0.515940
O O6 0.827329 0.318224 0.441180
O O7 0.746354 0.164904 0.294867
O O8 0.000000 0.500000 0.000000
O O9 0.449644 0.675200 0.937928
O O10 0.593514 0.730129 0.018820
O O11 0.841599 0.710007 0.930069
O O12 0.691740 0.912262 0.163783
O O13 0.210631 0.017219 0.452322
O O14 0.000000 0.000000 0.000000
O O15 0.500000 0.000000 0.000000
#
# Coordination Sequence:
#
# PCOD9070392 Si02
#       7
#     2   2   1   2   2   2   2
#     4  12  27  48  79 117 154 201 264 332 394 469
#     4  12  29  49  73 112 154 202 262 319 390 480
#     4  12  28  42  76 124 150 196 266 330 396 468
#     4  12  25  48  77 103 151 210 252 316 396 467
#     4  12  24  49  79 108 151 204 255 328 391 466
#     4  12  27  51  77 110 159 207 258 317 400 486
#     4  12  24  47  81 115 153 200 264 333 399 464
#
# _framework density 27.668835999999999
#
# number of rings (size 3 to 8) (size 9 to 14) (size 15 to 20)
#    0.000    0.000    6.154    3.692    2.154    0.615 
#    5.538    0.000    0.000    0.000    0.000    0.000 
#    0.000    0.000    0.000    0.000    0.000    0.000 
#
# Total GULP energy -72444.235940 kJ/mol
# GULP energy per Si atom -5572.633534 kJ/mol
# Density = 2.760586 g / cm^3
# Si number density = 27.668836 Si / 1000 Ang^3
#
#
#
# Elastic Constant Matrix: (Units=GPa)
#
#
# Indices 1 2 3 4 5 6 
#
# 1 94.2935 22.7403 72.0622 7.0439 4.0117 -12.0400
# 2 22.7403 95.9568 29.8564 6.5940 -2.2548 -19.2799
# 3 72.0622 29.8564 181.9073 2.2746 -31.7728 -15.2124
# 4 7.0439 6.5940 2.2746 59.5824 4.1667 0.3583
# 5 4.0117 -2.2548 -31.7728 4.1667 51.9140 7.9025
# 6 -12.0400 -19.2799 -15.2124 0.3583 7.9025 56.2621
#
#
#
# Elastic Compliance Matrix: (Units=1/GPa)
#
#
# Indices 1 2 3 4 5 6 
#
# 1 0.017316 -0.001411 -0.007528 -0.001181 -0.006227 0.002069
# 2 -0.001411 0.011896 -0.001180 -0.001088 -0.000548 0.003539
# 3 -0.007528 -0.001180 0.009791 0.000190 0.006552 -0.000289
# 4 -0.001181 -0.001088 0.000190 0.017119 -0.001134 -0.000524
# 5 -0.006227 -0.000548 0.006552 -0.001134 0.024301 -0.003155
# 6 0.002069 0.003539 -0.000289 -0.000524 -0.003155 0.019798
#
#
# Mechanical properties :
#
#
# Convention : Reuss Voigt Hill
#
# Bulk Modulus (GPa) = 53.28886 69.05283 61.17084
# Shear Modulus (GPa) = 39.45966 50.05158 44.75562
#
# Velocity S-wave (km/s) = 3.78053 4.25779 4.02624
# Velocity P-wave (km/s) = 6.19337 7.01304 6.61591
#
# Compressibility (1/GPa) = 0.01876565
#
# Stress axis : x y z
#
# Youngs Moduli (GPa) = 57.75089 84.06351 102.13648
#
# Poissons Ratio (x) = 0.11860 0.76887
# Poissons Ratio (y) = 0.08148 0.12048
# Poissons Ratio (z) = 0.43474 0.09916
#
# Static dielectric constant tensor:
#      x y z
#    x 1.931060 -0.325980 0.015280 
#    y -0.325980 2.016820 0.051690 
#    z 0.015280 0.051690 2.113620 
# 
# From -- ./inp_files/242809.got.cif
#   From: 2010.05.17/outbox.cif.g08.bks.cpg/sg2_122_cif.got.tgz:242809.got - 2010.06.03 11:33:40.
