data_PCOD9070879
_publ_section_title
;
Structure prediction by ZEFSAII (Michael W. Deem and Ramdas Pophale) SiO2 
 PCOD9070879
Probable space group: P -1
;
_chemical_formula_sum "Si O2"
_cell_formula_units_Z 15
_cell_length_a 8.860160
_cell_length_b 9.403324
_cell_length_c 13.013145
_cell_angle_alpha 102.830101
_cell_angle_beta 119.361061
_cell_angle_gamma 44.525430
_cell_volume 648.023797
_symmetry_space_group_name_H-M "P -1"
_symmetry_group_IT_number 2
_symmetry_cell_setting 'triclinic'
loop_
_space_group_symop_operation_xyz
x,y,z
-x,-y,-z
loop_
_atom_site_type_symbol
_atom_site_label
_atom_site_fract_x
_atom_site_fract_y
_atom_site_fract_z
Si Si1 0.310200 0.680638 0.379747
Si Si2 0.722927 0.966835 0.526275
Si Si3 0.421273 0.991433 0.084153
Si Si4 0.239135 0.990139 0.687931
Si Si5 0.211931 0.449392 0.776320
Si Si6 0.464145 0.578514 0.795245
Si Si7 0.000000 0.500000 0.500000
Si Si8 0.937092 0.400852 0.034887
O O1 0.500000 0.500000 0.500000
O O2 0.391736 0.568566 0.279604
O O3 0.034806 0.797725 0.337790
O O4 0.303338 0.862662 0.393795
O O5 0.727438 0.036341 0.426243
O O6 0.929086 0.715803 0.542112
O O7 0.500000 0.000000 0.500000
O O8 0.541558 0.040022 0.205173
O O9 0.555031 0.766928 0.127694
O O10 0.131065 0.161613 0.028974
O O11 0.500000 0.000000 0.000000
O O12 0.285650 0.809178 0.729404
O O13 0.303224 0.551307 0.788576
O O14 0.120256 0.411805 0.641918
O O15 0.026279 0.578746 0.830519
O O16 0.662995 0.518536 0.932836
O O17 0.000000 0.500000 0.000000
#
# Coordination Sequence:
#
# PCOD9070879 Si02
#       8
#     2   2   2   2   2   2   1   2
#     4  12  28  46  76 111 160 211 263 320 401 477
#     4  12  28  46  75 111 153 208 261 320 393 475
#     4  12  25  47  76 111 148 204 264 320 394 463
#     4  12  26  47  74 107 154 207 256 322 394 478
#     4  12  28  47  78 115 158 202 264 332 395 474
#     4  12  27  50  76 115 157 205 264 333 399 466
#     4  12  28  46  78 114 164 200 260 326 402 464
#     4  12  26  48  81 112 151 210 265 325 394 471
#
# _framework density 23.147297999999999
#
# number of rings (size 3 to 8) (size 9 to 14) (size 15 to 20)
#    0.000    0.000    5.333    3.200    5.600    1.600 
#    0.000    0.000    0.000    0.000    0.000    0.000 
#    0.000    0.000    0.000    0.000    0.000    0.000 
#
# Total GULP energy -83605.432858 kJ/mol
# GULP energy per Si atom -5573.695524 kJ/mol
# Density = 2.309461 g / cm^3
# Si number density = 23.147298 Si / 1000 Ang^3
#
#
#
# Elastic Constant Matrix: (Units=GPa)
#
#
# Indices 1 2 3 4 5 6 
#
# 1 102.7547 18.3457 21.5358 -9.5170 -9.1031 8.5905
# 2 18.3457 139.8186 34.8493 -21.4191 -3.1467 11.6107
# 3 21.5358 34.8493 106.5980 -3.8490 -7.2922 -15.1289
# 4 -9.5170 -21.4191 -3.8490 41.0312 4.7943 -5.1427
# 5 -9.1031 -3.1467 -7.2922 4.7943 24.5051 6.2417
# 6 8.5905 11.6107 -15.1289 -5.1427 6.2417 46.0316
#
#
#
# Elastic Compliance Matrix: (Units=1/GPa)
#
#
# Indices 1 2 3 4 5 6 
#
# 1 0.010985 -0.000340 -0.002231 0.001320 0.003899 -0.003079
# 2 -0.000340 0.008775 -0.003045 0.003872 0.000031 -0.002722
# 3 -0.002231 -0.003045 0.011560 -0.000555 0.001114 0.004771
# 4 0.001320 0.003872 -0.000555 0.027549 -0.005172 0.002374
# 5 0.003899 0.000031 0.001114 -0.005172 0.045413 -0.007105
# 6 -0.003079 -0.002722 0.004771 0.002374 -0.007105 0.025782
#
#
# Mechanical properties :
#
#
# Convention : Reuss Voigt Hill
#
# Bulk Modulus (GPa) = 49.77485 55.40366 52.58926
# Shear Modulus (GPa) = 33.78545 40.60961 37.19753
#
# Velocity S-wave (km/s) = 3.82460 4.19310 4.01308
# Velocity P-wave (km/s) = 6.40731 6.88694 6.65145
#
# Compressibility (1/GPa) = 0.02009047
#
# Stress axis : x y z
#
# Youngs Moduli (GPa) = 91.03161 113.95396 86.50238
#
# Poissons Ratio (x) = 0.03871 0.19297
# Poissons Ratio (y) = 0.03093 0.26338
# Poissons Ratio (z) = 0.20307 0.34696
#
# Static dielectric constant tensor:
#      x y z
#    x 1.841380 0.000750 0.066780 
#    y 0.000750 1.910840 -0.046980 
#    z 0.066780 -0.046980 1.806420 
# 
# From -- ./inp_files/382721.got.cif
#   From: 2010.05.17/outbox.cif.g08.bks.cpg/sg2_192_cif.got.tgz:382721.got - 2010.06.03 11:33:40.
