data_PCOD9070777
_publ_section_title
;
Structure prediction by ZEFSAII (Michael W. Deem and Ramdas Pophale) SiO2 
 PCOD9070777
Probable space group: P -1
;
_chemical_formula_sum "Si O2"
_cell_formula_units_Z 12
_cell_length_a 8.950891
_cell_length_b 8.421778
_cell_length_c 9.657929
_cell_angle_alpha 78.869936
_cell_angle_beta 68.877941
_cell_angle_gamma 54.467451
_cell_volume 552.533004
_symmetry_space_group_name_H-M "P -1"
_symmetry_group_IT_number 2
_symmetry_cell_setting 'triclinic'
loop_
_space_group_symop_operation_xyz
x,y,z
-x,-y,-z
loop_
_atom_site_type_symbol
_atom_site_label
_atom_site_fract_x
_atom_site_fract_y
_atom_site_fract_z
Si Si1 0.715856 0.436242 0.472416
Si Si2 0.913736 0.240988 0.720069
Si Si3 0.315984 0.163447 0.617893
Si Si4 0.972053 0.176384 0.177054
Si Si5 0.696030 0.453125 0.009916
Si Si6 0.325812 0.175757 0.940824
O O1 0.500000 0.500000 0.500000
O O2 0.777522 0.338324 0.618307
O O3 0.718498 0.628344 0.434220
O O4 0.870892 0.283618 0.335545
O O5 0.131200 0.168553 0.626713
O O6 0.840152 0.395949 0.842712
O O7 0.919593 0.054097 0.802505
O O8 0.339678 0.127567 0.781563
O O9 0.500000 0.000000 0.500000
O O10 0.797975 0.267952 0.108942
O O11 0.125366 0.219599 0.061459
O O12 0.667820 0.634731 0.071687
O O13 0.500000 0.500000 0.000000
O O14 0.500000 0.000000 0.000000
#
# Coordination Sequence:
#
# PCOD9070777 Si02
#       6
#     2   2   2   2   2   2
#     4  12  27  48  73 104 147 192 241 294 358 424
#     4  12  27  45  75 107 143 192 237 296 358 427
#     4  12  28  49  72 105 148 189 241 295 359 428
#     4  12  25  49  74 106 147 184 244 294 358 425
#     4  12  25  46  74 106 143 184 239 297 355 425
#     4  12  28  46  76 107 143 190 240 300 357 421
#
# _framework density 21.718159
#
# number of rings (size 3 to 8) (size 9 to 14) (size 15 to 20)
#    0.000    0.000    3.333    6.000    9.333    0.000 
#    0.000    0.000    0.000    0.000    0.000    0.000 
#    0.000    0.000    0.000    0.000    0.000    0.000 
#
# Total GULP energy -67263.792123 kJ/mol
# GULP energy per Si atom -5605.316010 kJ/mol
# Density = 2.166873 g / cm^3
# Si number density = 21.718159 Si / 1000 Ang^3
#
#
#
# Elastic Constant Matrix: (Units=GPa)
#
#
# Indices 1 2 3 4 5 6 
#
# 1 93.1741 21.6734 12.9640 -15.7263 7.8258 -6.8724
# 2 21.6734 85.4869 41.8851 -15.7952 22.1613 -11.4258
# 3 12.9640 41.8851 100.2793 0.6076 25.8377 -3.0869
# 4 -15.7263 -15.7952 0.6076 57.3533 -10.8837 6.0570
# 5 7.8258 22.1613 25.8377 -10.8837 42.6670 -9.1429
# 6 -6.8724 -11.4258 -3.0869 6.0570 -9.1429 37.6107
#
#
#
# Elastic Compliance Matrix: (Units=1/GPa)
#
#
# Indices 1 2 3 4 5 6 
#
# 1 0.011816 -0.002087 -0.000700 0.002601 0.000241 0.001107
# 2 -0.002087 0.016976 -0.005864 0.003202 -0.003436 0.002944
# 3 -0.000700 -0.005864 0.014166 -0.003007 -0.006570 -0.001859
# 4 0.002601 0.003202 -0.003007 0.020031 0.004596 -0.000907
# 5 0.000241 -0.003436 -0.006570 0.004596 0.031480 0.005374
# 6 0.001107 0.002944 -0.001859 -0.000907 0.005374 0.028985
#
#
# Mechanical properties :
#
#
# Convention : Reuss Voigt Hill
#
# Bulk Modulus (GPa) = 38.97758 47.99835 43.48797
# Shear Modulus (GPa) = 33.48831 41.02073 37.25452
#
# Velocity S-wave (km/s) = 3.93103 4.35072 4.14619
# Velocity P-wave (km/s) = 6.21208 6.88381 6.55655
#
# Compressibility (1/GPa) = 0.02565577
#
# Stress axis : x y z
#
# Youngs Moduli (GPa) = 84.63206 58.90761 70.59285
#
# Poissons Ratio (x) = 0.12292 0.04940
# Poissons Ratio (y) = 0.17660 0.41398
# Poissons Ratio (z) = 0.05923 0.34545
#
# Static dielectric constant tensor:
#      x y z
#    x 1.771980 -0.000600 -0.016730 
#    y -0.000600 1.785880 0.010630 
#    z -0.016730 0.010630 1.789170 
# 
# From -- ./inp_files/148591.got.cif
#   From: 2010.05.17/outbox.cif.g08.bks.cpg/sg2_75_cif.got.tgz:148591.got - 2010.06.03 11:33:40.
