data_PCOD9070000
_publ_section_title
;
Structure prediction by ZEFSAII (Michael W. Deem and Ramdas Pophale) SiO2 
 PCOD9070000
Probable space group: P -1
;
_chemical_formula_sum "Si O2"
_cell_formula_units_Z 14
_cell_length_a 17.231909
_cell_length_b 4.945964
_cell_length_c 9.279160
_cell_angle_alpha 76.351820
_cell_angle_beta 129.747956
_cell_angle_gamma 117.615940
_cell_volume 536.658046
_symmetry_space_group_name_H-M "P -1"
_symmetry_group_IT_number 2
_symmetry_cell_setting 'triclinic'
loop_
_space_group_symop_operation_xyz
x,y,z
-x,-y,-z
loop_
_atom_site_type_symbol
_atom_site_label
_atom_site_fract_x
_atom_site_fract_y
_atom_site_fract_z
Si Si1 0.040220 0.278133 0.346813
Si Si2 0.343719 0.251083 0.425373
Si Si3 0.920193 0.097610 0.795680
Si Si4 0.631589 0.122532 0.746413
Si Si5 0.214318 0.016480 0.866457
Si Si6 0.259369 0.636424 0.742217
Si Si7 0.547974 0.384632 0.207979
O O1 0.045826 0.542201 0.209366
O O2 0.140317 0.460334 0.549392
O O3 0.917793 0.132065 0.283909
O O4 0.061857 0.012865 0.327222
O O5 0.366738 0.549726 0.318067
O O6 0.400880 0.371684 0.632216
O O7 0.210705 0.076393 0.306461
O O8 0.387320 0.042224 0.410723
O O9 0.000000 0.000000 0.000000
O O10 0.548027 0.908241 0.794107
O O11 0.749349 0.134735 0.939174
O O12 0.262525 0.929078 0.791365
O O13 0.263012 0.382389 0.890775
O O14 0.354560 0.694657 0.731821
O O15 0.500000 0.500000 0.000000
#
# Coordination Sequence:
#
# PCOD9070000 Si02
#       7
#     2   2   2   2   2   2   2
#     4  12  24  44  72 108 150 193 249 311 372 440
#     4  12  27  51  75 110 151 195 253 306 377 445
#     4  12  24  44  74 106 149 199 246 304 372 451
#     4  12  27  50  77 109 150 198 246 312 374 446
#     4  12  25  46  74 112 152 193 247 306 378 453
#     4  12  26  46  73 109 152 199 249 308 379 443
#     4  12  28  52  79 111 152 199 258 314 373 444
#
# _framework density 26.087375000000002
#
# number of rings (size 3 to 8) (size 9 to 14) (size 15 to 20)
#    0.000    0.000    2.857    7.286    0.000    1.714 
#    0.000    0.000    0.000    0.000    0.000    0.000 
#    0.000    0.000    0.000    0.000    0.000    0.000 
#
# Total GULP energy -78655.590408 kJ/mol
# GULP energy per Si atom -5618.256458 kJ/mol
# Density = 2.602800 g / cm^3
# Si number density = 26.087375 Si / 1000 Ang^3
#
#
#
# Elastic Constant Matrix: (Units=GPa)
#
#
# Indices 1 2 3 4 5 6 
#
# 1 138.1332 48.9565 34.1450 31.8489 -0.1198 22.3689
# 2 48.9565 102.9402 18.2724 -7.4267 4.6155 7.4315
# 3 34.1450 18.2724 130.2176 -11.1909 -7.0667 13.4618
# 4 31.8489 -7.4267 -11.1909 30.1264 0.2929 6.0667
# 5 -0.1198 4.6155 -7.0667 0.2929 40.1213 7.4855
# 6 22.3689 7.4315 13.4618 6.0667 7.4855 47.8686
#
#
#
# Elastic Compliance Matrix: (Units=1/GPa)
#
#
# Indices 1 2 3 4 5 6 
#
# 1 0.016602 -0.008422 -0.004643 -0.020830 0.000845 -0.002637
# 2 -0.008422 0.014515 0.001206 0.012955 -0.001567 -0.000054
# 3 -0.004643 0.001206 0.009869 0.009311 0.001942 -0.002277
# 4 -0.020830 0.012955 0.009311 0.062436 0.000160 -0.002834
# 5 0.000845 -0.001567 0.001942 0.000160 0.026351 -0.004839
# 6 -0.002637 -0.000054 -0.002277 -0.002834 -0.004839 0.023887
#
#
# Mechanical properties :
#
#
# Convention : Reuss Voigt Hill
#
# Bulk Modulus (GPa) = 57.91563 63.78209 60.84886
# Shear Modulus (GPa) = 27.30230 41.61773 34.46001
#
# Velocity S-wave (km/s) = 3.23859 3.99848 3.63842
# Velocity P-wave (km/s) = 6.01942 6.76902 6.40519
#
# Compressibility (1/GPa) = 0.01726650
#
# Stress axis : x y z
#
# Youngs Moduli (GPa) = 60.23207 68.89653 101.32931
#
# Poissons Ratio (x) = 0.58024 0.47050
# Poissons Ratio (y) = 0.50727 -0.12216
# Poissons Ratio (z) = 0.27967 -0.08306
#
# Static dielectric constant tensor:
#      x y z
#    x 1.976920 0.019880 0.004280 
#    y 0.019880 1.977030 -0.036390 
#    z 0.004280 -0.036390 2.110790 
# 
# From -- ./inp_files/323482.got.cif
#   From: 2010.05.17/outbox.cif.g08.bks.cpg/sg2_162_cif.got.tgz:323482.got - 2010.06.03 11:33:40.
