data_PCOD9070007
_publ_section_title
;
Structure prediction by ZEFSAII (Michael W. Deem and Ramdas Pophale) SiO2 
 PCOD9070007
Probable space group: P -1
;
_chemical_formula_sum "Si O2"
_cell_formula_units_Z 12
_cell_length_a 14.498976
_cell_length_b 10.636126
_cell_length_c 11.413921
_cell_angle_alpha 26.238273
_cell_angle_beta 47.981453
_cell_angle_gamma 62.439265
_cell_volume 524.863067
_symmetry_space_group_name_H-M "P -1"
_symmetry_group_IT_number 2
_symmetry_cell_setting 'triclinic'
loop_
_space_group_symop_operation_xyz
x,y,z
-x,-y,-z
loop_
_atom_site_type_symbol
_atom_site_label
_atom_site_fract_x
_atom_site_fract_y
_atom_site_fract_z
Si Si1 0.547807 0.861296 0.183804
Si Si2 0.831885 0.019005 0.909841
Si Si3 0.140180 0.315737 0.619923
Si Si4 0.919463 0.714773 0.890664
Si Si5 0.654934 0.615096 0.821560
Si Si6 0.335672 0.746562 0.649690
O O1 0.500000 0.500000 0.500000
O O2 0.478045 0.898594 0.331528
O O3 0.500000 0.000000 0.000000
O O4 0.708357 0.002446 0.946679
O O5 0.896514 0.387194 0.576950
O O6 0.915966 0.871031 0.887179
O O7 0.781699 0.783391 0.259883
O O8 0.238745 0.396284 0.356289
O O9 0.000000 0.000000 0.000000
O O10 0.770713 0.504948 0.138149
O O11 0.000000 0.000000 0.500000
O O12 0.000000 0.500000 0.000000
O O13 0.706827 0.975023 0.516258
O O14 0.500000 0.500000 0.000000
O O15 0.652019 0.414071 0.106364
#
# Coordination Sequence:
#
# PCOD9070007 Si02
#       6
#     2   2   2   2   2   2
#     4  12  24  44  73 110 143 181 235 293 370 432
#     4  12  26  49  75 104 148 186 243 304 360 434
#     4  12  28  47  74 106 144 198 248 297 356 430
#     4  12  28  45  73 108 145 190 236 298 372 427
#     4  12  26  48  74 104 147 192 244 296 358 429
#     4  12  26  46  75 106 145 184 241 301 360 434
#
# _framework density 22.863104
#
# number of rings (size 3 to 8) (size 9 to 14) (size 15 to 20)
#    0.000    0.000    1.667    8.000    9.333    0.000 
#    0.000    0.000    0.000    0.000    0.000    0.000 
#    0.000    0.000    0.000    0.000    0.000    0.000 
#
# Total GULP energy -67207.821630 kJ/mol
# GULP energy per Si atom -5600.651803 kJ/mol
# Density = 2.281107 g / cm^3
# Si number density = 22.863104 Si / 1000 Ang^3
#
#
#
# Elastic Constant Matrix: (Units=GPa)
#
#
# Indices 1 2 3 4 5 6 
#
# 1 71.7109 35.6709 32.5591 1.1406 22.4924 -6.0303
# 2 35.6709 180.9470 74.0010 -7.6592 15.2858 1.3820
# 3 32.5591 74.0010 132.0464 -19.3734 36.6687 3.9038
# 4 1.1406 -7.6592 -19.3734 46.4932 5.8741 1.6353
# 5 22.4924 15.2858 36.6687 5.8741 66.5800 -0.5241
# 6 -6.0303 1.3820 3.9038 1.6353 -0.5241 31.9411
#
#
#
# Elastic Compliance Matrix: (Units=1/GPa)
#
#
# Indices 1 2 3 4 5 6 
#
# 1 0.017732 -0.002316 -0.002258 -0.001375 -0.004065 0.003727
# 2 -0.002316 0.007523 -0.004102 -0.000578 0.001364 -0.000209
# 3 -0.002258 -0.004102 0.012971 0.005615 -0.005952 -0.002219
# 4 -0.001375 -0.000578 0.005615 0.024456 -0.004670 -0.002249
# 5 -0.004065 0.001364 -0.005952 -0.004670 0.019773 0.000465
# 6 0.003727 -0.000209 -0.002219 -0.002249 0.000465 0.032414
#
#
# Mechanical properties :
#
#
# Convention : Reuss Voigt Hill
#
# Bulk Modulus (GPa) = 47.90533 74.35180 61.12857
# Shear Modulus (GPa) = 35.92528 45.16777 40.54652
#
# Velocity S-wave (km/s) = 3.96829 4.44957 4.21580
# Velocity P-wave (km/s) = 6.48036 7.68044 7.10578
#
# Compressibility (1/GPa) = 0.02087450
#
# Stress axis : x y z
#
# Youngs Moduli (GPa) = 56.39523 132.93448 77.09570
#
# Poissons Ratio (x) = 0.30782 0.17406
# Poissons Ratio (y) = 0.13059 0.31626
# Poissons Ratio (z) = 0.12733 0.54532
#
# Static dielectric constant tensor:
#      x y z
#    x 1.921980 0.022530 -0.046360 
#    y 0.022530 1.907940 0.030010 
#    z -0.046360 0.030010 1.826080 
# 
# From -- ./inp_files/28539.got.cif
#   From: 2010.05.17/outbox.cif.g08.bks.cpg/sg2_15_cif.got.tgz:28539.got - 2010.06.03 11:33:40.
