data_PCOD9070937
_publ_section_title
;
Structure prediction by ZEFSAII (Michael W. Deem and Ramdas Pophale) SiO2 
 PCOD9070937
Probable space group: P -1
;
_chemical_formula_sum "Si O2"
_cell_formula_units_Z 15
_cell_length_a 8.608883
_cell_length_b 22.394876
_cell_length_c 13.325450
_cell_angle_alpha 154.127273
_cell_angle_beta 122.349749
_cell_angle_gamma 40.862074
_cell_volume 631.213423
_symmetry_space_group_name_H-M "P -1"
_symmetry_group_IT_number 2
_symmetry_cell_setting 'triclinic'
loop_
_space_group_symop_operation_xyz
x,y,z
-x,-y,-z
loop_
_atom_site_type_symbol
_atom_site_label
_atom_site_fract_x
_atom_site_fract_y
_atom_site_fract_z
Si Si1 0.289219 0.493232 0.948881
Si Si2 0.257465 0.838930 0.273269
Si Si3 0.500000 0.500000 0.500000
Si Si4 0.986000 0.481789 0.305197
Si Si5 0.795990 0.883937 0.888247
Si Si6 0.224845 0.091231 0.490658
Si Si7 0.239822 0.611136 0.782199
Si Si8 0.370909 0.887892 0.026236
O O1 0.046107 0.678812 0.218495
O O2 0.500000 0.500000 0.000000
O O3 0.472068 0.280370 0.749047
O O4 0.149492 0.501711 0.817064
O O5 0.210724 0.954378 0.334720
O O6 0.296044 0.665848 0.982914
O O7 0.000000 0.000000 0.500000
O O8 0.474619 0.488499 0.595553
O O9 0.367448 0.729943 0.814237
O O10 0.973242 0.653922 0.561938
O O11 0.821652 0.508378 0.382273
O O12 0.301209 0.260474 0.087730
O O13 0.967174 0.824192 0.956424
O O14 0.500000 0.000000 0.000000
O O15 0.757929 0.005141 0.964733
O O16 0.500000 0.000000 0.500000
O O17 0.246823 0.049568 0.317186
#
# Coordination Sequence:
#
# PCOD9070937 Si02
#       8
#     2   2   1   2   2   2   2   2
#     4  12  26  46  78 112 148 207 253 311 389 463
#     4  12  27  49  76 110 152 204 260 318 385 463
#     4  12  26  50  74 106 154 200 244 320 390 446
#     4  12  25  49  76 108 153 198 261 318 383 466
#     4  12  27  44  78 109 140 206 255 307 387 461
#     4  12  27  48  75 114 156 197 257 326 390 453
#     4  12  25  48  72 108 153 196 255 319 377 463
#     4  12  27  51  75 112 155 198 254 327 386 465
#
# _framework density 23.763752
#
# number of rings (size 3 to 8) (size 9 to 14) (size 15 to 20)
#    0.000    0.000    8.000    1.200    3.733    3.200 
#    2.400    0.000    0.000    0.000    0.000    0.000 
#    0.000    0.000    0.000    0.000    0.000    0.000 
#
# Total GULP energy -83720.324852 kJ/mol
# GULP energy per Si atom -5581.354990 kJ/mol
# Density = 2.370966 g / cm^3
# Si number density = 23.763752 Si / 1000 Ang^3
#
#
#
# Elastic Constant Matrix: (Units=GPa)
#
#
# Indices 1 2 3 4 5 6 
#
# 1 54.1027 17.8935 24.4729 -1.1321 -5.6888 23.6124
# 2 17.8935 132.1450 30.7623 -1.7844 -8.9835 13.0919
# 3 24.4729 30.7623 105.5495 -6.6617 -21.9694 5.7275
# 4 -1.1321 -1.7844 -6.6617 42.5739 -0.8803 0.0761
# 5 -5.6888 -8.9835 -21.9694 -0.8803 47.5078 6.4339
# 6 23.6124 13.0919 5.7275 0.0761 6.4339 45.2123
#
#
#
# Elastic Compliance Matrix: (Units=1/GPa)
#
#
# Indices 1 2 3 4 5 6 
#
# 1 0.027226 -0.001049 -0.004688 0.000028 0.002751 -0.013713
# 2 -0.001049 0.008389 -0.001937 0.000040 0.000803 -0.001750
# 3 -0.004688 -0.001937 0.012156 0.001790 0.004617 0.000809
# 4 0.000028 0.000040 0.001790 0.023800 0.001345 -0.000484
# 5 0.002751 0.000803 0.004617 0.001345 0.024468 -0.005738
# 6 -0.013713 -0.001750 0.000809 -0.000484 -0.005738 0.030501
#
#
# Mechanical properties :
#
#
# Convention : Reuss Voigt Hill
#
# Bulk Modulus (GPa) = 30.84393 48.67274 39.75834
# Shear Modulus (GPa) = 32.74493 41.63667 37.19080
#
# Velocity S-wave (km/s) = 3.71608 4.19036 3.96033
# Velocity P-wave (km/s) = 5.60535 6.62862 6.13834
#
# Compressibility (1/GPa) = 0.03242129
#
# Stress axis : x y z
#
# Youngs Moduli (GPa) = 36.73006 119.20432 82.26422
#
# Poissons Ratio (x) = 0.12507 0.38568
# Poissons Ratio (y) = 0.03854 0.15935
# Poissons Ratio (z) = 0.17220 0.23091
#
# Static dielectric constant tensor:
#      x y z
#    x 2.091990 -0.077610 -0.046500 
#    y -0.077610 1.795820 0.009040 
#    z -0.046500 0.009040 1.862420 
# 
# From -- ./inp_files/405718.got.cif
#   From: 2010.05.17/outbox.cif.g08.bks.cpg/sg2_203_cif.got.tgz:405718.got - 2010.06.03 11:33:40.
