data_PCOD9070178
_publ_section_title
;
Structure prediction by ZEFSAII (Michael W. Deem and Ramdas Pophale) SiO2 
 PCOD9070178
Probable space group: P -1
;
_chemical_formula_sum "Si O2"
_cell_formula_units_Z 16
_cell_length_a 12.359926
_cell_length_b 12.569866
_cell_length_c 10.893439
_cell_angle_alpha 44.360185
_cell_angle_beta 95.085339
_cell_angle_gamma 60.088637
_cell_volume 695.983186
_symmetry_space_group_name_H-M "P -1"
_symmetry_group_IT_number 2
_symmetry_cell_setting 'triclinic'
loop_
_space_group_symop_operation_xyz
x,y,z
-x,-y,-z
loop_
_atom_site_type_symbol
_atom_site_label
_atom_site_fract_x
_atom_site_fract_y
_atom_site_fract_z
Si Si1 0.515707 0.229956 0.476925
Si Si2 0.429196 0.178659 0.163646
Si Si3 0.390889 0.778310 0.239559
Si Si4 0.005141 0.144180 0.794357
Si Si5 0.647031 0.708424 0.208863
Si Si6 0.159798 0.780482 0.898318
Si Si7 0.051929 0.616945 0.887057
Si Si8 0.295264 0.887561 0.662703
O O1 0.609253 0.147811 0.685976
O O2 0.631243 0.164391 0.426432
O O3 0.485220 0.083105 0.584840
O O4 0.320949 0.535242 0.204077
O O5 0.574115 0.151675 0.210918
O O6 0.325099 0.290646 0.931010
O O7 0.266675 0.384381 0.073510
O O8 0.500000 0.500000 0.500000
O O9 0.521951 0.702987 0.213772
O O10 0.188151 0.015954 0.968527
O O11 0.830806 0.455616 0.511529
O O12 0.040714 0.035153 0.752755
O O13 0.000000 0.000000 0.000000
O O14 0.500000 0.000000 0.000000
O O15 0.036271 0.776190 0.849223
O O16 0.268281 0.746612 0.826788
O O17 0.912979 0.817540 0.600088
O O18 0.000000 0.500000 0.000000
#
# Coordination Sequence:
#
# PCOD9070178 Si02
#       8
#     2   2   2   2   2   2   2   2
#     4  12  24  46  73 105 150 204 242 310 386 447
#     4  12  26  48  74 105 155 195 252 313 387 445
#     4  12  25  48  76 110 151 195 254 311 379 449
#     4  12  27  48  78 111 149 201 252 315 382 452
#     4  12  27  51  76 111 150 198 257 319 375 451
#     4  12  26  47  76 110 151 197 259 311 380 451
#     4  12  26  46  71 110 149 197 247 306 377 460
#     4  12  26  46  74 108 146 197 250 318 373 448
#
# _framework density 22.989059999999998
#
# number of rings (size 3 to 8) (size 9 to 14) (size 15 to 20)
#    0.000    0.000    6.250    3.375    1.750    0.500 
#    2.250    0.000    0.000    0.000    0.000    0.000 
#    0.000    0.000    0.000    0.000    0.000    0.000 
#
# Total GULP energy -89308.770949 kJ/mol
# GULP energy per Si atom -5581.798184 kJ/mol
# Density = 2.293674 g / cm^3
# Si number density = 22.989060 Si / 1000 Ang^3
#
#
#
# Elastic Constant Matrix: (Units=GPa)
#
#
# Indices 1 2 3 4 5 6 
#
# 1 107.3587 13.8058 49.1029 7.3828 1.5920 16.2548
# 2 13.8058 80.9050 22.0716 6.5030 -6.0662 9.5943
# 3 49.1029 22.0716 175.1560 -5.6132 12.0745 11.4345
# 4 7.3828 6.5030 -5.6132 35.8638 -1.4409 -4.1432
# 5 1.5920 -6.0662 12.0745 -1.4409 48.1436 7.3983
# 6 16.2548 9.5943 11.4345 -4.1432 7.3983 32.9870
#
#
#
# Elastic Compliance Matrix: (Units=1/GPa)
#
#
# Indices 1 2 3 4 5 6 
#
# 1 0.011798 -0.000165 -0.003123 -0.003463 0.001093 -0.005363
# 2 -0.000165 0.013828 -0.001702 -0.003133 0.002751 -0.004361
# 3 -0.003123 -0.001702 0.006972 0.002001 -0.001843 0.000282
# 4 -0.003463 -0.003133 0.002001 0.030126 -0.000785 0.005884
# 5 0.001093 0.002751 -0.001843 -0.000785 0.022416 -0.005826
# 6 -0.005363 -0.004361 0.000282 0.005884 -0.005826 0.036174
#
#
# Mechanical properties :
#
#
# Convention : Reuss Voigt Hill
#
# Bulk Modulus (GPa) = 44.21072 59.26449 51.73760
# Shear Modulus (GPa) = 36.01484 41.96151 38.98818
#
# Velocity S-wave (km/s) = 3.96233 4.27697 4.12265
# Velocity P-wave (km/s) = 6.34085 7.08698 6.72427
#
# Compressibility (1/GPa) = 0.02261895
#
# Stress axis : x y z
#
# Youngs Moduli (GPa) = 84.75958 72.31815 143.43387
#
# Poissons Ratio (x) = 0.01193 0.44792
# Poissons Ratio (y) = 0.01398 0.24406
# Poissons Ratio (z) = 0.26469 0.12305
#
# Static dielectric constant tensor:
#      x y z
#    x 1.888840 0.051590 -0.023630 
#    y 0.051590 1.953280 -0.040130 
#    z -0.023630 -0.040130 1.834560 
# 
# From -- ./inp_files/427425.got.cif
#   From: 2010.05.17/outbox.cif.g08.bks.cpg/sg2_214_cif.got.tgz:427425.got - 2010.06.03 11:33:40.
