data_PCOD9070583
_publ_section_title
;
Structure prediction by ZEFSAII (Michael W. Deem and Ramdas Pophale) SiO2 
 PCOD9070583
Probable space group: P -1
;
_chemical_formula_sum "Si O2"
_cell_formula_units_Z 11
_cell_length_a 8.863280
_cell_length_b 10.737103
_cell_length_c 9.278926
_cell_angle_alpha 29.744414
_cell_angle_beta 78.632346
_cell_angle_gamma 71.108968
_cell_volume 407.813173
_symmetry_space_group_name_H-M "P -1"
_symmetry_group_IT_number 2
_symmetry_cell_setting 'triclinic'
loop_
_space_group_symop_operation_xyz
x,y,z
-x,-y,-z
loop_
_atom_site_type_symbol
_atom_site_label
_atom_site_fract_x
_atom_site_fract_y
_atom_site_fract_z
Si Si1 0.017235 0.048144 0.117296
Si Si2 0.410080 0.432621 0.853967
Si Si3 0.733910 0.591373 0.668309
Si Si4 0.065985 0.719225 0.697364
Si Si5 0.500000 0.000000 0.500000
Si Si6 0.679192 0.797791 0.157559
O O1 0.879416 0.314275 0.928942
O O2 0.017150 0.791391 0.467244
O O3 0.191200 0.094793 0.056432
O O4 0.000000 0.000000 0.000000
O O5 0.569432 0.510022 0.767916
O O6 0.259885 0.630539 0.765693
O O7 0.351981 0.430680 0.703915
O O8 0.448139 0.147427 0.206504
O O9 0.748783 0.712587 0.387744
O O10 0.676766 0.810133 0.584716
O O11 0.000000 0.000000 0.500000
O O12 0.000000 0.500000 0.000000
O O13 0.500000 0.000000 0.000000
#
# Coordination Sequence:
#
# PCOD9070583 Si02
#       6
#     2   2   2   2   1   2
#     4  12  28  51  83 125 162 217 282 351 422 500
#     4  12  27  49  80 114 160 214 283 333 421 496
#     4  12  27  50  81 120 164 215 280 342 425 496
#     4  12  29  51  81 120 170 220 278 345 427 503
#     4  12  28  46  78 114 168 208 274 334 416 498
#     4  12  24  51  83 118 164 215 278 345 420 499
#
# _framework density 26.973134999999999
#
# number of rings (size 3 to 8) (size 9 to 14) (size 15 to 20)
#    0.000    0.000    1.818    7.091    5.091    1.455 
#    0.000    0.000    0.000    0.000    0.000    0.000 
#    0.000    0.000    0.000    0.000    0.000    0.000 
#
# Total GULP energy -61498.117898 kJ/mol
# GULP energy per Si atom -5590.737991 kJ/mol
# Density = 2.691174 g / cm^3
# Si number density = 26.973135 Si / 1000 Ang^3
#
#
#
# Elastic Constant Matrix: (Units=GPa)
#
#
# Indices 1 2 3 4 5 6 
#
# 1 143.0207 37.5186 40.9049 -11.4519 -18.6506 -43.6647
# 2 37.5186 144.6565 52.1426 -24.1320 1.2441 -45.8780
# 3 40.9049 52.1426 193.8135 9.5548 8.3864 -23.2612
# 4 -11.4519 -24.1320 9.5548 60.2817 -6.3692 21.7594
# 5 -18.6506 1.2441 8.3864 -6.3692 37.4549 3.3756
# 6 -43.6647 -45.8780 -23.2612 21.7594 3.3756 55.8558
#
#
#
# Elastic Compliance Matrix: (Units=1/GPa)
#
#
# Indices 1 2 3 4 5 6 
#
# 1 0.010207 0.000156 -0.001564 0.000201 0.004823 0.007086
# 2 0.000156 0.010084 -0.002017 0.001912 -0.000096 0.006826
# 3 -0.001564 -0.002017 0.006412 -0.002783 -0.002714 0.001039
# 4 0.000201 0.001912 -0.002783 0.021254 0.004996 -0.008012
# 5 0.004823 -0.000096 -0.002714 0.004996 0.030673 -0.001238
# 6 0.007086 0.006826 0.001039 -0.008012 -0.001238 0.032678
#
#
# Mechanical properties :
#
#
# Convention : Reuss Voigt Hill
#
# Bulk Modulus (GPa) = 50.37221 82.51365 66.44293
# Shear Modulus (GPa) = 40.07239 54.11344 47.09291
#
# Velocity S-wave (km/s) = 3.85858 4.48392 4.18295
# Velocity P-wave (km/s) = 6.21024 7.58056 6.92935
#
# Compressibility (1/GPa) = 0.01985222
#
# Stress axis : x y z
#
# Youngs Moduli (GPa) = 97.97258 99.16692 155.96615
#
# Poissons Ratio (x) = -0.01547 0.24399
# Poissons Ratio (y) = -0.01528 0.31456
# Poissons Ratio (z) = 0.15326 0.20000
#
# Static dielectric constant tensor:
#      x y z
#    x 2.168560 0.037510 -0.018500 
#    y 0.037510 2.252110 -0.002110 
#    z -0.018500 -0.002110 2.123490 
# 
# From -- ./inp_files/26019.got.cif
#   From: 2010.05.17/outbox.cif.g08.bks.cpg/sg2_14_cif.got.tgz:26019.got - 2010.06.03 11:33:40.
