data_PCOD9070773
_publ_section_title
;
Structure prediction by ZEFSAII (Michael W. Deem and Ramdas Pophale) SiO2 
 PCOD9070773
Probable space group: P -1
;
_chemical_formula_sum "Si O2"
_cell_formula_units_Z 16
_cell_length_a 9.373697
_cell_length_b 14.609693
_cell_length_c 9.598141
_cell_angle_alpha 60.247014
_cell_angle_beta 62.736007
_cell_angle_gamma 38.053282
_cell_volume 697.814965
_symmetry_space_group_name_H-M "P -1"
_symmetry_group_IT_number 2
_symmetry_cell_setting 'triclinic'
loop_
_space_group_symop_operation_xyz
x,y,z
-x,-y,-z
loop_
_atom_site_type_symbol
_atom_site_label
_atom_site_fract_x
_atom_site_fract_y
_atom_site_fract_z
Si Si1 0.979958 0.236151 0.201500
Si Si2 0.954764 0.704139 0.321939
Si Si3 0.265344 0.963583 0.807217
Si Si4 0.941242 0.024012 0.670882
Si Si5 0.520455 0.506006 0.820452
Si Si6 0.810033 0.728213 0.682119
Si Si7 0.431215 0.743595 0.145906
Si Si8 0.100247 0.381450 0.860642
O O1 0.119105 0.070378 0.206040
O O2 0.712106 0.325852 0.255010
O O3 0.073853 0.233958 0.307545
O O4 0.998957 0.326842 0.022687
O O5 0.880009 0.708714 0.505935
O O6 0.842787 0.681964 0.273468
O O7 0.232426 0.562363 0.279102
O O8 0.874273 0.863995 0.219934
O O9 0.145776 0.966925 0.724105
O O10 0.533173 0.862949 0.725973
O O11 0.281137 0.876825 0.996142
O O12 0.000000 0.000000 0.500000
O O13 0.718417 0.195289 0.692871
O O14 0.511985 0.396657 0.834313
O O15 0.500000 0.500000 0.000000
O O16 0.919280 0.564375 0.804565
O O17 0.666120 0.694035 0.110402
#
# Coordination Sequence:
#
# PCOD9070773 Si02
#       8
#     2   2   2   2   2   2   2   2
#     4  12  25  46  75 102 142 194 242 293 364 429
#     4  12  28  45  73 107 146 193 241 297 371 429
#     4  12  26  48  74 104 150 191 244 295 362 439
#     4  12  29  47  73 111 151 191 240 303 369 430
#     4  12  25  46  74 105 142 193 247 298 355 430
#     4  12  27  48  72 108 149 188 240 307 362 427
#     4  12  26  48  76 104 149 192 247 302 356 436
#     4  12  26  48  72 108 141 193 245 298 358 432
#
# _framework density 22.928713999999999
#
# number of rings (size 3 to 8) (size 9 to 14) (size 15 to 20)
#    0.000    0.000    5.000    4.500    5.250    2.500 
#    0.000    0.000    0.000    0.000    0.000    0.000 
#    0.000    0.000    0.000    0.000    0.000    0.000 
#
# Total GULP energy -89683.015992 kJ/mol
# GULP energy per Si atom -5605.188499 kJ/mol
# Density = 2.287653 g / cm^3
# Si number density = 22.928714 Si / 1000 Ang^3
#
#
#
# Elastic Constant Matrix: (Units=GPa)
#
#
# Indices 1 2 3 4 5 6 
#
# 1 112.1375 28.3982 13.4279 4.7508 35.8027 10.2649
# 2 28.3982 69.2614 4.4718 17.6070 14.8512 4.9750
# 3 13.4279 4.4718 74.9844 28.2692 23.0733 -11.4834
# 4 4.7508 17.6070 28.2692 41.2993 8.8201 0.2122
# 5 35.8027 14.8512 23.0733 8.8201 38.8234 9.4830
# 6 10.2649 4.9750 -11.4834 0.2122 9.4830 42.3023
#
#
#
# Elastic Compliance Matrix: (Units=1/GPa)
#
#
# Indices 1 2 3 4 5 6 
#
# 1 0.013448 -0.003510 0.000724 0.002005 -0.011949 0.000014
# 2 -0.003510 0.019127 0.005037 -0.010125 -0.005055 0.001154
# 3 0.000724 0.005037 0.025708 -0.016332 -0.016609 0.010016
# 4 0.002005 -0.010125 -0.016332 0.038619 0.004141 -0.004852
# 5 -0.011949 -0.005055 -0.016609 0.004141 0.050668 -0.012394
# 6 0.000014 0.001154 0.010016 -0.004852 -0.012394 0.029022
#
#
# Mechanical properties :
#
#
# Convention : Reuss Voigt Hill
#
# Bulk Modulus (GPa) = 15.92709 38.77544 27.35127
# Shear Modulus (GPa) = 25.90437 38.49070 32.19754
#
# Velocity S-wave (km/s) = 3.36486 4.10165 3.75139
# Velocity P-wave (km/s) = 4.69658 6.27530 5.54244
#
# Compressibility (1/GPa) = 0.06278613
#
# Stress axis : x y z
#
# Youngs Moduli (GPa) = 74.35820 52.28287 38.89856
#
# Poissons Ratio (x) = 0.18349 -0.02816
# Poissons Ratio (y) = 0.26096 -0.19594
# Poissons Ratio (z) = -0.05383 -0.26335
#
# Static dielectric constant tensor:
#      x y z
#    x 1.826110 -0.022330 -0.014280 
#    y -0.022330 1.855480 -0.010090 
#    z -0.014280 -0.010090 1.875420 
# 
# From -- ./inp_files/205428.got.cif
#   From: 2010.05.17/outbox.cif.g08.bks.cpg/sg2_103_cif.got.tgz:205428.got - 2010.06.03 11:33:40.
