data_PCOD9070299
_publ_section_title
;
Structure prediction by ZEFSAII (Michael W. Deem and Ramdas Pophale) SiO2 
 PCOD9070299
Probable space group: P -1
;
_chemical_formula_sum "Si O2"
_cell_formula_units_Z 14
_cell_length_a 7.057375
_cell_length_b 21.918497
_cell_length_c 4.833961
_cell_angle_alpha 78.517662
_cell_angle_beta 99.018479
_cell_angle_gamma 131.533017
_cell_volume 548.231614
_symmetry_space_group_name_H-M "P -1"
_symmetry_group_IT_number 2
_symmetry_cell_setting 'triclinic'
loop_
_space_group_symop_operation_xyz
x,y,z
-x,-y,-z
loop_
_atom_site_type_symbol
_atom_site_label
_atom_site_fract_x
_atom_site_fract_y
_atom_site_fract_z
Si Si1 0.558869 0.718920 0.313194
Si Si2 0.345753 0.918893 0.844881
Si Si3 0.962949 0.425842 0.414954
Si Si4 0.205488 0.420658 0.968294
Si Si5 0.018743 0.073244 0.559332
Si Si6 0.855055 0.735801 0.868343
Si Si7 0.340361 0.138774 0.086006
O O1 0.506773 0.776212 0.119058
O O2 0.793268 0.752301 0.540101
O O3 0.321940 0.651309 0.504596
O O4 0.628891 0.695462 0.074715
O O5 0.533816 0.901885 0.832576
O O6 0.220486 0.935645 0.564130
O O7 0.911472 0.914566 0.115789
O O8 0.500000 0.000000 0.000000
O O9 0.041467 0.432820 0.110761
O O10 0.000000 0.500000 0.500000
O O11 0.140611 0.416857 0.636986
O O12 0.122418 0.333181 0.106111
O O13 0.500000 0.500000 0.000000
O O14 0.261929 0.144969 0.364322
O O15 0.000000 0.000000 0.500000
O O16 0.096922 0.825426 0.965051
#
# Coordination Sequence:
#
# PCOD9070299 Si02
#       7
#     2   2   2   2   2   2   2
#     4  12  24  47  72 103 151 196 253 318 385 454
#     4  12  27  47  76 108 146 202 260 318 396 453
#     4  12  25  45  75 111 149 200 248 306 387 460
#     4  12  25  46  74 113 152 194 251 310 381 460
#     4  12  26  48  70 105 144 187 253 318 385 458
#     4  12  26  47  72 106 150 199 253 323 384 457
#     4  12  26  46  73 102 145 193 249 318 385 456
#
# _framework density 25.536652
#
# number of rings (size 3 to 8) (size 9 to 14) (size 15 to 20)
#    0.000    0.000    4.286    5.571    0.000    4.000 
#    0.000    0.000    0.000    0.000    0.000    0.000 
#    0.000    0.000    0.000    0.000    0.000    0.000 
#
# Total GULP energy -78329.240123 kJ/mol
# GULP energy per Si atom -5594.945723 kJ/mol
# Density = 2.547853 g / cm^3
# Si number density = 25.536652 Si / 1000 Ang^3
#
#
#
# Elastic Constant Matrix: (Units=GPa)
#
#
# Indices 1 2 3 4 5 6 
#
# 1 140.4329 39.1791 30.7564 -3.7967 7.4886 -15.6311
# 2 39.1791 143.9827 7.4241 -10.3255 -0.0920 -16.0591
# 3 30.7564 7.4241 114.6149 -5.6637 -2.8445 -3.8037
# 4 -3.7967 -10.3255 -5.6637 32.2933 -0.0493 1.3523
# 5 7.4886 -0.0920 -2.8445 -0.0493 50.7018 -7.1244
# 6 -15.6311 -16.0591 -3.8037 1.3523 -7.1244 69.4102
#
#
#
# Elastic Compliance Matrix: (Units=1/GPa)
#
#
# Indices 1 2 3 4 5 6 
#
# 1 0.008341 -0.002038 -0.002101 -0.000090 -0.001189 0.001171
# 2 -0.002038 0.007802 0.000210 0.002235 0.000521 0.001368
# 3 -0.002101 0.000210 0.009374 0.001459 0.000859 0.000149
# 4 -0.000090 0.002235 0.001459 0.031928 0.000126 -0.000032
# 5 -0.001189 0.000521 0.000859 0.000126 0.020225 0.001973
# 6 0.001171 0.001368 0.000149 -0.000032 0.001973 0.015199
#
#
# Mechanical properties :
#
#
# Convention : Reuss Voigt Hill
#
# Bulk Modulus (GPa) = 56.62938 61.52773 59.07856
# Shear Modulus (GPa) = 46.89878 51.92578 49.41228
#
# Velocity S-wave (km/s) = 4.29012 4.51420 4.40358
# Velocity P-wave (km/s) = 6.83843 7.16358 7.00289
#
# Compressibility (1/GPa) = 0.01765868
#
# Stress axis : x y z
#
# Youngs Moduli (GPa) = 119.89027 128.16970 106.68372
#
# Poissons Ratio (x) = 0.26120 0.22418
# Poissons Ratio (y) = 0.24432 -0.02243
# Poissons Ratio (z) = 0.25193 -0.02695
#
# Static dielectric constant tensor:
#      x y z
#    x 2.010210 0.117900 -0.023840 
#    y 0.117900 2.509170 -0.290930 
#    z -0.023840 -0.290930 2.093390 
# 
# From -- ./inp_files/9700.got.cif
#   From: 2010.05.17/outbox.cif.g08.bks.cpg/sg2_5_cif.got.tgz:9700.got - 2010.06.03 11:33:40.
