data_PCOD9070601
_publ_section_title
;
Structure prediction by ZEFSAII (Michael W. Deem and Ramdas Pophale) SiO2 
 PCOD9070601
Probable space group: P -1
;
_chemical_formula_sum "Si O2"
_cell_formula_units_Z 16
_cell_length_a 13.630928
_cell_length_b 14.373248
_cell_length_c 6.061339
_cell_angle_alpha 86.779661
_cell_angle_beta 111.652229
_cell_angle_gamma 138.411791
_cell_volume 684.567177
_symmetry_space_group_name_H-M "P -1"
_symmetry_group_IT_number 2
_symmetry_cell_setting 'triclinic'
loop_
_space_group_symop_operation_xyz
x,y,z
-x,-y,-z
loop_
_atom_site_type_symbol
_atom_site_label
_atom_site_fract_x
_atom_site_fract_y
_atom_site_fract_z
Si Si1 0.460401 0.261468 0.457482
Si Si2 0.922328 0.285399 0.966297
Si Si3 0.895995 0.069753 0.838003
Si Si4 0.723229 0.451190 0.996338
Si Si5 0.374187 0.471763 0.747198
Si Si6 0.377807 0.830909 0.489218
Si Si7 0.042694 0.135197 0.457129
Si Si8 0.161748 0.662817 0.722297
O O1 0.539040 0.333835 0.752160
O O2 0.519679 0.391718 0.351382
O O3 0.546606 0.221311 0.462239
O O4 0.260918 0.108247 0.299990
O O5 0.835379 0.132904 0.825274
O O6 0.807463 0.288452 0.768484
O O7 0.909409 0.298763 0.209276
O O8 0.118564 0.414080 0.046844
O O9 0.985867 0.137405 0.658249
O O10 0.971791 0.100777 0.146944
O O11 0.726606 0.519727 0.198663
O O12 0.752245 0.364121 0.081198
O O13 0.234401 0.303909 0.563722
O O14 0.500000 0.500000 0.000000
O O15 0.316484 0.806468 0.687561
O O16 0.500000 0.000000 0.500000
O O17 0.000000 0.000000 0.500000
O O18 0.000000 0.500000 0.500000
#
# Coordination Sequence:
#
# PCOD9070601 Si02
#       8
#     2   2   2   2   2   2   2   2
#     4  12  27  48  75 113 158 205 264 331 398 476
#     4  12  25  45  71 113 155 207 258 319 391 478
#     4  12  29  49  83 114 161 210 266 330 406 484
#     4  12  25  46  75 111 154 200 265 324 396 478
#     4  12  29  51  80 115 150 203 270 338 407 470
#     4  12  25  44  67 111 154 199 256 314 386 460
#     4  12  29  57  83 113 155 211 271 336 411 482
#     4  12  25  41  77 106 154 208 263 315 387 483
#
# _framework density 23.372433999999998
#
# number of rings (size 3 to 8) (size 9 to 14) (size 15 to 20)
#    0.000    0.000    6.250    3.000    7.000    1.000 
#    0.000    0.000    0.000    0.000    0.000    0.000 
#    0.000    0.000    0.000    0.000    0.000    0.000 
#
# Total GULP energy -89192.785515 kJ/mol
# GULP energy per Si atom -5574.549095 kJ/mol
# Density = 2.331924 g / cm^3
# Si number density = 23.372434 Si / 1000 Ang^3
#
#
#
# Elastic Constant Matrix: (Units=GPa)
#
#
# Indices 1 2 3 4 5 6 
#
# 1 43.9515 8.3360 7.5500 -2.4759 -8.2017 -13.7825
# 2 8.3360 165.9952 39.8125 11.0237 6.1782 0.3637
# 3 7.5500 39.8125 112.3631 11.7507 22.3538 -1.9967
# 4 -2.4759 11.0237 11.7507 39.4491 -1.9069 6.8917
# 5 -8.2017 6.1782 22.3538 -1.9069 41.8009 1.5505
# 6 -13.7825 0.3637 -1.9967 6.8917 1.5505 26.7952
#
#
#
# Elastic Compliance Matrix: (Units=1/GPa)
#
#
# Indices 1 2 3 4 5 6 
#
# 1 0.029243 -0.001148 -0.002763 0.000825 0.006894 0.014240
# 2 -0.001148 0.006684 -0.002154 -0.001211 -0.000097 -0.000525
# 3 -0.002763 -0.002154 0.011531 -0.003452 -0.006575 0.000736
# 4 0.000825 -0.001211 -0.003452 0.028223 0.003745 -0.007292
# 5 0.006894 -0.000097 -0.006575 0.003745 0.028961 0.000419
# 6 0.014240 -0.000525 0.000736 -0.007292 0.000419 0.046558
#
#
# Mechanical properties :
#
#
# Convention : Reuss Voigt Hill
#
# Bulk Modulus (GPa) = 28.30733 48.18964 38.24848
# Shear Modulus (GPa) = 28.55394 39.38312 33.96853
#
# Velocity S-wave (km/s) = 3.49906 4.10936 3.81643
# Velocity P-wave (km/s) = 5.33501 6.57105 5.98502
#
# Compressibility (1/GPa) = 0.03532654
#
# Stress axis : x y z
#
# Youngs Moduli (GPa) = 34.19579 149.61419 86.72380
#
# Poissons Ratio (x) = 0.17183 0.23960
# Poissons Ratio (y) = 0.03927 0.18684
# Poissons Ratio (z) = 0.09448 0.32234
#
# Static dielectric constant tensor:
#      x y z
#    x 1.913640 0.019350 -0.061740 
#    y 0.019350 1.853260 -0.082960 
#    z -0.061740 -0.082960 2.026250 
# 
# From -- ./inp_files/90648.got.cif
#   From: 2010.05.17/outbox.cif.g08.bks.cpg/sg2_46_cif.got.tgz:90648.got - 2010.06.03 11:33:40.
