data_PCOD9070926
_publ_section_title
;
Structure prediction by ZEFSAII (Michael W. Deem and Ramdas Pophale) SiO2 
 PCOD9070926
Probable space group: P -1
;
_chemical_formula_sum "Si O2"
_cell_formula_units_Z 16
_cell_length_a 5.733590
_cell_length_b 9.049394
_cell_length_c 19.424185
_cell_angle_alpha 63.825209
_cell_angle_beta 72.580339
_cell_angle_gamma 50.140566
_cell_volume 694.095474
_symmetry_space_group_name_H-M "P -1"
_symmetry_group_IT_number 2
_symmetry_cell_setting 'triclinic'
loop_
_space_group_symop_operation_xyz
x,y,z
-x,-y,-z
loop_
_atom_site_type_symbol
_atom_site_label
_atom_site_fract_x
_atom_site_fract_y
_atom_site_fract_z
Si Si1 0.808425 0.945332 0.571515
Si Si2 0.080918 0.464599 0.332369
Si Si3 0.377314 0.688417 0.770100
Si Si4 0.646351 0.654706 0.216007
Si Si5 0.379650 0.702222 0.924493
Si Si6 0.126742 0.287947 0.567504
Si Si7 0.644302 0.929672 0.926572
Si Si8 0.828936 0.099572 0.677080
O O1 0.458643 0.111906 0.547860
O O2 0.776076 0.978117 0.651000
O O3 0.000000 0.000000 0.500000
O O4 0.953021 0.706641 0.601328
O O5 0.960196 0.551777 0.248935
O O6 0.910228 0.653872 0.360278
O O7 0.436216 0.342778 0.310056
O O8 0.324684 0.515093 0.799845
O O9 0.490659 0.664498 0.843060
O O10 0.087634 0.923202 0.739664
O O11 0.425121 0.724417 0.287322
O O12 0.511725 0.862807 0.145848
O O13 0.522405 0.807983 0.927322
O O14 0.009443 0.820426 0.924870
O O15 0.500000 0.500000 0.000000
O O16 0.000000 0.500000 0.500000
O O17 0.925587 0.207468 0.595671
O O18 0.500000 0.000000 0.000000
#
# Coordination Sequence:
#
# PCOD9070926 Si02
#       8
#     2   2   2   2   2   2   2   2
#     4  12  28  45  69 100 142 189 246 310 378 455
#     4  12  27  44  73 104 142 196 244 314 381 450
#     4  12  27  46  77 109 148 195 252 312 379 446
#     4  12  27  46  77 109 148 195 252 312 379 446
#     4  12  29  51  81 117 163 205 255 313 378 455
#     4  12  28  45  69 100 142 189 246 310 378 455
#     4  12  29  51  81 117 163 205 255 313 378 455
#     4  12  25  48  69 104 144 188 252 306 375 450
#
# _framework density 23.051583000000001
#
# number of rings (size 3 to 8) (size 9 to 14) (size 15 to 20)
#    0.000    0.000    6.250    2.250   12.250    2.000 
#    0.000    0.000    0.000    0.000    0.000    0.000 
#    0.000    0.000    0.000    0.000    0.000    0.000 
#
# Total GULP energy -89324.133491 kJ/mol
# GULP energy per Si atom -5582.758343 kJ/mol
# Density = 2.299912 g / cm^3
# Si number density = 23.051583 Si / 1000 Ang^3
#
#
#
# Elastic Constant Matrix: (Units=GPa)
#
#
# Indices 1 2 3 4 5 6 
#
# 1 62.3690 28.4989 19.6397 8.1014 1.7836 12.7198
# 2 28.4989 93.8761 17.6788 15.2820 4.2861 6.7367
# 3 19.6397 17.6788 110.4510 -1.1433 6.2692 -0.5432
# 4 8.1014 15.2820 -1.1433 67.2518 1.0780 3.0018
# 5 1.7836 4.2861 6.2692 1.0780 39.2802 12.5444
# 6 12.7198 6.7367 -0.5432 3.0018 12.5444 48.2335
#
#
#
# Elastic Compliance Matrix: (Units=1/GPa)
#
#
# Indices 1 2 3 4 5 6 
#
# 1 0.020469 -0.005189 -0.002946 -0.001138 0.001765 -0.005095
# 2 -0.005189 0.012856 -0.001108 -0.002298 -0.000908 -0.000061
# 3 -0.002946 -0.001108 0.009873 0.000738 -0.001810 0.001468
# 4 -0.001138 -0.002298 0.000738 0.015557 -0.000146 -0.000301
# 5 0.001765 -0.000908 -0.001810 -0.000146 0.028226 -0.007691
# 6 -0.005095 -0.000061 0.001468 -0.000301 -0.007691 0.024120
#
#
# Mechanical properties :
#
#
# Convention : Reuss Voigt Hill
#
# Bulk Modulus (GPa) = 40.46618 44.25901 42.36260
# Shear Modulus (GPa) = 36.27851 44.34503 40.31177
#
# Velocity S-wave (km/s) = 3.97141 4.39079 4.18636
# Velocity P-wave (km/s) = 6.21468 6.70426 6.46411
#
# Compressibility (1/GPa) = 0.02471199
#
# Stress axis : x y z
#
# Youngs Moduli (GPa) = 48.85530 77.78454 101.29123
#
# Poissons Ratio (x) = 0.40361 0.29841
# Poissons Ratio (y) = 0.25350 0.11219
# Poissons Ratio (z) = 0.14393 0.08616
#
# Static dielectric constant tensor:
#      x y z
#    x 2.012990 -0.019760 0.010800 
#    y -0.019760 1.837000 0.032950 
#    z 0.010800 0.032950 1.862290 
# 
# From -- ./inp_files/14611.got.cif
#   From: 2010.05.17/outbox.cif.g08.bks.cpg/sg2_8_cif.got.tgz:14611.got - 2010.06.03 11:33:40.
