data_PCOD9070372
_publ_section_title
;
Structure prediction by ZEFSAII (Michael W. Deem and Ramdas Pophale) SiO2 
 PCOD9070372
Probable space group: P -1
;
_chemical_formula_sum "Si O2"
_cell_formula_units_Z 11
_cell_length_a 9.360699
_cell_length_b 9.275066
_cell_length_c 12.620178
_cell_angle_alpha 138.580293
_cell_angle_beta 105.527324
_cell_angle_gamma 48.396440
_cell_volume 479.769877
_symmetry_space_group_name_H-M "P -1"
_symmetry_group_IT_number 2
_symmetry_cell_setting 'triclinic'
loop_
_space_group_symop_operation_xyz
x,y,z
-x,-y,-z
loop_
_atom_site_type_symbol
_atom_site_label
_atom_site_fract_x
_atom_site_fract_y
_atom_site_fract_z
Si Si1 0.325939 0.292738 0.206020
Si Si2 0.985742 0.475194 0.108267
Si Si3 0.810118 0.207657 0.206579
Si Si4 0.570017 0.744790 0.288133
Si Si5 0.173767 0.155262 0.289675
Si Si6 0.500000 0.500000 0.500000
O O1 0.100640 0.546093 0.235216
O O2 0.281585 0.171686 0.225073
O O3 0.410082 0.424700 0.347784
O O4 0.500000 0.000000 0.000000
O O5 0.745178 0.677822 0.210837
O O6 0.000000 0.500000 0.000000
O O7 0.124336 0.112773 0.960570
O O8 0.674448 0.440122 0.208840
O O9 0.683362 0.389638 0.390752
O O10 0.032911 0.103637 0.195348
O O11 0.500000 0.000000 0.500000
O O12 0.362812 0.891378 0.262459
O O13 0.000000 0.500000 0.500000
#
# Coordination Sequence:
#
# PCOD9070372 Si02
#       6
#     2   2   2   2   2   1
#     4  12  24  47  78 112 163 205 263 337 392 477
#     4  12  28  49  77 119 164 208 269 335 401 475
#     4  12  27  49  78 116 159 208 272 326 404 485
#     4  12  25  46  79 112 156 212 265 326 405 479
#     4  12  24  48  78 113 156 208 263 329 397 482
#     4  12  26  46  80 114 158 210 264 332 410 458
#
# _framework density 22.927658999999998
#
# number of rings (size 3 to 8) (size 9 to 14) (size 15 to 20)
#    0.000    0.000    7.273    1.636    2.545    2.182 
#    0.000    1.818    0.000    0.000    0.000    0.000 
#    0.000    0.000    0.000    0.000    0.000    0.000 
#
# Total GULP energy -61391.657641 kJ/mol
# GULP energy per Si atom -5581.059786 kJ/mol
# Density = 2.287547 g / cm^3
# Si number density = 22.927659 Si / 1000 Ang^3
#
#
#
# Elastic Constant Matrix: (Units=GPa)
#
#
# Indices 1 2 3 4 5 6 
#
# 1 126.3352 67.1618 43.3672 -0.9271 -5.2006 -9.0441
# 2 67.1618 174.2735 52.4812 -13.1740 4.8983 -28.9851
# 3 43.3672 52.4812 122.3183 -14.4595 -22.3725 9.9396
# 4 -0.9271 -13.1740 -14.4595 26.8544 -3.8594 -5.0120
# 5 -5.2006 4.8983 -22.3725 -3.8594 62.4307 -13.5769
# 6 -9.0441 -28.9851 9.9396 -5.0120 -13.5769 35.2233
#
#
#
# Elastic Compliance Matrix: (Units=1/GPa)
#
#
# Indices 1 2 3 4 5 6 
#
# 1 0.010668 -0.003489 -0.002601 -0.002676 0.000123 0.000269
# 2 -0.003489 0.009835 -0.003145 0.004643 0.000000 0.008746
# 3 -0.002601 -0.003145 0.012013 0.004493 0.003609 -0.004615
# 4 -0.002676 0.004643 0.004493 0.044690 0.006084 0.010570
# 5 0.000123 0.000000 0.003609 0.006084 0.019288 0.007313
# 6 0.000269 0.008746 -0.004615 0.010570 0.007313 0.041281
#
#
# Mechanical properties :
#
#
# Convention : Reuss Voigt Hill
#
# Bulk Modulus (GPa) = 71.18896 83.21639 77.20267
# Shear Modulus (GPa) = 31.07009 42.22947 36.64978
#
# Velocity S-wave (km/s) = 3.68521 4.29634 4.00246
# Velocity P-wave (km/s) = 7.01602 7.80931 7.42327
#
# Compressibility (1/GPa) = 0.01404712
#
# Stress axis : x y z
#
# Youngs Moduli (GPa) = 93.74086 101.67489 83.24303
#
# Poissons Ratio (x) = 0.35474 0.21650
# Poissons Ratio (y) = 0.32706 0.26177
# Poissons Ratio (z) = 0.24380 0.31973
#
# Static dielectric constant tensor:
#      x y z
#    x 1.811860 -0.006300 -0.023340 
#    y -0.006300 1.870360 0.017130 
#    z -0.023340 0.017130 1.873090 
# 
# From -- ./inp_files/183540.got.cif
#   From: 2010.05.17/outbox.cif.g08.bks.cpg/sg2_92_cif.got.tgz:183540.got - 2010.06.03 11:33:40.
