data_PCOD9070176
_publ_section_title
;
Structure prediction by ZEFSAII (Michael W. Deem and Ramdas Pophale) SiO2 
 PCOD9070176
Probable space group: P -1
;
_chemical_formula_sum "Si O2"
_cell_formula_units_Z 14
_cell_length_a 8.220700
_cell_length_b 9.147049
_cell_length_c 13.158912
_cell_angle_alpha 40.131002
_cell_angle_beta 103.134528
_cell_angle_gamma 97.069878
_cell_volume 619.050383
_symmetry_space_group_name_H-M "P -1"
_symmetry_group_IT_number 2
_symmetry_cell_setting 'triclinic'
loop_
_space_group_symop_operation_xyz
x,y,z
-x,-y,-z
loop_
_atom_site_type_symbol
_atom_site_label
_atom_site_fract_x
_atom_site_fract_y
_atom_site_fract_z
Si Si1 0.846045 0.512921 0.391849
Si Si2 0.407126 0.066812 0.847091
Si Si3 0.654207 0.170107 0.661316
Si Si4 0.219270 0.642223 0.991042
Si Si5 0.928184 0.892870 0.947846
Si Si6 0.544695 0.797892 0.695530
Si Si7 0.789665 0.455048 0.191402
O O1 0.760756 0.769877 0.242866
O O2 0.692071 0.370550 0.484204
O O3 0.890874 0.422318 0.331079
O O4 0.000000 0.500000 0.500000
O O5 0.529724 0.203791 0.720568
O O6 0.500000 0.000000 0.000000
O O7 0.351761 0.834150 0.913373
O O8 0.586282 0.955646 0.710617
O O9 0.840781 0.095116 0.764216
O O10 0.302301 0.402427 0.175691
O O11 0.068685 0.740234 0.988771
O O12 0.159894 0.624829 0.874057
O O13 0.782188 0.727071 0.038018
O O14 0.000000 0.000000 0.000000
O O15 0.382942 0.656914 0.757322
O O16 0.500000 0.000000 0.500000
#
# Coordination Sequence:
#
# PCOD9070176 Si02
#       7
#     2   2   2   2   2   2   2
#     4  12  27  49  72 109 155 194 245 313 383 442
#     4  12  26  46  77 108 143 202 254 301 374 448
#     4  12  24  46  73 103 149 188 249 308 366 441
#     4  12  25  46  76 108 144 193 256 303 374 441
#     4  12  26  48  73 108 150 194 243 308 373 449
#     4  12  25  47  74 108 146 191 249 313 365 434
#     4  12  24  46  74 104 143 195 247 305 365 447
#
# _framework density 22.615281
#
# number of rings (size 3 to 8) (size 9 to 14) (size 15 to 20)
#    0.000    0.000    4.286    7.286    0.000    0.000 
#    5.143    3.571    0.000    0.000    0.000    0.000 
#    0.000    0.000    0.000    0.000    0.000    0.000 
#
# Total GULP energy -78127.852830 kJ/mol
# GULP energy per Si atom -5580.560916 kJ/mol
# Density = 2.256381 g / cm^3
# Si number density = 22.615281 Si / 1000 Ang^3
#
#
#
# Elastic Constant Matrix: (Units=GPa)
#
#
# Indices 1 2 3 4 5 6 
#
# 1 98.1115 55.8521 52.7427 2.6175 1.0565 -6.5782
# 2 55.8521 178.0959 71.1232 25.7541 6.6044 5.0103
# 3 52.7427 71.1232 119.1388 9.5849 3.0240 -11.7319
# 4 2.6175 25.7541 9.5849 52.3900 12.5246 -4.6009
# 5 1.0565 6.6044 3.0240 12.5246 48.3494 -8.6593
# 6 -6.5782 5.0103 -11.7319 -4.6009 -8.6593 48.6096
#
#
#
# Elastic Compliance Matrix: (Units=1/GPa)
#
#
# Indices 1 2 3 4 5 6 
#
# 1 0.014400 -0.002955 -0.004618 0.001649 0.000188 0.001328
# 2 -0.002955 0.008675 -0.003834 -0.003543 -0.000434 -0.002632
# 3 -0.004618 -0.003834 0.013017 -0.000093 0.000366 0.002968
# 4 0.001649 -0.003543 -0.000093 0.022104 -0.004954 0.001776
# 5 0.000188 -0.000434 0.000366 -0.004954 0.022666 0.003727
# 6 0.001328 -0.002632 0.002968 0.001776 0.003727 0.022572
#
#
# Mechanical properties :
#
#
# Convention : Reuss Voigt Hill
#
# Bulk Modulus (GPa) = 75.30377 83.86469 79.58423
# Shear Modulus (GPa) = 38.26350 44.24501 41.25425
#
# Velocity S-wave (km/s) = 4.11777 4.42794 4.27567
# Velocity P-wave (km/s) = 7.48185 7.95650 7.72282
#
# Compressibility (1/GPa) = 0.01327955
#
# Stress axis : x y z
#
# Youngs Moduli (GPa) = 69.44501 115.27181 76.82242
#
# Poissons Ratio (x) = 0.34060 0.35473
# Poissons Ratio (y) = 0.20519 0.29453
# Poissons Ratio (z) = 0.32067 0.44195
#
# Static dielectric constant tensor:
#      x y z
#    x 1.868740 -0.008700 -0.047680 
#    y -0.008700 1.819710 0.015550 
#    z -0.047680 0.015550 1.825080 
# 
# From -- ./inp_files/377507.got.cif
#   From: 2010.05.17/outbox.cif.g08.bks.cpg/sg2_189_cif.got.tgz:377507.got - 2010.06.03 11:33:40.
