data_PCOD9070070
_publ_section_title
;
Structure prediction by ZEFSAII (Michael W. Deem and Ramdas Pophale) SiO2 
 PCOD9070070
Probable space group: P -1
;
_chemical_formula_sum "Si O2"
_cell_formula_units_Z 16
_cell_length_a 15.770167
_cell_length_b 11.574486
_cell_length_c 7.957694
_cell_angle_alpha 99.595184
_cell_angle_beta 85.423744
_cell_angle_gamma 152.178281
_cell_volume 661.185536
_symmetry_space_group_name_H-M "P -1"
_symmetry_group_IT_number 2
_symmetry_cell_setting 'triclinic'
loop_
_space_group_symop_operation_xyz
x,y,z
-x,-y,-z
loop_
_atom_site_type_symbol
_atom_site_label
_atom_site_fract_x
_atom_site_fract_y
_atom_site_fract_z
Si Si1 0.407464 0.313625 0.816434
Si Si2 0.555815 0.062713 0.308367
Si Si3 0.021465 0.484542 0.680931
Si Si4 0.784695 0.769298 0.471250
Si Si5 0.806525 0.015434 0.755567
Si Si6 0.428261 0.669566 0.780827
Si Si7 0.322238 0.553154 0.143400
Si Si8 0.969279 0.248651 0.129957
O O1 0.316546 0.283839 0.679841
O O2 0.568486 0.417201 0.774132
O O3 0.229405 0.019889 0.826430
O O4 0.500000 0.500000 0.000000
O O5 0.769290 0.301844 0.291774
O O6 0.513451 0.129715 0.233216
O O7 0.500000 0.000000 0.500000
O O8 0.444589 0.818190 0.196356
O O9 0.985511 0.558181 0.813722
O O10 0.000000 0.500000 0.500000
O O11 0.886024 0.210648 0.665777
O O12 0.682504 0.520902 0.404051
O O13 0.768022 0.843280 0.639938
O O14 0.000000 0.000000 0.500000
O O15 0.616770 0.830896 0.812420
O O16 0.950736 0.190644 0.925201
O O17 0.316704 0.519900 0.935944
O O18 0.126364 0.353724 0.200503
#
# Coordination Sequence:
#
# PCOD9070070 Si02
#       8
#     2   2   2   2   2   2   2   2
#     4  12  26  51  76 110 153 193 252 308 368 452
#     4  12  26  45  73 108 146 190 244 310 373 438
#     4  12  24  45  70 108 148 188 252 310 367 444
#     4  12  27  49  73 110 150 197 248 306 374 449
#     4  12  25  45  74 106 150 195 245 311 371 442
#     4  12  25  49  70 108 149 195 247 306 371 444
#     4  12  25  48  75 109 146 194 248 304 375 436
#     4  12  25  47  76 110 144 198 249 307 371 439
#
# _framework density 24.198957
#
# number of rings (size 3 to 8) (size 9 to 14) (size 15 to 20)
#    0.000    0.000    3.750    6.375    1.750    1.500 
#    2.250    0.000    0.000    0.000    0.000    0.000 
#    0.000    0.000    0.000    0.000    0.000    0.000 
#
# Total GULP energy -89538.693495 kJ/mol
# GULP energy per Si atom -5596.168343 kJ/mol
# Density = 2.414388 g / cm^3
# Si number density = 24.198957 Si / 1000 Ang^3
#
#
#
# Elastic Constant Matrix: (Units=GPa)
#
#
# Indices 1 2 3 4 5 6 
#
# 1 162.2645 44.7226 37.4431 9.7716 -7.4172 26.3910
# 2 44.7226 104.8724 8.3547 12.4300 -2.4294 8.0588
# 3 37.4431 8.3547 94.2644 6.9291 -14.3940 -7.1741
# 4 9.7716 12.4300 6.9291 30.4912 -8.1621 -3.3328
# 5 -7.4172 -2.4294 -14.3940 -8.1621 41.8507 5.8142
# 6 26.3910 8.0588 -7.1741 -3.3328 5.8142 63.6375
#
#
#
# Elastic Compliance Matrix: (Units=1/GPa)
#
#
# Indices 1 2 3 4 5 6 
#
# 1 0.008362 -0.002906 -0.003181 -0.001024 0.000514 -0.003559
# 2 -0.002906 0.011222 0.000350 -0.003881 -0.000453 -0.000339
# 3 -0.003181 0.000350 0.012585 -0.000845 0.003294 0.002348
# 4 -0.001024 -0.003881 -0.000845 0.036790 0.006175 0.002183
# 5 0.000514 -0.000453 0.003294 0.006175 0.026559 -0.001888
# 6 -0.003559 -0.000339 0.002348 0.002183 -0.001888 0.017784
#
#
# Mechanical properties :
#
#
# Convention : Reuss Voigt Hill
#
# Bulk Modulus (GPa) = 48.32046 60.27134 54.29590
# Shear Modulus (GPa) = 37.97273 45.25460 41.61367
#
# Velocity S-wave (km/s) = 3.96560 4.32916 4.15136
# Velocity P-wave (km/s) = 6.40151 7.06750 6.74273
#
# Compressibility (1/GPa) = 0.02069517
#
# Stress axis : x y z
#
# Youngs Moduli (GPa) = 119.59448 89.10904 79.46126
#
# Poissons Ratio (x) = 0.25892 0.25276
# Poissons Ratio (y) = 0.34750 -0.02780
# Poissons Ratio (z) = 0.38042 -0.03118
#
# Static dielectric constant tensor:
#      x y z
#    x 1.794290 -0.016840 -0.018210 
#    y -0.016840 1.935220 -0.080100 
#    z -0.018210 -0.080100 2.002110 
# 
# From -- ./inp_files/272596.got.cif
#   From: 2010.05.17/outbox.cif.g08.bks.cpg/sg2_137_cif.got.tgz:272596.got - 2010.06.03 11:33:40.
