data_PCOD9070360
_publ_section_title
;
Structure prediction by ZEFSAII (Michael W. Deem and Ramdas Pophale) SiO2 
 PCOD9070360
Probable space group: P -1
;
_chemical_formula_sum "Si O2"
_cell_formula_units_Z 12
_cell_length_a 11.068838
_cell_length_b 10.913165
_cell_length_c 10.100487
_cell_angle_alpha 153.449324
_cell_angle_beta 52.252057
_cell_angle_gamma 127.478777
_cell_volume 424.794108
_symmetry_space_group_name_H-M "P -1"
_symmetry_group_IT_number 2
_symmetry_cell_setting 'triclinic'
loop_
_space_group_symop_operation_xyz
x,y,z
-x,-y,-z
loop_
_atom_site_type_symbol
_atom_site_label
_atom_site_fract_x
_atom_site_fract_y
_atom_site_fract_z
Si Si1 0.841246 0.017330 0.703398
Si Si2 0.415580 0.531739 0.283884
Si Si3 0.381649 0.935937 0.320699
Si Si4 0.613931 0.284435 0.236208
Si Si5 0.162720 0.462980 0.170084
Si Si6 0.974950 0.907246 0.771468
O O1 0.706683 0.913165 0.586270
O O2 0.774294 0.303454 0.063659
O O3 0.000000 0.000000 0.500000
O O4 0.841319 0.894140 0.734519
O O5 0.353463 0.676856 0.592684
O O6 0.274691 0.433774 0.187610
O O7 0.531372 0.795999 0.397533
O O8 0.497246 0.266239 0.998460
O O9 0.255597 0.700562 0.244802
O O10 0.500000 0.500000 0.500000
O O11 0.500000 0.000000 0.000000
O O12 0.019636 0.606181 0.446586
O O13 0.096605 0.160409 0.868168
O O14 0.000000 0.000000 0.000000
#
# Coordination Sequence:
#
# PCOD9070360 Si02
#       6
#     2   2   2   2   2   2
#     4  12  27  51  80 114 163 201 261 327 392 473
#     4  12  24  47  76 111 156 198 263 324 382 465
#     4  12  25  46  77 116 149 203 260 318 399 454
#     4  12  25  47  73 108 149 200 260 317 381 457
#     4  12  26  47  75 109 155 201 258 323 386 464
#     4  12  28  49  75 110 153 208 257 313 395 472
#
# _framework density 28.248978999999999
#
# number of rings (size 3 to 8) (size 9 to 14) (size 15 to 20)
#    0.000    0.000    5.000    4.500    0.000    4.667 
#    0.000    0.000    0.000    0.000    0.000    0.000 
#    0.000    0.000    0.000    0.000    0.000    0.000 
#
# Total GULP energy -67036.803868 kJ/mol
# GULP energy per Si atom -5586.400322 kJ/mol
# Density = 2.818468 g / cm^3
# Si number density = 28.248979 Si / 1000 Ang^3
#
#
#
# Elastic Constant Matrix: (Units=GPa)
#
#
# Indices 1 2 3 4 5 6 
#
# 1 178.4945 32.1712 57.9962 -4.3659 -17.0676 -17.4333
# 2 32.1712 114.9332 40.7451 -7.1310 -13.4107 3.2180
# 3 57.9962 40.7451 188.2911 1.7568 -20.3521 7.1792
# 4 -4.3659 -7.1310 1.7568 65.6630 11.3863 8.3870
# 5 -17.0676 -13.4107 -20.3521 11.3863 60.6752 3.8792
# 6 -17.4333 3.2180 7.1792 8.3870 3.8792 50.1789
#
#
#
# Elastic Compliance Matrix: (Units=1/GPa)
#
#
# Indices 1 2 3 4 5 6 
#
# 1 0.006753 -0.001225 -0.001820 -0.000124 0.000873 0.002638
# 2 -0.001225 0.009836 -0.001591 0.000962 0.001184 -0.001081
# 3 -0.001820 -0.001591 0.006438 -0.000536 0.001491 -0.001477
# 4 -0.000124 0.000962 -0.000536 0.016158 -0.002874 -0.002507
# 5 0.000873 0.001184 0.001491 -0.002874 0.018086 -0.000904
# 6 0.002638 -0.001081 -0.001477 -0.002507 -0.000904 0.021615
#
#
# Mechanical properties :
#
#
# Convention : Reuss Voigt Hill
#
# Bulk Modulus (GPa) = 72.69848 82.61597 77.65722
# Shear Modulus (GPa) = 53.91333 58.69050 56.30192
#
# Velocity S-wave (km/s) = 4.37338 4.56303 4.46921
# Velocity P-wave (km/s) = 7.16190 7.55452 7.36083
#
# Compressibility (1/GPa) = 0.01375545
#
# Stress axis : x y z
#
# Youngs Moduli (GPa) = 148.09162 101.67112 155.32187
#
# Poissons Ratio (x) = 0.12451 0.28268
# Poissons Ratio (y) = 0.18136 0.24710
# Poissons Ratio (z) = 0.26952 0.16175
#
# Static dielectric constant tensor:
#      x y z
#    x 2.184010 0.002540 -0.038870 
#    y 0.002540 2.469390 -0.068530 
#    z -0.038870 -0.068530 2.124020 
# 
# From -- ./inp_files/424721.got.cif
#   From: 2010.05.17/outbox.cif.g08.bks.cpg/sg2_213_cif.got.tgz:424721.got - 2010.06.03 11:33:40.
