data_PCOD9070350
_publ_section_title
;
Structure prediction by ZEFSAII (Michael W. Deem and Ramdas Pophale) SiO2 
 PCOD9070350
Probable space group: P -1
;
_chemical_formula_sum "Si O2"
_cell_formula_units_Z 12
_cell_length_a 9.061855
_cell_length_b 9.217906
_cell_length_c 12.039024
_cell_angle_alpha 57.194354
_cell_angle_beta 79.872660
_cell_angle_gamma 44.889994
_cell_volume 558.657378
_symmetry_space_group_name_H-M "P -1"
_symmetry_group_IT_number 2
_symmetry_cell_setting 'triclinic'
loop_
_space_group_symop_operation_xyz
x,y,z
-x,-y,-z
loop_
_atom_site_type_symbol
_atom_site_label
_atom_site_fract_x
_atom_site_fract_y
_atom_site_fract_z
Si Si1 0.488918 0.992590 0.135926
Si Si2 0.606983 0.587829 0.912063
Si Si3 0.090639 0.596823 0.661080
Si Si4 0.959813 0.816435 0.832501
Si Si5 0.257830 0.648799 0.423159
Si Si6 0.319054 0.304554 0.375361
O O1 0.671487 0.696764 0.265871
O O2 0.530089 0.140632 0.125257
O O3 0.245415 0.138550 0.144063
O O4 0.500000 0.000000 0.000000
O O5 0.615088 0.629261 0.764365
O O6 0.500000 0.500000 0.000000
O O7 0.855419 0.372887 0.020135
O O8 0.091688 0.743099 0.507079
O O9 0.064680 0.692160 0.748828
O O10 0.903915 0.611342 0.659673
O O11 0.854018 0.097326 0.732990
O O12 0.500000 0.500000 0.500000
O O13 0.287543 0.456260 0.421591
O O14 0.500000 0.000000 0.500000
#
# Coordination Sequence:
#
# PCOD9070350 Si02
#       6
#     2   2   2   2   2   2
#     4  12  24  47  76 105 146 194 243 295 377 441
#     4  12  29  46  75 115 149 192 248 312 366 436
#     4  12  25  49  78 104 149 197 245 306 370 443
#     4  12  26  49  74 112 149 188 249 308 372 441
#     4  12  27  46  77 110 145 196 250 303 371 440
#     4  12  28  50  75 107 154 196 249 302 371 446
#
# _framework density 21.480070000000001
#
# number of rings (size 3 to 8) (size 9 to 14) (size 15 to 20)
#    0.000    0.000    5.000    4.500    9.333    0.667 
#    0.000    0.000    0.000    0.000    0.000    0.000 
#    0.000    0.000    0.000    0.000    0.000    0.000 
#
# Total GULP energy -67210.342266 kJ/mol
# GULP energy per Si atom -5600.861856 kJ/mol
# Density = 2.143118 g / cm^3
# Si number density = 21.480070 Si / 1000 Ang^3
#
#
#
# Elastic Constant Matrix: (Units=GPa)
#
#
# Indices 1 2 3 4 5 6 
#
# 1 81.8913 22.0443 22.7403 -1.0485 -16.6645 -7.3035
# 2 22.0443 103.4567 38.7350 4.0339 -2.8586 9.5089
# 3 22.7403 38.7350 118.8635 8.0115 -13.0032 -0.6790
# 4 -1.0485 4.0339 8.0115 53.2511 -6.4627 -7.1061
# 5 -16.6645 -2.8586 -13.0032 -6.4627 42.7711 2.7234
# 6 -7.3035 9.5089 -0.6790 -7.1061 2.7234 35.8130
#
#
#
# Elastic Compliance Matrix: (Units=1/GPa)
#
#
# Indices 1 2 3 4 5 6 
#
# 1 0.014796 -0.002891 -0.001425 0.001851 0.005180 0.003731
# 2 -0.002891 0.011935 -0.003424 -0.001129 -0.001289 -0.003950
# 3 -0.001425 -0.003424 0.010100 -0.000971 0.002111 0.000457
# 4 0.001851 -0.001129 -0.000971 0.020009 0.003094 0.004394
# 5 0.005180 -0.001289 0.002111 0.003094 0.026419 0.000044
# 6 0.003731 -0.003950 0.000457 0.004394 0.000044 0.030610
#
#
# Mechanical properties :
#
#
# Convention : Reuss Voigt Hill
#
# Bulk Modulus (GPa) = 46.83532 52.36117 49.59824
# Shear Modulus (GPa) = 36.63899 41.07983 38.85941
#
# Velocity S-wave (km/s) = 4.13452 4.37792 4.25796
# Velocity P-wave (km/s) = 6.68160 7.06997 6.87852
#
# Compressibility (1/GPa) = 0.02135141
#
# Stress axis : x y z
#
# Youngs Moduli (GPa) = 67.58565 83.78573 99.00614
#
# Poissons Ratio (x) = 0.24223 0.14111
# Poissons Ratio (y) = 0.19539 0.33897
# Poissons Ratio (z) = 0.09633 0.28686
#
# Static dielectric constant tensor:
#      x y z
#    x 1.808110 -0.030820 0.056530 
#    y -0.030820 1.773460 -0.017950 
#    z 0.056530 -0.017950 1.874890 
# 
# From -- ./inp_files/21768.got.cif
#   From: 2010.05.17/outbox.cif.g08.bks.cpg/sg2_11_cif.got.tgz:21768.got - 2010.06.03 11:33:40.
