data_PCOD9070075
_publ_section_title
;
Structure prediction by ZEFSAII (Michael W. Deem and Ramdas Pophale) SiO2 
 PCOD9070075
Probable space group: P -1
;
_chemical_formula_sum "Si O2"
_cell_formula_units_Z 16
_cell_length_a 13.319477
_cell_length_b 9.109904
_cell_length_c 9.147177
_cell_angle_alpha 45.766607
_cell_angle_beta 93.766301
_cell_angle_gamma 86.243831
_cell_volume 783.858016
_symmetry_space_group_name_H-M "P -1"
_symmetry_group_IT_number 2
_symmetry_cell_setting 'triclinic'
loop_
_space_group_symop_operation_xyz
x,y,z
-x,-y,-z
loop_
_atom_site_type_symbol
_atom_site_label
_atom_site_fract_x
_atom_site_fract_y
_atom_site_fract_z
Si Si1 0.535087 0.525374 0.820355
Si Si2 0.789239 0.854423 0.307490
Si Si3 0.907958 0.640232 0.976230
Si Si4 0.000609 0.035237 0.802749
Si Si5 0.398233 0.894516 0.056038
Si Si6 0.343755 0.772871 0.463005
Si Si7 0.855472 0.446499 0.414260
Si Si8 0.713042 0.799615 0.663532
O O1 0.579291 0.305221 0.907062
O O2 0.440009 0.629477 0.642550
O O3 0.620073 0.673508 0.727165
O O4 0.500000 0.500000 0.000000
O O5 0.882396 0.984593 0.220940
O O6 0.832511 0.627700 0.405716
O O7 0.750876 0.844343 0.474966
O O8 0.696323 0.951644 0.127650
O O9 0.805385 0.667558 0.852942
O O10 0.887042 0.545950 0.197306
O O11 0.941172 0.865431 0.843441
O O12 0.000000 0.500000 0.000000
O O13 0.942976 0.262915 0.600251
O O14 0.000000 0.000000 0.000000
O O15 0.368237 0.825182 0.262120
O O16 0.500000 0.000000 0.000000
O O17 0.246434 0.655573 0.543521
O O18 0.321121 0.986998 0.401438
#
# Coordination Sequence:
#
# PCOD9070075 Si02
#       8
#     2   2   2   2   2   2   2   2
#     4  12  25  44  70 101 140 182 232 289 349 417
#     4  12  26  43  73  99 140 182 232 288 345 416
#     4  12  28  45  72 103 144 184 231 290 345 413
#     4  12  26  47  72 104 139 185 237 284 344 412
#     4  12  25  46  71 104 137 184 235 285 350 413
#     4  12  24  45  71  99 141 181 234 288 347 414
#     4  12  25  48  70 103 139 186 231 285 348 408
#     4  12  26  45  67 105 138 183 231 285 353 411
#
# _framework density 20.411860000000001
#
# number of rings (size 3 to 8) (size 9 to 14) (size 15 to 20)
#    0.000    0.000    2.500    7.875    5.250    1.000 
#    0.000    0.000    0.000    0.000    0.000    0.000 
#    0.000    0.000    0.000    0.000    0.000    0.000 
#
# Total GULP energy -89682.021766 kJ/mol
# GULP energy per Si atom -5605.126360 kJ/mol
# Density = 2.036540 g / cm^3
# Si number density = 20.411860 Si / 1000 Ang^3
#
#
#
# Elastic Constant Matrix: (Units=GPa)
#
#
# Indices 1 2 3 4 5 6 
#
# 1 154.3846 25.6217 51.0737 1.3470 -11.3494 10.0352
# 2 25.6217 126.4336 38.6506 5.6606 -22.5059 -11.5031
# 3 51.0737 38.6506 141.1452 17.2391 -1.7522 -14.2536
# 4 1.3470 5.6606 17.2391 41.1701 -10.0770 -4.3682
# 5 -11.3494 -22.5059 -1.7522 -10.0770 58.7654 -0.1229
# 6 10.0352 -11.5031 -14.2536 -4.3682 -0.1229 37.4419
#
#
#
# Elastic Compliance Matrix: (Units=1/GPa)
#
#
# Indices 1 2 3 4 5 6 
#
# 1 0.007953 -0.000780 -0.003131 0.001119 0.001329 -0.003428
# 2 -0.000780 0.009543 -0.002131 0.000738 0.003572 0.002427
# 3 -0.003131 -0.002131 0.009572 -0.003683 -0.001760 0.003393
# 4 0.001119 0.000738 -0.003683 0.027108 0.005041 0.001704
# 5 0.001329 0.003572 -0.001760 0.005041 0.019455 0.000723
# 6 -0.003428 0.002427 0.003393 0.001704 0.000723 0.029865
#
#
# Mechanical properties :
#
#
# Convention : Reuss Voigt Hill
#
# Bulk Modulus (GPa) = 66.74107 72.51727 69.62917
# Shear Modulus (GPa) = 41.46780 47.91665 44.69223
#
# Velocity S-wave (km/s) = 4.51217 4.85035 4.68431
# Velocity P-wave (km/s) = 7.74044 8.18364 7.96512
#
# Compressibility (1/GPa) = 0.01498328
#
# Stress axis : x y z
#
# Youngs Moduli (GPa) = 125.73474 104.79309 104.47057
#
# Poissons Ratio (x) = 0.08176 0.32706
# Poissons Ratio (y) = 0.09810 0.22268
# Poissons Ratio (z) = 0.39364 0.22336
#
# Static dielectric constant tensor:
#      x y z
#    x 1.700140 0.007920 0.006110 
#    y 0.007920 1.697220 -0.017870 
#    z 0.006110 -0.017870 1.686890 
# 
# From -- ./inp_files/48570.got.cif
#   From: 2010.05.17/outbox.cif.g08.bks.cpg/sg2_25_cif.got.tgz:48570.got - 2010.06.03 11:33:40.
