data_PCOD9070990
_publ_section_title
;
Structure prediction by ZEFSAII (Michael W. Deem and Ramdas Pophale) SiO2 
 PCOD9070990
Probable space group: P -1
;
_chemical_formula_sum "Si O2"
_cell_formula_units_Z 14
_cell_length_a 17.832921
_cell_length_b 5.486589
_cell_length_c 8.918220
_cell_angle_alpha 77.702451
_cell_angle_beta 42.693654
_cell_angle_gamma 71.597811
_cell_volume 561.172897
_symmetry_space_group_name_H-M "P -1"
_symmetry_group_IT_number 2
_symmetry_cell_setting 'triclinic'
loop_
_space_group_symop_operation_xyz
x,y,z
-x,-y,-z
loop_
_atom_site_type_symbol
_atom_site_label
_atom_site_fract_x
_atom_site_fract_y
_atom_site_fract_z
Si Si1 0.357343 0.509968 0.480042
Si Si2 0.089101 0.159453 0.793778
Si Si3 0.231530 0.154136 0.884617
Si Si4 0.209717 0.791720 0.415637
Si Si5 0.994194 0.618367 0.657795
Si Si6 0.487193 0.787284 0.418299
Si Si7 0.605572 0.140807 0.099783
O O1 0.303961 0.363941 0.708496
O O2 0.265138 0.559616 0.477325
O O3 0.379923 0.780778 0.469961
O O4 0.481187 0.341659 0.261171
O O5 0.164771 0.146681 0.831120
O O6 0.019385 0.424695 0.789074
O O7 0.165174 0.029763 0.559664
O O8 0.000000 0.000000 0.000000
O O9 0.316083 0.893487 0.858674
O O10 0.135105 0.228642 0.142971
O O11 0.096780 0.760195 0.501091
O O12 0.312984 0.809504 0.155139
O O13 0.000000 0.500000 0.500000
O O14 0.500000 0.500000 0.500000
O O15 0.578872 0.858583 0.160780
O O16 0.500000 0.000000 0.500000
#
# Coordination Sequence:
#
# PCOD9070990 Si02
#       7
#     2   2   2   2   2   2   2
#     4  12  27  50  81 112 169 215 281 332 409 501
#     4  12  26  49  81 115 158 209 281 338 414 498
#     4  12  25  51  82 115 155 217 280 339 410 502
#     4  12  29  49  78 119 163 212 267 345 424 487
#     4  12  28  50  77 117 160 207 270 346 422 490
#     4  12  25  48  77 117 157 214 282 334 400 487
#     4  12  28  49  77 121 164 217 272 334 419 489
#
# _framework density 24.947749999999999
#
# number of rings (size 3 to 8) (size 9 to 14) (size 15 to 20)
#    0.000    0.000    5.714    3.000    6.000    5.143 
#    0.000    0.000    0.000    0.000    0.000    0.000 
#    0.000    0.000    0.000    0.000    0.000    0.000 
#
# Total GULP energy -78119.825652 kJ/mol
# GULP energy per Si atom -5579.987547 kJ/mol
# Density = 2.489097 g / cm^3
# Si number density = 24.947750 Si / 1000 Ang^3
#
#
#
# Elastic Constant Matrix: (Units=GPa)
#
#
# Indices 1 2 3 4 5 6 
#
# 1 115.2253 37.2495 23.4927 23.3861 -12.8403 7.1478
# 2 37.2495 81.9135 39.5203 13.6006 -19.1374 -5.3566
# 3 23.4927 39.5203 148.5821 9.2155 -31.8228 12.1300
# 4 23.3861 13.6006 9.2155 50.7687 -4.3869 -5.0528
# 5 -12.8403 -19.1374 -31.8228 -4.3869 47.3871 1.6252
# 6 7.1478 -5.3566 12.1300 -5.0528 1.6252 54.2634
#
#
#
# Elastic Compliance Matrix: (Units=1/GPa)
#
#
# Indices 1 2 3 4 5 6 
#
# 1 0.011164 -0.004331 0.000048 -0.004136 0.001005 -0.002324
# 2 -0.004331 0.016918 -0.003257 -0.001393 0.003249 0.002742
# 3 0.000048 -0.003257 0.008827 -0.000598 0.004656 -0.002496
# 4 -0.004136 -0.001393 -0.000598 0.022336 -0.000107 0.002624
# 5 0.001005 0.003249 0.004656 -0.000107 0.025860 -0.001637
# 6 -0.002324 0.002742 -0.002496 0.002624 -0.001637 0.019857
#
#
# Mechanical properties :
#
#
# Convention : Reuss Voigt Hill
#
# Bulk Modulus (GPa) = 45.80598 60.69399 53.24998
# Shear Modulus (GPa) = 39.27183 46.84772 43.05978
#
# Velocity S-wave (km/s) = 3.97188 4.33810 4.15902
# Velocity P-wave (km/s) = 6.27973 7.03373 6.66740
#
# Compressibility (1/GPa) = 0.02183121
#
# Stress axis : x y z
#
# Youngs Moduli (GPa) = 89.57033 59.10808 113.28938
#
# Poissons Ratio (x) = 0.25597 -0.00546
# Poissons Ratio (y) = 0.38789 0.36896
# Poissons Ratio (z) = -0.00432 0.19250
#
# Static dielectric constant tensor:
#      x y z
#    x 3.716860 0.262460 -1.433050 
#    y 0.262460 2.175240 -0.251760 
#    z -1.433050 -0.251760 3.426300 
# 
# From -- ./inp_files/322283.got.cif
#   From: 2010.05.17/outbox.cif.g08.bks.cpg/sg2_162_cif.got.tgz:322283.got - 2010.06.03 11:33:40.
