data_PCOD9070022
_publ_section_title
;
Structure prediction by ZEFSAII (Michael W. Deem and Ramdas Pophale) SiO2 
 PCOD9070022
Probable space group: P -1
;
_chemical_formula_sum "Si O2"
_cell_formula_units_Z 14
_cell_length_a 14.380665
_cell_length_b 5.008800
_cell_length_c 11.749570
_cell_angle_alpha 129.848470
_cell_angle_beta 55.768837
_cell_angle_gamma 99.902715
_cell_volume 512.973965
_symmetry_space_group_name_H-M "P -1"
_symmetry_group_IT_number 2
_symmetry_cell_setting 'triclinic'
loop_
_space_group_symop_operation_xyz
x,y,z
-x,-y,-z
loop_
_atom_site_type_symbol
_atom_site_label
_atom_site_fract_x
_atom_site_fract_y
_atom_site_fract_z
Si Si1 0.248231 0.548766 0.983469
Si Si2 0.290837 0.568059 0.377699
Si Si3 0.408402 0.587337 0.691071
Si Si4 0.109959 0.406045 0.314956
Si Si5 0.019207 0.386628 0.119239
Si Si6 0.414411 0.254899 0.998478
Si Si7 0.757161 0.651323 0.397618
O O1 0.133261 0.438329 0.992359
O O2 0.194345 0.987421 0.145806
O O3 0.359849 0.400091 0.780736
O O4 0.301900 0.421339 0.036032
O O5 0.183236 0.656823 0.385416
O O6 0.253760 0.429663 0.483661
O O7 0.324989 0.942386 0.467049
O O8 0.381692 0.266285 0.156778
O O9 0.500000 0.500000 0.500000
O O10 0.286655 0.653589 0.721656
O O11 0.456978 0.864453 0.805173
O O12 0.055470 0.450329 0.239922
O O13 0.000000 0.500000 0.500000
O O14 0.886965 0.644088 0.267118
O O15 0.000000 0.000000 0.000000
O O16 0.500000 0.500000 0.000000
#
# Coordination Sequence:
#
# PCOD9070022 Si02
#       7
#     2   2   2   2   2   2   2
#     4  12  26  49  80 112 164 207 277 331 414 487
#     4  12  26  49  77 118 159 207 272 336 403 489
#     4  12  30  53  79 113 158 221 276 344 407 494
#     4  12  24  44  74 113 158 206 263 326 406 486
#     4  12  27  45  75 114 165 210 262 333 412 490
#     4  12  28  50  81 115 158 214 273 348 407 485
#     4  12  29  49  81 119 165 214 275 329 419 494
#
# _framework density 27.291833
#
# number of rings (size 3 to 8) (size 9 to 14) (size 15 to 20)
#    0.000    0.000    4.286    4.286    6.000    3.429 
#    0.000    0.000    0.000    0.000    0.000    0.000 
#    0.000    0.000    0.000    0.000    0.000    0.000 
#
# Total GULP energy -78223.925783 kJ/mol
# GULP energy per Si atom -5587.423270 kJ/mol
# Density = 2.722972 g / cm^3
# Si number density = 27.291833 Si / 1000 Ang^3
#
#
#
# Elastic Constant Matrix: (Units=GPa)
#
#
# Indices 1 2 3 4 5 6 
#
# 1 162.4462 34.7429 59.2331 -17.9197 24.4606 34.8379
# 2 34.7429 113.6021 55.2506 -13.9104 11.6170 30.5196
# 3 59.2331 55.2506 137.3282 -11.6844 29.2401 2.9919
# 4 -17.9197 -13.9104 -11.6844 51.6361 3.1488 6.1298
# 5 24.4606 11.6170 29.2401 3.1488 59.6286 -10.4556
# 6 34.8379 30.5196 2.9919 6.1298 -10.4556 68.9965
#
#
#
# Elastic Compliance Matrix: (Units=1/GPa)
#
#
# Indices 1 2 3 4 5 6 
#
# 1 0.009358 0.001182 -0.003269 0.003766 -0.003718 -0.006004
# 2 0.001182 0.013427 -0.004989 0.003854 -0.002081 -0.006978
# 3 -0.003269 -0.004989 0.011184 -0.000141 -0.002641 0.002985
# 4 0.003766 0.003854 -0.000141 0.022704 -0.004531 -0.006304
# 5 -0.003718 -0.002081 -0.002641 -0.004531 0.021385 0.006555
# 6 -0.006004 -0.006978 0.002985 -0.006304 0.006555 0.022036
#
#
# Mechanical properties :
#
#
# Convention : Reuss Voigt Hill
#
# Bulk Modulus (GPa) = 50.46015 79.09219 64.77617
# Shear Modulus (GPa) = 41.37354 53.66222 47.51788
#
# Velocity S-wave (km/s) = 3.89777 4.43904 4.17718
# Velocity P-wave (km/s) = 6.22784 7.43751 6.85939
#
# Compressibility (1/GPa) = 0.01981762
#
# Stress axis : x y z
#
# Youngs Moduli (GPa) = 106.86137 74.47877 89.41143
#
# Poissons Ratio (x) = -0.08806 0.29231
# Poissons Ratio (y) = -0.12635 0.44605
# Poissons Ratio (z) = 0.34935 0.37156
#
# Static dielectric constant tensor:
#      x y z
#    x 2.255150 -0.133730 -0.249260 
#    y -0.133730 2.238490 0.096470 
#    z -0.249260 0.096470 2.383400 
# 
# From -- ./inp_files/38942.got.cif
#   From: 2010.05.17/outbox.cif.g08.bks.cpg/sg2_20_cif.got.tgz:38942.got - 2010.06.03 11:33:40.
