data_PCOD9070009
_publ_section_title
;
Structure prediction by ZEFSAII (Michael W. Deem and Ramdas Pophale) SiO2 
 PCOD9070009
Probable space group: P -1
;
_chemical_formula_sum "Si O2"
_cell_formula_units_Z 16
_cell_length_a 8.950687
_cell_length_b 16.562261
_cell_length_c 11.668865
_cell_angle_alpha 146.786375
_cell_angle_beta 118.604877
_cell_angle_gamma 44.515514
_cell_volume 632.293899
_symmetry_space_group_name_H-M "P -1"
_symmetry_group_IT_number 2
_symmetry_cell_setting 'triclinic'
loop_
_space_group_symop_operation_xyz
x,y,z
-x,-y,-z
loop_
_atom_site_type_symbol
_atom_site_label
_atom_site_fract_x
_atom_site_fract_y
_atom_site_fract_z
Si Si1 0.944558 0.880540 0.272751
Si Si2 0.784211 0.680428 0.971970
Si Si3 0.085319 0.789727 0.819306
Si Si4 0.410341 0.922302 0.294478
Si Si5 0.451058 0.730163 0.498623
Si Si6 0.350024 0.644938 0.971072
Si Si7 0.271237 0.218113 0.192788
Si Si8 0.887459 0.292390 0.520198
O O1 0.694579 0.052162 0.340811
O O2 0.000000 0.000000 0.500000
O O3 0.125163 0.765881 0.103805
O O4 0.931441 0.726689 0.140982
O O5 0.804919 0.693232 0.857544
O O6 0.854852 0.473203 0.773741
O O7 0.536338 0.846841 0.129415
O O8 0.898314 0.793818 0.816748
O O9 0.163592 0.672148 0.591231
O O10 0.280608 0.696196 0.872782
O O11 0.000000 0.000000 0.000000
O O12 0.466183 0.732881 0.146567
O O13 0.500000 0.000000 0.500000
O O14 0.143326 0.093123 0.389631
O O15 0.662405 0.677970 0.581502
O O16 0.280151 0.731978 0.515616
O O17 0.516337 0.581836 0.244574
O O18 0.500000 0.000000 0.000000
#
# Coordination Sequence:
#
# PCOD9070009 Si02
#       8
#     2   2   2   2   2   2   2   2
#     4  12  27  49  72 102 147 191 242 304 354 422
#     4  12  27  46  74 111 142 189 241 299 363 426
#     4  12  24  44  76 106 147 189 232 298 366 431
#     4  12  27  48  74 105 143 191 247 299 351 424
#     4  12  27  46  76 107 145 192 238 294 365 433
#     4  12  25  47  75 105 145 186 240 294 362 426
#     4  12  24  44  73 110 147 185 235 298 366 431
#     4  12  27  46  75 107 145 190 238 297 365 428
#
# _framework density 25.304687000000001
#
# number of rings (size 3 to 8) (size 9 to 14) (size 15 to 20)
#    0.000    0.000    6.250    3.000    3.500    4.000 
#    0.000    0.000    0.000    0.000    0.000    0.000 
#    0.000    0.000    0.000    0.000    0.000    0.000 
#
# Total GULP energy -89691.063934 kJ/mol
# GULP energy per Si atom -5605.691496 kJ/mol
# Density = 2.524709 g / cm^3
# Si number density = 25.304687 Si / 1000 Ang^3
#
#
#
# Elastic Constant Matrix: (Units=GPa)
#
#
# Indices 1 2 3 4 5 6 
#
# 1 146.4145 31.4542 76.7913 5.7661 24.4768 8.9086
# 2 31.4542 66.5509 20.9544 -5.1642 -2.1462 13.0252
# 3 76.7913 20.9544 176.5458 8.6718 16.2326 -3.6066
# 4 5.7661 -5.1642 8.6718 37.3886 -7.6338 4.5865
# 5 24.4768 -2.1462 16.2326 -7.6338 58.0187 -0.8359
# 6 8.9086 13.0252 -3.6066 4.5865 -0.8359 29.9042
#
#
#
# Elastic Compliance Matrix: (Units=1/GPa)
#
#
# Indices 1 2 3 4 5 6 
#
# 1 0.010339 -0.003645 -0.003670 -0.001792 -0.003731 -0.001764
# 2 -0.003645 0.019315 -0.001427 0.005226 0.003221 -0.008211
# 3 -0.003670 -0.001427 0.007664 -0.001942 -0.000863 0.002913
# 4 -0.001792 0.005226 -0.001942 0.030079 0.005358 -0.006440
# 5 -0.003731 0.003221 -0.000863 0.005358 0.019866 -0.000662
# 6 -0.001764 -0.008211 0.002913 -0.006440 -0.000662 0.038862
#
#
# Mechanical properties :
#
#
# Convention : Reuss Voigt Hill
#
# Bulk Modulus (GPa) = 50.41997 71.99010 61.20504
# Shear Modulus (GPa) = 33.28421 42.41639 37.85030
#
# Velocity S-wave (km/s) = 3.63069 4.09862 3.87173
# Velocity P-wave (km/s) = 6.12734 7.13507 6.65032
#
# Compressibility (1/GPa) = 0.01983341
#
# Stress axis : x y z
#
# Youngs Moduli (GPa) = 96.71753 51.77362 130.48006
#
# Poissons Ratio (x) = 0.18874 0.47880
# Poissons Ratio (y) = 0.35258 0.18625
# Poissons Ratio (z) = 0.35491 0.07390
#
# Static dielectric constant tensor:
#      x y z
#    x 1.954930 0.004890 0.038340 
#    y 0.004890 2.035410 -0.026000 
#    z 0.038340 -0.026000 2.039980 
# 
# From -- ./inp_files/299744.got.cif
#   From: 2010.05.17/outbox.cif.g08.bks.cpg/sg2_150_cif.got.tgz:299744.got - 2010.06.03 11:33:40.
