data_PCOD9070395
_publ_section_title
;
Structure prediction by ZEFSAII (Michael W. Deem and Ramdas Pophale) SiO2 
 PCOD9070395
Probable space group: P -1
;
_chemical_formula_sum "Si O2"
_cell_formula_units_Z 11
_cell_length_a 14.017296
_cell_length_b 8.864972
_cell_length_c 8.807201
_cell_angle_alpha 140.909912
_cell_angle_beta 41.273386
_cell_angle_gamma 142.289036
_cell_volume 394.345721
_symmetry_space_group_name_H-M "P -1"
_symmetry_group_IT_number 2
_symmetry_cell_setting 'triclinic'
loop_
_space_group_symop_operation_xyz
x,y,z
-x,-y,-z
loop_
_atom_site_type_symbol
_atom_site_label
_atom_site_fract_x
_atom_site_fract_y
_atom_site_fract_z
Si Si1 0.379926 0.615738 0.187014
Si Si2 0.218526 0.187762 0.816806
Si Si3 0.854367 0.314402 0.270381
Si Si4 0.345422 0.887775 0.937903
Si Si5 0.897211 0.061962 0.547885
Si Si6 0.500000 0.500000 0.500000
O O1 0.298155 0.645713 0.459769
O O2 0.494469 0.886516 0.165992
O O3 0.500000 0.500000 0.000000
O O4 0.229928 0.411283 0.096988
O O5 0.405142 0.327115 0.633987
O O6 0.162688 0.917853 0.775094
O O7 0.107064 0.084201 0.718319
O O8 0.809241 0.219254 0.077047
O O9 0.018474 0.610431 0.316218
O O10 0.376149 0.644313 0.763757
O O11 0.294446 0.042255 0.250566
O O12 0.000000 0.000000 0.500000
#
# Coordination Sequence:
#
# PCOD9070395 Si02
#       6
#     2   2   2   2   2   1
#     4  12  24  47  83 116 154 201 270 333 389 466
#     4  12  27  48  81 115 156 211 267 326 400 468
#     4  12  26  51  78 116 157 210 267 323 395 480
#     4  12  26  52  83 116 160 211 263 331 400 469
#     4  12  29  53  77 116 164 212 263 327 402 475
#     4  12  26  48  78 120 156 202 266 328 394 464
#
# _framework density 27.894306
#
# number of rings (size 3 to 8) (size 9 to 14) (size 15 to 20)
#    0.000    0.000    3.636    6.000    2.545    2.182 
#    0.000    0.000    0.000    0.000    0.000    0.000 
#    0.000    0.000    0.000    0.000    0.000    0.000 
#
# Total GULP energy -61575.961488 kJ/mol
# GULP energy per Si atom -5597.814681 kJ/mol
# Density = 2.783082 g / cm^3
# Si number density = 27.894306 Si / 1000 Ang^3
#
#
#
# Elastic Constant Matrix: (Units=GPa)
#
#
# Indices 1 2 3 4 5 6 
#
# 1 199.6808 33.7667 35.9134 27.4914 7.7313 -20.5779
# 2 33.7667 166.5051 -8.9686 -0.5661 -9.4568 -20.7344
# 3 35.9134 -8.9686 115.6187 -21.5538 -6.6022 -21.5311
# 4 27.4914 -0.5661 -21.5538 54.9696 3.0252 -6.0640
# 5 7.7313 -9.4568 -6.6022 3.0252 56.1192 14.3724
# 6 -20.5779 -20.7344 -21.5311 -6.0640 14.3724 47.5658
#
#
#
# Elastic Compliance Matrix: (Units=1/GPa)
#
#
# Indices 1 2 3 4 5 6 
#
# 1 0.006485 -0.001469 -0.002852 -0.004211 -0.001448 0.000775
# 2 -0.001469 0.006867 0.002001 0.001920 0.000643 0.003314
# 3 -0.002852 0.002001 0.012073 0.006815 0.000275 0.005889
# 4 -0.004211 0.001920 0.006815 0.023638 -0.000952 0.005401
# 5 -0.001448 0.000643 0.000275 -0.000952 0.019833 -0.006336
# 6 0.000775 0.003314 0.005889 0.005401 -0.006336 0.028072
#
#
# Mechanical properties :
#
#
# Convention : Reuss Voigt Hill
#
# Bulk Modulus (GPa) = 48.10991 67.02528 57.56760
# Shear Modulus (GPa) = 46.06703 59.80381 52.93542
#
# Velocity S-wave (km/s) = 4.06826 4.63530 4.36100
# Velocity P-wave (km/s) = 6.27314 7.26143 6.78530
#
# Compressibility (1/GPa) = 0.02078574
#
# Stress axis : x y z
#
# Youngs Moduli (GPa) = 154.20180 145.61960 82.82913
#
# Poissons Ratio (x) = 0.21388 0.23621
# Poissons Ratio (y) = 0.22649 -0.16572
# Poissons Ratio (z) = 0.43975 -0.29135
#
# Static dielectric constant tensor:
#      x y z
#    x 2.282010 0.347990 0.062870 
#    y 0.347990 2.737370 0.208300 
#    z 0.062870 0.208300 2.172910 
# 
# From -- ./inp_files/133828.got.cif
#   From: 2010.05.17/outbox.cif.g08.bks.cpg/sg2_67_cif.got.tgz:133828.got - 2010.06.03 11:33:40.
