data_PCOD9070915
_publ_section_title
;
Structure prediction by ZEFSAII (Michael W. Deem and Ramdas Pophale) SiO2 
 PCOD9070915
Probable space group: P -1
;
_chemical_formula_sum "Si O2"
_cell_formula_units_Z 16
_cell_length_a 14.113914
_cell_length_b 11.867262
_cell_length_c 7.499225
_cell_angle_alpha 70.449913
_cell_angle_beta 70.179427
_cell_angle_gamma 31.915097
_cell_volume 621.925735
_symmetry_space_group_name_H-M "P -1"
_symmetry_group_IT_number 2
_symmetry_cell_setting 'triclinic'
loop_
_space_group_symop_operation_xyz
x,y,z
-x,-y,-z
loop_
_atom_site_type_symbol
_atom_site_label
_atom_site_fract_x
_atom_site_fract_y
_atom_site_fract_z
Si Si1 0.021105 0.837361 0.108863
Si Si2 0.051850 0.115696 0.447171
Si Si3 0.680903 0.559174 0.477095
Si Si4 0.786797 0.692446 0.526388
Si Si5 0.559469 0.578762 0.956916
Si Si6 0.365582 0.656295 0.342220
Si Si7 0.646046 0.987374 0.755466
Si Si8 0.289956 0.037010 0.865853
O O1 0.973144 0.875708 0.329221
O O2 0.887204 0.876494 0.072719
O O3 0.229681 0.607492 0.052587
O O4 0.000000 0.000000 0.000000
O O5 0.181534 0.100804 0.352915
O O6 0.857032 0.339853 0.371372
O O7 0.167916 0.895038 0.400240
O O8 0.750957 0.593558 0.542427
O O9 0.641208 0.473941 0.656698
O O10 0.525048 0.774518 0.346971
O O11 0.684824 0.829703 0.699718
O O12 0.727480 0.840582 0.329433
O O13 0.000000 0.500000 0.500000
O O14 0.454293 0.676111 0.166272
O O15 0.500000 0.500000 0.000000
O O16 0.446146 0.795640 0.825817
O O17 0.500000 0.500000 0.500000
O O18 0.657931 0.961384 0.974748
#
# Coordination Sequence:
#
# PCOD9070915 Si02
#       8
#     2   2   2   2   2   2   2   2
#     4  12  26  45  79 118 170 222 268 337 432 490
#     4  12  25  49  80 118 165 215 273 342 417 498
#     4  12  27  49  83 113 163 227 268 341 424 490
#     4  12  28  57  83 116 167 224 280 344 415 496
#     4  12  26  45  73 124 166 216 265 339 423 493
#     4  12  25  47  80 118 168 205 271 343 413 502
#     4  12  27  52  80 121 158 218 285 337 413 490
#     4  12  28  52  83 118 169 213 284 350 403 506
#
# _framework density 25.726544000000001
#
# number of rings (size 3 to 8) (size 9 to 14) (size 15 to 20)
#    0.000    0.000    6.250    2.250    3.500    4.000 
#    2.250    0.000    0.000    0.000    0.000    0.000 
#    0.000    0.000    0.000    0.000    0.000    0.000 
#
# Total GULP energy -89600.273287 kJ/mol
# GULP energy per Si atom -5600.017080 kJ/mol
# Density = 2.566799 g / cm^3
# Si number density = 25.726544 Si / 1000 Ang^3
#
#
#
# Elastic Constant Matrix: (Units=GPa)
#
#
# Indices 1 2 3 4 5 6 
#
# 1 138.8383 40.8992 10.3765 0.2809 -6.1927 16.6425
# 2 40.8992 198.8112 28.6685 3.7127 -10.5909 -2.9538
# 3 10.3765 28.6685 89.7447 -5.5467 -7.4366 4.6799
# 4 0.2809 3.7127 -5.5467 39.5864 -1.3296 -6.3282
# 5 -6.1927 -10.5909 -7.4366 -1.3296 44.0912 6.1220
# 6 16.6425 -2.9538 4.6799 -6.3282 6.1220 66.7266
#
#
#
# Elastic Compliance Matrix: (Units=1/GPa)
#
#
# Indices 1 2 3 4 5 6 
#
# 1 0.007991 -0.001584 -0.000239 -0.000254 0.000994 -0.002162
# 2 -0.001584 0.005652 -0.001631 -0.000621 0.000754 0.000632
# 3 -0.000239 -0.001631 0.011991 0.001758 0.001768 -0.000849
# 4 -0.000254 -0.000621 0.001758 0.025958 0.000572 0.002322
# 5 0.000994 0.000754 0.001768 0.000572 0.023657 -0.002455
# 6 -0.002162 0.000632 -0.000849 0.002322 -0.002455 0.016059
#
#
# Mechanical properties :
#
#
# Convention : Reuss Voigt Hill
#
# Bulk Modulus (GPa) = 53.40023 65.25364 59.32694
# Shear Modulus (GPa) = 47.86634 53.24417 50.55525
#
# Velocity S-wave (km/s) = 4.31813 4.55424 4.43776
# Velocity P-wave (km/s) = 6.75748 7.28521 7.02630
#
# Compressibility (1/GPa) = 0.01872651
#
# Stress axis : x y z
#
# Youngs Moduli (GPa) = 125.14034 176.92537 83.39679
#
# Poissons Ratio (x) = 0.28024 0.01989
# Poissons Ratio (y) = 0.19821 0.13604
# Poissons Ratio (z) = 0.02985 0.28861
#
# Static dielectric constant tensor:
#      x y z
#    x 2.074880 -0.014600 0.154080 
#    y -0.014600 1.989560 0.171640 
#    z 0.154080 0.171640 2.404730 
# 
# From -- ./inp_files/306953.got.cif
#   From: 2010.05.17/outbox.cif.g08.bks.cpg/sg2_154_cif.got.tgz:306953.got - 2010.06.03 11:33:40.
