data_PCOD9070424
_publ_section_title
;
Structure prediction by ZEFSAII (Michael W. Deem and Ramdas Pophale) SiO2 
 PCOD9070424
Probable space group: P -1
;
_chemical_formula_sum "Si O2"
_cell_formula_units_Z 14
_cell_length_a 8.946094
_cell_length_b 10.835644
_cell_length_c 7.610716
_cell_angle_alpha 97.827455
_cell_angle_beta 96.316270
_cell_angle_gamma 49.481049
_cell_volume 555.384124
_symmetry_space_group_name_H-M "P -1"
_symmetry_group_IT_number 2
_symmetry_cell_setting 'triclinic'
loop_
_space_group_symop_operation_xyz
x,y,z
-x,-y,-z
loop_
_atom_site_type_symbol
_atom_site_label
_atom_site_fract_x
_atom_site_fract_y
_atom_site_fract_z
Si Si1 0.024331 0.138747 0.164268
Si Si2 0.746485 0.390681 0.619870
Si Si3 0.384458 0.239059 0.822394
Si Si4 0.560811 0.350953 0.102278
Si Si5 0.699072 0.122909 0.562719
Si Si6 0.162745 0.108425 0.793921
Si Si7 0.917452 0.442933 0.343747
O O1 0.791056 0.242114 0.146082
O O2 0.063328 0.262218 0.249326
O O3 0.873723 0.996960 0.698625
O O4 0.104412 0.081309 0.967274
O O5 0.587545 0.554086 0.737299
O O6 0.688657 0.277013 0.580595
O O7 0.771955 0.438516 0.443478
O O8 0.960898 0.273798 0.718058
O O9 0.505203 0.172718 0.641954
O O10 0.315226 0.139789 0.845816
O O11 0.194372 0.426353 0.798779
O O12 0.513182 0.247583 0.978138
O O13 0.500000 0.500000 0.000000
O O14 0.749153 0.032074 0.367210
O O15 0.000000 0.500000 0.500000
#
# Coordination Sequence:
#
# PCOD9070424 Si02
#       7
#     2   2   2   2   2   2   2
#     4  12  27  49  77 109 150 196 252 300 371 440
#     4  12  25  48  75 110 146 194 247 302 376 431
#     4  12  26  49  74 107 157 189 252 311 362 443
#     4  12  24  48  73 112 143 193 252 312 360 438
#     4  12  27  52  72 111 153 195 250 303 364 450
#     4  12  26  47  79 108 148 202 240 307 373 436
#     4  12  25  47  79 112 145 195 248 311 374 434
#
# _framework density 25.207778999999999
#
# number of rings (size 3 to 8) (size 9 to 14) (size 15 to 20)
#    0.000    0.000    7.143    0.857    2.000    6.286 
#    7.714    0.000    0.000    0.000    0.000    0.000 
#    0.000    0.000    0.000    0.000    0.000    0.000 
#
# Total GULP energy -78628.479180 kJ/mol
# GULP energy per Si atom -5616.319941 kJ/mol
# Density = 2.515040 g / cm^3
# Si number density = 25.207779 Si / 1000 Ang^3
#
#
#
# Elastic Constant Matrix: (Units=GPa)
#
#
# Indices 1 2 3 4 5 6 
#
# 1 123.5523 20.8807 53.9464 21.0883 10.6702 12.2061
# 2 20.8807 91.7864 31.6552 10.0833 11.6170 -0.6202
# 3 53.9464 31.6552 186.2385 33.5710 -6.5083 15.1401
# 4 21.0883 10.0833 33.5710 37.8596 -5.4833 -0.5535
# 5 10.6702 11.6170 -6.5083 -5.4833 54.8232 -3.5992
# 6 12.2061 -0.6202 15.1401 -0.5535 -3.5992 26.4167
#
#
#
# Elastic Compliance Matrix: (Units=1/GPa)
#
#
# Indices 1 2 3 4 5 6 
#
# 1 0.010468 -0.000944 -0.001822 -0.004429 -0.002778 -0.004286
# 2 -0.000944 0.012224 -0.001721 -0.001573 -0.002682 0.001311
# 3 -0.001822 -0.001721 0.007403 -0.005015 0.000872 -0.003428
# 4 -0.004429 -0.001573 -0.005015 0.034482 0.004457 0.006213
# 5 -0.002778 -0.002682 0.000872 0.004457 0.020132 0.003557
# 6 -0.004286 0.001311 -0.003428 0.006213 0.003557 0.042445
#
#
# Mechanical properties :
#
#
# Convention : Reuss Voigt Hill
#
# Bulk Modulus (GPa) = 47.34594 68.28244 57.81419
# Shear Modulus (GPa) = 34.92356 43.49289 39.20822
#
# Velocity S-wave (km/s) = 3.72617 4.15827 3.94814
# Velocity P-wave (km/s) = 6.11028 7.08531 6.61578
#
# Compressibility (1/GPa) = 0.02112114
#
# Stress axis : x y z
#
# Youngs Moduli (GPa) = 95.52821 81.80415 135.08267
#
# Poissons Ratio (x) = 0.07721 0.24614
# Poissons Ratio (y) = 0.09016 0.23250
# Poissons Ratio (z) = 0.17406 0.14080
#
# Static dielectric constant tensor:
#      x y z
#    x 1.973740 -0.028110 0.018360 
#    y -0.028110 1.989080 0.025580 
#    z 0.018360 0.025580 2.002870 
# 
# From -- ./inp_files/190136.got.cif
#   From: 2010.05.17/outbox.cif.g08.bks.cpg/sg2_96_cif.got.tgz:190136.got - 2010.06.03 11:33:40.
