data_PCOD9070809
_publ_section_title
;
Structure prediction by ZEFSAII (Michael W. Deem and Ramdas Pophale) SiO2 
 PCOD9070809
Probable space group: P -1
;
_chemical_formula_sum "Si O2"
_cell_formula_units_Z 14
_cell_length_a 25.387343
_cell_length_b 11.721922
_cell_length_c 6.439353
_cell_angle_alpha 111.475267
_cell_angle_beta 108.967845
_cell_angle_gamma 18.711324
_cell_volume 570.548922
_symmetry_space_group_name_H-M "P -1"
_symmetry_group_IT_number 2
_symmetry_cell_setting 'triclinic'
loop_
_space_group_symop_operation_xyz
x,y,z
-x,-y,-z
loop_
_atom_site_type_symbol
_atom_site_label
_atom_site_fract_x
_atom_site_fract_y
_atom_site_fract_z
Si Si1 0.865037 0.071929 0.503576
Si Si2 0.377413 0.308213 0.715838
Si Si3 0.122096 0.659274 0.799346
Si Si4 0.124310 0.233555 0.684428
Si Si5 0.365163 0.532322 0.165647
Si Si6 0.691051 0.102238 0.901902
Si Si7 0.317278 0.024876 0.592192
O O1 0.761329 0.339966 0.363792
O O2 0.767162 0.265813 0.728441
O O3 0.891931 0.874790 0.361835
O O4 0.021993 0.831239 0.579399
O O5 0.288948 0.385686 0.784353
O O6 0.500000 0.000000 0.500000
O O7 0.443864 0.274369 0.931741
O O8 0.181180 0.399371 0.766376
O O9 0.000000 0.000000 0.000000
O O10 0.289056 0.950463 0.606487
O O11 0.000000 0.500000 0.500000
O O12 0.163823 0.207915 0.947911
O O13 0.290356 0.803796 0.127264
O O14 0.506933 0.286016 0.334658
O O15 0.702990 0.962561 0.667588
O O16 0.500000 0.500000 0.000000
#
# Coordination Sequence:
#
# PCOD9070809 Si02
#       7
#     2   2   2   2   2   2   2
#     4  12  25  50  77 107 156 205 262 323 399 466
#     4  12  29  49  79 113 152 212 270 322 390 472
#     4  12  28  52  74 110 160 212 260 326 389 472
#     4  12  25  47  74 115 156 195 256 326 403 471
#     4  12  25  46  79 114 155 203 265 331 390 466
#     4  12  25  46  77 117 156 201 258 327 400 472
#     4  12  27  46  78 114 155 203 261 324 397 470
#
# _framework density 24.537775
#
# number of rings (size 3 to 8) (size 9 to 14) (size 15 to 20)
#    0.000    0.000    7.143    2.571    4.000    1.714 
#    5.143    0.000    0.000    0.000    0.000    0.000 
#    0.000    0.000    0.000    0.000    0.000    0.000 
#
# Total GULP energy -78147.548671 kJ/mol
# GULP energy per Si atom -5581.967762 kJ/mol
# Density = 2.448193 g / cm^3
# Si number density = 24.537775 Si / 1000 Ang^3
#
#
#
# Elastic Constant Matrix: (Units=GPa)
#
#
# Indices 1 2 3 4 5 6 
#
# 1 77.7932 13.6155 27.4157 -1.6429 22.3133 0.3067
# 2 13.6155 84.1350 49.0162 -4.4890 20.2908 8.1430
# 3 27.4157 49.0162 161.7511 -4.1382 45.7116 7.7069
# 4 -1.6429 -4.4890 -4.1382 64.4243 -1.4237 -7.4633
# 5 22.3133 20.2908 45.7116 -1.4237 43.6300 -2.9422
# 6 0.3067 8.1430 7.7069 -7.4633 -2.9422 37.9084
#
#
#
# Elastic Compliance Matrix: (Units=1/GPa)
#
#
# Indices 1 2 3 4 5 6 
#
# 1 0.015124 -0.000448 -0.000379 0.000116 -0.007158 -0.000482
# 2 -0.000448 0.015031 -0.003381 0.000429 -0.003388 -0.002716
# 3 -0.000379 -0.003381 0.009804 -0.000031 -0.008637 -0.001940
# 4 0.000116 0.000429 -0.000031 0.015922 0.000501 0.003087
# 5 -0.007158 -0.003388 -0.008637 0.000501 0.037597 0.005558
# 6 -0.000482 -0.002716 -0.001940 0.003087 0.005558 0.028400
#
#
# Mechanical properties :
#
#
# Convention : Reuss Voigt Hill
#
# Bulk Modulus (GPa) = 31.70233 55.97489 43.83861
# Shear Modulus (GPa) = 35.50963 44.76799 40.13881
#
# Velocity S-wave (km/s) = 3.80826 4.27599 4.04889
# Velocity P-wave (km/s) = 5.68199 6.87314 6.30575
#
# Compressibility (1/GPa) = 0.03154342
#
# Stress axis : x y z
#
# Youngs Moduli (GPa) = 66.12001 66.53019 102.00265
#
# Poissons Ratio (x) = 0.02978 0.03865
# Poissons Ratio (y) = 0.02959 0.34488
# Poissons Ratio (z) = 0.02505 0.22494
#
# Static dielectric constant tensor:
#      x y z
#    x 1.928480 -0.004500 -0.023080 
#    y -0.004500 1.998550 0.054470 
#    z -0.023080 0.054470 2.018780 
# 
# From -- ./inp_files/90244.got.cif
#   From: 2010.05.17/outbox.cif.g08.bks.cpg/sg2_46_cif.got.tgz:90244.got - 2010.06.03 11:33:40.
