data_PCOD9070759
_publ_section_title
;
Structure prediction by ZEFSAII (Michael W. Deem and Ramdas Pophale) SiO2 
 PCOD9070759
Probable space group: P -1
;
_chemical_formula_sum "Si O2"
_cell_formula_units_Z 14
_cell_length_a 14.880828
_cell_length_b 12.624033
_cell_length_c 11.421748
_cell_angle_alpha 126.089735
_cell_angle_beta 124.883865
_cell_angle_gamma 18.521746
_cell_volume 550.045953
_symmetry_space_group_name_H-M "P -1"
_symmetry_group_IT_number 2
_symmetry_cell_setting 'triclinic'
loop_
_space_group_symop_operation_xyz
x,y,z
-x,-y,-z
loop_
_atom_site_type_symbol
_atom_site_label
_atom_site_fract_x
_atom_site_fract_y
_atom_site_fract_z
Si Si1 0.818024 0.325204 0.118940
Si Si2 0.515774 0.709057 0.908844
Si Si3 0.611637 0.823013 0.671945
Si Si4 0.001478 0.576780 0.674489
Si Si5 0.105746 0.531912 0.106268
Si Si6 0.336766 0.493706 0.616611
Si Si7 0.276030 0.755341 0.394723
O O1 0.981198 0.285056 0.228380
O O2 0.691862 0.435150 0.224006
O O3 0.588385 0.602125 0.027016
O O4 0.000000 0.000000 0.000000
O O5 0.675098 0.426200 0.764899
O O6 0.657945 0.686565 0.953795
O O7 0.182988 0.069482 0.870826
O O8 0.647762 0.678554 0.500872
O O9 0.747940 0.805910 0.715303
O O10 0.765558 0.594308 0.750829
O O11 0.286935 0.207788 0.706761
O O12 0.000000 0.500000 0.500000
O O13 0.000000 0.500000 0.000000
O O14 0.615065 0.243931 0.601755
O O15 0.055021 0.857464 0.577515
O O16 0.500000 0.500000 0.500000
#
# Coordination Sequence:
#
# PCOD9070759 Si02
#       7
#     2   2   2   2   2   2   2
#     4  12  28  50  74 109 155 199 253 305 371 445
#     4  12  26  46  71 105 145 195 239 304 371 435
#     4  12  25  48  78 110 146 188 251 308 374 439
#     4  12  26  48  75 111 147 194 246 306 371 445
#     4  12  25  47  73 105 144 188 247 304 371 442
#     4  12  26  45  75 107 146 197 242 310 368 435
#     4  12  25  46  71 107 146 192 250 301 371 443
#
# _framework density 25.452418000000002
#
# number of rings (size 3 to 8) (size 9 to 14) (size 15 to 20)
#    0.000    0.000    2.857    7.286    0.000    1.714 
#    0.000    0.000    0.000    0.000    0.000    0.000 
#    0.000    0.000    0.000    0.000    0.000    0.000 
#
# Total GULP energy -78604.433695 kJ/mol
# GULP energy per Si atom -5614.602407 kJ/mol
# Density = 2.539449 g / cm^3
# Si number density = 25.452418 Si / 1000 Ang^3
#
#
#
# Elastic Constant Matrix: (Units=GPa)
#
#
# Indices 1 2 3 4 5 6 
#
# 1 73.8880 17.4173 22.8121 -20.3677 -0.5858 5.5993
# 2 17.4173 119.7726 39.4289 -10.4765 5.9106 6.9096
# 3 22.8121 39.4289 132.4585 3.3930 3.7292 13.1245
# 4 -20.3677 -10.4765 3.3930 43.1246 14.8299 1.8289
# 5 -0.5858 5.9106 3.7292 14.8299 43.7753 0.2571
# 6 5.5993 6.9096 13.1245 1.8289 0.2571 33.1831
#
#
#
# Elastic Compliance Matrix: (Units=1/GPa)
#
#
# Indices 1 2 3 4 5 6 
#
# 1 0.017183 -0.000541 -0.002745 0.009172 -0.002558 -0.002187
# 2 -0.000541 0.009763 -0.002732 0.003111 -0.002141 -0.001016
# 3 -0.002745 -0.002732 0.009133 -0.002747 0.000499 -0.002433
# 4 0.009172 0.003111 -0.002747 0.032403 -0.011024 -0.002809
# 5 -0.002558 -0.002141 0.000499 -0.011024 0.026784 0.001080
# 6 -0.002187 -0.001016 -0.002433 -0.002809 0.001080 0.031825
#
#
# Mechanical properties :
#
#
# Convention : Reuss Voigt Hill
#
# Bulk Modulus (GPa) = 41.58897 53.93730 47.76314
# Shear Modulus (GPa) = 33.98127 40.44732 37.21430
#
# Velocity S-wave (km/s) = 3.65785 3.99072 3.82791
# Velocity P-wave (km/s) = 5.84938 6.51705 6.19222
#
# Compressibility (1/GPa) = 0.02404484
#
# Stress axis : x y z
#
# Youngs Moduli (GPa) = 58.19846 102.42260 109.49575
#
# Poissons Ratio (x) = 0.05536 0.30052
# Poissons Ratio (y) = 0.03146 0.29914
# Poissons Ratio (z) = 0.15973 0.27981
#
# Static dielectric constant tensor:
#      x y z
#    x 2.020030 0.037460 0.045930 
#    y 0.037460 1.985130 -0.028490 
#    z 0.045930 -0.028490 1.995370 
# 
# From -- ./inp_files/94370.got.cif
#   From: 2010.05.17/outbox.cif.g08.bks.cpg/sg2_48_cif.got.tgz:94370.got - 2010.06.03 11:33:40.
