data_PCOD9070004
_publ_section_title
;
Structure prediction by ZEFSAII (Michael W. Deem and Ramdas Pophale) SiO2 
 PCOD9070004
Probable space group: P -1
;
_chemical_formula_sum "Si O2"
_cell_formula_units_Z 14
_cell_length_a 8.472619
_cell_length_b 23.990927
_cell_length_c 6.879442
_cell_angle_alpha 85.119683
_cell_angle_beta 75.658445
_cell_angle_gamma 29.721018
_cell_volume 646.584068
_symmetry_space_group_name_H-M "P -1"
_symmetry_group_IT_number 2
_symmetry_cell_setting 'triclinic'
loop_
_space_group_symop_operation_xyz
x,y,z
-x,-y,-z
loop_
_atom_site_type_symbol
_atom_site_label
_atom_site_fract_x
_atom_site_fract_y
_atom_site_fract_z
Si Si1 0.744719 0.111878 0.177655
Si Si2 0.612051 0.691068 0.019505
Si Si3 0.104274 0.791839 0.453188
Si Si4 0.820089 0.435433 0.839268
Si Si5 0.330926 0.008741 0.204253
Si Si6 0.729280 0.801240 0.386220
Si Si7 0.362877 0.399288 0.323658
O O1 0.475911 0.225222 0.091184
O O2 0.558613 0.130681 0.391502
O O3 0.983348 0.086936 0.207922
O O4 0.000000 0.000000 0.000000
O O5 0.624463 0.638855 0.869555
O O6 0.313250 0.764364 0.239051
O O7 0.957256 0.596792 0.062500
O O8 0.347670 0.707934 0.587260
O O9 0.988499 0.767250 0.411867
O O10 0.778654 0.923241 0.593357
O O11 0.640062 0.533867 0.724857
O O12 0.079137 0.312771 0.703305
O O13 0.500000 0.500000 0.000000
O O14 0.565925 0.885818 0.233248
O O15 0.500000 0.000000 0.000000
O O16 0.000000 0.500000 0.500000
#
# Coordination Sequence:
#
# PCOD9070004 Si02
#       7
#     2   2   2   2   2   2   2
#     4  12  24  44  73 106 147 183 233 304 361 420
#     4  12  25  49  73 105 143 192 243 288 356 430
#     4  12  26  47  76 104 142 191 242 291 356 432
#     4  12  28  44  72 104 147 188 234 301 354 415
#     4  12  25  47  75 105 144 188 241 291 358 438
#     4  12  27  46  70 112 143 185 239 298 364 420
#     4  12  26  48  74 103 141 194 246 285 351 428
#
# _framework density 21.652249999999999
#
# number of rings (size 3 to 8) (size 9 to 14) (size 15 to 20)
#    0.000    0.000    2.857    7.286    6.000    0.571 
#    0.000    0.000    0.000    0.000    0.000    0.000 
#    0.000    0.000    0.000    0.000    0.000    0.000 
#
# Total GULP energy -78374.854060 kJ/mol
# GULP energy per Si atom -5598.203861 kJ/mol
# Density = 2.160297 g / cm^3
# Si number density = 21.652250 Si / 1000 Ang^3
#
#
#
# Elastic Constant Matrix: (Units=GPa)
#
#
# Indices 1 2 3 4 5 6 
#
# 1 75.3947 -1.3186 34.9031 -2.7085 -22.8920 -10.2751
# 2 -1.3186 75.0417 27.5270 6.0922 0.8114 21.7506
# 3 34.9031 27.5270 115.7460 14.7715 -28.1535 3.3639
# 4 -2.7085 6.0922 14.7715 31.0353 -8.1567 -3.6379
# 5 -22.8920 0.8114 -28.1535 -8.1567 57.6316 -2.3129
# 6 -10.2751 21.7506 3.3639 -3.6379 -2.3129 53.3179
#
#
#
# Elastic Compliance Matrix: (Units=1/GPa)
#
#
# Indices 1 2 3 4 5 6 
#
# 1 0.018155 0.000375 -0.005047 0.005931 0.005753 0.004318
# 2 0.000375 0.017219 -0.004345 -0.002862 -0.002902 -0.006999
# 3 -0.005047 -0.004345 0.012668 -0.004697 0.003574 -0.000165
# 4 0.005931 -0.002862 -0.004697 0.037657 0.005649 0.005421
# 5 0.005753 -0.002902 0.003574 0.005649 0.022360 0.003423
# 6 0.004318 -0.006999 -0.000165 0.005421 0.003423 0.022972
#
#
# Mechanical properties :
#
#
# Convention : Reuss Voigt Hill
#
# Bulk Modulus (GPa) = 33.32464 43.15614 38.24039
# Shear Modulus (GPa) = 31.43314 42.06835 36.75074
#
# Velocity S-wave (km/s) = 3.81429 4.41263 4.12432
# Velocity P-wave (km/s) = 5.90107 6.77764 6.35449
#
# Compressibility (1/GPa) = 0.03000783
#
# Stress axis : x y z
#
# Youngs Moduli (GPa) = 55.08138 58.07579 78.93689
#
# Poissons Ratio (x) = -0.02177 0.39838
# Poissons Ratio (y) = -0.02065 0.34300
# Poissons Ratio (z) = 0.27798 0.25236
#
# Static dielectric constant tensor:
#      x y z
#    x 1.764130 0.045930 0.059120 
#    y 0.045930 1.515390 0.057440 
#    z 0.059120 0.057440 1.766100 
# 
# From -- ./inp_files/56167.got.cif
#   From: 2010.05.17/outbox.cif.g08.bks.cpg/sg2_29_cif.got.tgz:56167.got - 2010.06.03 11:33:40.
