data_PCOD9070860
_publ_section_title
;
Structure prediction by ZEFSAII (Michael W. Deem and Ramdas Pophale) SiO2 
 PCOD9070860
Probable space group: P -1
;
_chemical_formula_sum "Si O2"
_cell_formula_units_Z 14
_cell_length_a 26.852720
_cell_length_b 5.358813
_cell_length_c 15.893589
_cell_angle_alpha 75.970838
_cell_angle_beta 15.292966
_cell_angle_gamma 71.086641
_cell_volume 547.575502
_symmetry_space_group_name_H-M "P -1"
_symmetry_group_IT_number 2
_symmetry_cell_setting 'triclinic'
loop_
_space_group_symop_operation_xyz
x,y,z
-x,-y,-z
loop_
_atom_site_type_symbol
_atom_site_label
_atom_site_fract_x
_atom_site_fract_y
_atom_site_fract_z
Si Si1 0.215015 0.772640 0.268677
Si Si2 0.417475 0.765967 0.520116
Si Si3 0.616772 0.335645 0.594622
Si Si4 0.476281 0.803963 0.982530
Si Si5 0.239709 0.349556 0.802485
Si Si6 0.864033 0.471632 0.299397
Si Si7 0.145056 0.276310 0.218464
O O1 0.998057 0.741190 0.623677
O O2 0.212069 0.984080 0.181453
O O3 0.390280 0.477744 0.987001
O O4 0.278124 0.891768 0.240607
O O5 0.352425 0.858509 0.520674
O O6 0.693762 0.449221 0.262109
O O7 0.341172 0.030113 0.681045
O O8 0.658215 0.654934 0.129789
O O9 0.659281 0.581882 0.453685
O O10 0.768957 0.256448 0.431954
O O11 0.669779 0.738510 0.612339
O O12 0.500000 0.500000 0.000000
O O13 0.500000 0.000000 0.000000
O O14 0.006708 0.410804 0.153439
O O15 0.000000 0.500000 0.000000
O O16 0.000000 0.500000 0.500000
#
# Coordination Sequence:
#
# PCOD9070860 Si02
#       7
#     2   2   2   2   2   2   2
#     4  10  21  36  57  88 127 172 221 266 333 397
#     4  10  18  29  46  80 127 146 185 260 337 364
#     4   8  16  31  46  79 119 149 191 256 314 368
#     4  11  27  48  66  95 143 186 216 266 339 418
#     4   9  18  31  47  80 118 151 192 257 317 370
#     4   9  19  40  63  96 122 172 225 277 321 389
#     4  11  19  31  57  91 126 165 215 285 336 373
#
# _framework density 25.567250000000001
#
# number of rings (size 3 to 8) (size 9 to 14) (size 15 to 20)
#    0.857    1.429    2.857    0.000    4.000    1.714 
#    0.000    0.000    0.000    0.000    0.000    6.000 
#    0.000    0.000    0.000    0.000    0.000    0.000 
#
# Total GULP energy -78155.903743 kJ/mol
# GULP energy per Si atom -5582.564553 kJ/mol
# Density = 2.550906 g / cm^3
# Si number density = 25.567250 Si / 1000 Ang^3
#
#
#
# Elastic Constant Matrix: (Units=GPa)
#
#
# Indices 1 2 3 4 5 6 
#
# 1 133.5712 43.8651 32.2167 -20.7178 -27.8171 25.2423
# 2 43.8651 121.2978 16.4850 -11.8997 -13.3711 27.6757
# 3 32.2167 16.4850 75.1282 -19.0649 -40.5255 10.2816
# 4 -20.7178 -11.8997 -19.0649 21.5629 13.6837 -5.6032
# 5 -27.8171 -13.3711 -40.5255 13.6837 45.1621 -12.6669
# 6 25.2423 27.6757 10.2816 -5.6032 -12.6669 34.5189
#
#
#
# Elastic Compliance Matrix: (Units=1/GPa)
#
#
# Indices 1 2 3 4 5 6 
#
# 1 0.010451 -0.001919 -0.000839 0.005767 0.002218 -0.004104
# 2 -0.001919 0.010746 -0.000642 0.002518 -0.001332 -0.007101
# 3 -0.000839 -0.000642 0.027893 0.010242 0.021928 0.002530
# 4 0.005767 0.002518 0.010242 0.066504 -0.006955 -0.001044
# 5 0.002218 -0.001332 0.021928 -0.006955 0.047481 0.009209
# 6 -0.004104 -0.007101 0.002530 -0.001044 0.009209 0.040120
#
#
# Mechanical properties :
#
#
# Convention : Reuss Voigt Hill
#
# Bulk Modulus (GPa) = 23.64698 57.23673 40.44185
# Shear Modulus (GPa) = 22.31211 36.07748 29.19480
#
# Velocity S-wave (km/s) = 2.95733 3.76051 3.38284
# Velocity P-wave (km/s) = 4.57494 6.42578 5.57766
#
# Compressibility (1/GPa) = 0.04228870
#
# Stress axis : x y z
#
# Youngs Moduli (GPa) = 95.68341 93.05961 35.85124
#
# Poissons Ratio (x) = 0.17856 0.03009
# Poissons Ratio (y) = 0.18359 0.02303
# Poissons Ratio (z) = 0.08032 0.05979
#
# Static dielectric constant tensor:
#      x y z
#    x 2.084290 0.017190 -0.032620 
#    y 0.017190 2.078850 -0.063340 
#    z -0.032620 -0.063340 2.025950 
# 
# From -- ./inp_files/84032.got.cif
#   From: 2010.05.17/outbox.cif.g08.bks.cpg/sg2_43_cif.got.tgz:84032.got - 2010.06.03 11:33:40.
