data_PCOD9070551
_publ_section_title
;
Structure prediction by ZEFSAII (Michael W. Deem and Ramdas Pophale) SiO2 
 PCOD9070551
Probable space group: P -1
;
_chemical_formula_sum "Si O2"
_cell_formula_units_Z 16
_cell_length_a 18.288949
_cell_length_b 8.926113
_cell_length_c 8.736273
_cell_angle_alpha 80.002037
_cell_angle_beta 40.659703
_cell_angle_gamma 58.864243
_cell_volume 731.725596
_symmetry_space_group_name_H-M "P -1"
_symmetry_group_IT_number 2
_symmetry_cell_setting 'triclinic'
loop_
_space_group_symop_operation_xyz
x,y,z
-x,-y,-z
loop_
_atom_site_type_symbol
_atom_site_label
_atom_site_fract_x
_atom_site_fract_y
_atom_site_fract_z
Si Si1 0.373842 0.501412 0.631996
Si Si2 0.098752 0.839938 0.163589
Si Si3 0.358450 0.162171 0.778705
Si Si4 0.363600 0.614135 0.302675
Si Si5 0.831725 0.405638 0.600276
Si Si6 0.654613 0.846181 0.848542
Si Si7 0.106577 0.177142 0.043631
Si Si8 0.826214 0.958850 0.388391
O O1 0.500000 0.500000 0.500000
O O2 0.363063 0.340889 0.742687
O O3 0.390059 0.482380 0.427174
O O4 0.227666 0.698789 0.871668
O O5 0.117945 0.716289 0.302282
O O6 0.955395 0.920675 0.287759
O O7 0.113114 0.007268 0.148502
O O8 0.229906 0.192051 0.886936
O O9 0.500000 0.000000 0.500000
O O10 0.349967 0.108642 0.973941
O O11 0.238763 0.660076 0.385610
O O12 0.307061 0.817161 0.430520
O O13 0.500000 0.500000 0.000000
O O14 0.712951 0.627574 0.781613
O O15 0.962079 0.364826 0.303344
O O16 0.766733 0.856891 0.579795
O O17 0.500000 0.000000 0.000000
O O18 0.119227 0.123274 0.854239
#
# Coordination Sequence:
#
# PCOD9070551 Si02
#       8
#     2   2   2   2   2   2   2   2
#     4  12  27  49  77 103 147 193 244 299 360 435
#     4  12  24  50  75 107 148 191 244 302 358 432
#     4  12  29  48  75 107 146 196 240 299 368 427
#     4  12  27  46  76 109 143 193 247 296 362 431
#     4  12  27  47  76 108 146 196 244 297 366 429
#     4  12  29  50  71 106 152 190 243 306 362 431
#     4  12  26  48  76 109 149 190 243 299 365 431
#     4  12  27  47  75 108 150 192 241 304 361 427
#
# _framework density 21.866122000000001
#
# number of rings (size 3 to 8) (size 9 to 14) (size 15 to 20)
#    0.000    0.000    3.750    5.250   10.500    1.500 
#    0.000    0.000    0.000    0.000    0.000    0.000 
#    0.000    0.000    0.000    0.000    0.000    0.000 
#
# Total GULP energy -89560.590833 kJ/mol
# GULP energy per Si atom -5597.536927 kJ/mol
# Density = 2.181635 g / cm^3
# Si number density = 21.866122 Si / 1000 Ang^3
#
#
#
# Elastic Constant Matrix: (Units=GPa)
#
#
# Indices 1 2 3 4 5 6 
#
# 1 122.5321 28.7571 59.6340 -5.3929 -9.4730 -6.5805
# 2 28.7571 93.8912 35.4686 1.0977 -1.7879 1.6824
# 3 59.6340 35.4686 166.7222 8.8181 3.6776 -13.7100
# 4 -5.3929 1.0977 8.8181 42.4861 -1.5661 2.9209
# 5 -9.4730 -1.7879 3.6776 -1.5661 53.0040 -8.4054
# 6 -6.5805 1.6824 -13.7100 2.9209 -8.4054 30.9218
#
#
#
# Elastic Compliance Matrix: (Units=1/GPa)
#
#
# Indices 1 2 3 4 5 6 
#
# 1 0.010642 -0.001960 -0.003448 0.002115 0.002340 0.001279
# 2 -0.001960 0.012049 -0.002024 -0.000007 -0.000121 -0.002002
# 3 -0.003448 -0.002024 0.008042 -0.002287 -0.000846 0.002928
# 4 0.002115 -0.000007 -0.002287 0.024494 0.000840 -0.002649
# 5 0.002340 -0.000121 -0.000846 0.000840 0.020245 0.005553
# 6 0.001279 -0.002002 0.002928 -0.002649 0.005553 0.035779
#
#
# Mechanical properties :
#
#
# Convention : Reuss Voigt Hill
#
# Bulk Modulus (GPa) = 63.01286 70.09611 66.55448
# Shear Modulus (GPa) = 38.05066 42.56809 40.30938
#
# Velocity S-wave (km/s) = 4.17605 4.41700 4.29821
# Velocity P-wave (km/s) = 7.22030 7.62494 7.42538
#
# Compressibility (1/GPa) = 0.01586978
#
# Stress axis : x y z
#
# Youngs Moduli (GPa) = 93.96891 82.99338 124.34420
#
# Poissons Ratio (x) = 0.16267 0.42871
# Poissons Ratio (y) = 0.18418 0.25166
# Poissons Ratio (z) = 0.32398 0.16797
#
# Static dielectric constant tensor:
#      x y z
#    x 1.769500 0.004610 0.016600 
#    y 0.004610 1.876390 0.039620 
#    z 0.016600 0.039620 1.760470 
# 
# From -- ./inp_files/328802.got.cif
#   From: 2010.05.17/outbox.cif.g08.bks.cpg/sg2_165_cif.got.tgz:328802.got - 2010.06.03 11:33:40.
