data_PCOD9070151
_publ_section_title
;
Structure prediction by ZEFSAII (Michael W. Deem and Ramdas Pophale) SiO2 
 PCOD9070151
Probable space group: P -1
;
_chemical_formula_sum "Si O2"
_cell_formula_units_Z 14
_cell_length_a 25.497803
_cell_length_b 25.943955
_cell_length_c 13.783024
_cell_angle_alpha 23.066339
_cell_angle_beta 22.337623
_cell_angle_gamma 10.645644
_cell_volume 632.236308
_symmetry_space_group_name_H-M "P -1"
_symmetry_group_IT_number 2
_symmetry_cell_setting 'triclinic'
loop_
_space_group_symop_operation_xyz
x,y,z
-x,-y,-z
loop_
_atom_site_type_symbol
_atom_site_label
_atom_site_fract_x
_atom_site_fract_y
_atom_site_fract_z
Si Si1 0.746267 0.500088 0.000028
Si Si2 0.627458 0.210048 0.546394
Si Si3 0.405973 0.210172 0.546304
Si Si4 0.278017 0.751368 0.242735
Si Si5 0.976506 0.751431 0.242632
Si Si6 0.679241 0.720916 0.199683
Si Si7 0.315581 0.000122 0.999955
O O1 0.943406 0.368061 0.796045
O O2 0.475411 0.632051 0.204084
O O3 0.993165 0.226578 0.120440
O O4 0.566522 0.773658 0.879532
O O5 0.517068 0.452428 0.304189
O O6 0.469551 0.266349 0.632482
O O7 0.549819 0.202164 0.793677
O O8 0.983060 0.910939 0.466611
O O9 0.365282 0.266353 0.632457
O O10 0.273813 0.452578 0.304093
O O11 0.728344 0.911065 0.466537
O O12 0.252006 0.202395 0.793546
O O13 0.143945 0.999950 0.000040
O O14 0.000000 0.500000 0.000000
O O15 0.500000 0.000000 0.000000
#
# Coordination Sequence:
#
# PCOD9070151 Si02
#       7
#     2   2   2   2   2   2   2
#     4  12  24  46  68 104 148 188 240 278 354 408
#     4  12  26  45  76 101 145 179 239 294 354 414
#     4  12  26  45  76 101 145 179 239 294 354 414
#     4  12  24  49  67 101 148 192 230 289 340 418
#     4  12  24  49  67 101 148 192 230 289 340 418
#     4  12  26  50  75 109 140 178 228 299 365 417
#     4  12  26  41  70 114 132 195 234 290 358 414
#
# _framework density 22.143621
#
# number of rings (size 3 to 8) (size 9 to 14) (size 15 to 20)
#    0.000    0.000    5.714    3.429    2.000    6.857 
#    0.000    4.286    0.000    0.000    0.000    0.000 
#    0.000    0.000    0.000    0.000    0.000    0.000 
#
# Total GULP energy -77948.323308 kJ/mol
# GULP energy per Si atom -5567.737379 kJ/mol
# Density = 2.209322 g / cm^3
# Si number density = 22.143621 Si / 1000 Ang^3
#
#
#
# Elastic Constant Matrix: (Units=GPa)
#
#
# Indices 1 2 3 4 5 6 
#
# 1 164.7514 67.0512 55.8756 -1.1537 -1.9801 2.4617
# 2 67.0512 183.3788 35.6832 2.8195 -2.2033 -3.1788
# 3 55.8756 35.6832 61.5654 -13.8430 -4.3499 -0.0934
# 4 -1.1537 2.8195 -13.8430 57.7890 -1.5987 2.5302
# 5 -1.9801 -2.2033 -4.3499 -1.5987 39.5857 -0.0720
# 6 2.4617 -3.1788 -0.0934 2.5302 -0.0720 17.5945
#
#
#
# Elastic Compliance Matrix: (Units=1/GPa)
#
#
# Indices 1 2 3 4 5 6 
#
# 1 0.009565 -0.001962 -0.007939 -0.001564 -0.000569 -0.001512
# 2 -0.001962 0.006661 -0.002301 -0.000986 -0.000017 0.001607
# 3 -0.007939 -0.002301 0.026395 0.006352 0.002632 -0.000068
# 4 -0.001564 -0.000986 0.006352 0.018996 0.001327 -0.002652
# 5 -0.000569 -0.000017 0.002632 0.001327 0.025575 0.000004
# 6 -0.001512 0.001607 -0.000068 -0.002652 0.000004 0.057719
#
#
# Mechanical properties :
#
#
# Convention : Reuss Voigt Hill
#
# Bulk Modulus (GPa) = 54.88574 80.76839 67.82706
# Shear Modulus (GPa) = 28.50839 39.73287 34.12063
#
# Velocity S-wave (km/s) = 3.59197 4.24054 3.92966
# Velocity P-wave (km/s) = 6.48406 7.78012 7.16147
#
# Compressibility (1/GPa) = 0.01821967
#
# Stress axis : x y z
#
# Youngs Moduli (GPa) = 104.54439 150.12728 37.88529
#
# Poissons Ratio (x) = 0.29451 0.30075
# Poissons Ratio (y) = 0.20509 0.08717
# Poissons Ratio (z) = 0.82993 0.34541
#
# Static dielectric constant tensor:
#      x y z
#    x 1.747910 0.005580 0.011210 
#    y 0.005580 1.798170 0.114930 
#    z 0.011210 0.114930 1.986430 
# 
# From -- ./inp_files/544566.got.cif
#   From: 2010.05.17/outbox.cif.g08.bks.cpg/sg2_273_cif.got.tgz:544566.got - 2010.06.03 11:33:40.
