data_PCOD9070309
_publ_section_title
;
Structure prediction by ZEFSAII (Michael W. Deem and Ramdas Pophale) SiO2 
 PCOD9070309
Probable space group: P -1
;
_chemical_formula_sum "Si O2"
_cell_formula_units_Z 16
_cell_length_a 9.953113
_cell_length_b 13.435327
_cell_length_c 13.705413
_cell_angle_alpha 33.020462
_cell_angle_beta 90.215321
_cell_angle_gamma 67.390838
_cell_volume 702.022306
_symmetry_space_group_name_H-M "P -1"
_symmetry_group_IT_number 2
_symmetry_cell_setting 'triclinic'
loop_
_space_group_symop_operation_xyz
x,y,z
-x,-y,-z
loop_
_atom_site_type_symbol
_atom_site_label
_atom_site_fract_x
_atom_site_fract_y
_atom_site_fract_z
Si Si1 0.910480 0.223323 0.601249
Si Si2 0.096545 0.472770 0.811390
Si Si3 0.510582 0.195775 0.382868
Si Si4 0.857294 0.995157 0.050452
Si Si5 0.930435 0.870431 0.637854
Si Si6 0.508932 0.394717 0.432266
Si Si7 0.401763 0.983262 0.102065
Si Si8 0.096948 0.682247 0.995854
O O1 0.944097 0.320960 0.430074
O O2 0.699977 0.334658 0.501743
O O3 0.001997 0.241155 0.678218
O O4 0.050470 0.914646 0.856363
O O5 0.064888 0.588891 0.821500
O O6 0.947390 0.448999 0.829283
O O7 0.306783 0.202947 0.003809
O O8 0.518028 0.256397 0.448501
O O9 0.307839 0.476309 0.122124
O O10 0.500000 0.000000 0.500000
O O11 0.710169 0.070134 0.443355
O O12 0.663937 0.293870 0.833732
O O13 0.777866 0.935958 0.017594
O O14 0.000000 0.000000 0.000000
O O15 0.000000 0.000000 0.500000
O O16 0.947041 0.823736 0.791023
O O17 0.487365 0.281628 0.619588
O O18 0.500000 0.000000 0.000000
#
# Coordination Sequence:
#
# PCOD9070309 Si02
#       8
#     2   2   2   2   2   2   2   2
#     4  12  25  49  77 106 150 198 250 310 378 446
#     4  12  25  46  75 106 151 196 245 309 374 445
#     4  12  26  42  77 114 145 196 247 300 377 453
#     4  12  26  47  77 103 139 203 253 306 377 441
#     4  12  25  48  75 107 153 198 241 303 377 450
#     4  12  25  49  76 106 153 194 248 313 380 445
#     4  12  28  47  73 112 149 198 253 317 377 435
#     4  12  24  47  73 111 150 196 245 308 377 443
#
# _framework density 22.791301000000001
#
# number of rings (size 3 to 8) (size 9 to 14) (size 15 to 20)
#    0.000    0.000    7.500    1.500    3.500    2.000 
#    0.000    1.250    0.000    0.000    0.000    0.000 
#    0.000    0.000    0.000    0.000    0.000    0.000 
#
# Total GULP energy -89255.164629 kJ/mol
# GULP energy per Si atom -5578.447789 kJ/mol
# Density = 2.273943 g / cm^3
# Si number density = 22.791301 Si / 1000 Ang^3
#
#
#
# Elastic Constant Matrix: (Units=GPa)
#
#
# Indices 1 2 3 4 5 6 
#
# 1 126.2522 5.0257 48.6762 -10.5342 -3.0466 -16.9350
# 2 5.0257 72.4405 15.7918 -15.8985 0.1064 -3.4842
# 3 48.6762 15.7918 66.2453 -5.9877 17.3435 -0.4887
# 4 -10.5342 -15.8985 -5.9877 43.7893 -11.5108 4.2902
# 5 -3.0466 0.1064 17.3435 -11.5108 41.9758 -1.4325
# 6 -16.9350 -3.4842 -0.4887 4.2902 -1.4325 31.1415
#
#
#
# Elastic Compliance Matrix: (Units=1/GPa)
#
#
# Indices 1 2 3 4 5 6 
#
# 1 0.014310 0.003059 -0.012839 0.004069 0.007715 0.007717
# 2 0.003059 0.016741 -0.006908 0.006925 0.005025 0.002705
# 3 -0.012839 -0.006908 0.029534 -0.004693 -0.014654 -0.007319
# 4 0.004069 0.006925 -0.004693 0.028363 0.009977 -0.000534
# 5 0.007715 0.005025 -0.014654 0.009977 0.033321 0.004686
# 6 0.007717 0.002705 -0.007319 -0.000534 0.004686 0.036785
#
#
# Mechanical properties :
#
#
# Convention : Reuss Voigt Hill
#
# Bulk Modulus (GPa) = 36.75286 44.88060 40.81673
# Shear Modulus (GPa) = 24.81396 36.41093 30.61244
#
# Velocity S-wave (km/s) = 3.30320 4.00131 3.66890
# Velocity P-wave (km/s) = 5.54157 6.40953 5.99129
#
# Compressibility (1/GPa) = 0.02720877
#
# Stress axis : x y z
#
# Youngs Moduli (GPa) = 69.88275 59.73430 33.85883
#
# Poissons Ratio (x) = -0.18273 0.43471
# Poissons Ratio (y) = -0.21377 0.23390
# Poissons Ratio (z) = 0.89721 0.41266
#
# Static dielectric constant tensor:
#      x y z
#    x 1.756470 0.162790 0.055780 
#    y 0.162790 1.767790 -0.064470 
#    z 0.055780 -0.064470 1.829490 
# 
# From -- ./inp_files/505004.got.cif
#   From: 2010.05.17/outbox.cif.g08.bks.cpg/sg2_253_cif.got.tgz:505004.got - 2010.06.03 11:33:40.
