data_PCOD9070144
_publ_section_title
;
Structure prediction by ZEFSAII (Michael W. Deem and Ramdas Pophale) SiO2 
 PCOD9070144
Probable space group: P -1
;
_chemical_formula_sum "Si O2"
_cell_formula_units_Z 10
_cell_length_a 8.230639
_cell_length_b 6.860666
_cell_length_c 11.319277
_cell_angle_alpha 100.627932
_cell_angle_beta 43.407134
_cell_angle_gamma 84.547363
_cell_volume 406.116947
_symmetry_space_group_name_H-M "P -1"
_symmetry_group_IT_number 2
_symmetry_cell_setting 'triclinic'
loop_
_space_group_symop_operation_xyz
x,y,z
-x,-y,-z
loop_
_atom_site_type_symbol
_atom_site_label
_atom_site_fract_x
_atom_site_fract_y
_atom_site_fract_z
Si Si1 0.527966 0.135524 0.615270
Si Si2 0.109463 0.462587 0.750337
Si Si3 0.357096 0.670022 0.995260
Si Si4 0.207906 0.058403 0.976073
Si Si5 0.762705 0.455314 0.561679
O O1 0.311547 0.360620 0.731128
O O2 0.443673 0.042873 0.765690
O O3 0.766836 0.212405 0.517552
O O4 0.500000 0.000000 0.500000
O O5 0.251614 0.450509 0.550982
O O6 0.922856 0.332189 0.842420
O O7 0.935748 0.701658 0.886469
O O8 0.528440 0.574002 0.780965
O O9 0.302371 0.916815 0.026595
O O10 0.500000 0.500000 0.000000
O O11 0.000000 0.000000 0.000000
O O12 0.000000 0.500000 0.500000
#
# Coordination Sequence:
#
# PCOD9070144 Si02
#       5
#     2   2   2   2   2
#     4  12  25  48  79 116 152 200 258 316 378 455
#     4  12  25  49  77 109 154 200 257 315 375 457
#     4  12  26  50  74 109 156 201 252 316 385 451
#     4  12  24  45  79 110 147 200 255 315 379 446
#     4  12  26  48  74 110 156 200 248 314 382 453
#
# _framework density 24.623449000000001
#
# number of rings (size 3 to 8) (size 9 to 14) (size 15 to 20)
#    0.000    0.000    6.000    4.800    0.000    0.800 
#    0.000    5.000    0.000    0.000    0.000    0.000 
#    0.000    0.000    0.000    0.000    0.000    0.000 
#
# Total GULP energy -55875.100048 kJ/mol
# GULP energy per Si atom -5587.510005 kJ/mol
# Density = 2.456741 g / cm^3
# Si number density = 24.623449 Si / 1000 Ang^3
#
#
#
# Elastic Constant Matrix: (Units=GPa)
#
#
# Indices 1 2 3 4 5 6 
#
# 1 84.7074 52.8198 -2.3574 -22.0400 -23.6731 8.9851
# 2 52.8198 181.2288 43.2414 -20.2239 13.5905 -9.9844
# 3 -2.3574 43.2414 120.6040 -37.0922 9.2139 3.7235
# 4 -22.0400 -20.2239 -37.0922 59.0818 2.8463 -1.4045
# 5 -23.6731 13.5905 9.2139 2.8463 24.5106 -12.7301
# 6 8.9851 -9.9844 3.7235 -1.4045 -12.7301 50.2958
#
#
#
# Elastic Compliance Matrix: (Units=1/GPa)
#
#
# Indices 1 2 3 4 5 6 
#
# 1 0.030998 -0.011717 0.004998 0.009076 0.033801 0.000575
# 2 -0.011717 0.010728 -0.003594 -0.002202 -0.015381 0.000534
# 3 0.004998 -0.003594 0.012295 0.008297 0.000055 -0.002271
# 4 0.009076 -0.002202 0.008297 0.024575 0.003433 -0.001117
# 5 0.033801 -0.015381 0.000055 0.003433 0.088516 0.013404
# 6 0.000575 0.000534 -0.002271 -0.001117 0.013404 0.023415
#
#
# Mechanical properties :
#
#
# Convention : Reuss Voigt Hill
#
# Bulk Modulus (GPa) = 29.94460 63.77199 46.85830
# Shear Modulus (GPa) = 22.49378 46.30007 34.39692
#
# Velocity S-wave (km/s) = 3.02571 4.34097 3.74159
# Velocity P-wave (km/s) = 4.93903 7.14706 6.14307
#
# Compressibility (1/GPa) = 0.03339500
#
# Stress axis : x y z
#
# Youngs Moduli (GPa) = 32.26048 93.21735 81.33061
#
# Poissons Ratio (x) = 1.09225 -0.40651
# Poissons Ratio (y) = 0.37800 0.29229
# Poissons Ratio (z) = -0.16124 0.33501
#
# Static dielectric constant tensor:
#      x y z
#    x 2.085030 -0.095290 -0.038110 
#    y -0.095290 2.003020 0.194790 
#    z -0.038110 0.194790 1.932210 
# 
# From -- ./inp_files/15131.got.cif
#   From: 2010.05.17/outbox.cif.g08.bks.cpg/sg2_8_cif.got.tgz:15131.got - 2010.06.03 11:33:40.
