data_PCOD9070173
_publ_section_title
;
Structure prediction by ZEFSAII (Michael W. Deem and Ramdas Pophale) SiO2 
 PCOD9070173
Probable space group: P -1
;
_chemical_formula_sum "Si O2"
_cell_formula_units_Z 12
_cell_length_a 9.128335
_cell_length_b 8.348346
_cell_length_c 11.493461
_cell_angle_alpha 57.216198
_cell_angle_beta 54.724776
_cell_angle_gamma 92.125742
_cell_volume 517.230244
_symmetry_space_group_name_H-M "P -1"
_symmetry_group_IT_number 2
_symmetry_cell_setting 'triclinic'
loop_
_space_group_symop_operation_xyz
x,y,z
-x,-y,-z
loop_
_atom_site_type_symbol
_atom_site_label
_atom_site_fract_x
_atom_site_fract_y
_atom_site_fract_z
Si Si1 0.062513 0.321447 0.503698
Si Si2 0.162041 0.440009 0.894994
Si Si3 0.409363 0.312192 0.514607
Si Si4 0.789360 0.111936 0.067154
Si Si5 0.353530 0.586431 0.078442
Si Si6 0.720156 0.888793 0.935490
O O1 0.242809 0.330241 0.501172
O O2 0.000000 0.500000 0.500000
O O3 0.148364 0.386848 0.308131
O O4 0.860786 0.080918 0.705783
O O5 0.385723 0.634747 0.674117
O O6 0.202190 0.286041 0.023053
O O7 0.000000 0.500000 0.000000
O O8 0.034734 0.278923 0.908490
O O9 0.500000 0.500000 0.500000
O O10 0.301059 0.073244 0.719278
O O11 0.688244 0.266859 0.049383
O O12 0.749275 0.995304 0.006938
O O13 0.481233 0.753606 0.060005
O O14 0.500000 0.500000 0.000000
#
# Coordination Sequence:
#
# PCOD9070173 Si02
#       6
#     2   2   2   2   2   2
#     4  12  26  44  74 104 138 188 238 286 350 422
#     4  12  26  44  71 106 147 182 229 298 353 406
#     4  12  25  44  73 106 140 183 241 286 346 424
#     4  12  25  44  76 106 139 189 238 285 348 426
#     4  12  28  47  70 106 147 182 234 299 355 409
#     4  12  24  46  73 103 141 186 241 284 347 428
#
# _framework density 23.200499000000001
#
# number of rings (size 3 to 8) (size 9 to 14) (size 15 to 20)
#    0.000    0.000    6.667    3.000    2.333    2.667 
#    0.000    0.000    0.000    0.000    0.000    0.000 
#    0.000    0.000    0.000    0.000    0.000    0.000 
#
# Total GULP energy -67245.687066 kJ/mol
# GULP energy per Si atom -5603.807255 kJ/mol
# Density = 2.314769 g / cm^3
# Si number density = 23.200499 Si / 1000 Ang^3
#
#
#
# Elastic Constant Matrix: (Units=GPa)
#
#
# Indices 1 2 3 4 5 6 
#
# 1 109.4355 24.3925 22.9527 -15.4009 6.9074 -22.4840
# 2 24.3925 75.4690 43.6268 5.7081 12.5039 -35.6931
# 3 22.9527 43.6268 179.9987 -9.3206 3.3596 -33.9406
# 4 -15.4009 5.7081 -9.3206 39.4611 -6.9092 0.1825
# 5 6.9074 12.5039 3.3596 -6.9092 34.3762 -8.9920
# 6 -22.4840 -35.6931 -33.9406 0.1825 -8.9920 59.9310
#
#
#
# Elastic Compliance Matrix: (Units=1/GPa)
#
#
# Indices 1 2 3 4 5 6 
#
# 1 0.010905 -0.002767 -0.000016 0.004713 0.000413 0.002482
# 2 -0.002767 0.021929 -0.003433 -0.006140 -0.005910 0.009210
# 3 -0.000016 -0.003433 0.006875 0.002385 0.001602 0.002076
# 4 0.004713 -0.006140 0.002385 0.029887 0.007177 0.000448
# 5 0.000413 -0.005910 0.001602 0.007177 0.033093 0.002486
# 6 0.002482 0.009210 0.002076 0.000448 0.002486 0.024650
#
#
# Mechanical properties :
#
#
# Convention : Reuss Voigt Hill
#
# Bulk Modulus (GPa) = 36.66001 60.76081 48.71041
# Shear Modulus (GPa) = 33.58841 45.01574 39.30207
#
# Velocity S-wave (km/s) = 3.80905 4.40965 4.12031
# Velocity P-wave (km/s) = 5.93135 7.22309 6.60885
#
# Compressibility (1/GPa) = 0.02727768
#
# Stress axis : x y z
#
# Youngs Moduli (GPa) = 91.70142 45.60254 145.46002
#
# Poissons Ratio (x) = 0.12616 0.00227
# Poissons Ratio (y) = 0.25370 0.49939
# Poissons Ratio (z) = 0.00143 0.15656
#
# Static dielectric constant tensor:
#      x y z
#    x 1.912100 0.049450 0.007190 
#    y 0.049450 1.925180 0.013290 
#    z 0.007190 0.013290 1.817940 
# 
# From -- ./inp_files/148651.got.cif
#   From: 2010.05.17/outbox.cif.g08.bks.cpg/sg2_75_cif.got.tgz:148651.got - 2010.06.03 11:33:40.
