data_PCOD9070010
_publ_section_title
;
Structure prediction by ZEFSAII (Michael W. Deem and Ramdas Pophale) SiO2 
 PCOD9070010
Probable space group: P -1
;
_chemical_formula_sum "Si O2"
_cell_formula_units_Z 12
_cell_length_a 20.695624
_cell_length_b 9.825582
_cell_length_c 5.075019
_cell_angle_alpha 85.364600
_cell_angle_beta 94.648924
_cell_angle_gamma 34.215431
_cell_volume 557.899019
_symmetry_space_group_name_H-M "P -1"
_symmetry_group_IT_number 2
_symmetry_cell_setting 'triclinic'
loop_
_space_group_symop_operation_xyz
x,y,z
-x,-y,-z
loop_
_atom_site_type_symbol
_atom_site_label
_atom_site_fract_x
_atom_site_fract_y
_atom_site_fract_z
Si Si1 0.999497 0.596477 0.234766
Si Si2 0.137508 0.722335 0.640760
Si Si3 0.801215 0.548575 0.799700
Si Si4 0.244268 0.807777 0.899932
Si Si5 0.402870 0.554087 0.516548
Si Si6 0.470013 0.958464 0.249282
O O1 0.117995 0.476972 0.290615
O O2 0.329703 0.178132 0.197089
O O3 0.000000 0.500000 0.000000
O O4 0.881773 0.897201 0.140817
O O5 0.197781 0.567596 0.412315
O O6 0.000000 0.000000 0.500000
O O7 0.862841 0.389123 0.112542
O O8 0.000000 0.500000 0.500000
O O9 0.323801 0.666696 0.211597
O O10 0.210570 0.718035 0.791509
O O11 0.317924 0.748997 0.698775
O O12 0.500000 0.500000 0.500000
O O13 0.463309 0.304473 0.667982
O O14 0.500000 0.000000 0.500000
O O15 0.500000 0.000000 0.000000
#
# Coordination Sequence:
#
# PCOD9070010 Si02
#       6
#     2   2   2   2   2   2
#     4  12  28  46  71 107 146 191 237 295 366 431
#     4  12  24  44  73 111 141 180 237 295 372 427
#     4  12  26  45  74 107 144 187 238 300 360 435
#     4  12  26  47  77 103 146 185 241 303 361 434
#     4  12  28  49  74 107 145 198 247 300 362 437
#     4  12  26  48  73 105 145 192 245 298 359 428
#
# _framework density 21.509270999999998
#
# number of rings (size 3 to 8) (size 9 to 14) (size 15 to 20)
#    0.000    0.000    1.667    9.000    7.000    0.000 
#    0.000    0.000    0.000    0.000    0.000    0.000 
#    0.000    0.000    0.000    0.000    0.000    0.000 
#
# Total GULP energy -67224.353715 kJ/mol
# GULP energy per Si atom -5602.029476 kJ/mol
# Density = 2.146032 g / cm^3
# Si number density = 21.509271 Si / 1000 Ang^3
#
#
#
# Elastic Constant Matrix: (Units=GPa)
#
#
# Indices 1 2 3 4 5 6 
#
# 1 149.7821 62.7261 53.2758 -11.5055 -16.4162 -26.4695
# 2 62.7261 111.4067 44.8314 8.3656 -1.1046 -20.4127
# 3 53.2758 44.8314 167.6184 1.5101 0.9242 -19.1663
# 4 -11.5055 8.3656 1.5101 42.5177 -2.9219 1.5606
# 5 -16.4162 -1.1046 0.9242 -2.9219 43.2267 9.9321
# 6 -26.4695 -20.4127 -19.1663 1.5606 9.9321 34.2485
#
#
#
# Elastic Compliance Matrix: (Units=1/GPa)
#
#
# Indices 1 2 3 4 5 6 
#
# 1 0.010623 -0.004986 -0.001749 0.004047 0.003516 0.003055
# 2 -0.004986 0.013468 -0.001464 -0.004301 -0.002812 0.004365
# 3 -0.001749 -0.001464 0.007182 -0.000619 -0.001410 0.002232
# 4 0.004047 -0.004301 -0.000619 0.025808 0.003648 -0.002016
# 5 0.003516 -0.002812 -0.001410 0.003648 0.026414 -0.007574
# 6 0.003055 0.004365 0.002232 -0.002016 -0.007574 0.037699
#
#
# Mechanical properties :
#
#
# Convention : Reuss Voigt Hill
#
# Bulk Modulus (GPa) = 67.23304 83.38597 75.30951
# Shear Modulus (GPa) = 35.07542 41.86352 38.46947
#
# Velocity S-wave (km/s) = 4.04259 4.41648 4.23366
# Velocity P-wave (km/s) = 7.28804 8.05349 7.68031
#
# Compressibility (1/GPa) = 0.01487364
#
# Stress axis : x y z
#
# Youngs Moduli (GPa) = 94.13610 74.25215 139.23759
#
# Poissons Ratio (x) = 0.37026 0.24356
# Poissons Ratio (y) = 0.46941 0.20381
# Poissons Ratio (z) = 0.16466 0.10869
#
# Static dielectric constant tensor:
#      x y z
#    x 1.796170 0.000770 0.034410 
#    y 0.000770 1.800640 0.002580 
#    z 0.034410 0.002580 1.810630 
# 
# From -- ./inp_files/122884.got.cif
#   From: 2010.05.17/outbox.cif.g08.bks.cpg/sg2_62_cif.got.tgz:122884.got - 2010.06.03 11:33:40.
