data_PCOD9070198
_publ_section_title
;
Structure prediction by ZEFSAII (Michael W. Deem and Ramdas Pophale) SiO2 
 PCOD9070198
Probable space group: P -1
;
_chemical_formula_sum "Si O2"
_cell_formula_units_Z 10
_cell_length_a 5.815525
_cell_length_b 12.573437
_cell_length_c 9.204524
_cell_angle_alpha 124.202040
_cell_angle_beta 129.564964
_cell_angle_gamma 65.052104
_cell_volume 426.971713
_symmetry_space_group_name_H-M "P -1"
_symmetry_group_IT_number 2
_symmetry_cell_setting 'triclinic'
loop_
_space_group_symop_operation_xyz
x,y,z
-x,-y,-z
loop_
_atom_site_type_symbol
_atom_site_label
_atom_site_fract_x
_atom_site_fract_y
_atom_site_fract_z
Si Si1 0.509283 0.407927 0.294163
Si Si2 0.116465 0.266088 0.412911
Si Si3 0.864787 0.974540 0.586874
Si Si4 0.118702 0.195179 0.037153
Si Si5 0.647997 0.408847 0.864400
O O1 0.500000 0.500000 0.500000
O O2 0.411115 0.264592 0.166597
O O3 0.291355 0.485726 0.152262
O O4 0.852527 0.378418 0.364846
O O5 0.057256 0.174627 0.453846
O O6 0.131943 0.185062 0.208361
O O7 0.417140 0.327609 0.621650
O O8 0.500000 0.000000 0.500000
O O9 0.000000 0.000000 0.500000
O O10 0.045199 0.064193 0.832485
O O11 0.867918 0.303088 0.954772
O O12 0.500000 0.500000 0.000000
#
# Coordination Sequence:
#
# PCOD9070198 Si02
#       5
#     2   2   2   2   2
#     4  12  26  44  76 113 152 198 251 317 384 466
#     4  12  27  50  75 109 155 200 262 317 385 460
#     4  12  31  53  82 112 152 207 267 324 387 455
#     4  12  27  49  77 106 154 204 254 319 386 457
#     4  12  24  46  74 107 156 196 250 314 387 459
#
# _framework density 23.420756000000001
#
# number of rings (size 3 to 8) (size 9 to 14) (size 15 to 20)
#    0.000    0.000    6.000    3.000   11.200    0.800 
#    0.000    0.000    0.000    0.000    0.000    0.000 
#    0.000    0.000    0.000    0.000    0.000    0.000 
#
# Total GULP energy -55838.181398 kJ/mol
# GULP energy per Si atom -5583.818140 kJ/mol
# Density = 2.336745 g / cm^3
# Si number density = 23.420756 Si / 1000 Ang^3
#
#
#
# Elastic Constant Matrix: (Units=GPa)
#
#
# Indices 1 2 3 4 5 6 
#
# 1 62.4496 9.2266 41.2097 -8.1507 -2.2113 21.9505
# 2 9.2266 81.0932 -11.7654 -11.3095 10.5378 25.6753
# 3 41.2097 -11.7654 117.4908 1.2437 -12.5569 7.1905
# 4 -8.1507 -11.3095 1.2437 59.2009 1.7958 5.4577
# 5 -2.2113 10.5378 -12.5569 1.7958 45.6464 -8.6073
# 6 21.9505 25.6753 7.1905 5.4577 -8.6073 49.6033
#
#
#
# Elastic Compliance Matrix: (Units=1/GPa)
#
#
# Indices 1 2 3 4 5 6 
#
# 1 0.026644 0.000722 -0.008998 0.005227 -0.003839 -0.012101
# 2 0.000722 0.017353 0.001489 0.004577 -0.005822 -0.011031
# 3 -0.008998 0.001489 0.012020 -0.001496 0.002992 0.002152
# 4 0.005227 0.004577 -0.001496 0.019278 -0.003324 -0.007163
# 5 -0.003839 -0.005822 0.002992 -0.003324 0.025737 0.009110
# 6 -0.012101 -0.011031 0.002152 -0.007163 0.009110 0.033282
#
#
# Mechanical properties :
#
#
# Convention : Reuss Voigt Hill
#
# Bulk Modulus (GPa) = 23.56094 37.59727 30.57911
# Shear Modulus (GPa) = 30.85756 45.71429 38.28593
#
# Velocity S-wave (km/s) = 3.63372 4.42279 4.04753
# Velocity P-wave (km/s) = 5.26183 6.49379 5.91000
#
# Compressibility (1/GPa) = 0.04244313
#
# Stress axis : x y z
#
# Youngs Moduli (GPa) = 37.53253 57.62785 83.19315
#
# Poissons Ratio (x) = -0.04163 0.74856
# Poissons Ratio (y) = -0.02711 -0.12386
# Poissons Ratio (z) = 0.33771 -0.08580
#
# Static dielectric constant tensor:
#      x y z
#    x 1.967890 0.015220 0.024360 
#    y 0.015220 1.876990 0.059000 
#    z 0.024360 0.059000 2.005640 
# 
# From -- ./inp_files/1485.got.cif
#   From: 2010.05.17/outbox.cif.g08.bks.cpg/sg2_1_cif.got.tgz:1485.got - 2010.06.03 11:33:40.
