data_PCOD9070445
_publ_section_title
;
Structure prediction by ZEFSAII (Michael W. Deem and Ramdas Pophale) SiO2 
 PCOD9070445
Probable space group: P -1
;
_chemical_formula_sum "Si O2"
_cell_formula_units_Z 16
_cell_length_a 7.831887
_cell_length_b 14.575377
_cell_length_c 11.229503
_cell_angle_alpha 32.360894
_cell_angle_beta 88.395477
_cell_angle_gamma 79.424509
_cell_volume 654.520345
_symmetry_space_group_name_H-M "P -1"
_symmetry_group_IT_number 2
_symmetry_cell_setting 'triclinic'
loop_
_space_group_symop_operation_xyz
x,y,z
-x,-y,-z
loop_
_atom_site_type_symbol
_atom_site_label
_atom_site_fract_x
_atom_site_fract_y
_atom_site_fract_z
Si Si1 0.704690 0.493436 0.981132
Si Si2 0.979739 0.328291 0.836686
Si Si3 0.579913 0.002940 0.127420
Si Si4 0.785149 0.447301 0.296325
Si Si5 0.574726 0.409394 0.721943
Si Si6 0.396653 0.088840 0.525657
Si Si7 0.969458 0.825220 0.249648
Si Si8 0.107216 0.883204 0.734533
O O1 0.805849 0.449791 0.152911
O O2 0.797867 0.321056 0.087743
O O3 0.500000 0.500000 0.000000
O O4 0.690500 0.696686 0.720323
O O5 0.766845 0.430773 0.725211
O O6 0.107926 0.426308 0.787502
O O7 0.029035 0.294447 0.735306
O O8 0.998033 0.148991 0.111309
O O9 0.493019 0.952859 0.305594
O O10 0.777878 0.865734 0.268644
O O11 0.595314 0.201124 0.929401
O O12 0.500000 0.000000 0.000000
O O13 0.576209 0.516092 0.258045
O O14 0.875401 0.262128 0.564608
O O15 0.500000 0.500000 0.500000
O O16 0.500000 0.000000 0.500000
O O17 0.249801 0.984183 0.655066
O O18 0.000000 0.000000 0.000000
O O19 0.000000 0.000000 0.500000
#
# Coordination Sequence:
#
# PCOD9070445 Si02
#       8
#     2   2   2   2   2   2   2   2
#     4  12  28  51  80 115 155 215 268 326 402 482
#     4  12  26  50  78 110 161 205 261 329 407 473
#     4  12  28  46  78 115 155 205 269 327 403 478
#     4  12  28  48  79 113 155 205 269 326 398 482
#     4  12  24  48  75 111 156 209 258 326 405 482
#     4  12  26  54  80 114 163 210 266 332 400 485
#     4  12  25  48  73 113 155 200 254 330 399 473
#     4  12  28  49  78 114 155 207 265 328 401 479
#
# _framework density 24.445381999999999
#
# number of rings (size 3 to 8) (size 9 to 14) (size 15 to 20)
#    0.000    0.000    5.000    3.375    7.000    4.000 
#    0.000    0.000    0.000    0.000    0.000    0.000 
#    0.000    0.000    0.000    0.000    0.000    0.000 
#
# Total GULP energy -89665.928909 kJ/mol
# GULP energy per Si atom -5604.120557 kJ/mol
# Density = 2.438974 g / cm^3
# Si number density = 24.445382 Si / 1000 Ang^3
#
#
#
# Elastic Constant Matrix: (Units=GPa)
#
#
# Indices 1 2 3 4 5 6 
#
# 1 62.5376 36.5624 14.7560 -1.4721 11.6182 -7.7794
# 2 36.5624 155.2416 74.3855 13.8113 11.3146 1.6147
# 3 14.7560 74.3855 182.7662 8.6865 -3.2794 6.1516
# 4 -1.4721 13.8113 8.6865 58.5983 7.9165 5.2848
# 5 11.6182 11.3146 -3.2794 7.9165 38.5453 1.1867
# 6 -7.7794 1.6147 6.1516 5.2848 1.1867 37.7399
#
#
#
# Elastic Compliance Matrix: (Units=1/GPa)
#
#
# Indices 1 2 3 4 5 6 
#
# 1 0.020235 -0.004539 -0.000117 0.001926 -0.005304 0.004281
# 2 -0.004539 0.009374 -0.003379 -0.001596 -0.001327 -0.000521
# 3 -0.000117 -0.003379 0.006939 -0.000377 0.001726 -0.001012
# 4 0.001926 -0.001596 -0.000377 0.018235 -0.003831 -0.001906
# 5 -0.005304 -0.001327 0.001726 -0.003831 0.028917 -0.001691
# 6 0.004281 -0.000521 -0.001012 -0.001906 -0.001691 0.027887
#
#
# Mechanical properties :
#
#
# Convention : Reuss Voigt Hill
#
# Bulk Modulus (GPa) = 48.83369 72.43924 60.63646
# Shear Modulus (GPa) = 37.17913 45.29947 41.23930
#
# Velocity S-wave (km/s) = 3.90411 4.30942 4.11176
# Velocity P-wave (km/s) = 6.35160 7.37963 6.88483
#
# Compressibility (1/GPa) = 0.02047767
#
# Stress axis : x y z
#
# Youngs Moduli (GPa) = 49.41932 106.67988 144.10911
#
# Poissons Ratio (x) = 0.48420 0.01689
# Poissons Ratio (y) = 0.22431 0.48696
# Poissons Ratio (z) = 0.00579 0.36048
#
# Static dielectric constant tensor:
#      x y z
#    x 1.932310 -0.015350 0.026940 
#    y -0.015350 1.973690 -0.008440 
#    z 0.026940 -0.008440 1.933780 
# 
# From -- ./inp_files/398153.got.cif
#   From: 2010.05.17/outbox.cif.g08.bks.cpg/sg2_200_cif.got.tgz:398153.got - 2010.06.03 11:33:40.
