data_PCOD9070204
_publ_section_title
;
Structure prediction by ZEFSAII (Michael W. Deem and Ramdas Pophale) SiO2 
 PCOD9070204
Probable space group: P -1
;
_chemical_formula_sum "Si O2"
_cell_formula_units_Z 14
_cell_length_a 9.336471
_cell_length_b 20.064483
_cell_length_c 16.852756
_cell_angle_alpha 160.742436
_cell_angle_beta 44.613757
_cell_angle_gamma 144.203529
_cell_volume 584.815077
_symmetry_space_group_name_H-M "P -1"
_symmetry_group_IT_number 2
_symmetry_cell_setting 'triclinic'
loop_
_space_group_symop_operation_xyz
x,y,z
-x,-y,-z
loop_
_atom_site_type_symbol
_atom_site_label
_atom_site_fract_x
_atom_site_fract_y
_atom_site_fract_z
Si Si1 0.031164 0.124948 0.772283
Si Si2 0.499337 0.840633 0.392068
Si Si3 0.199580 0.784752 0.881611
Si Si4 0.674251 0.566887 0.334755
Si Si5 0.846000 0.266089 0.858919
Si Si6 0.123001 0.170627 0.065514
Si Si7 0.005867 0.703328 0.503943
O O1 0.003914 0.226858 0.814873
O O2 0.325507 0.238744 0.797309
O O3 0.864138 0.818303 0.490651
O O4 0.906780 0.163283 0.939684
O O5 0.205563 0.673105 0.346488
O O6 0.500000 0.000000 0.500000
O O7 0.656368 0.013688 0.600412
O O8 0.119949 0.504927 0.611941
O O9 0.064820 0.795099 0.869265
O O10 0.500000 0.000000 0.000000
O O11 0.781167 0.646390 0.470886
O O12 0.698337 0.343779 0.056334
O O13 0.383907 0.439546 0.285863
O O14 0.000000 0.500000 0.000000
O O15 0.157137 0.992663 0.796076
O O16 0.000000 0.000000 0.000000
#
# Coordination Sequence:
#
# PCOD9070204 Si02
#       7
#     2   2   2   2   2   2   2
#     4  12  27  47  77 113 154 206 250 313 388 450
#     4  12  24  46  74 111 156 196 250 309 383 455
#     4  12  29  51  78 110 150 201 258 316 378 450
#     4  12  25  48  75 106 157 194 255 310 380 451
#     4  12  25  45  71 114 153 200 250 310 376 458
#     4  12  29  48  79 111 145 206 254 313 383 445
#     4  12  26  51  76 111 155 195 250 321 374 459
#
# _framework density 23.939191000000001
#
# number of rings (size 3 to 8) (size 9 to 14) (size 15 to 20)
#    0.000    0.000    7.143    1.286    4.000    2.286 
#    0.000    0.000    0.000    0.000    0.000    0.000 
#    0.000    0.000    0.000    0.000    0.000    0.000 
#
# Total GULP energy -78365.409657 kJ/mol
# GULP energy per Si atom -5597.529261 kJ/mol
# Density = 2.388470 g / cm^3
# Si number density = 23.939191 Si / 1000 Ang^3
#
#
#
# Elastic Constant Matrix: (Units=GPa)
#
#
# Indices 1 2 3 4 5 6 
#
# 1 226.8817 71.0644 22.1258 28.7589 -9.6174 0.5648
# 2 71.0644 110.9221 29.1178 26.1709 -2.9290 12.0772
# 3 22.1258 29.1178 68.5125 14.7084 4.8171 6.6210
# 4 28.7589 26.1709 14.7084 53.8013 -4.8637 1.1623
# 5 -9.6174 -2.9290 4.8171 -4.8637 42.0546 9.2891
# 6 0.5648 12.0772 6.6210 1.1623 9.2891 45.5033
#
#
#
# Elastic Compliance Matrix: (Units=1/GPa)
#
#
# Indices 1 2 3 4 5 6 
#
# 1 0.005667 -0.003313 -0.000270 -0.001288 0.000788 0.000720
# 2 -0.003313 0.013269 -0.003569 -0.003567 0.000834 -0.003041
# 3 -0.000270 -0.003569 0.017105 -0.002992 -0.002401 -0.000972
# 4 -0.001288 -0.003567 -0.002992 0.022025 0.002265 0.000373
# 5 0.000788 0.000834 -0.002401 0.002265 0.025699 -0.005186
# 6 0.000720 -0.003041 -0.000972 0.000373 -0.005186 0.023965
#
#
# Mechanical properties :
#
#
# Convention : Reuss Voigt Hill
#
# Bulk Modulus (GPa) = 46.00567 72.32584 59.16575
# Shear Modulus (GPa) = 38.67566 47.20573 42.94069
#
# Velocity S-wave (km/s) = 4.02379 4.44543 4.23985
# Velocity P-wave (km/s) = 6.39119 7.52509 6.98120
#
# Compressibility (1/GPa) = 0.02173645
#
# Stress axis : x y z
#
# Youngs Moduli (GPa) = 176.47367 75.36088 58.46287
#
# Poissons Ratio (x) = 0.24969 0.01581
# Poissons Ratio (y) = 0.58469 0.20863
# Poissons Ratio (z) = 0.04773 0.26893
#
# Static dielectric constant tensor:
#      x y z
#    x 1.853470 0.011010 -0.030290 
#    y 0.011010 1.985460 0.079330 
#    z -0.030290 0.079330 2.311280 
# 
# From -- ./inp_files/562734.got.cif
#   From: 2010.05.17/outbox.cif.g08.bks.cpg/sg2_282_cif.got.tgz:562734.got - 2010.06.03 11:33:40.
