data_PCOD9070152
_publ_section_title
;
Structure prediction by ZEFSAII (Michael W. Deem and Ramdas Pophale) SiO2 
 PCOD9070152
Probable space group: P -1
;
_chemical_formula_sum "Si O2"
_cell_formula_units_Z 13
_cell_length_a 7.456131
_cell_length_b 8.175776
_cell_length_c 9.973217
_cell_angle_alpha 79.083242
_cell_angle_beta 126.952631
_cell_angle_gamma 101.001572
_cell_volume 474.750018
_symmetry_space_group_name_H-M "P -1"
_symmetry_group_IT_number 2
_symmetry_cell_setting 'triclinic'
loop_
_space_group_symop_operation_xyz
x,y,z
-x,-y,-z
loop_
_atom_site_type_symbol
_atom_site_label
_atom_site_fract_x
_atom_site_fract_y
_atom_site_fract_z
Si Si1 0.503742 0.346265 0.200395
Si Si2 0.619533 0.755480 0.543946
Si Si3 0.007892 0.639507 0.597692
Si Si4 0.997427 0.063040 0.654199
Si Si5 0.500000 0.000000 0.000000
Si Si6 0.934382 0.816868 0.059568
Si Si7 0.667640 0.311358 0.844351
O O1 0.500128 0.275041 0.361957
O O2 0.742947 0.364916 0.234832
O O3 0.414237 0.524835 0.152273
O O4 0.334096 0.218919 0.060277
O O5 0.454614 0.726865 0.348374
O O6 0.808042 0.625724 0.617382
O O7 0.773743 0.933106 0.589369
O O8 0.995419 0.820720 0.491934
O O9 0.000000 0.500000 0.500000
O O10 0.986130 0.191270 0.752799
O O11 0.234571 0.991738 0.806319
O O12 0.585556 0.152970 0.919798
O O13 0.064449 0.689684 0.052474
O O14 0.000000 0.000000 0.000000
#
# Coordination Sequence:
#
# PCOD9070152 Si02
#       7
#     2   2   2   2   1   2   2
#     4  12  27  51  76 111 153 196 250 315 372 441
#     4  12  26  47  79 110 147 198 248 313 369 444
#     4  12  27  49  74 115 146 195 257 304 378 441
#     4  12  27  46  72 110 148 197 249 309 370 449
#     4  12  24  46  68 106 156 188 242 300 378 436
#     4  12  26  47  74 108 149 198 247 302 378 448
#     4  12  26  48  75 107 150 197 246 310 373 440
#
# _framework density 27.382833999999999
#
# number of rings (size 3 to 8) (size 9 to 14) (size 15 to 20)
#    0.000    0.000    6.154    2.308    6.462    1.231 
#    0.000    1.538    0.000    0.000    0.000    0.000 
#    0.000    0.000    0.000    0.000    0.000    0.000 
#
# Total GULP energy -72771.245002 kJ/mol
# GULP energy per Si atom -5597.788077 kJ/mol
# Density = 2.732051 g / cm^3
# Si number density = 27.382834 Si / 1000 Ang^3
#
#
#
# Elastic Constant Matrix: (Units=GPa)
#
#
# Indices 1 2 3 4 5 6 
#
# 1 83.2307 -21.9172 21.2770 -5.4057 17.5319 2.0534
# 2 -21.9172 91.9371 33.3452 1.7459 4.5900 4.5472
# 3 21.2770 33.3452 122.9553 4.9298 6.6685 14.6268
# 4 -5.4057 1.7459 4.9298 48.8755 3.9279 2.8401
# 5 17.5319 4.5900 6.6685 3.9279 62.8894 -3.4361
# 6 2.0534 4.5472 14.6268 2.8401 -3.4361 41.1302
#
#
#
# Elastic Compliance Matrix: (Units=1/GPa)
#
#
# Indices 1 2 3 4 5 6 
#
# 1 0.015525 0.005328 -0.003922 0.002311 -0.004473 -0.000503
# 2 0.005328 0.013912 -0.004563 0.000744 -0.002085 -0.000407
# 3 -0.003922 -0.004563 0.010429 -0.001173 0.000235 -0.002908
# 4 0.002311 0.000744 -0.001173 0.021047 -0.001965 -0.001398
# 5 -0.004473 -0.002085 0.000235 -0.001965 0.017505 0.001969
# 6 -0.000503 -0.000407 -0.002908 -0.001398 0.001969 0.025678
#
#
# Mechanical properties :
#
#
# Convention : Reuss Voigt Hill
#
# Bulk Modulus (GPa) = 29.80430 40.39256 35.09843
# Shear Modulus (GPa) = 41.11998 48.27356 44.69677
#
# Velocity S-wave (km/s) = 3.87934 4.20326 4.04455
# Velocity P-wave (km/s) = 5.56540 6.19190 5.88699
#
# Compressibility (1/GPa) = 0.03355221
#
# Stress axis : x y z
#
# Youngs Moduli (GPa) = 64.41260 71.87901 95.88254
#
# Poissons Ratio (x) = -0.38295 0.37602
# Poissons Ratio (y) = -0.34317 0.43753
# Poissons Ratio (z) = 0.25260 0.32800
#
# Static dielectric constant tensor:
#      x y z
#    x 2.181790 -0.069420 0.015640 
#    y -0.069420 2.001460 0.074000 
#    z 0.015640 0.074000 2.130600 
# 
# From -- ./inp_files/181396.got.cif
#   From: 2010.05.17/outbox.cif.g08.bks.cpg/sg2_91_cif.got.tgz:181396.got - 2010.06.03 11:33:40.
