data_PCOD9070409
_publ_section_title
;
Structure prediction by ZEFSAII (Michael W. Deem and Ramdas Pophale) SiO2 
 PCOD9070409
Probable space group: P -1
;
_chemical_formula_sum "Si O2"
_cell_formula_units_Z 13
_cell_length_a 7.192210
_cell_length_b 12.477163
_cell_length_c 16.125507
_cell_angle_alpha 154.361046
_cell_angle_beta 61.984667
_cell_angle_gamma 107.068624
_cell_volume 519.812432
_symmetry_space_group_name_H-M "P -1"
_symmetry_group_IT_number 2
_symmetry_cell_setting 'triclinic'
loop_
_space_group_symop_operation_xyz
x,y,z
-x,-y,-z
loop_
_atom_site_type_symbol
_atom_site_label
_atom_site_fract_x
_atom_site_fract_y
_atom_site_fract_z
Si Si1 0.500000 0.000000 0.500000
Si Si2 0.850824 0.333008 0.458636
Si Si3 0.833774 0.024618 0.731521
Si Si4 0.927325 0.859365 0.992090
Si Si5 0.466060 0.205400 0.075779
Si Si6 0.732498 0.529120 0.004413
Si Si7 0.173365 0.357233 0.679666
O O1 0.352631 0.231917 0.626410
O O2 0.351626 0.184250 0.736510
O O3 0.000000 0.500000 0.500000
O O4 0.956955 0.194675 0.425104
O O5 0.835585 0.096007 0.240870
O O6 0.610006 0.526543 0.669957
O O7 0.781044 0.876537 0.560022
O O8 0.668813 0.104663 0.899991
O O9 0.842212 0.298999 0.887890
O O10 0.740362 0.764249 0.922727
O O11 0.134527 0.626245 0.824402
O O12 0.000000 0.000000 0.000000
O O13 0.500000 0.000000 0.000000
O O14 0.921147 0.450410 0.838475
O O15 0.500000 0.500000 0.000000
#
# Coordination Sequence:
#
# PCOD9070409 Si02
#       7
#     1   2   2   2   2   2   2
#     4  12  28  46  78 110 154 194 266 308 384 448
#     4  12  24  48  72 104 152 194 247 316 378 453
#     4  12  25  48  76 106 151 201 251 315 381 450
#     4  12  25  48  77 107 150 200 250 314 384 459
#     4  12  26  46  73 111 151 196 255 309 383 460
#     4  12  27  49  76 110 149 201 255 315 381 449
#     4  12  27  51  76 112 157 199 262 315 384 460
#
# _framework density 25.009021000000001
#
# number of rings (size 3 to 8) (size 9 to 14) (size 15 to 20)
#    0.000    0.000    6.154    2.769    0.000    1.846 
#    2.769    0.000    0.000    0.000    0.000    0.000 
#    0.000    0.000    0.000    0.000    0.000    0.000 
#
# Total GULP energy -72456.583948 kJ/mol
# GULP energy per Si atom -5573.583381 kJ/mol
# Density = 2.495210 g / cm^3
# Si number density = 25.009021 Si / 1000 Ang^3
#
#
#
# Elastic Constant Matrix: (Units=GPa)
#
#
# Indices 1 2 3 4 5 6 
#
# 1 72.0695 32.2323 33.3139 12.9891 -19.6354 -19.3602
# 2 32.2323 159.9504 51.2869 19.4804 -21.0942 -22.6403
# 3 33.3139 51.2869 226.0700 12.4013 -5.0428 -7.4725
# 4 12.9891 19.4804 12.4013 54.5519 -20.6076 -10.7878
# 5 -19.6354 -21.0942 -5.0428 -20.6076 48.3757 -1.6567
# 6 -19.3602 -22.6403 -7.4725 -10.7878 -1.6567 43.0084
#
#
#
# Elastic Compliance Matrix: (Units=1/GPa)
#
#
# Indices 1 2 3 4 5 6 
#
# 1 0.019668 -0.001119 -0.002238 0.000880 0.007925 0.008402
# 2 -0.001119 0.007823 -0.001410 -0.000526 0.002701 0.003342
# 3 -0.002238 -0.001410 0.005052 -0.000869 -0.001406 -0.001145
# 4 0.000880 -0.000526 -0.000869 0.023655 0.010330 0.006300
# 5 0.007925 0.002701 -0.001406 0.010330 0.029610 0.008476
# 6 0.008402 0.003342 -0.001145 0.006300 0.008476 0.030500
#
#
# Mechanical properties :
#
#
# Convention : Reuss Voigt Hill
#
# Bulk Modulus (GPa) = 43.46332 76.86178 60.16255
# Shear Modulus (GPa) = 37.45002 51.93764 44.69383
#
# Velocity S-wave (km/s) = 3.87390 4.56209 4.23201
# Velocity P-wave (km/s) = 6.11770 7.65183 6.92737
#
# Compressibility (1/GPa) = 0.02300791
#
# Stress axis : x y z
#
# Youngs Moduli (GPa) = 50.84440 127.83288 197.95344
#
# Poissons Ratio (x) = 0.14298 0.44309
# Poissons Ratio (y) = 0.05687 0.27918
# Poissons Ratio (z) = 0.11381 0.18029
#
# Static dielectric constant tensor:
#      x y z
#    x 2.055340 0.082020 0.103290 
#    y 0.082020 1.977940 0.008540 
#    z 0.103290 0.008540 1.899290 
# 
# From -- ./inp_files/483791.got.cif
#   From: 2010.05.17/outbox.cif.g08.bks.cpg/sg2_242_cif.got.tgz:483791.got - 2010.06.03 11:33:40.
