data_PCOD9070384
_publ_section_title
;
Structure prediction by ZEFSAII (Michael W. Deem and Ramdas Pophale) SiO2 
 PCOD9070384
Probable space group: P -1
;
_chemical_formula_sum "Si O2"
_cell_formula_units_Z 12
_cell_length_a 11.650108
_cell_length_b 8.152117
_cell_length_c 9.014711
_cell_angle_alpha 94.576644
_cell_angle_beta 127.907718
_cell_angle_gamma 55.541933
_cell_volume 507.591351
_symmetry_space_group_name_H-M "P -1"
_symmetry_group_IT_number 2
_symmetry_cell_setting 'triclinic'
loop_
_space_group_symop_operation_xyz
x,y,z
-x,-y,-z
loop_
_atom_site_type_symbol
_atom_site_label
_atom_site_fract_x
_atom_site_fract_y
_atom_site_fract_z
Si Si1 0.011153 0.543986 0.189819
Si Si2 0.578431 0.281078 0.970504
Si Si3 0.576118 0.811068 0.397162
Si Si4 0.009512 0.930349 0.327040
Si Si5 0.418787 0.725047 0.521689
Si Si6 0.411962 0.219691 0.090439
O O1 0.205167 0.320855 0.392507
O O2 0.025630 0.725778 0.268681
O O3 0.812527 0.629692 0.111361
O O4 0.000000 0.500000 0.000000
O O5 0.549326 0.153794 0.056637
O O6 0.500000 0.500000 0.000000
O O7 0.442882 0.337198 0.730501
O O8 0.803864 0.132875 0.108088
O O9 0.453058 0.850383 0.445051
O O10 0.480479 0.018766 0.233030
O O11 0.198389 0.875378 0.406322
O O12 0.000000 0.000000 0.500000
O O13 0.500000 0.500000 0.500000
O O14 0.553874 0.653274 0.764946
#
# Coordination Sequence:
#
# PCOD9070384 Si02
#       6
#     2   2   2   2   2   2
#     4  12  26  48  78 116 157 208 265 320 401 476
#     4  12  27  49  76 114 161 207 263 333 399 466
#     4  12  26  46  78 113 155 208 260 324 394 466
#     4  12  25  48  80 114 155 209 266 322 395 472
#     4  12  24  47  79 111 160 206 261 327 389 474
#     4  12  26  49  74 110 161 204 262 327 393 471
#
# _framework density 23.641065999999999
#
# number of rings (size 3 to 8) (size 9 to 14) (size 15 to 20)
#    0.000    0.000    6.667    3.000    0.000    2.667 
#    0.000    0.000    0.000    0.000    0.000    0.000 
#    0.000    0.000    0.000    0.000    0.000    0.000 
#
# Total GULP energy -67076.207675 kJ/mol
# GULP energy per Si atom -5589.683973 kJ/mol
# Density = 2.358726 g / cm^3
# Si number density = 23.641066 Si / 1000 Ang^3
#
#
#
# Elastic Constant Matrix: (Units=GPa)
#
#
# Indices 1 2 3 4 5 6 
#
# 1 139.4230 24.6853 52.5150 -24.0305 21.6153 -14.6949
# 2 24.6853 126.0072 43.7953 6.1315 5.3133 -11.9549
# 3 52.5150 43.7953 163.4131 3.9014 31.2884 -17.7833
# 4 -24.0305 6.1315 3.9014 63.8988 -17.2190 7.7557
# 5 21.6153 5.3133 31.2884 -17.2190 51.1287 -4.3081
# 6 -14.6949 -11.9549 -17.7833 7.7557 -4.3081 31.0087
#
#
#
# Elastic Compliance Matrix: (Units=1/GPa)
#
#
# Indices 1 2 3 4 5 6 
#
# 1 0.009118 -0.000912 -0.002368 0.003161 -0.001106 0.001667
# 2 -0.000912 0.009049 -0.001923 -0.001271 0.000390 0.002326
# 3 -0.002368 -0.001923 0.008749 -0.002943 -0.004874 0.003213
# 4 0.003161 -0.001271 -0.002943 0.019529 0.006785 -0.004622
# 5 -0.001106 0.000390 -0.004874 0.006785 0.025137 -0.001373
# 6 0.001667 0.002326 0.003213 -0.004622 -0.001373 0.036743
#
#
# Mechanical properties :
#
#
# Convention : Reuss Voigt Hill
#
# Bulk Modulus (GPa) = 60.57325 74.53718 67.55522
# Shear Modulus (GPa) = 40.24601 49.73041 44.98821
#
# Velocity S-wave (km/s) = 4.13046 4.59143 4.36704
# Velocity P-wave (km/s) = 6.95883 7.72693 7.35292
#
# Compressibility (1/GPa) = 0.01650894
#
# Stress axis : x y z
#
# Youngs Moduli (GPa) = 109.67615 110.50598 114.29949
#
# Poissons Ratio (x) = 0.10080 0.27066
# Poissons Ratio (y) = 0.10005 0.21984
# Poissons Ratio (z) = 0.25971 0.21254
#
# Static dielectric constant tensor:
#      x y z
#    x 1.932310 0.045210 -0.039960 
#    y 0.045210 1.512420 -0.262030 
#    z -0.039960 -0.262030 1.615780 
# 
# From -- ./inp_files/151308.got.cif
#   From: 2010.05.17/outbox.cif.g08.bks.cpg/sg2_76_cif.got.tgz:151308.got - 2010.06.03 11:33:40.
