data_PCOD9070679
_publ_section_title
;
Structure prediction by ZEFSAII (Michael W. Deem and Ramdas Pophale) SiO2 
 PCOD9070679
Probable space group: P -1
;
_chemical_formula_sum "Si O2"
_cell_formula_units_Z 16
_cell_length_a 8.841002
_cell_length_b 16.904222
_cell_length_c 20.298904
_cell_angle_alpha 158.619213
_cell_angle_beta 139.776747
_cell_angle_gamma 38.323938
_cell_volume 678.470162
_symmetry_space_group_name_H-M "P -1"
_symmetry_group_IT_number 2
_symmetry_cell_setting 'triclinic'
loop_
_space_group_symop_operation_xyz
x,y,z
-x,-y,-z
loop_
_atom_site_type_symbol
_atom_site_label
_atom_site_fract_x
_atom_site_fract_y
_atom_site_fract_z
Si Si1 0.502035 0.070456 0.478316
Si Si2 0.245788 0.717368 0.091918
Si Si3 0.421025 0.533507 0.266986
Si Si4 0.152451 0.647653 0.635225
Si Si5 0.931168 0.156973 0.514190
Si Si6 0.884762 0.730815 0.100990
Si Si7 0.214395 0.109250 0.019779
Si Si8 0.783449 0.471124 0.581202
O O1 0.463600 0.332426 0.644715
O O2 0.500000 0.000000 0.500000
O O3 0.334714 0.939822 0.285509
O O4 0.782543 0.945846 0.457224
O O5 0.109372 0.736859 0.132328
O O6 0.006164 0.738060 0.982629
O O7 0.500000 0.500000 0.000000
O O8 0.577402 0.477303 0.342636
O O9 0.176679 0.709356 0.352144
O O10 0.350050 0.314980 0.047794
O O11 0.110332 0.645763 0.542107
O O12 0.000000 0.500000 0.500000
O O13 0.116332 0.901201 0.843825
O O14 0.891478 0.318747 0.562094
O O15 0.821761 0.955971 0.299363
O O16 0.000000 0.500000 0.000000
O O17 0.211986 0.274686 0.207486
O O18 0.500000 0.000000 0.000000
O O19 0.500000 0.500000 0.500000
#
# Coordination Sequence:
#
# PCOD9070679 Si02
#       8
#     2   2   2   2   2   2   2   2
#     4  12  25  45  70 104 146 191 230 304 371 437
#     4  12  26  45  72 108 149 188 245 309 374 433
#     4  12  26  46  72 107 144 191 248 303 367 443
#     4  12  28  47  73 109 152 191 246 316 375 434
#     4  12  25  46  76 103 148 190 250 301 370 448
#     4  12  25  45  70 106 140 195 245 298 367 451
#     4  12  25  49  80 107 146 202 255 302 367 459
#     4  12  25  46  75 109 139 198 253 302 367 449
#
# _framework density 23.582466
#
# number of rings (size 3 to 8) (size 9 to 14) (size 15 to 20)
#    0.000    0.000    5.000    4.875    5.250    0.500 
#    2.250    0.000    0.000    0.000    0.000    0.000 
#    0.000    0.000    0.000    0.000    0.000    0.000 
#
# Total GULP energy -89362.945184 kJ/mol
# GULP energy per Si atom -5585.184074 kJ/mol
# Density = 2.352879 g / cm^3
# Si number density = 23.582466 Si / 1000 Ang^3
#
#
#
# Elastic Constant Matrix: (Units=GPa)
#
#
# Indices 1 2 3 4 5 6 
#
# 1 35.3860 16.2476 29.0027 -3.5612 19.1754 15.3351
# 2 16.2476 95.5590 15.2082 -9.0759 5.3162 -10.2829
# 3 29.0027 15.2082 207.4946 -8.4650 20.6028 -0.2386
# 4 -3.5612 -9.0759 -8.4650 43.0309 1.3756 7.9132
# 5 19.1754 5.3162 20.6028 1.3756 35.4181 1.7337
# 6 15.3351 -10.2829 -0.2386 7.9132 1.7337 40.5124
#
#
#
# Elastic Compliance Matrix: (Units=1/GPa)
#
#
# Indices 1 2 3 4 5 6 
#
# 1 0.067944 -0.011298 -0.005284 0.008514 -0.030929 -0.028957
# 2 -0.011298 0.012964 0.000293 0.000392 0.003626 0.007337
# 3 -0.005284 0.000293 0.005610 0.000367 -0.000562 0.002060
# 4 0.008514 0.000392 0.000367 0.025729 -0.005494 -0.007912
# 5 -0.030929 0.003626 -0.000562 -0.005494 0.044397 0.011798
# 6 -0.028957 0.007337 0.002060 -0.007912 0.011798 0.038560
#
#
# Mechanical properties :
#
#
# Convention : Reuss Voigt Hill
#
# Bulk Modulus (GPa) = 18.53887 51.03961 34.78924
# Shear Modulus (GPa) = 20.34497 42.32436 31.33467
#
# Velocity S-wave (km/s) = 2.94039 4.24103 3.64913
# Velocity P-wave (km/s) = 4.40525 6.75809 5.70430
#
# Compressibility (1/GPa) = 0.05394073
#
# Stress axis : x y z
#
# Youngs Moduli (GPa) = 14.71802 77.13637 178.26742
#
# Poissons Ratio (x) = 0.87149 0.94192
# Poissons Ratio (y) = 0.16629 -0.05230
# Poissons Ratio (z) = 0.07777 -0.02263
#
# Static dielectric constant tensor:
#      x y z
#    x 2.021090 -0.041670 0.005990 
#    y -0.041670 2.474310 -0.425610 
#    z 0.005990 -0.425610 2.351170 
# 
# From -- ./inp_files/591273.got.cif
#   From: 2010.05.17/outbox.cif.g08.bks.cpg/sg2_296_cif.got.tgz:591273.got - 2010.06.03 11:33:40.
