data_PCOD9070272
_publ_section_title
;
Structure prediction by ZEFSAII (Michael W. Deem and Ramdas Pophale) SiO2 
 PCOD9070272
Probable space group: P -1
;
_chemical_formula_sum "Si O2"
_cell_formula_units_Z 14
_cell_length_a 16.968090
_cell_length_b 6.914284
_cell_length_c 7.425303
_cell_angle_alpha 104.779892
_cell_angle_beta 50.095781
_cell_angle_gamma 122.969667
_cell_volume 554.644618
_symmetry_space_group_name_H-M "P -1"
_symmetry_group_IT_number 2
_symmetry_cell_setting 'triclinic'
loop_
_space_group_symop_operation_xyz
x,y,z
-x,-y,-z
loop_
_atom_site_type_symbol
_atom_site_label
_atom_site_fract_x
_atom_site_fract_y
_atom_site_fract_z
Si Si1 0.216294 0.524823 0.395483
Si Si2 0.445912 0.545519 0.913661
Si Si3 0.721605 0.947895 0.042598
Si Si4 0.704975 0.384289 0.284768
Si Si5 0.171639 0.928818 0.460167
Si Si6 0.500000 0.500000 0.500000
Si Si7 0.131805 0.119481 0.912872
Si Si8 0.000000 0.000000 0.500000
O O1 0.254428 0.575826 0.559096
O O2 0.113450 0.258082 0.460381
O O3 0.171325 0.694346 0.440986
O O4 0.337883 0.582329 0.127378
O O5 0.538459 0.701266 0.665802
O O6 0.500000 0.500000 0.000000
O O7 0.384196 0.313445 0.810475
O O8 0.733880 0.940342 0.808951
O O9 0.695133 0.146315 0.179361
O O10 0.844022 0.984018 0.964217
O O11 0.591570 0.410015 0.428178
O O12 0.811666 0.607431 0.078040
O O13 0.196108 0.067187 0.643093
O O14 0.046889 0.875930 0.545182
O O15 0.000000 0.000000 0.000000
#
# Coordination Sequence:
#
# PCOD9070272 Si02
#       8
#     2   2   2   2   2   1   2   1
#     4  12  26  50  77 113 156 199 251 312 375 452
#     4  12  26  50  77 108 150 195 252 312 376 444
#     4  12  27  49  79 110 149 202 247 312 385 440
#     4  12  26  51  76 113 149 198 258 307 378 449
#     4  12  26  47  77 111 152 200 248 302 380 451
#     4  12  26  48  82 104 146 198 250 318 370 442
#     4  12  27  48  76 111 156 197 249 314 370 450
#     4  12  24  46  80 110 152 204 246 304 378 448
#
# _framework density 25.241388000000001
#
# number of rings (size 3 to 8) (size 9 to 14) (size 15 to 20)
#    0.000    0.000    7.143    2.143    0.000    2.286 
#    2.571    1.429    0.000    0.000    0.000    0.000 
#    0.000    0.000    0.000    0.000    0.000    0.000 
#
# Total GULP energy -78062.458654 kJ/mol
# GULP energy per Si atom -5575.889904 kJ/mol
# Density = 2.518394 g / cm^3
# Si number density = 25.241388 Si / 1000 Ang^3
#
#
#
# Elastic Constant Matrix: (Units=GPa)
#
#
# Indices 1 2 3 4 5 6 
#
# 1 188.9523 51.2723 23.5853 2.1166 3.1031 -29.4088
# 2 51.2723 138.6873 27.9687 22.2886 -12.6902 -27.1412
# 3 23.5853 27.9687 71.5356 -1.9195 26.9675 0.5522
# 4 2.1166 22.2886 -1.9195 30.7232 1.4005 -2.1843
# 5 3.1031 -12.6902 26.9675 1.4005 66.3228 0.9952
# 6 -29.4088 -27.1412 0.5522 -2.1843 0.9952 50.9381
#
#
#
# Elastic Compliance Matrix: (Units=1/GPa)
#
#
# Indices 1 2 3 4 5 6 
#
# 1 0.006352 -0.001663 -0.001402 0.000888 -0.000107 0.002837
# 2 -0.001663 0.011954 -0.006300 -0.008825 0.005038 0.005001
# 3 -0.001402 -0.006300 0.020733 0.006122 -0.009640 -0.003940
# 4 0.000888 -0.008825 0.006122 0.039325 -0.005013 -0.002472
# 5 -0.000107 0.005038 -0.009640 -0.005013 0.020041 0.002121
# 6 0.002837 0.005001 -0.003940 -0.002472 0.002121 0.023829
#
#
# Mechanical properties :
#
#
# Convention : Reuss Voigt Hill
#
# Bulk Modulus (GPa) = 49.23857 67.20309 58.22083
# Shear Modulus (GPa) = 33.84493 49.35341 41.59917
#
# Velocity S-wave (km/s) = 3.66573 4.42663 4.06403
# Velocity P-wave (km/s) = 6.12097 7.26696 6.71844
#
# Compressibility (1/GPa) = 0.02030928
#
# Stress axis : x y z
#
# Youngs Moduli (GPa) = 157.43481 83.65688 48.23159
#
# Poissons Ratio (x) = 0.13911 0.06762
# Poissons Ratio (y) = 0.26179 0.30386
# Poissons Ratio (z) = 0.22072 0.52703
#
# Static dielectric constant tensor:
#      x y z
#    x 1.928100 -0.059280 0.214780 
#    y -0.059280 1.990280 0.135960 
#    z 0.214780 0.135960 1.285730 
# 
# From -- ./inp_files/322708.got.cif
#   From: 2010.05.17/outbox.cif.g08.bks.cpg/sg2_162_cif.got.tgz:322708.got - 2010.06.03 11:33:40.
