data_PCOD9070935
_publ_section_title
;
Structure prediction by ZEFSAII (Michael W. Deem and Ramdas Pophale) SiO2 
 PCOD9070935
Probable space group: P -1
;
_chemical_formula_sum "Si O2"
_cell_formula_units_Z 11
_cell_length_a 8.498626
_cell_length_b 9.843585
_cell_length_c 15.565588
_cell_angle_alpha 132.941506
_cell_angle_beta 46.364019
_cell_angle_gamma 149.742347
_cell_volume 461.742985
_symmetry_space_group_name_H-M "P -1"
_symmetry_group_IT_number 2
_symmetry_cell_setting 'triclinic'
loop_
_space_group_symop_operation_xyz
x,y,z
-x,-y,-z
loop_
_atom_site_type_symbol
_atom_site_label
_atom_site_fract_x
_atom_site_fract_y
_atom_site_fract_z
Si Si1 0.880560 0.234502 0.470889
Si Si2 0.617914 0.049784 0.775775
Si Si3 0.436715 0.317484 0.868226
Si Si4 0.797473 0.566330 0.383507
Si Si5 0.774348 0.784247 0.806441
Si Si6 0.500000 0.000000 0.000000
O O1 0.000000 0.500000 0.500000
O O2 0.969268 0.287671 0.559432
O O3 0.500000 0.000000 0.500000
O O4 0.058488 0.184784 0.329472
O O5 0.546611 0.187976 0.805645
O O6 0.981529 0.217675 0.684360
O O7 0.352995 0.727242 0.711835
O O8 0.592582 0.085239 0.899905
O O9 0.059481 0.063415 0.874854
O O10 0.628205 0.521157 0.802221
O O11 0.500000 0.500000 0.000000
O O12 0.500000 0.500000 0.500000
O O13 0.515223 0.780449 0.886306
#
# Coordination Sequence:
#
# PCOD9070935 Si02
#       6
#     2   2   2   2   2   1
#     4  12  25  48  75 109 145 193 257 311 366 441
#     4  12  27  48  78 110 155 199 253 315 375 458
#     4  12  25  48  72 108 145 195 248 296 375 446
#     4  12  27  49  77 112 153 203 251 310 389 451
#     4  12  27  47  76 109 152 193 246 315 372 452
#     4  12  30  48  72 116 156 194 252 306 396 442
#
# _framework density 23.822776000000001
#
# number of rings (size 3 to 8) (size 9 to 14) (size 15 to 20)
#    0.000    0.000    1.818    8.727    2.545    5.818 
#    0.000    0.000    0.000    0.000    0.000    0.000 
#    0.000    0.000    0.000    0.000    0.000    0.000 
#
# Total GULP energy -61440.846823 kJ/mol
# GULP energy per Si atom -5585.531529 kJ/mol
# Density = 2.376855 g / cm^3
# Si number density = 23.822776 Si / 1000 Ang^3
#
#
#
# Elastic Constant Matrix: (Units=GPa)
#
#
# Indices 1 2 3 4 5 6 
#
# 1 63.4067 40.4770 46.8467 -11.6074 10.1083 -13.7670
# 2 40.4770 150.9130 36.0687 -8.0293 16.2789 3.2300
# 3 46.8467 36.0687 173.1710 -13.6535 7.5800 -7.3417
# 4 -11.6074 -8.0293 -13.6535 40.7900 -7.6406 5.3818
# 5 10.1083 16.2789 7.5800 -7.6406 21.2006 1.3783
# 6 -13.7670 3.2300 -7.3417 5.3818 1.3783 42.2593
#
#
#
# Elastic Compliance Matrix: (Units=1/GPa)
#
#
# Indices 1 2 3 4 5 6 
#
# 1 0.025999 -0.005100 -0.005171 0.002456 -0.006257 0.007853
# 2 -0.005100 0.008535 -0.000344 -0.000341 -0.003979 -0.002200
# 3 -0.005171 -0.000344 0.007283 0.001073 0.000548 -0.000548
# 4 0.002456 -0.000341 0.001073 0.027523 0.008807 -0.002780
# 5 -0.006257 -0.003979 0.000548 0.008807 0.056484 -0.004603
# 6 0.007853 -0.002200 -0.000548 -0.002780 -0.004603 0.026799
#
#
# Mechanical properties :
#
#
# Convention : Reuss Voigt Hill
#
# Bulk Modulus (GPa) = 48.57475 70.47505 59.52490
# Shear Modulus (GPa) = 27.66802 38.45654 33.06228
#
# Velocity S-wave (km/s) = 3.41164 4.02216 3.72942
# Velocity P-wave (km/s) = 5.99612 7.15665 6.60193
#
# Compressibility (1/GPa) = 0.02058683
#
# Stress axis : x y z
#
# Youngs Moduli (GPa) = 38.46269 117.17083 137.31528
#
# Poissons Ratio (x) = 0.59757 0.71002
# Poissons Ratio (y) = 0.19616 0.04723
# Poissons Ratio (z) = 0.19888 0.04030
#
# Static dielectric constant tensor:
#      x y z
#    x 2.072140 0.106400 -0.089370 
#    y 0.106400 1.914020 -0.053310 
#    z -0.089370 -0.053310 1.908810 
# 
# From -- ./inp_files/178517.got.cif
#   From: 2010.05.17/outbox.cif.g08.bks.cpg/sg2_90_cif.got.tgz:178517.got - 2010.06.03 11:33:40.
