data_PCOD9070698
_publ_section_title
;
Structure prediction by ZEFSAII (Michael W. Deem and Ramdas Pophale) SiO2 
 PCOD9070698
Probable space group: P -1
;
_chemical_formula_sum "Si O2"
_cell_formula_units_Z 16
_cell_length_a 9.353848
_cell_length_b 9.145012
_cell_length_c 12.986085
_cell_angle_alpha 99.980703
_cell_angle_beta 98.446396
_cell_angle_gamma 45.624910
_cell_volume 781.468470
_symmetry_space_group_name_H-M "P -1"
_symmetry_group_IT_number 2
_symmetry_cell_setting 'triclinic'
loop_
_space_group_symop_operation_xyz
x,y,z
-x,-y,-z
loop_
_atom_site_type_symbol
_atom_site_label
_atom_site_fract_x
_atom_site_fract_y
_atom_site_fract_z
Si Si1 0.741370 0.156054 0.776391
Si Si2 0.631102 0.558817 0.522637
Si Si3 0.374599 0.961246 0.685311
Si Si4 0.605068 0.815945 0.906873
Si Si5 0.299422 0.568221 0.029976
Si Si6 0.048373 0.856693 0.393762
Si Si7 0.320630 0.343282 0.687627
Si Si8 0.015502 0.290694 0.160307
O O1 0.778230 0.266655 0.869790
O O2 0.808833 0.158655 0.671296
O O3 0.507892 0.279215 0.762499
O O4 0.868713 0.925111 0.798041
O O5 0.500000 0.500000 0.500000
O O6 0.513553 0.764539 0.601363
O O7 0.836067 0.367749 0.577291
O O8 0.673709 0.588216 0.416437
O O9 0.466960 0.898539 0.801409
O O10 0.355839 0.142183 0.664059
O O11 0.155758 0.043875 0.671089
O O12 0.643932 0.630641 0.940960
O O13 0.816542 0.730466 0.880328
O O14 0.500000 0.000000 0.000000
O O15 0.500000 0.500000 0.000000
O O16 0.135980 0.664111 0.935734
O O17 0.000000 0.000000 0.500000
O O18 0.117615 0.525529 0.748848
#
# Coordination Sequence:
#
# PCOD9070698 Si02
#       8
#     2   2   2   2   2   2   2   2
#     4  12  25  45  73 105 145 187 244 297 356 428
#     4  12  25  47  74 106 147 188 242 301 357 426
#     4  12  28  47  74 106 147 193 241 298 366 426
#     4  12  28  50  75 106 150 191 242 297 362 439
#     4  12  26  45  74 107 141 186 242 299 359 425
#     4  12  26  44  74 109 141 189 244 297 361 426
#     4  12  26  48  72 106 150 187 242 297 356 438
#     4  12  27  48  72 104 148 193 238 300 365 425
#
# _framework density 20.474274999999999
#
# number of rings (size 3 to 8) (size 9 to 14) (size 15 to 20)
#    0.000    0.000    5.000    4.125    7.000    0.500 
#    0.000    0.000    0.000    0.000    0.000    0.000 
#    0.000    0.000    0.000    0.000    0.000    0.000 
#
# Total GULP energy -89640.451295 kJ/mol
# GULP energy per Si atom -5602.528206 kJ/mol
# Density = 2.042767 g / cm^3
# Si number density = 20.474275 Si / 1000 Ang^3
#
#
#
# Elastic Constant Matrix: (Units=GPa)
#
#
# Indices 1 2 3 4 5 6 
#
# 1 87.5585 54.9824 53.6380 -4.4865 6.8042 -15.3991
# 2 54.9824 174.6304 69.9540 8.8194 -17.3682 6.0433
# 3 53.6380 69.9540 126.8624 13.2324 -12.1716 -3.5690
# 4 -4.4865 8.8194 13.2324 53.6689 -1.8750 2.0476
# 5 6.8042 -17.3682 -12.1716 -1.8750 30.9092 -6.6404
# 6 -15.3991 6.0433 -3.5690 2.0476 -6.6404 45.1013
#
#
#
# Elastic Compliance Matrix: (Units=1/GPa)
#
#
# Indices 1 2 3 4 5 6 
#
# 1 0.020762 -0.004937 -0.007122 0.003781 -0.008688 0.005736
# 2 -0.004937 0.008778 -0.002271 -0.001047 0.004562 -0.002322
# 3 -0.007122 -0.002271 0.012973 -0.003233 0.005163 -0.000194
# 4 0.003781 -0.001047 -0.003233 0.019864 -0.001477 0.000056
# 5 -0.008688 0.004562 0.005163 -0.001477 0.039351 0.002692
# 6 0.005736 -0.002322 -0.000194 0.000056 0.002692 0.024820
#
#
# Mechanical properties :
#
#
# Convention : Reuss Voigt Hill
#
# Bulk Modulus (GPa) = 72.19305 82.91114 77.55209
# Shear Modulus (GPa) = 31.28387 39.96768 35.62577
#
# Velocity S-wave (km/s) = 3.91315 4.42304 4.17589
# Velocity P-wave (km/s) = 7.46686 8.16502 7.82373
#
# Compressibility (1/GPa) = 0.01385175
#
# Stress axis : x y z
#
# Youngs Moduli (GPa) = 48.16460 113.92571 77.08193
#
# Poissons Ratio (x) = 0.56250 0.54900
# Poissons Ratio (y) = 0.23781 0.17505
# Poissons Ratio (z) = 0.34304 0.25872
#
# Static dielectric constant tensor:
#      x y z
#    x 1.708990 -0.013270 0.010690 
#    y -0.013270 1.697340 0.002560 
#    z 0.010690 0.002560 1.710350 
# 
# From -- ./inp_files/187092.got.cif
#   From: 2010.05.17/outbox.cif.g08.bks.cpg/sg2_94_cif.got.tgz:187092.got - 2010.06.03 11:33:40.
