data_PCOD9070239
_publ_section_title
;
Structure prediction by ZEFSAII (Michael W. Deem and Ramdas Pophale) SiO2 
 PCOD9070239
Probable space group: P -1
;
_chemical_formula_sum "Si O2"
_cell_formula_units_Z 13
_cell_length_a 12.098667
_cell_length_b 9.625514
_cell_length_c 9.090203
_cell_angle_alpha 134.785230
_cell_angle_beta 132.204814
_cell_angle_gamma 70.117254
_cell_volume 538.418239
_symmetry_space_group_name_H-M "P -1"
_symmetry_group_IT_number 2
_symmetry_cell_setting 'triclinic'
loop_
_space_group_symop_operation_xyz
x,y,z
-x,-y,-z
loop_
_atom_site_type_symbol
_atom_site_label
_atom_site_fract_x
_atom_site_fract_y
_atom_site_fract_z
Si Si1 0.100337 0.991699 0.941562
Si Si2 0.862791 0.664141 0.308223
Si Si3 0.347087 0.849476 0.526051
Si Si4 0.465954 0.289997 0.989886
Si Si5 0.500000 0.500000 0.500000
Si Si6 0.011828 0.271178 0.847226
Si Si7 0.690996 0.233409 0.902945
O O1 0.004862 0.795011 0.623029
O O2 0.256223 0.944989 0.099615
O O3 0.107475 0.189787 0.997651
O O4 0.000000 0.000000 0.000000
O O5 0.697990 0.704527 0.223751
O O6 0.903422 0.744751 0.240216
O O7 0.835142 0.423169 0.126970
O O8 0.389904 0.653476 0.482399
O O9 0.167127 0.845330 0.384505
O O10 0.377892 0.848315 0.377148
O O11 0.444158 0.055484 0.837991
O O12 0.591016 0.322649 0.996254
O O13 0.493676 0.432271 0.263712
O O14 0.000000 0.500000 0.000000
#
# Coordination Sequence:
#
# PCOD9070239 Si02
#       7
#     2   2   2   2   1   2   2
#     4  12  25  47  76 117 148 201 257 316 389 458
#     4  12  25  49  75 107 155 203 251 315 389 451
#     4  12  26  50  76 114 151 207 254 326 382 462
#     4  12  27  50  77 110 157 205 258 321 384 459
#     4  12  28  48  76 112 156 202 266 308 400 452
#     4  12  24  46  77 105 157 194 256 314 376 455
#     4  12  26  50  77 115 157 198 257 321 388 462
#
# _framework density 24.144798000000002
#
# number of rings (size 3 to 8) (size 9 to 14) (size 15 to 20)
#    0.000    0.000    6.154    2.308    2.154    2.462 
#    2.769    0.000    0.000    0.000    0.000    0.000 
#    0.000    0.000    0.000    0.000    0.000    0.000 
#
# Total GULP energy -72491.121976 kJ/mol
# GULP energy per Si atom -5576.240152 kJ/mol
# Density = 2.408984 g / cm^3
# Si number density = 24.144798 Si / 1000 Ang^3
#
#
#
# Elastic Constant Matrix: (Units=GPa)
#
#
# Indices 1 2 3 4 5 6 
#
# 1 117.7795 28.6944 6.1470 5.3330 -3.9714 2.6907
# 2 28.6944 169.1960 21.9949 -11.2769 8.6641 -9.4983
# 3 6.1470 21.9949 48.4032 13.3270 -7.6323 10.4513
# 4 5.3330 -11.2769 13.3270 36.6483 -10.5018 2.7532
# 5 -3.9714 8.6641 -7.6323 -10.5018 24.5014 1.5805
# 6 2.6907 -9.4983 10.4513 2.7532 1.5805 43.2640
#
#
#
# Elastic Compliance Matrix: (Units=1/GPa)
#
#
# Indices 1 2 3 4 5 6 
#
# 1 0.009067 -0.001874 0.000636 -0.001547 0.001738 -0.001094
# 2 -0.001874 0.007461 -0.005217 0.003287 -0.003348 0.002928
# 3 0.000636 -0.005217 0.028330 -0.009339 0.007267 -0.007700
# 4 -0.001547 0.003287 -0.009339 0.034927 0.010618 0.000463
# 5 0.001738 -0.003348 0.007267 0.010618 0.049422 -0.005080
# 6 -0.001094 0.002928 -0.007700 0.000463 -0.005080 0.025841
#
#
# Mechanical properties :
#
#
# Convention : Reuss Voigt Hill
#
# Bulk Modulus (GPa) = 31.30091 49.89461 40.59776
# Shear Modulus (GPa) = 27.99429 39.45223 33.72326
#
# Velocity S-wave (km/s) = 3.40874 4.04664 3.74131
# Velocity P-wave (km/s) = 5.33710 6.52253 5.95936
#
# Compressibility (1/GPa) = 0.03194795
#
# Stress axis : x y z
#
# Youngs Moduli (GPa) = 110.28448 134.02597 35.29880
#
# Poissons Ratio (x) = 0.25117 -0.02246
# Poissons Ratio (y) = 0.20668 0.18417
# Poissons Ratio (z) = -0.07018 0.69928
#
# Static dielectric constant tensor:
#      x y z
#    x 1.920010 0.007620 0.025650 
#    y 0.007620 1.968180 0.061560 
#    z 0.025650 0.061560 1.966180 
# 
# From -- ./inp_files/176559.got.cif
#   From: 2010.05.17/outbox.cif.g08.bks.cpg/sg2_89_cif.got.tgz:176559.got - 2010.06.03 11:33:40.
