data_PCOD9070324
_publ_section_title
;
Structure prediction by ZEFSAII (Michael W. Deem and Ramdas Pophale) SiO2 
 PCOD9070324
Probable space group: P -1
;
_chemical_formula_sum "Si O2"
_cell_formula_units_Z 16
_cell_length_a 11.841512
_cell_length_b 8.873873
_cell_length_c 8.404958
_cell_angle_alpha 114.196219
_cell_angle_beta 111.109886
_cell_angle_gamma 59.448398
_cell_volume 680.681285
_symmetry_space_group_name_H-M "P -1"
_symmetry_group_IT_number 2
_symmetry_cell_setting 'triclinic'
loop_
_space_group_symop_operation_xyz
x,y,z
-x,-y,-z
loop_
_atom_site_type_symbol
_atom_site_label
_atom_site_fract_x
_atom_site_fract_y
_atom_site_fract_z
Si Si1 0.146517 0.845684 0.058038
Si Si2 0.397294 0.156627 0.194910
Si Si3 0.243664 0.122709 0.807997
Si Si4 0.027988 0.840645 0.319828
Si Si5 0.769327 0.492529 0.569216
Si Si6 0.562375 0.196588 0.777238
Si Si7 0.268971 0.451036 0.797473
Si Si8 0.616637 0.240565 0.456110
O O1 0.184518 0.647608 0.916060
O O2 0.131643 0.834285 0.235214
O O3 0.286895 0.860072 0.105384
O O4 0.000000 0.000000 0.000000
O O5 0.269121 0.320505 0.275484
O O6 0.497929 0.253520 0.281800
O O7 0.457937 0.985440 0.271766
O O8 0.355782 0.093433 0.983960
O O9 0.225008 0.306112 0.790920
O O10 0.108043 0.136513 0.823572
O O11 0.278663 0.961552 0.628346
O O12 0.087627 0.653850 0.366226
O O13 0.000000 0.000000 0.500000
O O14 0.758952 0.532883 0.396315
O O15 0.673367 0.388830 0.512501
O O16 0.432263 0.362741 0.857873
O O17 0.567851 0.242296 0.613202
#
# Coordination Sequence:
#
# PCOD9070324 Si02
#       8
#     2   2   2   2   2   2   2   2
#     4  12  27  47  75 112 154 197 250 316 376 448
#     4  12  26  44  74 112 148 192 246 314 377 440
#     4  12  27  47  76 110 153 195 251 313 377 445
#     4  12  25  50  75 104 150 205 250 300 375 459
#     4  12  26  45  77 107 149 201 252 304 376 446
#     4  12  25  48  76 109 153 198 250 312 381 446
#     4  12  28  46  75 114 152 193 258 310 380 440
#     4  12  24  47  74 107 150 198 244 310 375 449
#
# _framework density 23.505862
#
# number of rings (size 3 to 8) (size 9 to 14) (size 15 to 20)
#    0.000    0.000    5.000    4.500    1.750    3.500 
#    0.000    0.000    0.000    0.000    0.000    0.000 
#    0.000    0.000    0.000    0.000    0.000    0.000 
#
# Total GULP energy -89463.788880 kJ/mol
# GULP energy per Si atom -5591.486805 kJ/mol
# Density = 2.345236 g / cm^3
# Si number density = 23.505862 Si / 1000 Ang^3
#
#
#
# Elastic Constant Matrix: (Units=GPa)
#
#
# Indices 1 2 3 4 5 6 
#
# 1 101.7061 24.2009 27.1225 2.4176 2.7564 -13.8677
# 2 24.2009 113.4090 40.6190 14.6200 -10.3745 -24.4648
# 3 27.1225 40.6190 93.1905 10.3140 -2.5468 -2.6081
# 4 2.4176 14.6200 10.3140 49.7921 -9.2846 -8.3166
# 5 2.7564 -10.3745 -2.5468 -9.2846 36.6048 -6.6826
# 6 -13.8677 -24.4648 -2.6081 -8.3166 -6.6826 52.7719
#
#
#
# Elastic Compliance Matrix: (Units=1/GPa)
#
#
# Indices 1 2 3 4 5 6 
#
# 1 0.011149 -0.001012 -0.002825 0.000588 -0.000750 0.002319
# 2 -0.001012 0.012445 -0.004759 -0.000919 0.004069 0.005639
# 3 -0.002825 -0.004759 0.013738 -0.001988 -0.001184 -0.002733
# 4 0.000588 -0.000919 -0.001988 0.022510 0.005985 0.003936
# 5 -0.000750 0.004069 -0.001184 0.005985 0.031154 0.006519
# 6 0.002319 0.005639 -0.002733 0.003936 0.006519 0.023484
#
#
# Mechanical properties :
#
#
# Convention : Reuss Voigt Hill
#
# Bulk Modulus (GPa) = 49.64930 54.68783 52.16856
# Shear Modulus (GPa) = 36.13101 42.25798 39.19450
#
# Velocity S-wave (km/s) = 3.92485 4.24460 4.08785
# Velocity P-wave (km/s) = 6.45811 6.88029 6.67254
#
# Compressibility (1/GPa) = 0.02014127
#
# Stress axis : x y z
#
# Youngs Moduli (GPa) = 89.69631 80.35206 72.78830
#
# Poissons Ratio (x) = 0.08129 0.20559
# Poissons Ratio (y) = 0.09074 0.34643
# Poissons Ratio (z) = 0.25335 0.38243
#
# Static dielectric constant tensor:
#      x y z
#    x 1.984920 -0.110420 0.047510 
#    y -0.110420 1.938000 -0.032200 
#    z 0.047510 -0.032200 1.865760 
# 
# From -- ./inp_files/245602.got.cif
#   From: 2010.05.17/outbox.cif.g08.bks.cpg/sg2_123_cif.got.tgz:245602.got - 2010.06.03 11:33:40.
