data_PCOD9070013
_publ_section_title
;
Structure prediction by ZEFSAII (Michael W. Deem and Ramdas Pophale) SiO2 
 PCOD9070013
Probable space group: P -1
;
_chemical_formula_sum "Si O2"
_cell_formula_units_Z 16
_cell_length_a 8.314100
_cell_length_b 14.594223
_cell_length_c 9.110033
_cell_angle_alpha 105.674555
_cell_angle_beta 88.417447
_cell_angle_gamma 136.055358
_cell_volume 715.157813
_symmetry_space_group_name_H-M "P -1"
_symmetry_group_IT_number 2
_symmetry_cell_setting 'triclinic'
loop_
_space_group_symop_operation_xyz
x,y,z
-x,-y,-z
loop_
_atom_site_type_symbol
_atom_site_label
_atom_site_fract_x
_atom_site_fract_y
_atom_site_fract_z
Si Si1 0.780291 0.415847 0.080859
Si Si2 0.502104 0.804747 0.542945
Si Si3 0.070703 0.912258 0.190818
Si Si4 0.480506 0.587681 0.444969
Si Si5 0.737378 0.062518 0.098312
Si Si6 0.372339 0.149201 0.777275
Si Si7 0.290763 0.399249 0.840499
Si Si8 0.924132 0.342043 0.307998
O O1 0.765540 0.518776 0.174146
O O2 0.816643 0.361740 0.192455
O O3 0.545138 0.283943 0.939008
O O4 0.000000 0.500000 0.000000
O O5 0.576094 0.730548 0.564159
O O6 0.518840 0.810095 0.369653
O O7 0.239825 0.714341 0.570124
O O8 0.687149 0.961841 0.672206
O O9 0.879805 0.907098 0.243166
O O10 0.943784 0.755391 0.156834
O O11 0.131559 0.943089 0.030547
O O12 0.500000 0.500000 0.500000
O O13 0.609779 0.620460 0.303192
O O14 0.200571 0.484985 0.383613
O O15 0.899675 0.222248 0.207889
O O16 0.665402 0.969366 0.199316
O O17 0.500000 0.000000 0.000000
O O18 0.500000 0.500000 0.000000
#
# Coordination Sequence:
#
# PCOD9070013 Si02
#       8
#     2   2   2   2   2   2   2   2
#     4  12  24  44  74 105 141 193 243 298 358 416
#     4  12  26  49  69 107 150 191 234 292 371 429
#     4  12  25  47  74 104 148 183 243 300 355 425
#     4  12  28  48  72 105 143 190 241 291 362 433
#     4  12  25  47  71 108 138 185 245 291 358 424
#     4  12  26  44  74 104 146 189 236 301 356 424
#     4  12  24  45  74 108 141 187 245 299 349 420
#     4  12  27  49  73 103 151 189 241 300 357 435
#
# _framework density 22.372684
#
# number of rings (size 3 to 8) (size 9 to 14) (size 15 to 20)
#    0.000    0.000    5.000    4.875    1.750    1.500 
#    0.000    0.000    0.000    0.000    0.000    0.000 
#    0.000    0.000    0.000    0.000    0.000    0.000 
#
# Total GULP energy -89676.989976 kJ/mol
# GULP energy per Si atom -5604.811873 kJ/mol
# Density = 2.232176 g / cm^3
# Si number density = 22.372684 Si / 1000 Ang^3
#
#
#
# Elastic Constant Matrix: (Units=GPa)
#
#
# Indices 1 2 3 4 5 6 
#
# 1 57.8959 19.3239 19.0496 -12.1678 -15.0842 -1.0546
# 2 19.3239 110.7068 28.3445 -0.0536 -2.6948 -11.4452
# 3 19.0496 28.3445 78.1992 -16.4030 -19.9298 -2.0809
# 4 -12.1678 -0.0536 -16.4030 56.0825 1.6583 -8.2453
# 5 -15.0842 -2.6948 -19.9298 1.6583 29.1611 -11.9778
# 6 -1.0546 -11.4452 -2.0809 -8.2453 -11.9778 47.8065
#
#
#
# Elastic Compliance Matrix: (Units=1/GPa)
#
#
# Indices 1 2 3 4 5 6 
#
# 1 0.022848 -0.003300 0.000092 0.005164 0.012856 0.003829
# 2 -0.003300 0.010731 -0.004137 -0.001638 -0.002915 0.001303
# 3 0.000092 -0.004137 0.019270 0.005883 0.014331 0.004455
# 4 0.005164 -0.001638 0.005883 0.021262 0.007612 0.005552
# 5 0.012856 -0.002915 0.014331 0.007612 0.056471 0.015671
# 6 0.003829 0.001303 0.004455 0.005552 0.015671 0.026392
#
#
# Mechanical properties :
#
#
# Convention : Reuss Voigt Hill
#
# Bulk Modulus (GPa) = 26.20712 42.24865 34.22788
# Shear Modulus (GPa) = 27.11715 38.61562 32.86639
#
# Velocity S-wave (km/s) = 3.48525 4.15904 3.83696
# Velocity P-wave (km/s) = 5.28538 6.47986 5.91286
#
# Compressibility (1/GPa) = 0.03815757
#
# Stress axis : x y z
#
# Youngs Moduli (GPa) = 43.76722 93.18554 51.89379
#
# Poissons Ratio (x) = 0.30754 -0.00476
# Poissons Ratio (y) = 0.14445 0.21471
# Poissons Ratio (z) = -0.00402 0.38555
#
# Static dielectric constant tensor:
#      x y z
#    x 1.824760 -0.014010 -0.011660 
#    y -0.014010 1.835750 0.015140 
#    z -0.011660 0.015140 1.808460 
# 
# From -- ./inp_files/208330.got.cif
#   From: 2010.05.17/outbox.cif.g08.bks.cpg/sg2_105_cif.got.tgz:208330.got - 2010.06.03 11:33:40.
