data_PCOD9070086
_publ_section_title
;
Structure prediction by ZEFSAII (Michael W. Deem and Ramdas Pophale) SiO2 
 PCOD9070086
Probable space group: P -1
;
_chemical_formula_sum "Si O2"
_cell_formula_units_Z 9
_cell_length_a 12.432837
_cell_length_b 15.846039
_cell_length_c 5.197715
_cell_angle_alpha 114.922551
_cell_angle_beta 96.096978
_cell_angle_gamma 27.310084
_cell_volume 325.734777
_symmetry_space_group_name_H-M "P -1"
_symmetry_group_IT_number 2
_symmetry_cell_setting 'triclinic'
loop_
_space_group_symop_operation_xyz
x,y,z
-x,-y,-z
loop_
_atom_site_type_symbol
_atom_site_label
_atom_site_fract_x
_atom_site_fract_y
_atom_site_fract_z
Si Si1 0.056451 0.805753 0.308930
Si Si2 0.551704 0.301927 0.494300
Si Si3 0.500000 0.500000 0.500000
Si Si4 0.370438 0.006639 0.375254
Si Si5 0.881033 0.497449 0.566275
O O1 0.198065 0.716853 0.503641
O O2 0.874270 0.854780 0.347383
O O3 0.330951 0.567873 0.862988
O O4 0.821085 0.064271 0.447612
O O5 0.627424 0.287084 0.224449
O O6 0.346454 0.376446 0.510153
O O7 0.168039 0.201599 0.328840
O O8 0.500000 0.000000 0.500000
O O9 0.656775 0.708570 0.012927
O O10 0.000000 0.500000 0.500000
#
# Coordination Sequence:
#
# PCOD9070086 Si02
#       5
#     2   2   1   2   2
#     4  12  27  48  74 109 146 194 246 299 363 430
#     4  12  27  48  74 109 146 194 246 299 363 430
#     4  12  28  50  76 104 154 188 258 288 370 422
#     4  12  24  45  73 108 149 187 239 302 363 433
#     4  12  24  45  73 108 149 187 239 302 363 433
#
# _framework density 27.629837999999999
#
# number of rings (size 3 to 8) (size 9 to 14) (size 15 to 20)
#    0.000    0.000    2.222    8.000    0.000    1.778 
#    0.000    0.000    0.000    0.000    0.000    0.000 
#    0.000    0.000    0.000    0.000    0.000    0.000 
#
# Total GULP energy -50279.905830 kJ/mol
# GULP energy per Si atom -5586.656203 kJ/mol
# Density = 2.756695 g / cm^3
# Si number density = 27.629838 Si / 1000 Ang^3
#
#
#
# Elastic Constant Matrix: (Units=GPa)
#
#
# Indices 1 2 3 4 5 6 
#
# 1 232.5803 76.6531 16.6333 7.3553 0.9144 -22.9698
# 2 76.6531 251.9221 29.3881 26.7894 34.1618 2.8102
# 3 16.6333 29.3881 94.6320 3.4555 0.0344 -14.1965
# 4 7.3553 26.7894 3.4555 24.0393 -1.2310 6.3617
# 5 0.9144 34.1618 0.0344 -1.2310 25.1967 -0.1229
# 6 -22.9698 2.8102 -14.1965 6.3617 -0.1229 66.2535
#
#
#
# Elastic Compliance Matrix: (Units=1/GPa)
#
#
# Indices 1 2 3 4 5 6 
#
# 1 0.005099 -0.001924 -0.000034 0.000231 0.002444 0.001825
# 2 -0.001924 0.006784 -0.001603 -0.007057 -0.009474 -0.000638
# 3 -0.000034 -0.001603 0.011469 -0.000418 0.002151 0.002558
# 4 0.000231 -0.007057 -0.000418 0.051290 0.012044 -0.004613
# 5 0.002444 -0.009474 0.002151 0.012044 0.053033 0.000652
# 6 0.001825 -0.000638 0.002558 -0.004613 0.000652 0.016745
#
#
# Mechanical properties :
#
#
# Convention : Reuss Voigt Hill
#
# Bulk Modulus (GPa) = 61.61500 91.60927 76.61214
# Shear Modulus (GPa) = 31.85637 53.52854 42.69245
#
# Velocity S-wave (km/s) = 3.39922 4.40630 3.93511
# Velocity P-wave (km/s) = 6.14450 7.68864 6.95953
#
# Compressibility (1/GPa) = 0.01622981
#
# Stress axis : x y z
#
# Youngs Moduli (GPa) = 196.10181 147.40096 87.18839
#
# Poissons Ratio (x) = 0.28358 0.00301
# Poissons Ratio (y) = 0.37727 0.13979
# Poissons Ratio (z) = 0.00676 0.23633
#
# Static dielectric constant tensor:
#      x y z
#    x -8.919020 -8.852950 10.873860 
#    y -8.852950 -5.053710 8.747610 
#    z 10.873860 8.747610 -8.553600 
# 
# From -- ./inp_files/1562.got.cif
#   From: 2010.05.17/outbox.cif.g08.bks.cpg/sg2_1_cif.got.tgz:1562.got - 2010.06.03 11:33:40.
