data_PCOD9070739
_publ_section_title
;
Structure prediction by ZEFSAII (Michael W. Deem and Ramdas Pophale) SiO2 
 PCOD9070739
Probable space group: P -1
;
_chemical_formula_sum "Si O2"
_cell_formula_units_Z 16
_cell_length_a 6.625065
_cell_length_b 12.711504
_cell_length_c 10.684969
_cell_angle_alpha 100.844496
_cell_angle_beta 122.057707
_cell_angle_gamma 94.173998
_cell_volume 732.710616
_symmetry_space_group_name_H-M "P -1"
_symmetry_group_IT_number 2
_symmetry_cell_setting 'triclinic'
loop_
_space_group_symop_operation_xyz
x,y,z
-x,-y,-z
loop_
_atom_site_type_symbol
_atom_site_label
_atom_site_fract_x
_atom_site_fract_y
_atom_site_fract_z
Si Si1 0.614677 0.218174 0.504373
Si Si2 0.597465 0.112780 0.127320
Si Si3 0.113911 0.256354 0.277152
Si Si4 0.619455 0.618189 0.119944
Si Si5 0.360213 0.781572 0.211092
Si Si6 0.273792 0.987078 0.595326
Si Si7 0.175141 0.251093 0.023578
Si Si8 0.971875 0.619002 0.473399
O O1 0.333814 0.195368 0.365074
O O2 0.647465 0.270403 0.664611
O O3 0.687491 0.100150 0.516117
O O4 0.784460 0.300749 0.482967
O O5 0.675078 0.079261 0.281020
O O6 0.381074 0.178934 0.076964
O O7 0.845048 0.181194 0.164240
O O8 0.500000 0.000000 0.000000
O O9 0.178704 0.309505 0.173508
O O10 0.108282 0.329522 0.414135
O O11 0.435666 0.696016 0.119194
O O12 0.781602 0.611047 0.294728
O O13 0.500000 0.500000 0.000000
O O14 0.772186 0.675165 0.065265
O O15 0.562719 0.892583 0.311916
O O16 0.103108 0.811233 0.099777
O O17 0.000000 0.000000 0.500000
O O18 0.000000 0.500000 0.500000
#
# Coordination Sequence:
#
# PCOD9070739 Si02
#       8
#     2   2   2   2   2   2   2   2
#     4  12  25  49  75 113 150 199 256 307 374 459
#     4  12  27  45  72 111 155 199 246 309 369 446
#     4  12  25  49  76 106 151 195 256 304 372 442
#     4  12  29  51  76 110 154 196 253 319 381 446
#     4  12  27  47  75 113 151 204 247 308 382 454
#     4  12  25  45  77 109 156 199 249 310 374 448
#     4  12  27  48  75 106 155 196 253 301 379 451
#     4  12  28  50  80 109 151 195 253 320 376 443
#
# _framework density 21.836724
#
# number of rings (size 3 to 8) (size 9 to 14) (size 15 to 20)
#    0.000    0.000    5.000    4.125    8.750    3.000 
#    0.000    0.000    0.000    0.000    0.000    0.000 
#    0.000    0.000    0.000    0.000    0.000    0.000 
#
# Total GULP energy -89449.230340 kJ/mol
# GULP energy per Si atom -5590.576896 kJ/mol
# Density = 2.178702 g / cm^3
# Si number density = 21.836724 Si / 1000 Ang^3
#
#
#
# Elastic Constant Matrix: (Units=GPa)
#
#
# Indices 1 2 3 4 5 6 
#
# 1 154.6751 76.8290 80.8508 6.9959 7.6720 -14.4057
# 2 76.8290 126.2552 55.5686 10.3170 8.4265 -6.8311
# 3 80.8508 55.5686 154.1991 -4.5147 3.0149 -3.1266
# 4 6.9959 10.3170 -4.5147 46.0256 -2.2256 -4.7483
# 5 7.6720 8.4265 3.0149 -2.2256 69.0475 -12.5963
# 6 -14.4057 -6.8311 -3.1266 -4.7483 -12.5963 17.5167
#
#
#
# Elastic Compliance Matrix: (Units=1/GPa)
#
#
# Indices 1 2 3 4 5 6 
#
# 1 0.011842 -0.004935 -0.004302 -0.000293 0.000847 0.007576
# 2 -0.004935 0.011899 -0.001768 -0.002262 -0.001108 -0.001144
# 3 -0.004302 -0.001768 0.009387 0.001751 -0.000044 -0.002109
# 4 -0.000293 -0.002262 0.001751 0.023299 0.002288 0.007150
# 5 0.000847 -0.001108 -0.000044 0.002288 0.016988 0.013093
# 6 0.007576 -0.001144 -0.002109 0.007150 0.013093 0.073849
#
#
# Mechanical properties :
#
#
# Convention : Reuss Voigt Hill
#
# Bulk Modulus (GPa) = 89.94965 95.73623 92.84294
# Shear Modulus (GPa) = 28.90479 41.31002 35.10740
#
# Velocity S-wave (km/s) = 3.64219 4.35416 4.01399
# Velocity P-wave (km/s) = 7.67911 8.31958 8.00575
#
# Compressibility (1/GPa) = 0.01111733
#
# Stress axis : x y z
#
# Youngs Moduli (GPa) = 84.44279 84.04188 106.52609
#
# Poissons Ratio (x) = 0.41479 0.45830
# Poissons Ratio (y) = 0.41676 0.18833
# Poissons Ratio (z) = 0.36329 0.14858
#
# Static dielectric constant tensor:
#      x y z
#    x 1.866330 0.011260 -0.040620 
#    y 0.011260 1.762870 -0.010200 
#    z -0.040620 -0.010200 1.819570 
# 
# From -- ./inp_files/364873.got.cif
#   From: 2010.05.17/outbox.cif.g08.bks.cpg/sg2_183_cif.got.tgz:364873.got - 2010.06.03 11:33:40.
