data_PCOD9070124
_publ_section_title
;
Structure prediction by ZEFSAII (Michael W. Deem and Ramdas Pophale) SiO2 
 PCOD9070124
Probable space group: P -1
;
_chemical_formula_sum "Si O2"
_cell_formula_units_Z 16
_cell_length_a 14.146839
_cell_length_b 11.553885
_cell_length_c 8.497531
_cell_angle_alpha 51.617228
_cell_angle_beta 139.192541
_cell_angle_gamma 127.427658
_cell_volume 685.302546
_symmetry_space_group_name_H-M "P -1"
_symmetry_group_IT_number 2
_symmetry_cell_setting 'triclinic'
loop_
_space_group_symop_operation_xyz
x,y,z
-x,-y,-z
loop_
_atom_site_type_symbol
_atom_site_label
_atom_site_fract_x
_atom_site_fract_y
_atom_site_fract_z
Si Si1 0.240031 0.245688 0.579269
Si Si2 0.151138 0.070805 0.035439
Si Si3 0.043084 0.481947 0.751821
Si Si4 0.655769 0.031154 0.074755
Si Si5 0.967194 0.187604 0.440090
Si Si6 0.763234 0.219598 0.742520
Si Si7 0.408176 0.542008 0.704859
Si Si8 0.685775 0.661009 0.759132
O O1 0.058753 0.179024 0.402706
O O2 0.276689 0.396787 0.606027
O O3 0.297263 0.285398 0.442718
O O4 0.328691 0.125879 0.851842
O O5 0.261278 0.197856 0.172700
O O6 0.223163 0.934895 0.193118
O O7 0.083888 0.148317 0.742368
O O8 0.000000 0.000000 0.000000
O O9 0.050911 0.643530 0.704065
O O10 0.923748 0.344718 0.808834
O O11 0.000000 0.500000 0.500000
O O12 0.202520 0.445059 0.985539
O O13 0.801323 0.075782 0.334833
O O14 0.699896 0.164459 0.884764
O O15 0.500000 0.000000 0.000000
O O16 0.651071 0.311594 0.454160
O O17 0.517985 0.577359 0.664782
O O18 0.500000 0.500000 0.000000
#
# Coordination Sequence:
#
# PCOD9070124 Si02
#       8
#     2   2   2   2   2   2   2   2
#     4  12  26  50  73 106 153 198 253 312 382 447
#     4  12  24  46  75 112 149 197 261 308 372 451
#     4  12  24  45  76 114 146 196 262 309 370 454
#     4  12  29  48  73 115 156 200 252 310 387 450
#     4  12  25  47  78 105 156 201 249 319 370 448
#     4  12  26  48  77 109 151 199 261 309 381 457
#     4  12  28  50  75 107 154 198 250 316 384 450
#     4  12  26  44  76 109 150 201 252 316 379 446
#
# _framework density 23.347352000000001
#
# number of rings (size 3 to 8) (size 9 to 14) (size 15 to 20)
#    0.000    0.000    5.000    4.500    3.500    1.500 
#    2.250    0.000    0.000    0.000    0.000    0.000 
#    0.000    0.000    0.000    0.000    0.000    0.000 
#
# Total GULP energy -89553.173970 kJ/mol
# GULP energy per Si atom -5597.073373 kJ/mol
# Density = 2.329421 g / cm^3
# Si number density = 23.347352 Si / 1000 Ang^3
#
#
#
# Elastic Constant Matrix: (Units=GPa)
#
#
# Indices 1 2 3 4 5 6 
#
# 1 147.0542 53.6040 30.9684 -11.5901 27.9555 18.2306
# 2 53.6040 120.8460 47.9183 -18.5262 18.5167 -8.3099
# 3 30.9684 47.9183 104.4155 -26.5003 13.1791 -12.4718
# 4 -11.5901 -18.5262 -26.5003 42.4913 -4.9747 12.2872
# 5 27.9555 18.5167 13.1791 -4.9747 53.6401 -8.1586
# 6 18.2306 -8.3099 -12.4718 12.2872 -8.1586 48.7023
#
#
#
# Elastic Compliance Matrix: (Units=1/GPa)
#
#
# Indices 1 2 3 4 5 6 
#
# 1 0.009986 -0.003457 -0.001071 0.001696 -0.004469 -0.005779
# 2 -0.003457 0.011739 -0.003712 0.001205 -0.000940 0.001885
# 3 -0.001071 -0.003712 0.013366 0.005887 -0.000656 0.001595
# 4 0.001696 0.001205 0.005887 0.030004 -0.000976 -0.006655
# 5 -0.004469 -0.000940 -0.000656 -0.000976 0.022174 0.005305
# 6 -0.005779 0.001885 0.001595 -0.006655 0.005305 0.025994
#
#
# Mechanical properties :
#
#
# Convention : Reuss Voigt Hill
#
# Bulk Modulus (GPa) = 53.73469 70.81078 62.27274
# Shear Modulus (GPa) = 36.77935 44.95508 40.86721
#
# Velocity S-wave (km/s) = 3.97332 4.39280 4.18832
# Velocity P-wave (km/s) = 6.64192 7.49160 7.07951
#
# Compressibility (1/GPa) = 0.01860995
#
# Stress axis : x y z
#
# Youngs Moduli (GPa) = 100.14359 85.18672 74.81847
#
# Poissons Ratio (x) = 0.29452 0.08010
# Poissons Ratio (y) = 0.34623 0.27774
# Poissons Ratio (z) = 0.10721 0.31623
#
# Static dielectric constant tensor:
#      x y z
#    x 1.889890 -0.049520 -0.083020 
#    y -0.049520 1.812320 -0.031580 
#    z -0.083020 -0.031580 1.916030 
# 
# From -- ./inp_files/274771.got.cif
#   From: 2010.05.17/outbox.cif.g08.bks.cpg/sg2_138_cif.got.tgz:274771.got - 2010.06.03 11:33:40.
