data_PCOD9070421
_publ_section_title
;
Structure prediction by ZEFSAII (Michael W. Deem and Ramdas Pophale) SiO2 
 PCOD9070421
Probable space group: P -1
;
_chemical_formula_sum "Si O2"
_cell_formula_units_Z 12
_cell_length_a 9.132269
_cell_length_b 7.980217
_cell_length_c 9.900206
_cell_angle_alpha 75.951135
_cell_angle_beta 133.636057
_cell_angle_gamma 94.275390
_cell_volume 502.099128
_symmetry_space_group_name_H-M "P -1"
_symmetry_group_IT_number 2
_symmetry_cell_setting 'triclinic'
loop_
_space_group_symop_operation_xyz
x,y,z
-x,-y,-z
loop_
_atom_site_type_symbol
_atom_site_label
_atom_site_fract_x
_atom_site_fract_y
_atom_site_fract_z
Si Si1 0.224114 0.837797 0.576220
Si Si2 0.654421 0.337046 0.579469
Si Si3 0.921631 0.806633 0.006065
Si Si4 0.432776 0.303342 0.993892
Si Si5 0.145381 0.333016 0.568536
Si Si6 0.725851 0.802792 0.594610
O O1 0.312494 0.684543 0.556142
O O2 0.994735 0.816706 0.467518
O O3 0.226403 0.013627 0.463428
O O4 0.367211 0.816934 0.802053
O O5 0.500000 0.500000 0.500000
O O6 0.868537 0.309025 0.795923
O O7 0.518336 0.184610 0.559038
O O8 0.751642 0.756756 0.017547
O O9 0.826614 0.762867 0.811088
O O10 0.000000 0.000000 0.000000
O O11 0.350461 0.289442 0.792944
O O12 0.500000 0.500000 0.000000
O O13 0.187184 0.336485 0.436340
O O14 0.000000 0.500000 0.500000
#
# Coordination Sequence:
#
# PCOD9070421 Si02
#       6
#     2   2   2   2   2   2
#     4  12  24  48  73 106 151 194 251 303 373 449
#     4  12  26  43  76 112 147 188 249 314 368 433
#     4  12  25  49  79 108 149 199 251 305 372 447
#     4  12  26  44  78 105 149 198 242 309 377 441
#     4  12  26  47  70 106 152 193 243 306 372 441
#     4  12  27  45  79 108 144 201 251 306 369 446
#
# _framework density 23.899660999999998
#
# number of rings (size 3 to 8) (size 9 to 14) (size 15 to 20)
#    0.000    0.000    6.667    3.000    0.000    4.000 
#    0.000    0.000    0.000    0.000    0.000    0.000 
#    0.000    0.000    0.000    0.000    0.000    0.000 
#
# Total GULP energy -67093.712829 kJ/mol
# GULP energy per Si atom -5591.142736 kJ/mol
# Density = 2.384526 g / cm^3
# Si number density = 23.899661 Si / 1000 Ang^3
#
#
#
# Elastic Constant Matrix: (Units=GPa)
#
#
# Indices 1 2 3 4 5 6 
#
# 1 100.4129 44.9983 18.1792 11.8284 -5.6680 25.1873
# 2 44.9983 84.6639 25.4934 -3.9289 -2.4331 13.5155
# 3 18.1792 25.4934 182.6295 12.4547 5.9169 -2.4174
# 4 11.8284 -3.9289 12.4547 40.2066 5.1096 -1.7553
# 5 -5.6680 -2.4331 5.9169 5.1096 49.4372 9.6938
# 6 25.1873 13.5155 -2.4174 -1.7553 9.6938 60.8504
#
#
#
# Elastic Compliance Matrix: (Units=1/GPa)
#
#
# Indices 1 2 3 4 5 6 
#
# 1 0.015628 -0.007532 -0.000277 -0.005886 0.003136 -0.005476
# 2 -0.007532 0.016661 -0.001879 0.004426 -0.000178 -0.000502
# 3 -0.000277 -0.001879 0.005926 -0.001797 -0.000813 0.000845
# 4 -0.005886 0.004426 -0.001797 0.028184 -0.003701 0.002784
# 5 0.003136 -0.000178 -0.000813 -0.003701 0.022020 -0.004906
# 6 -0.005476 -0.000502 0.000845 0.002784 -0.004906 0.019707
#
#
# Mechanical properties :
#
#
# Convention : Reuss Voigt Hill
#
# Bulk Modulus (GPa) = 53.07995 60.56091 56.82043
# Shear Modulus (GPa) = 37.37463 48.70121 43.03792
#
# Velocity S-wave (km/s) = 3.95880 4.51903 4.24816
# Velocity P-wave (km/s) = 6.56916 7.25420 6.92016
#
# Compressibility (1/GPa) = 0.01883951
#
# Stress axis : x y z
#
# Youngs Moduli (GPa) = 63.98667 60.02219 168.76205
#
# Poissons Ratio (x) = 0.45207 0.04675
# Poissons Ratio (y) = 0.48193 0.31705
# Poissons Ratio (z) = 0.01773 0.11276
#
# Static dielectric constant tensor:
#      x y z
#    x 1.997110 0.067460 -0.009030 
#    y 0.067460 2.140820 0.049600 
#    z -0.009030 0.049600 1.814610 
# 
# From -- ./inp_files/157763.got.cif
#   From: 2010.05.17/outbox.cif.g08.bks.cpg/sg2_79_cif.got.tgz:157763.got - 2010.06.03 11:33:40.
