data_PCOD9070806
_publ_section_title
;
Structure prediction by ZEFSAII (Michael W. Deem and Ramdas Pophale) SiO2 
 PCOD9070806
Probable space group: P -1
;
_chemical_formula_sum "Si O2"
_cell_formula_units_Z 13
_cell_length_a 14.872060
_cell_length_b 17.359328
_cell_length_c 11.781384
_cell_angle_alpha 20.736225
_cell_angle_beta 33.113623
_cell_angle_gamma 32.802774
_cell_volume 562.001990
_symmetry_space_group_name_H-M "P -1"
_symmetry_group_IT_number 2
_symmetry_cell_setting 'triclinic'
loop_
_space_group_symop_operation_xyz
x,y,z
-x,-y,-z
loop_
_atom_site_type_symbol
_atom_site_label
_atom_site_fract_x
_atom_site_fract_y
_atom_site_fract_z
Si Si1 0.942003 0.081763 0.821497
Si Si2 0.359407 0.413481 0.832724
Si Si3 0.671318 0.940512 0.825072
Si Si4 0.500000 0.500000 0.000000
Si Si5 0.833942 0.301359 0.052979
Si Si6 0.995684 0.432356 0.919045
Si Si7 0.439189 0.785146 0.893195
O O1 0.985655 0.317314 0.429936
O O2 0.737341 0.134628 0.960651
O O3 0.038090 0.887792 0.900027
O O4 0.000000 0.000000 0.000000
O O5 0.500000 0.500000 0.500000
O O6 0.359775 0.180749 0.090727
O O7 0.164286 0.577936 0.817337
O O8 0.419829 0.366558 0.962142
O O9 0.724579 0.161921 0.430212
O O10 0.829955 0.759962 0.968472
O O11 0.500000 0.000000 0.000000
O O12 0.692290 0.478174 0.883254
O O13 0.589483 0.346785 0.006307
O O14 0.941368 0.401067 0.890839
O O15 0.500000 0.000000 0.500000
#
# Coordination Sequence:
#
# PCOD9070806 Si02
#       7
#     2   2   2   1   2   2   2
#     4  12  27  47  73 110 148 199 252 313 377 461
#     4  12  25  46  77 109 150 202 251 317 393 445
#     4  12  28  47  74 113 152 198 259 316 384 466
#     4  12  26  48  76 108 150 192 260 310 374 458
#     4  12  27  48  75 109 150 198 256 312 387 457
#     4  12  27  50  75 108 156 198 251 322 385 453
#     4  12  27  49  76 107 154 201 255 314 387 459
#
# _framework density 23.131589999999999
#
# number of rings (size 3 to 8) (size 9 to 14) (size 15 to 20)
#    0.000    0.000    4.615    4.615    6.462    1.846 
#    0.000    0.000    0.000    0.000    0.000    0.000 
#    0.000    0.000    0.000    0.000    0.000    0.000 
#
# Total GULP energy -72632.801683 kJ/mol
# GULP energy per Si atom -5587.138591 kJ/mol
# Density = 2.307894 g / cm^3
# Si number density = 23.131590 Si / 1000 Ang^3
#
#
#
# Elastic Constant Matrix: (Units=GPa)
#
#
# Indices 1 2 3 4 5 6 
#
# 1 120.2411 24.2665 12.4403 -0.9712 -2.9615 11.4967
# 2 24.2665 184.0950 25.6032 28.8954 -8.6266 -0.8605
# 3 12.4403 25.6032 69.6458 18.4841 -5.2530 -3.9797
# 4 -0.9712 28.8954 18.4841 32.7328 0.8975 -2.9169
# 5 -2.9615 -8.6266 -5.2530 0.8975 23.6334 -0.0356
# 6 11.4967 -0.8605 -3.9797 -2.9169 -0.0356 46.4360
#
#
#
# Elastic Compliance Matrix: (Units=1/GPa)
#
#
# Indices 1 2 3 4 5 6 
#
# 1 0.009006 -0.001284 -0.001848 0.002238 0.000161 -0.002271
# 2 -0.001284 0.006681 -0.000533 -0.005696 0.002376 0.000040
# 3 -0.001848 -0.000533 0.017812 -0.009627 0.003900 0.001372
# 4 0.002238 -0.005696 -0.009627 0.041331 -0.005507 0.001107
# 5 0.000161 0.002376 0.003900 -0.005507 0.044276 0.000027
# 6 -0.002271 0.000040 0.001372 0.001107 0.000027 0.022285
#
#
# Mechanical properties :
#
#
# Convention : Reuss Voigt Hill
#
# Bulk Modulus (GPa) = 38.21533 55.40020 46.80777
# Shear Modulus (GPa) = 31.75668 41.33857 36.54763
#
# Velocity S-wave (km/s) = 3.70925 4.23200 3.97922
# Velocity P-wave (km/s) = 5.90774 6.91967 6.43363
#
# Compressibility (1/GPa) = 0.02616751
#
# Stress axis : x y z
#
# Youngs Moduli (GPa) = 111.03382 149.67669 56.14113
#
# Poissons Ratio (x) = 0.19226 0.10376
# Poissons Ratio (y) = 0.14262 0.02994
# Poissons Ratio (z) = 0.20521 0.07984
#
# Static dielectric constant tensor:
#      x y z
#    x 1.857870 -0.036230 0.045590 
#    y -0.036230 1.865620 0.042920 
#    z 0.045590 0.042920 1.771340 
# 
# From -- ./inp_files/176573.got.cif
#   From: 2010.05.17/outbox.cif.g08.bks.cpg/sg2_89_cif.got.tgz:176573.got - 2010.06.03 11:33:40.
