data_PCOD9070268
_publ_section_title
;
Structure prediction by ZEFSAII (Michael W. Deem and Ramdas Pophale) SiO2 
 PCOD9070268
Probable space group: P -1
;
_chemical_formula_sum "Si O2"
_cell_formula_units_Z 14
_cell_length_a 12.129886
_cell_length_b 7.571399
_cell_length_c 11.273130
_cell_angle_alpha 56.988807
_cell_angle_beta 119.247888
_cell_angle_gamma 140.884166
_cell_volume 543.466250
_symmetry_space_group_name_H-M "P -1"
_symmetry_group_IT_number 2
_symmetry_cell_setting 'triclinic'
loop_
_space_group_symop_operation_xyz
x,y,z
-x,-y,-z
loop_
_atom_site_type_symbol
_atom_site_label
_atom_site_fract_x
_atom_site_fract_y
_atom_site_fract_z
Si Si1 0.209926 0.598339 0.939445
Si Si2 0.157785 0.187618 0.715022
Si Si3 0.704094 0.755474 0.990616
Si Si4 0.320358 0.826748 0.544889
Si Si5 0.855076 0.307155 0.726236
Si Si6 0.611266 0.841338 0.301876
Si Si7 0.218261 0.403960 0.264354
O O1 0.231505 0.387079 0.979732
O O2 0.044304 0.501021 0.815950
O O3 0.365194 0.936553 0.859284
O O4 0.189995 0.535511 0.091769
O O5 0.947773 0.941660 0.685454
O O6 0.198651 0.099678 0.886705
O O7 0.252667 0.179340 0.659369
O O8 0.249908 0.517717 0.663232
O O9 0.500000 0.500000 0.000000
O O10 0.740290 0.988863 0.837915
O O11 0.169241 0.734431 0.410881
O O12 0.500000 0.000000 0.500000
O O13 0.352281 0.015627 0.603443
O O14 0.782485 0.449373 0.674607
O O15 0.410505 0.528488 0.303668
#
# Coordination Sequence:
#
# PCOD9070268 Si02
#       7
#     2   2   2   2   2   2   2
#     4  12  24  47  79 120 152 207 265 325 400 460
#     4  12  27  52  81 118 155 207 267 325 393 469
#     4  12  24  46  79 115 152 204 268 323 388 464
#     4  12  28  55  78 113 165 210 264 320 394 477
#     4  12  25  47  75 111 160 202 255 333 383 465
#     4  12  26  52  81 117 156 212 264 322 396 469
#     4  12  25  49  80 115 160 198 267 332 390 463
#
# _framework density 25.760570000000001
#
# number of rings (size 3 to 8) (size 9 to 14) (size 15 to 20)
#    0.000    0.000    5.714    4.714    0.000    1.714 
#    2.571    0.000    0.000    0.000    0.000    0.000 
#    0.000    0.000    0.000    0.000    0.000    0.000 
#
# Total GULP energy -78616.786206 kJ/mol
# GULP energy per Si atom -5615.484729 kJ/mol
# Density = 2.570194 g / cm^3
# Si number density = 25.760570 Si / 1000 Ang^3
#
#
#
# Elastic Constant Matrix: (Units=GPa)
#
#
# Indices 1 2 3 4 5 6 
#
# 1 84.5127 36.7452 14.3581 15.6440 -20.4128 -1.0341
# 2 36.7452 140.9919 32.9172 -0.9663 -9.5333 26.7900
# 3 14.3581 32.9172 107.1780 12.6709 -7.6723 -5.4028
# 4 15.6440 -0.9663 12.6709 44.1722 -8.7955 -1.2388
# 5 -20.4128 -9.5333 -7.6723 -8.7955 24.8110 3.1011
# 6 -1.0341 26.7900 -5.4028 -1.2388 3.1011 40.4058
#
#
#
# Elastic Compliance Matrix: (Units=1/GPa)
#
#
# Indices 1 2 3 4 5 6 
#
# 1 0.016990 -0.004274 0.000400 -0.004021 0.010737 0.002375
# 2 -0.004274 0.010517 -0.003261 0.002753 0.001435 -0.007544
# 3 0.000400 -0.003261 0.010880 -0.003053 0.000926 0.003462
# 4 -0.004021 0.002753 -0.003053 0.026206 0.006349 -0.002020
# 5 0.010737 0.001435 0.000926 0.006349 0.052778 -0.004409
# 6 0.002375 -0.007544 0.003462 -0.002020 -0.004409 0.030551
#
#
# Mechanical properties :
#
#
# Convention : Reuss Voigt Hill
#
# Bulk Modulus (GPa) = 41.46298 55.63595 48.54947
# Shear Modulus (GPa) = 29.37206 38.45526 33.91366
#
# Velocity S-wave (km/s) = 3.38034 3.86786 3.63229
# Velocity P-wave (km/s) = 5.60054 6.44914 6.03976
#
# Compressibility (1/GPa) = 0.02411790
#
# Stress axis : x y z
#
# Youngs Moduli (GPa) = 58.85956 95.08255 91.91388
#
# Poissons Ratio (x) = 0.40639 -0.03680
# Poissons Ratio (y) = 0.25157 0.29969
# Poissons Ratio (z) = -0.02356 0.31002
#
# Static dielectric constant tensor:
#      x y z
#    x 1.865230 0.210200 -0.073860 
#    y 0.210200 1.802390 0.085540 
#    z -0.073860 0.085540 1.995540 
# 
# From -- ./inp_files/416668.got.cif
#   From: 2010.05.17/outbox.cif.g08.bks.cpg/sg2_209_cif.got.tgz:416668.got - 2010.06.03 11:33:40.
