data_PCOD9070794
_publ_section_title
;
Structure prediction by ZEFSAII (Michael W. Deem and Ramdas Pophale) SiO2 
 PCOD9070794
Probable space group: P -1
;
_chemical_formula_sum "Si O2"
_cell_formula_units_Z 14
_cell_length_a 10.621756
_cell_length_b 10.500162
_cell_length_c 9.122396
_cell_angle_alpha 128.392408
_cell_angle_beta 78.277484
_cell_angle_gamma 67.363353
_cell_volume 582.477287
_symmetry_space_group_name_H-M "P -1"
_symmetry_group_IT_number 2
_symmetry_cell_setting 'triclinic'
loop_
_space_group_symop_operation_xyz
x,y,z
-x,-y,-z
loop_
_atom_site_type_symbol
_atom_site_label
_atom_site_fract_x
_atom_site_fract_y
_atom_site_fract_z
Si Si1 0.032385 0.325906 0.550411
Si Si2 0.340911 0.569279 0.178293
Si Si3 0.118283 0.083099 0.663182
Si Si4 0.521186 0.335646 0.270973
Si Si5 0.078248 0.978512 0.121554
Si Si6 0.416950 0.107922 0.254313
Si Si7 0.264277 0.280062 0.940134
O O1 0.065436 0.196780 0.599500
O O2 0.216220 0.247932 0.414635
O O3 0.880324 0.582980 0.798249
O O4 0.992917 0.219099 0.367043
O O5 0.403933 0.446949 0.233568
O O6 0.271126 0.467959 0.033401
O O7 0.231472 0.825288 0.419491
O O8 0.500000 0.500000 0.000000
O O9 0.201857 0.175482 0.785900
O O10 0.970083 0.128023 0.832997
O O11 0.500000 0.500000 0.500000
O O12 0.717907 0.158091 0.040156
O O13 0.462764 0.254310 0.346461
O O14 0.000000 0.000000 0.000000
O O15 0.500000 0.000000 0.000000
O O16 0.537526 0.919384 0.208301
#
# Coordination Sequence:
#
# PCOD9070794 Si02
#       7
#     2   2   2   2   2   2   2
#     4  12  28  51  79 109 156 205 252 324 383 449
#     4  12  26  48  81 108 150 205 250 316 387 447
#     4  12  28  51  75 117 154 196 263 312 378 473
#     4  12  27  46  73 111 153 196 252 319 382 450
#     4  12  25  46  76 109 153 199 252 317 379 458
#     4  12  25  49  73 109 152 194 261 313 374 461
#     4  12  27  49  80 111 152 205 253 312 392 445
#
# _framework density 24.035274000000001
#
# number of rings (size 3 to 8) (size 9 to 14) (size 15 to 20)
#    0.000    0.000    4.286    5.143    4.000    4.000 
#    2.571    0.000    0.000    0.000    0.000    0.000 
#    0.000    0.000    0.000    0.000    0.000    0.000 
#
# Total GULP energy -78156.101985 kJ/mol
# GULP energy per Si atom -5582.578713 kJ/mol
# Density = 2.398057 g / cm^3
# Si number density = 24.035274 Si / 1000 Ang^3
#
#
#
# Elastic Constant Matrix: (Units=GPa)
#
#
# Indices 1 2 3 4 5 6 
#
# 1 137.2071 10.8380 66.5312 14.0717 0.3559 37.9098
# 2 10.8380 71.5132 26.5894 6.8452 1.1407 9.1659
# 3 66.5312 26.5894 95.4926 4.7899 7.5914 23.5362
# 4 14.0717 6.8452 4.7899 34.1051 14.8542 3.6119
# 5 0.3559 1.1407 7.5914 14.8542 72.2176 1.3935
# 6 37.9098 9.1659 23.5362 3.6119 1.3935 41.0372
#
#
#
# Elastic Compliance Matrix: (Units=1/GPa)
#
#
# Indices 1 2 3 4 5 6 
#
# 1 0.013877 0.002464 -0.008216 -0.005040 0.001953 -0.008281
# 2 0.002464 0.016333 -0.005565 -0.003748 0.001133 -0.002441
# 3 -0.008216 -0.005565 0.018226 0.003189 -0.002408 -0.001819
# 4 -0.005040 -0.003748 0.003189 0.034854 -0.007437 0.000849
# 5 0.001953 0.001133 -0.002408 -0.007437 0.015613 -0.000551
# 6 -0.008281 -0.002441 -0.001819 0.000849 -0.000551 0.033550
#
#
# Mechanical properties :
#
#
# Convention : Reuss Voigt Hill
#
# Bulk Modulus (GPa) = 38.75676 56.90337 47.83007
# Shear Modulus (GPa) = 30.54599 42.82226 36.68413
#
# Velocity S-wave (km/s) = 3.56881 4.22553 3.91098
# Velocity P-wave (km/s) = 5.75689 6.89443 6.35118
#
# Compressibility (1/GPa) = 0.02580195
#
# Stress axis : x y z
#
# Youngs Moduli (GPa) = 72.05980 61.22679 54.86730
#
# Poissons Ratio (x) = -0.15088 0.45080
# Poissons Ratio (y) = -0.17758 0.30534
# Poissons Ratio (z) = 0.59206 0.34073
#
# Static dielectric constant tensor:
#      x y z
#    x 1.875940 0.070750 0.068950 
#    y 0.070750 1.452690 -0.419510 
#    z 0.068950 -0.419510 1.548560 
# 
# From -- ./inp_files/245415.got.cif
#   From: 2010.05.17/outbox.cif.g08.bks.cpg/sg2_123_cif.got.tgz:245415.got - 2010.06.03 11:33:40.
