data_PCOD9070702
_publ_section_title
;
Structure prediction by ZEFSAII (Michael W. Deem and Ramdas Pophale) SiO2 
 PCOD9070702
Probable space group: P -1
;
_chemical_formula_sum "Si O2"
_cell_formula_units_Z 14
_cell_length_a 10.320032
_cell_length_b 4.775309
_cell_length_c 17.006754
_cell_angle_alpha 114.315072
_cell_angle_beta 136.265956
_cell_angle_gamma 70.778256
_cell_volume 527.334419
_symmetry_space_group_name_H-M "P -1"
_symmetry_group_IT_number 2
_symmetry_cell_setting 'triclinic'
loop_
_space_group_symop_operation_xyz
x,y,z
-x,-y,-z
loop_
_atom_site_type_symbol
_atom_site_label
_atom_site_fract_x
_atom_site_fract_y
_atom_site_fract_z
Si Si1 0.265439 0.603528 0.271337
Si Si2 0.500846 0.424156 0.159457
Si Si3 0.199909 0.484074 0.818618
Si Si4 0.676016 0.711439 0.590821
Si Si5 0.412055 0.904738 0.694502
Si Si6 0.868268 0.831379 0.090749
Si Si7 0.075687 0.569595 0.454685
O O1 0.195996 0.466191 0.308008
O O2 0.419439 0.342946 0.282537
O O3 0.077238 0.687849 0.149904
O O4 0.356806 0.931936 0.362417
O O5 0.594848 0.459395 0.120233
O O6 0.614967 0.178223 0.235454
O O7 0.517007 0.757514 0.244504
O O8 0.291055 0.318901 0.047064
O O9 0.180660 0.228737 0.846386
O O10 0.085557 0.405152 0.679192
O O11 0.145046 0.802400 0.877135
O O12 0.500000 0.500000 0.500000
O O13 0.781142 0.689205 0.551304
O O14 0.218466 0.846348 0.558263
O O15 0.000000 0.500000 0.500000
#
# Coordination Sequence:
#
# PCOD9070702 Si02
#       7
#     2   2   2   2   2   2   2
#     4  12  25  46  72 107 140 190 252 287 360 439
#     4  12  27  47  69 104 148 189 238 299 360 426
#     4  12  25  46  74 105 139 188 242 297 364 431
#     4  12  25  45  74 104 149 194 237 297 362 441
#     4  12  28  44  71 107 147 190 232 300 372 430
#     4  12  25  47  75 102 138 193 248 294 349 433
#     4  12  26  47  75 111 148 185 238 307 374 433
#
# _framework density 26.548618000000001
#
# number of rings (size 3 to 8) (size 9 to 14) (size 15 to 20)
#    0.000    0.000    5.714    3.857    0.000    2.857 
#    0.000    0.000    0.000    0.000    0.000    0.000 
#    0.000    0.000    0.000    0.000    0.000    0.000 
#
# Total GULP energy -78455.465220 kJ/mol
# GULP energy per Si atom -5603.961801 kJ/mol
# Density = 2.648819 g / cm^3
# Si number density = 26.548618 Si / 1000 Ang^3
#
#
#
# Elastic Constant Matrix: (Units=GPa)
#
#
# Indices 1 2 3 4 5 6 
#
# 1 112.0731 20.9998 27.3883 13.5780 0.8780 -5.8681
# 2 20.9998 122.6141 35.8531 27.5606 14.0815 6.1275
# 3 27.3883 35.8531 164.9737 19.2309 39.6353 -3.7101
# 4 13.5780 27.5606 19.2309 35.8321 11.1857 3.9410
# 5 0.8780 14.0815 39.6353 11.1857 60.2718 -4.8375
# 6 -5.8681 6.1275 -3.7101 3.9410 -4.8375 39.6915
#
#
#
# Elastic Compliance Matrix: (Units=1/GPa)
#
#
# Indices 1 2 3 4 5 6 
#
# 1 0.009908 -0.000880 -0.001475 -0.003052 0.001757 0.001980
# 2 -0.000880 0.010270 -0.001234 -0.006630 -0.000443 -0.001227
# 3 -0.001475 -0.001234 0.007832 -0.001296 -0.004578 0.000275
# 4 -0.003052 -0.006630 -0.001296 0.036733 -0.004674 -0.003766
# 5 0.001757 -0.000443 -0.004578 -0.004674 0.020780 0.002897
# 6 0.001980 -0.001227 0.000275 -0.003766 0.002897 0.026429
#
#
# Mechanical properties :
#
#
# Convention : Reuss Voigt Hill
#
# Bulk Modulus (GPa) = 48.00751 63.12704 55.56727
# Shear Modulus (GPa) = 39.65940 48.18706 43.92323
#
# Velocity S-wave (km/s) = 3.86922 4.26496 4.07190
# Velocity P-wave (km/s) = 6.17116 6.93417 6.56376
#
# Compressibility (1/GPa) = 0.02083008
#
# Stress axis : x y z
#
# Youngs Moduli (GPa) = 100.92990 97.37388 127.68417
#
# Poissons Ratio (x) = 0.08571 0.18838
# Poissons Ratio (y) = 0.08884 0.15757
# Poissons Ratio (z) = 0.14891 0.12016
#
# Static dielectric constant tensor:
#      x y z
#    x 2.142270 -0.067180 -0.047580 
#    y -0.067180 2.038520 -0.047750 
#    z -0.047580 -0.047750 2.153680 
# 
# From -- ./inp_files/564598.got.cif
#   From: 2010.05.17/outbox.cif.g08.bks.cpg/sg2_283_cif.got.tgz:564598.got - 2010.06.03 11:33:40.
