data_PCOD9070224
_publ_section_title
;
Structure prediction by ZEFSAII (Michael W. Deem and Ramdas Pophale) SiO2 
 PCOD9070224
Probable space group: P -1
;
_chemical_formula_sum "Si O2"
_cell_formula_units_Z 12
_cell_length_a 8.325503
_cell_length_b 9.435018
_cell_length_c 13.619484
_cell_angle_alpha 62.722063
_cell_angle_beta 46.443415
_cell_angle_gamma 44.138439
_cell_volume 538.521624
_symmetry_space_group_name_H-M "P -1"
_symmetry_group_IT_number 2
_symmetry_cell_setting 'triclinic'
loop_
_space_group_symop_operation_xyz
x,y,z
-x,-y,-z
loop_
_atom_site_type_symbol
_atom_site_label
_atom_site_fract_x
_atom_site_fract_y
_atom_site_fract_z
Si Si1 0.279265 0.886168 0.296273
Si Si2 0.247677 0.274088 0.206132
Si Si3 0.285536 0.949970 0.600526
Si Si4 0.382582 0.378438 0.577421
Si Si5 0.287637 0.447831 0.937901
Si Si6 0.217445 0.859656 0.865740
O O1 0.457407 0.793197 0.351133
O O2 0.470679 0.715477 0.187472
O O3 0.225678 0.099536 0.236559
O O4 0.975154 0.933632 0.404097
O O5 0.486516 0.192488 0.212478
O O6 0.949386 0.470631 0.310495
O O7 0.337283 0.342703 0.054869
O O8 0.507889 0.718006 0.544763
O O9 0.500000 0.000000 0.500000
O O10 0.142025 0.970645 0.757615
O O11 0.500000 0.500000 0.500000
O O12 0.251837 0.653821 0.901797
O O13 0.000000 0.500000 0.000000
O O14 0.000000 0.000000 0.000000
#
# Coordination Sequence:
#
# PCOD9070224 Si02
#       6
#     2   2   2   2   2   2
#     4  12  25  49  74 107 146 189 244 303 358 430
#     4  12  26  46  77 104 148 195 237 303 361 429
#     4  12  28  45  74 108 147 193 238 299 364 430
#     4  12  26  47  73 106 146 190 248 292 365 432
#     4  12  24  46  76 106 143 188 247 297 361 430
#     4  12  28  49  73 109 148 193 244 300 364 431
#
# _framework density 22.283227
#
# number of rings (size 3 to 8) (size 9 to 14) (size 15 to 20)
#    0.000    0.000    3.333    6.500    7.000    0.667 
#    0.000    0.000    0.000    0.000    0.000    0.000 
#    0.000    0.000    0.000    0.000    0.000    0.000 
#
# Total GULP energy -67139.458950 kJ/mol
# GULP energy per Si atom -5594.954913 kJ/mol
# Density = 2.223251 g / cm^3
# Si number density = 22.283227 Si / 1000 Ang^3
#
#
#
# Elastic Constant Matrix: (Units=GPa)
#
#
# Indices 1 2 3 4 5 6 
#
# 1 96.6636 30.8286 18.5379 17.3539 -28.5874 7.8595
# 2 30.8286 93.8832 43.8407 16.7658 -14.0489 19.8869
# 3 18.5379 43.8407 130.2505 44.2420 -3.6330 4.1021
# 4 17.3539 16.7658 44.2420 53.7613 0.4019 -0.4635
# 5 -28.5874 -14.0489 -3.6330 0.4019 48.1588 -3.8069
# 6 7.8595 19.8869 4.1021 -0.4635 -3.8069 50.0855
#
#
#
# Elastic Compliance Matrix: (Units=1/GPa)
#
#
# Indices 1 2 3 4 5 6 
#
# 1 0.014230 -0.002950 0.000649 -0.004269 0.007625 -0.000575
# 2 -0.002950 0.015041 -0.004362 -0.000207 0.001913 -0.005009
# 3 0.000649 -0.004362 0.012001 -0.008722 0.000136 0.000577
# 4 -0.004269 -0.000207 -0.008722 0.027258 -0.003364 0.001463
# 5 0.007625 0.001913 0.000136 -0.003364 0.025885 -0.000031
# 6 -0.000575 -0.005009 0.000577 0.001463 -0.000031 0.022009
#
#
# Mechanical properties :
#
#
# Convention : Reuss Voigt Hill
#
# Bulk Modulus (GPa) = 35.78350 56.35687 46.07019
# Shear Modulus (GPa) = 35.95401 45.57379 40.76390
#
# Velocity S-wave (km/s) = 4.02120 4.52730 4.28173
# Velocity P-wave (km/s) = 6.13624 7.25773 6.72042
#
# Compressibility (1/GPa) = 0.02794584
#
# Stress axis : x y z
#
# Youngs Moduli (GPa) = 70.27385 66.48406 83.32432
#
# Poissons Ratio (x) = 0.19616 -0.05405
# Poissons Ratio (y) = 0.20734 0.36342
# Poissons Ratio (z) = -0.04558 0.28997
#
# Static dielectric constant tensor:
#      x y z
#    x 1.985760 0.033670 0.034740 
#    y 0.033670 1.622720 -0.003580 
#    z 0.034740 -0.003580 1.847350 
# 
# From -- ./inp_files/492391.got.cif
#   From: 2010.05.17/outbox.cif.g08.bks.cpg/sg2_247_cif.got.tgz:492391.got - 2010.06.03 11:33:40.
