data_PCOD9070452
_publ_section_title
;
Structure prediction by ZEFSAII (Michael W. Deem and Ramdas Pophale) SiO2 
 PCOD9070452
Probable space group: P -1
;
_chemical_formula_sum "Si O2"
_cell_formula_units_Z 12
_cell_length_a 7.282344
_cell_length_b 9.440577
_cell_length_c 11.871565
_cell_angle_alpha 141.244641
_cell_angle_beta 102.130235
_cell_angle_gamma 93.529470
_cell_volume 464.389017
_symmetry_space_group_name_H-M "P -1"
_symmetry_group_IT_number 2
_symmetry_cell_setting 'triclinic'
loop_
_space_group_symop_operation_xyz
x,y,z
-x,-y,-z
loop_
_atom_site_type_symbol
_atom_site_label
_atom_site_fract_x
_atom_site_fract_y
_atom_site_fract_z
Si Si1 0.355100 0.088995 0.397046
Si Si2 0.000000 0.000000 0.500000
Si Si3 0.182354 0.164636 0.200861
Si Si4 0.100923 0.619625 0.203478
Si Si5 0.000000 0.500000 0.500000
Si Si6 0.577525 0.607462 0.822745
Si Si7 0.286526 0.998500 0.734574
O O1 0.214430 0.034952 0.236464
O O2 0.397408 0.354956 0.617427
O O3 0.247161 0.898280 0.361705
O O4 0.561198 0.074529 0.369768
O O5 0.859129 0.930254 0.324617
O O6 0.970485 0.700451 0.326228
O O7 0.146732 0.403417 0.383575
O O8 0.378099 0.242267 0.194096
O O9 0.000000 0.000000 0.000000
O O10 0.230881 0.472092 0.176279
O O11 0.000000 0.500000 0.000000
O O12 0.146385 0.787441 0.667286
O O13 0.575045 0.774172 0.030481
#
# Coordination Sequence:
#
# PCOD9070452 Si02
#       7
#     2   1   2   2   1   2   2
#     4  12  28  46  72 109 146 186 241 306 356 425
#     4  12  24  48  76 106 144 198 240 290 362 430
#     4  12  25  47  76 104 144 192 242 296 359 431
#     4  12  25  47  76 104 144 192 242 296 359 431
#     4  12  24  48  76 106 144 198 240 290 362 430
#     4  12  25  45  69 109 145 187 239 297 359 417
#     4  12  27  45  75 108 147 193 244 295 359 430
#
# _framework density 25.840402000000001
#
# number of rings (size 3 to 8) (size 9 to 14) (size 15 to 20)
#    0.000    0.000    6.667    3.000    0.000    4.000 
#    0.000    0.000    0.000    0.000    0.000    0.000 
#    0.000    0.000    0.000    0.000    0.000    0.000 
#
# Total GULP energy -66811.606678 kJ/mol
# GULP energy per Si atom -5567.633890 kJ/mol
# Density = 2.578159 g / cm^3
# Si number density = 25.840402 Si / 1000 Ang^3
#
#
#
# Elastic Constant Matrix: (Units=GPa)
#
#
# Indices 1 2 3 4 5 6 
#
# 1 73.6348 12.7523 18.1356 -14.0470 4.2557 7.1220
# 2 12.7523 94.4056 34.8906 -12.9984 20.2642 6.5881
# 3 18.1356 34.8906 151.5185 -16.7618 -3.6946 9.4860
# 4 -14.0470 -12.9984 -16.7618 46.3096 6.2664 4.9317
# 5 4.2557 20.2642 -3.6946 6.2664 36.5468 9.3998
# 6 7.1220 6.5881 9.4860 4.9317 9.3998 37.3713
#
#
#
# Elastic Compliance Matrix: (Units=1/GPa)
#
#
# Indices 1 2 3 4 5 6 
#
# 1 0.015164 -0.000463 -0.001071 0.004602 -0.001709 -0.002714
# 2 -0.000463 0.014192 -0.002993 0.003947 -0.008805 0.000040
# 3 -0.001071 -0.002993 0.007788 0.001496 0.002872 -0.002165
# 4 0.004602 0.003947 0.001496 0.025864 -0.006017 -0.003852
# 5 -0.001709 -0.008805 0.002872 -0.006017 0.035566 -0.007003
# 6 -0.002714 0.000040 -0.002165 -0.003852 -0.007003 0.030088
#
#
# Mechanical properties :
#
#
# Convention : Reuss Voigt Hill
#
# Bulk Modulus (GPa) = 35.59972 50.12399 42.86186
# Shear Modulus (GPa) = 33.99535 40.96424 37.47980
#
# Velocity S-wave (km/s) = 3.63104 3.98588 3.81259
# Velocity P-wave (km/s) = 5.60232 6.37358 6.00035
#
# Compressibility (1/GPa) = 0.02809011
#
# Stress axis : x y z
#
# Youngs Moduli (GPa) = 65.94720 70.46265 128.39678
#
# Poissons Ratio (x) = 0.03260 0.13752
# Poissons Ratio (y) = 0.03051 0.38432
# Poissons Ratio (z) = 0.07063 0.21091
#
# Static dielectric constant tensor:
#      x y z
#    x 1.621430 -0.103510 0.182430 
#    y -0.103510 1.976260 0.051260 
#    z 0.182430 0.051260 1.945360 
# 
# From -- ./inp_files/166934.got.cif
#   From: 2010.05.17/outbox.cif.g08.bks.cpg/sg2_84_cif.got.tgz:166934.got - 2010.06.03 11:33:40.
