data_PCOD9070035
_publ_section_title
;
Structure prediction by ZEFSAII (Michael W. Deem and Ramdas Pophale) SiO2 
 PCOD9070035
Probable space group: P -1
;
_chemical_formula_sum "Si O2"
_cell_formula_units_Z 16
_cell_length_a 18.944220
_cell_length_b 13.060875
_cell_length_c 8.773242
_cell_angle_alpha 129.116586
_cell_angle_beta 130.525240
_cell_angle_gamma 28.827738
_cell_volume 784.273268
_symmetry_space_group_name_H-M "P -1"
_symmetry_group_IT_number 2
_symmetry_cell_setting 'triclinic'
loop_
_space_group_symop_operation_xyz
x,y,z
-x,-y,-z
loop_
_atom_site_type_symbol
_atom_site_label
_atom_site_fract_x
_atom_site_fract_y
_atom_site_fract_z
Si Si1 0.077946 0.743022 0.576105
Si Si2 0.775108 0.190898 0.681086
Si Si3 0.314728 0.461506 0.912228
Si Si4 0.342281 0.867935 0.014105
Si Si5 0.340193 0.166647 0.845802
Si Si6 0.889665 0.719497 0.143986
Si Si7 0.624273 0.122027 0.580916
Si Si8 0.310709 0.623583 0.597586
O O1 0.209693 0.565784 0.715061
O O2 0.157410 0.722745 0.524470
O O3 0.989359 0.712774 0.370600
O O4 0.953592 0.977173 0.699342
O O5 0.714452 0.121944 0.599023
O O6 0.699154 0.307376 0.521109
O O7 0.731049 0.355001 0.889952
O O8 0.490130 0.274376 0.934072
O O9 0.294294 0.359827 0.897984
O O10 0.318227 0.929211 0.214198
O O11 0.334489 0.719672 0.835143
O O12 0.219015 0.076943 0.931217
O O13 0.216263 0.246123 0.860516
O O14 0.360613 0.040400 0.617918
O O15 0.500000 0.000000 0.000000
O O16 0.000000 0.500000 0.000000
O O17 0.450802 0.366663 0.564475
#
# Coordination Sequence:
#
# PCOD9070035 Si02
#       8
#     2   2   2   2   2   2   2   2
#     4  12  27  48  69 111 146 188 237 299 362 425
#     4  12  25  46  73 109 146 188 237 303 354 420
#     4  12  27  45  78 106 145 189 246 293 353 427
#     4  12  25  48  74 109 141 191 244 294 351 434
#     4  12  27  49  74 107 142 193 244 289 356 434
#     4  12  30  49  72 104 152 186 236 300 368 422
#     4  12  25  45  77 104 145 189 246 295 349 425
#     4  12  24  44  76 107 146 189 238 294 364 423
#
# _framework density 20.401052
#
# number of rings (size 3 to 8) (size 9 to 14) (size 15 to 20)
#    0.000    0.000    6.250    3.000    5.250    2.000 
#    0.000    0.000    0.000    0.000    0.000    0.000 
#    0.000    0.000    0.000    0.000    0.000    0.000 
#
# Total GULP energy -89642.348157 kJ/mol
# GULP energy per Si atom -5602.646760 kJ/mol
# Density = 2.035462 g / cm^3
# Si number density = 20.401052 Si / 1000 Ang^3
#
#
#
# Elastic Constant Matrix: (Units=GPa)
#
#
# Indices 1 2 3 4 5 6 
#
# 1 75.3997 -24.8888 18.1828 -4.6988 9.4750 -16.9643
# 2 -24.8888 67.4981 17.0828 0.3316 4.0672 -16.2200
# 3 18.1828 17.0828 114.4195 -11.2052 0.0413 -8.8266
# 4 -4.6988 0.3316 -11.2052 32.7248 -0.5631 -2.5259
# 5 9.4750 4.0672 0.0413 -0.5631 31.4954 2.3589
# 6 -16.9643 -16.2200 -8.8266 -2.5259 2.3589 33.7527
#
#
#
# Elastic Compliance Matrix: (Units=1/GPa)
#
#
# Indices 1 2 3 4 5 6 
#
# 1 0.026270 0.016605 -0.004693 0.003420 -0.011554 0.021019
# 2 0.016605 0.027922 -0.004977 0.001867 -0.010157 0.021311
# 3 -0.004693 -0.004977 0.010349 0.002805 0.002240 -0.001991
# 4 0.003420 0.001867 0.002805 0.032423 -0.001133 0.005855
# 5 -0.011554 -0.010157 0.002240 -0.001133 0.037474 -0.012806
# 6 0.021019 0.021311 -0.001991 0.005855 -0.012806 0.051245
#
#
# Mechanical properties :
#
#
# Convention : Reuss Voigt Hill
#
# Bulk Modulus (GPa) = 12.75360 30.89677 21.82518
# Shear Modulus (GPa) = 25.25894 36.05727 30.65810
#
# Velocity S-wave (km/s) = 3.52251 4.20863 3.88076
# Velocity P-wave (km/s) = 4.77589 6.22851 5.54993
#
# Compressibility (1/GPa) = 0.07840923
#
# Stress axis : x y z
#
# Youngs Moduli (GPa) = 38.06688 35.81465 96.62840
#
# Poissons Ratio (x) = -0.59468 0.45349
# Poissons Ratio (y) = -0.63208 0.48090
# Poissons Ratio (z) = 0.17865 0.17824
#
# Static dielectric constant tensor:
#      x y z
#    x 1.709840 -0.002040 -0.009080 
#    y -0.002040 1.698930 -0.006470 
#    z -0.009080 -0.006470 1.699020 
# 
# From -- ./inp_files/278957.got.cif
#   From: 2010.05.17/outbox.cif.g08.bks.cpg/sg2_140_cif.got.tgz:278957.got - 2010.06.03 11:33:40.
