data_PCOD9070911
_publ_section_title
;
Structure prediction by ZEFSAII (Michael W. Deem and Ramdas Pophale) SiO2 
 PCOD9070911
Probable space group: P -1
;
_chemical_formula_sum "Si O2"
_cell_formula_units_Z 12
_cell_length_a 9.683259
_cell_length_b 9.170256
_cell_length_c 14.594588
_cell_angle_alpha 43.582575
_cell_angle_beta 110.229700
_cell_angle_gamma 75.885965
_cell_volume 540.715882
_symmetry_space_group_name_H-M "P -1"
_symmetry_group_IT_number 2
_symmetry_cell_setting 'triclinic'
loop_
_space_group_symop_operation_xyz
x,y,z
-x,-y,-z
loop_
_atom_site_type_symbol
_atom_site_label
_atom_site_fract_x
_atom_site_fract_y
_atom_site_fract_z
Si Si1 0.859820 0.868588 0.786453
Si Si2 0.934024 0.116269 0.539375
Si Si3 0.476271 0.138084 0.835304
Si Si4 0.621829 0.136850 0.204686
Si Si5 0.948849 0.830697 0.026101
Si Si6 0.588229 0.863576 0.481634
O O1 0.943544 0.891002 0.703326
O O2 0.587607 0.119986 0.605655
O O3 0.934905 0.896279 0.884436
O O4 0.000000 0.500000 0.000000
O O5 0.697648 0.480977 0.352690
O O6 0.000000 0.000000 0.500000
O O7 0.115904 0.086081 0.630444
O O8 0.415006 0.014059 0.807194
O O9 0.500000 0.000000 0.000000
O O10 0.710925 0.983087 0.926197
O O11 0.558837 0.100341 0.303714
O O12 0.500000 0.500000 0.000000
O O13 0.148530 0.475890 0.282814
O O14 0.000000 0.000000 0.000000
O O15 0.500000 0.000000 0.500000
#
# Coordination Sequence:
#
# PCOD9070911 Si02
#       6
#     2   2   2   2   2   2
#     4  12  26  49  80 114 155 199 262 322 383 467
#     4  12  28  49  80 110 154 211 262 319 395 460
#     4  12  28  50  75 114 160 201 263 324 384 467
#     4  12  27  47  79 114 159 203 258 322 393 460
#     4  12  29  48  79 116 155 200 256 322 394 459
#     4  12  25  47  80 112 153 202 258 313 385 468
#
# _framework density 22.192800999999999
#
# number of rings (size 3 to 8) (size 9 to 14) (size 15 to 20)
#    0.000    0.000    3.333    5.500    7.000    1.333 
#    0.000    0.000    0.000    0.000    0.000    0.000 
#    0.000    0.000    0.000    0.000    0.000    0.000 
#
# Total GULP energy -66988.162456 kJ/mol
# GULP energy per Si atom -5582.346871 kJ/mol
# Density = 2.214229 g / cm^3
# Si number density = 22.192801 Si / 1000 Ang^3
#
#
#
# Elastic Constant Matrix: (Units=GPa)
#
#
# Indices 1 2 3 4 5 6 
#
# 1 163.2053 67.6490 61.5392 15.8517 -14.6699 -1.1310
# 2 67.6490 159.7803 86.2579 11.6082 -4.8635 7.3499
# 3 61.5392 86.2579 119.1605 8.5778 -11.2661 -6.4062
# 4 15.8517 11.6082 8.5778 37.8464 -3.7319 -1.8413
# 5 -14.6699 -4.8635 -11.2661 -3.7319 60.8842 17.8695
# 6 -1.1310 7.3499 -6.4062 -1.8413 17.8695 43.1269
#
#
#
# Elastic Compliance Matrix: (Units=1/GPa)
#
#
# Indices 1 2 3 4 5 6 
#
# 1 0.008216 -0.001810 -0.002676 -0.002171 0.001363 -0.000531
# 2 -0.001810 0.011145 -0.007217 -0.001178 -0.000060 -0.003044
# 3 -0.002676 -0.007217 0.015224 0.000104 0.000679 0.003144
# 4 -0.002171 -0.001178 0.000104 0.027799 0.000809 0.001011
# 5 0.001363 -0.000060 0.000679 0.000809 0.019206 -0.007776
# 6 -0.000531 -0.003044 0.003144 0.001011 -0.007776 0.027425
#
#
# Mechanical properties :
#
#
# Convention : Reuss Voigt Hill
#
# Bulk Modulus (GPa) = 89.46010 97.00424 93.23217
# Shear Modulus (GPa) = 36.72433 43.48483 40.10458
#
# Velocity S-wave (km/s) = 4.07232 4.43133 4.25561
# Velocity P-wave (km/s) = 7.90630 8.36582 8.13930
#
# Compressibility (1/GPa) = 0.01117817
#
# Stress axis : x y z
#
# Youngs Moduli (GPa) = 121.70730 89.72451 65.68365
#
# Poissons Ratio (x) = 0.16243 0.17579
# Poissons Ratio (y) = 0.22033 0.47407
# Poissons Ratio (z) = 0.32572 0.64758
#
# Static dielectric constant tensor:
#      x y z
#    x 1.804780 -0.031530 0.078320 
#    y -0.031530 1.761080 -0.011570 
#    z 0.078320 -0.011570 1.837860 
# 
# From -- ./inp_files/206383.got.cif
#   From: 2010.05.17/outbox.cif.g08.bks.cpg/sg2_104_cif.got.tgz:206383.got - 2010.06.03 11:33:40.
