data_PCOD9070269
_publ_section_title
;
Structure prediction by ZEFSAII (Michael W. Deem and Ramdas Pophale) SiO2 
 PCOD9070269
Probable space group: P -1
;
_chemical_formula_sum "Si O2"
_cell_formula_units_Z 14
_cell_length_a 10.889673
_cell_length_b 9.598512
_cell_length_c 8.613957
_cell_angle_alpha 97.285982
_cell_angle_beta 84.067544
_cell_angle_gamma 41.098286
_cell_volume 559.093846
_symmetry_space_group_name_H-M "P -1"
_symmetry_group_IT_number 2
_symmetry_cell_setting 'triclinic'
loop_
_space_group_symop_operation_xyz
x,y,z
-x,-y,-z
loop_
_atom_site_type_symbol
_atom_site_label
_atom_site_fract_x
_atom_site_fract_y
_atom_site_fract_z
Si Si1 0.470100 0.347797 0.893326
Si Si2 0.740076 0.660041 0.534184
Si Si3 0.851710 0.804673 0.330792
Si Si4 0.547955 0.941942 0.167067
Si Si5 0.657923 0.457584 0.379153
Si Si6 0.881600 0.984831 0.649349
Si Si7 0.210520 0.616515 0.243364
O O1 0.390195 0.516549 0.790993
O O2 0.369524 0.286237 0.869515
O O3 0.703633 0.115036 0.813135
O O4 0.395315 0.459292 0.086393
O O5 0.872423 0.633638 0.392521
O O6 0.642998 0.869348 0.675161
O O7 0.614051 0.661773 0.448811
O O8 0.781794 0.508554 0.642268
O O9 0.837084 0.930981 0.493089
O O10 0.024926 0.718048 0.192650
O O11 0.684603 0.928268 0.242224
O O12 0.500000 0.000000 0.000000
O O13 0.500000 0.500000 0.500000
O O14 0.894763 0.231321 0.345691
O O15 0.157752 0.814965 0.345216
#
# Coordination Sequence:
#
# PCOD9070269 Si02
#       7
#     2   2   2   2   2   2   2
#     4  12  27  52  77 118 167 214 270 333 412 473
#     4  12  24  46  79 117 155 210 270 335 396 480
#     4  12  26  48  80 115 158 209 277 329 399 477
#     4  12  26  48  79 116 161 207 265 345 405 481
#     4  12  29  49  85 121 159 216 276 334 404 485
#     4  12  28  51  83 118 162 215 275 335 396 487
#     4  12  28  48  77 119 163 215 267 335 404 481
#
# _framework density 25.040520000000001
#
# number of rings (size 3 to 8) (size 9 to 14) (size 15 to 20)
#    0.000    0.000    5.714    3.429    4.000    2.286 
#    0.000    0.000    0.000    0.000    0.000    0.000 
#    0.000    0.000    0.000    0.000    0.000    0.000 
#
# Total GULP energy -77980.570396 kJ/mol
# GULP energy per Si atom -5570.040743 kJ/mol
# Density = 2.498353 g / cm^3
# Si number density = 25.040520 Si / 1000 Ang^3
#
#
#
# Elastic Constant Matrix: (Units=GPa)
#
#
# Indices 1 2 3 4 5 6 
#
# 1 194.3573 60.4407 94.3119 1.6852 4.5103 3.9025
# 2 60.4407 109.8811 65.0282 9.2494 14.5642 -19.1186
# 3 94.3119 65.0282 141.4705 11.0768 0.7528 -16.4750
# 4 1.6852 9.2494 11.0768 42.3684 0.9296 0.2794
# 5 4.5103 14.5642 0.7528 0.9296 42.1890 6.2594
# 6 3.9025 -19.1186 -16.4750 0.2794 6.2594 51.2709
#
#
#
# Elastic Compliance Matrix: (Units=1/GPa)
#
#
# Indices 1 2 3 4 5 6 
#
# 1 0.008328 -0.002399 -0.004939 0.001494 0.000465 -0.003180
# 2 -0.002399 0.014797 -0.004450 -0.001884 -0.005465 0.004948
# 3 -0.004939 -0.004450 0.012888 -0.002252 0.001485 0.002689
# 4 0.001494 -0.001884 -0.002252 0.024549 0.000243 -0.001703
# 5 0.000465 -0.005465 0.001485 0.000243 0.026220 -0.004798
# 6 -0.003180 0.004948 0.002689 -0.001703 -0.004798 0.023051
#
#
# Mechanical properties :
#
#
# Convention : Reuss Voigt Hill
#
# Bulk Modulus (GPa) = 80.39601 98.36339 89.37970
# Shear Modulus (GPa) = 36.34918 42.22753 39.28835
#
# Velocity S-wave (km/s) = 3.81414 4.11100 3.96535
# Velocity P-wave (km/s) = 7.18143 7.86770 7.53238
#
# Compressibility (1/GPa) = 0.01243843
#
# Stress axis : x y z
#
# Youngs Moduli (GPa) = 120.07837 67.57910 77.58931
#
# Poissons Ratio (x) = 0.16209 0.38323
# Poissons Ratio (y) = 0.28801 0.34527
# Poissons Ratio (z) = 0.59309 0.30072
#
# Static dielectric constant tensor:
#      x y z
#    x 2.084680 -0.121670 -0.002290 
#    y -0.121670 2.225130 -0.051590 
#    z -0.002290 -0.051590 2.029750 
# 
# From -- ./inp_files/253487.got.cif
#   From: 2010.05.17/outbox.cif.g08.bks.cpg/sg2_127_cif.got.tgz:253487.got - 2010.06.03 11:33:40.
