data_PCOD9070186
_publ_section_title
;
Structure prediction by ZEFSAII (Michael W. Deem and Ramdas Pophale) SiO2 
 PCOD9070186
Probable space group: P -1
;
_chemical_formula_sum "Si O2"
_cell_formula_units_Z 16
_cell_length_a 9.517381
_cell_length_b 13.347328
_cell_length_c 19.415440
_cell_angle_alpha 42.792970
_cell_angle_beta 110.895245
_cell_angle_gamma 145.053854
_cell_volume 745.975176
_symmetry_space_group_name_H-M "P -1"
_symmetry_group_IT_number 2
_symmetry_cell_setting 'triclinic'
loop_
_space_group_symop_operation_xyz
x,y,z
-x,-y,-z
loop_
_atom_site_type_symbol
_atom_site_label
_atom_site_fract_x
_atom_site_fract_y
_atom_site_fract_z
Si Si1 0.745885 0.336486 0.845781
Si Si2 0.865129 0.406129 0.100816
Si Si3 0.766729 0.653979 0.015710
Si Si4 0.427110 0.362468 0.752154
Si Si5 0.248743 0.698922 0.381678
Si Si6 0.275468 0.390595 0.566669
Si Si7 0.792858 0.351338 0.351628
Si Si8 0.399597 0.285422 0.276549
O O1 0.591546 0.344483 0.778195
O O2 0.918386 0.518630 0.855205
O O3 0.024713 0.516544 0.754793
O O4 0.500000 0.000000 0.000000
O O5 0.865576 0.578338 0.039168
O O6 0.516435 0.050644 0.239196
O O7 0.000000 0.500000 0.000000
O O8 0.607043 0.510884 0.134170
O O9 0.500000 0.500000 0.000000
O O10 0.081221 0.021862 0.890900
O O11 0.350945 0.392151 0.655312
O O12 0.636146 0.623729 0.715524
O O13 0.374080 0.644958 0.446627
O O14 0.000000 0.500000 0.500000
O O15 0.053463 0.542721 0.356827
O O16 0.500000 0.500000 0.500000
O O17 0.919587 0.056584 0.642037
O O18 0.627753 0.366087 0.313560
O O19 0.500000 0.000000 0.500000
#
# Coordination Sequence:
#
# PCOD9070186 Si02
#       8
#     2   2   2   2   2   2   2   2
#     4  12  25  48  71 105 146 190 246 304 361 434
#     4  12  28  46  78 109 144 197 250 306 376 440
#     4  12  26  48  76 106 152 190 244 308 370 444
#     4  12  28  46  77 110 150 197 245 302 377 445
#     4  12  26  47  75 107 144 190 251 305 368 441
#     4  12  28  49  71 106 156 194 244 309 367 440
#     4  12  24  46  74 101 144 194 241 304 364 430
#     4  12  26  49  74 111 148 197 244 302 375 444
#
# _framework density 21.448433999999999
#
# number of rings (size 3 to 8) (size 9 to 14) (size 15 to 20)
#    0.000    0.000    5.000    4.125    7.000    0.500 
#    0.000    0.000    0.000    0.000    0.000    0.000 
#    0.000    0.000    0.000    0.000    0.000    0.000 
#
# Total GULP energy -89258.715757 kJ/mol
# GULP energy per Si atom -5578.669735 kJ/mol
# Density = 2.139962 g / cm^3
# Si number density = 21.448434 Si / 1000 Ang^3
#
#
#
# Elastic Constant Matrix: (Units=GPa)
#
#
# Indices 1 2 3 4 5 6 
#
# 1 93.6084 1.5565 10.6946 21.0183 7.2649 6.2690
# 2 1.5565 82.1154 28.8929 19.3012 12.6575 -0.6611
# 3 10.6946 28.8929 113.0002 17.5913 -4.4810 -11.8748
# 4 21.0183 19.3012 17.5913 35.7968 3.9784 -2.6297
# 5 7.2649 12.6575 -4.4810 3.9784 40.7401 9.1521
# 6 6.2690 -0.6611 -11.8748 -2.6297 9.1521 36.3993
#
#
#
# Elastic Compliance Matrix: (Units=1/GPa)
#
#
# Indices 1 2 3 4 5 6 
#
# 1 0.012938 0.002266 -0.000839 -0.008413 -0.001688 -0.002644
# 2 0.002266 0.015862 -0.003309 -0.007761 -0.004819 -0.000531
# 3 -0.000839 -0.003309 0.010611 -0.002952 0.001997 0.002831
# 4 -0.008413 -0.007761 -0.002952 0.038868 -0.000972 0.003397
# 5 -0.001688 -0.004819 0.001997 -0.000972 0.028068 -0.006273
# 6 -0.002644 -0.000531 0.002831 0.003397 -0.006273 0.030665
#
#
# Mechanical properties :
#
#
# Convention : Reuss Voigt Hill
#
# Bulk Modulus (GPa) = 28.05209 41.22355 34.63782
# Shear Modulus (GPa) = 32.75294 39.09256 35.92275
#
# Velocity S-wave (km/s) = 3.91199 4.27386 4.09692
# Velocity P-wave (km/s) = 5.78897 6.60425 6.21000
#
# Compressibility (1/GPa) = 0.03564797
#
# Stress axis : x y z
#
# Youngs Moduli (GPa) = 77.29116 63.04369 94.23995
#
# Poissons Ratio (x) = -0.14288 0.07908
# Poissons Ratio (y) = -0.17517 0.31184
# Poissons Ratio (z) = 0.06486 0.20861
#
# Static dielectric constant tensor:
#      x y z
#    x 1.684790 -0.043610 -0.012050 
#    y -0.043610 1.789440 -0.027880 
#    z -0.012050 -0.027880 1.638660 
# 
# From -- ./inp_files/559786.got.cif
#   From: 2010.05.17/outbox.cif.g08.bks.cpg/sg2_280_cif.got.tgz:559786.got - 2010.06.03 11:33:40.
