data_PCOD9070367
_publ_section_title
;
Structure prediction by ZEFSAII (Michael W. Deem and Ramdas Pophale) SiO2 
 PCOD9070367
Probable space group: P -1
;
_chemical_formula_sum "Si O2"
_cell_formula_units_Z 16
_cell_length_a 15.078305
_cell_length_b 9.268154
_cell_length_c 9.337779
_cell_angle_alpha 115.184509
_cell_angle_beta 36.793633
_cell_angle_gamma 107.752114
_cell_volume 705.726666
_symmetry_space_group_name_H-M "P -1"
_symmetry_group_IT_number 2
_symmetry_cell_setting 'triclinic'
loop_
_space_group_symop_operation_xyz
x,y,z
-x,-y,-z
loop_
_atom_site_type_symbol
_atom_site_label
_atom_site_fract_x
_atom_site_fract_y
_atom_site_fract_z
Si Si1 0.079020 0.864511 0.937951
Si Si2 0.113992 0.576807 0.272685
Si Si3 0.437812 0.464328 0.723242
Si Si4 0.940934 0.647120 0.236082
Si Si5 0.368347 0.388285 0.244580
Si Si6 0.492227 0.057576 0.871022
Si Si7 0.597896 0.124236 0.349519
Si Si8 0.746851 0.279614 0.593102
O O1 0.230693 0.900016 0.838784
O O2 0.132609 0.732904 0.694634
O O3 0.970378 0.801625 0.170285
O O4 0.000000 0.000000 0.000000
O O5 0.179357 0.712372 0.344212
O O6 0.000000 0.500000 0.500000
O O7 0.027227 0.640933 0.272454
O O8 0.259652 0.469336 0.979832
O O9 0.500000 0.500000 0.500000
O O10 0.496998 0.589727 0.812191
O O11 0.527195 0.295093 0.564679
O O12 0.771289 0.629679 0.481267
O O13 0.000000 0.500000 0.000000
O O14 0.339490 0.548230 0.255188
O O15 0.389454 0.223063 0.061553
O O16 0.648315 0.126392 0.648784
O O17 0.432237 0.916325 0.794114
O O18 0.500000 0.000000 0.000000
O O19 0.500000 0.000000 0.500000
#
# Coordination Sequence:
#
# PCOD9070367 Si02
#       8
#     2   2   2   2   2   2   2   2
#     4  12  28  49  74 108 162 204 252 320 392 462
#     4  12  26  45  79 117 150 193 259 325 390 454
#     4  12  25  45  80 111 146 199 260 312 374 464
#     4  12  25  48  74 112 151 192 261 315 382 464
#     4  12  24  47  78 102 148 204 247 316 374 457
#     4  12  28  45  73 112 153 192 260 320 384 451
#     4  12  26  47  73 108 148 201 255 311 382 464
#     4  12  25  49  71 108 148 198 254 310 380 462
#
# _framework density 22.671669000000001
#
# number of rings (size 3 to 8) (size 9 to 14) (size 15 to 20)
#    0.000    0.000    6.250    2.625    5.250    4.000 
#    0.000    1.250    0.000    0.000    0.000    0.000 
#    0.000    0.000    0.000    0.000    0.000    0.000 
#
# Total GULP energy -89488.339246 kJ/mol
# GULP energy per Si atom -5593.021203 kJ/mol
# Density = 2.262007 g / cm^3
# Si number density = 22.671669 Si / 1000 Ang^3
#
#
#
# Elastic Constant Matrix: (Units=GPa)
#
#
# Indices 1 2 3 4 5 6 
#
# 1 111.5311 39.4047 39.3207 -16.3659 17.5793 -10.6887
# 2 39.4047 94.1352 28.0443 -21.8502 -9.1003 -17.9111
# 3 39.3207 28.0443 126.2528 -28.1507 -3.6046 -4.6581
# 4 -16.3659 -21.8502 -28.1507 47.5091 -0.0798 10.6929
# 5 17.5793 -9.1003 -3.6046 -0.0798 46.7492 -1.8063
# 6 -10.6887 -17.9111 -4.6581 10.6929 -1.8063 38.3360
#
#
#
# Elastic Compliance Matrix: (Units=1/GPa)
#
#
# Indices 1 2 3 4 5 6 
#
# 1 0.012769 -0.004862 -0.002989 0.000252 -0.005956 0.000574
# 2 -0.004862 0.015134 -0.000680 0.003810 0.004914 0.004801
# 3 -0.002989 -0.000680 0.010105 0.004921 0.001732 -0.001215
# 4 0.000252 0.003810 0.004921 0.026935 0.000878 -0.005023
# 5 -0.005956 0.004914 0.001732 0.000878 0.024790 0.001769
# 6 0.000574 0.004801 -0.001215 -0.005023 0.001769 0.029825
#
#
# Mechanical properties :
#
#
# Convention : Reuss Voigt Hill
#
# Bulk Modulus (GPa) = 47.74879 60.60649 54.17764
# Shear Modulus (GPa) = 34.81799 41.52881 38.17340
#
# Velocity S-wave (km/s) = 3.92311 4.28454 4.10780
# Velocity P-wave (km/s) = 6.45196 7.16007 6.81522
#
# Compressibility (1/GPa) = 0.02094294
#
# Stress axis : x y z
#
# Youngs Moduli (GPa) = 78.31668 66.07625 98.96446
#
# Poissons Ratio (x) = 0.32129 0.29584
# Poissons Ratio (y) = 0.38081 0.06733
# Poissons Ratio (z) = 0.23412 0.04496
#
# Static dielectric constant tensor:
#      x y z
#    x 1.841550 -0.122540 -0.095490 
#    y -0.122540 1.358290 -0.276900 
#    z -0.095490 -0.276900 1.066990 
# 
# From -- ./inp_files/299048.got.cif
#   From: 2010.05.17/outbox.cif.g08.bks.cpg/sg2_150_cif.got.tgz:299048.got - 2010.06.03 11:33:40.
