data_PCOD9070159
_publ_section_title
;
Structure prediction by ZEFSAII (Michael W. Deem and Ramdas Pophale) SiO2 
 PCOD9070159
Probable space group: P -1
;
_chemical_formula_sum "Si O2"
_cell_formula_units_Z 12
_cell_length_a 9.517706
_cell_length_b 9.198243
_cell_length_c 19.340454
_cell_angle_alpha 143.478883
_cell_angle_beta 142.578385
_cell_angle_gamma 30.191344
_cell_volume 477.872476
_symmetry_space_group_name_H-M "P -1"
_symmetry_group_IT_number 2
_symmetry_cell_setting 'triclinic'
loop_
_space_group_symop_operation_xyz
x,y,z
-x,-y,-z
loop_
_atom_site_type_symbol
_atom_site_label
_atom_site_fract_x
_atom_site_fract_y
_atom_site_fract_z
Si Si1 0.193951 0.607003 0.786539
Si Si2 0.622919 0.045230 0.823166
Si Si3 0.253909 0.018615 0.868151
Si Si4 0.958969 0.912071 0.375534
Si Si5 0.235727 0.375518 0.178568
Si Si6 0.221814 0.209873 0.522653
O O1 0.156957 0.869690 0.824444
O O2 0.267497 0.337456 0.658931
O O3 0.880930 0.801364 0.777664
O O4 0.462495 0.398609 0.867874
O O5 0.343793 0.043555 0.719856
O O6 0.767988 0.904107 0.902829
O O7 0.449974 0.777339 0.791039
O O8 0.011580 0.360896 0.871062
O O9 0.500000 0.000000 0.000000
O O10 0.055010 0.072722 0.425562
O O11 0.000000 0.000000 0.500000
O O12 0.182274 0.564701 0.299124
O O13 0.000000 0.500000 0.500000
O O14 0.500000 0.000000 0.500000
#
# Coordination Sequence:
#
# PCOD9070159 Si02
#       6
#     2   2   2   2   2   2
#     4  12  25  46  68 103 143 184 240 296 352 424
#     4  12  24  46  71 103 148 187 227 290 354 419
#     4  12  27  51  78 102 138 191 242 306 365 412
#     4  12  25  44  73 104 152 193 231 278 359 430
#     4  12  24  48  73 109 140 187 239 291 354 435
#     4  12  26  40  63 102 141 189 238 285 342 421
#
# _framework density 25.111302999999999
#
# number of rings (size 3 to 8) (size 9 to 14) (size 15 to 20)
#    0.000    0.000    5.000    4.500    2.333    1.333 
#    0.000    5.000    0.000    0.000    0.000    0.000 
#    0.000    0.000    0.000    0.000    0.000    0.000 
#
# Total GULP energy -67027.802719 kJ/mol
# GULP energy per Si atom -5585.650227 kJ/mol
# Density = 2.505415 g / cm^3
# Si number density = 25.111303 Si / 1000 Ang^3
#
#
#
# Elastic Constant Matrix: (Units=GPa)
#
#
# Indices 1 2 3 4 5 6 
#
# 1 254.1942 93.2116 26.1171 11.0472 11.3760 -3.7613
# 2 93.2116 198.4175 7.5937 0.9581 -4.3204 19.0151
# 3 26.1171 7.5937 44.0155 5.3226 -9.0338 -8.1476
# 4 11.0472 0.9581 5.3226 23.3318 5.5934 0.1250
# 5 11.3760 -4.3204 -9.0338 5.5934 30.5088 4.7267
# 6 -3.7613 19.0151 -8.1476 0.1250 4.7267 68.3462
#
#
#
# Elastic Compliance Matrix: (Units=1/GPa)
#
#
# Indices 1 2 3 4 5 6 
#
# 1 0.005400 -0.002565 -0.003158 -0.000951 -0.003271 0.000862
# 2 -0.002565 0.006471 0.000454 0.000313 0.002267 -0.002045
# 3 -0.003158 0.000454 0.028010 -0.007453 0.010542 0.002323
# 4 -0.000951 0.000313 -0.007453 0.047507 -0.010457 -0.000391
# 5 -0.003271 0.002267 0.010542 -0.010457 0.039710 -0.002281
# 6 0.000862 -0.002045 0.002323 -0.000391 -0.002281 0.015683
#
#
# Mechanical properties :
#
#
# Convention : Reuss Voigt Hill
#
# Bulk Modulus (GPa) = 34.07909 83.38575 58.73242
# Shear Modulus (GPa) = 30.65625 49.08434 39.87030
#
# Velocity S-wave (km/s) = 3.49781 4.42596 3.98897
# Velocity P-wave (km/s) = 5.46933 7.70697 6.68248
#
# Compressibility (1/GPa) = 0.02934351
#
# Stress axis : x y z
#
# Youngs Moduli (GPa) = 185.20210 154.52981 35.70184
#
# Poissons Ratio (x) = 0.39636 0.11275
# Poissons Ratio (y) = 0.47503 -0.01623
# Poissons Ratio (z) = 0.58487 -0.07023
#
# Static dielectric constant tensor:
#      x y z
#    x 2.246690 0.255890 0.181380 
#    y 0.255890 2.120750 0.140570 
#    z 0.181380 0.140570 2.449110 
# 
# From -- ./inp_files/224306.got.cif
#   From: 2010.05.17/outbox.cif.g08.bks.cpg/sg2_113_cif.got.tgz:224306.got - 2010.06.03 11:33:40.
