data_PCOD9070906
_publ_section_title
;
Structure prediction by ZEFSAII (Michael W. Deem and Ramdas Pophale) SiO2 
 PCOD9070906
Probable space group: P -1
;
_chemical_formula_sum "Si O2"
_cell_formula_units_Z 14
_cell_length_a 11.466268
_cell_length_b 17.969722
_cell_length_c 12.379943
_cell_angle_alpha 148.691026
_cell_angle_beta 141.538184
_cell_angle_gamma 24.445601
_cell_volume 548.387711
_symmetry_space_group_name_H-M "P -1"
_symmetry_group_IT_number 2
_symmetry_cell_setting 'triclinic'
loop_
_space_group_symop_operation_xyz
x,y,z
-x,-y,-z
loop_
_atom_site_type_symbol
_atom_site_label
_atom_site_fract_x
_atom_site_fract_y
_atom_site_fract_z
Si Si1 0.511126 0.274928 0.228690
Si Si2 0.918841 0.649552 0.381289
Si Si3 0.701945 0.528698 0.917517
Si Si4 0.000000 0.500000 0.500000
Si Si5 0.300759 0.627238 0.908799
Si Si6 0.500000 0.000000 0.000000
Si Si7 0.811788 0.974725 0.373627
Si Si8 0.105633 0.039717 0.348993
O O1 0.238147 0.462023 0.334615
O O2 0.415337 0.345421 0.123033
O O3 0.777492 0.225993 0.379456
O O4 0.596334 0.065804 0.063657
O O5 0.917244 0.601573 0.442444
O O6 0.823793 0.864943 0.554133
O O7 0.753328 0.627699 0.161565
O O8 0.493696 0.532591 0.825167
O O9 0.998382 0.277388 0.806442
O O10 0.106238 0.602174 0.732129
O O11 0.500000 0.500000 0.000000
O O12 0.145907 0.867678 0.104917
O O13 0.441810 0.914669 0.753242
O O14 0.725554 0.052292 0.529979
O O15 0.000000 0.000000 0.500000
#
# Coordination Sequence:
#
# PCOD9070906 Si02
#       8
#     2   2   2   1   2   1   2   2
#     4  12  26  46  81 119 161 202 271 340 396 474
#     4  12  26  51  79 123 157 216 267 336 408 480
#     4  12  26  53  81 114 169 210 270 338 406 482
#     4  12  30  50  84 110 170 214 262 326 422 476
#     4  12  29  57  77 116 165 212 271 330 402 492
#     4  12  26  44  74 118 160 204 266 332 404 474
#     4  12  25  47  78 119 156 207 267 334 395 474
#     4  12  28  50  82 120 161 213 277 331 406 482
#
# _framework density 25.529384
#
# number of rings (size 3 to 8) (size 9 to 14) (size 15 to 20)
#    0.000    0.000    5.714    3.429    4.000    4.000 
#    2.571    0.000    0.000    0.000    0.000    0.000 
#    0.000    0.000    0.000    0.000    0.000    0.000 
#
# Total GULP energy -78101.457991 kJ/mol
# GULP energy per Si atom -5578.675571 kJ/mol
# Density = 2.547128 g / cm^3
# Si number density = 25.529384 Si / 1000 Ang^3
#
#
#
# Elastic Constant Matrix: (Units=GPa)
#
#
# Indices 1 2 3 4 5 6 
#
# 1 173.3709 55.9767 54.1856 -2.5636 20.8910 47.4734
# 2 55.9767 66.7530 46.2678 -17.8278 -3.9480 20.6721
# 3 54.1856 46.2678 184.3146 -22.0346 36.3806 21.7448
# 4 -2.5636 -17.8278 -22.0346 33.2690 12.2883 -10.9380
# 5 20.8910 -3.9480 36.3806 12.2883 55.8776 -3.0679
# 6 47.4734 20.6721 21.7448 -10.9380 -3.0679 62.7720
#
#
#
# Elastic Compliance Matrix: (Units=1/GPa)
#
#
# Indices 1 2 3 4 5 6 
#
# 1 0.010547 -0.008275 -0.000026 -0.004218 -0.003922 -0.006170
# 2 -0.008275 0.027807 -0.004771 0.009013 0.006217 0.000628
# 3 -0.000026 -0.004771 0.008892 0.005801 -0.007439 -0.000842
# 4 -0.004218 0.009013 0.005801 0.044236 -0.010996 0.005383
# 5 -0.003922 0.006217 -0.007439 -0.010996 0.027223 0.002910
# 6 -0.006170 0.000628 -0.000842 0.005383 0.002910 0.021762
#
#
# Mechanical properties :
#
#
# Convention : Reuss Voigt Hill
#
# Bulk Modulus (GPa) = 47.38750 81.92207 64.65479
# Shear Modulus (GPa) = 28.79425 48.25095 38.52260
#
# Velocity S-wave (km/s) = 3.36205 4.35215 3.88874
# Velocity P-wave (km/s) = 5.80288 7.57720 6.74860
#
# Compressibility (1/GPa) = 0.02110261
#
# Stress axis : x y z
#
# Youngs Moduli (GPa) = 94.81059 35.96207 112.46013
#
# Poissons Ratio (x) = 0.29757 0.00290
# Poissons Ratio (y) = 0.78453 0.53660
# Poissons Ratio (z) = 0.00245 0.17159
#
# Static dielectric constant tensor:
#      x y z
#    x 1.981650 -0.097140 -0.047580 
#    y -0.097140 2.157770 0.085310 
#    z -0.047580 0.085310 1.936150 
# 
# From -- ./inp_files/436258.got.cif
#   From: 2010.05.17/outbox.cif.g08.bks.cpg/sg2_219_cif.got.tgz:436258.got - 2010.06.03 11:33:40.
