data_PCOD9070738
_publ_section_title
;
Structure prediction by ZEFSAII (Michael W. Deem and Ramdas Pophale) SiO2 
 PCOD9070738
Probable space group: P -1
;
_chemical_formula_sum "Si O2"
_cell_formula_units_Z 14
_cell_length_a 17.406192
_cell_length_b 8.681674
_cell_length_c 14.034657
_cell_angle_alpha 130.451534
_cell_angle_beta 154.869389
_cell_angle_gamma 42.668123
_cell_volume 609.390121
_symmetry_space_group_name_H-M "P -1"
_symmetry_group_IT_number 2
_symmetry_cell_setting 'triclinic'
loop_
_space_group_symop_operation_xyz
x,y,z
-x,-y,-z
loop_
_atom_site_type_symbol
_atom_site_label
_atom_site_fract_x
_atom_site_fract_y
_atom_site_fract_z
Si Si1 0.196792 0.381191 0.057921
Si Si2 0.872482 0.107318 0.805145
Si Si3 0.547135 0.812068 0.558117
Si Si4 0.780591 0.383357 0.531374
Si Si5 0.100045 0.103075 0.442161
Si Si6 0.527806 0.998721 0.917095
Si Si7 0.709413 0.331992 0.216185
O O1 0.165181 0.634252 0.145135
O O2 0.275364 0.235353 0.185099
O O3 0.364486 0.247744 0.111491
O O4 0.984900 0.400334 0.792348
O O5 0.652785 0.120709 0.578176
O O6 0.966344 0.949409 0.755661
O O7 0.000000 0.000000 0.000000
O O8 0.606018 0.577662 0.474999
O O9 0.500000 0.000000 0.500000
O O10 0.733374 0.417725 0.380939
O O11 0.815737 0.135285 0.501736
O O12 0.299166 0.143138 0.676975
O O13 0.906338 0.279830 0.353178
O O14 0.680057 0.105431 0.107523
O O15 0.500000 0.000000 0.000000
O O16 0.500000 0.500000 0.000000
#
# Coordination Sequence:
#
# PCOD9070738 Si02
#       7
#     2   2   2   2   2   2   2
#     4  12  25  47  74 110 148 196 246 301 380 437
#     4  12  28  45  74 112 146 196 246 307 373 444
#     4  12  27  45  74 112 149 190 246 308 375 440
#     4  12  25  45  77 107 146 196 242 303 374 439
#     4  12  25  50  74 106 148 192 253 298 370 448
#     4  12  25  45  77 104 145 197 245 299 365 443
#     4  12  30  48  74 111 147 193 251 310 367 435
#
# _framework density 22.973789
#
# number of rings (size 3 to 8) (size 9 to 14) (size 15 to 20)
#    0.000    0.000    5.714    3.857    6.000    1.714 
#    0.000    0.000    0.000    0.000    0.000    0.000 
#    0.000    0.000    0.000    0.000    0.000    0.000 
#
# Total GULP energy -78441.821547 kJ/mol
# GULP energy per Si atom -5602.987253 kJ/mol
# Density = 2.292150 g / cm^3
# Si number density = 22.973789 Si / 1000 Ang^3
#
#
#
# Elastic Constant Matrix: (Units=GPa)
#
#
# Indices 1 2 3 4 5 6 
#
# 1 98.5682 8.4879 28.8047 -1.9408 -26.9381 -26.8173
# 2 8.4879 41.3168 -6.5652 -7.4509 -15.8367 -2.5831
# 3 28.8047 -6.5652 114.2574 5.2037 -28.3656 8.0061
# 4 -1.9408 -7.4509 5.2037 33.3194 4.7030 -0.7641
# 5 -26.9381 -15.8367 -28.3656 4.7030 63.1232 3.6205
# 6 -26.8173 -2.5831 8.0061 -0.7641 3.6205 46.5718
#
#
#
# Elastic Compliance Matrix: (Units=1/GPa)
#
#
# Indices 1 2 3 4 5 6 
#
# 1 0.014711 -0.001446 -0.003495 0.000744 0.003790 0.008709
# 2 -0.001446 0.029020 0.003855 0.004653 0.008074 -0.000437
# 3 -0.003495 0.003855 0.011484 -0.001940 0.005021 -0.004195
# 4 0.000744 0.004653 -0.001940 0.031698 -0.001845 0.001684
# 5 0.003790 0.008074 0.005021 -0.001845 0.021877 0.000036
# 6 0.008709 -0.000437 -0.004195 0.001684 0.000036 0.027209
#
#
# Mechanical properties :
#
#
# Convention : Reuss Voigt Hill
#
# Bulk Modulus (GPa) = 18.85298 35.06636 26.95967
# Shear Modulus (GPa) = 32.08181 43.49721 37.78951
#
# Velocity S-wave (km/s) = 3.74097 4.35597 4.06013
# Velocity P-wave (km/s) = 5.18497 6.37151 5.80862
#
# Compressibility (1/GPa) = 0.05304203
#
# Stress axis : x y z
#
# Youngs Moduli (GPa) = 67.97630 34.45948 87.07973
#
# Poissons Ratio (x) = 0.04984 0.30436
# Poissons Ratio (y) = 0.09831 -0.33572
# Poissons Ratio (z) = 0.23759 -0.13285
#
# Static dielectric constant tensor:
#      x y z
#    x 1.846940 0.025430 0.012750 
#    y 0.025430 1.858800 0.008620 
#    z 0.012750 0.008620 1.879280 
# 
# From -- ./inp_files/314704.got.cif
#   From: 2010.05.17/outbox.cif.g08.bks.cpg/sg2_158_cif.got.tgz:314704.got - 2010.06.03 11:33:40.
