data_PCOD9070548
_publ_section_title
;
Structure prediction by ZEFSAII (Michael W. Deem and Ramdas Pophale) SiO2 
 PCOD9070548
Probable space group: P -1
;
_chemical_formula_sum "Si O2"
_cell_formula_units_Z 10
_cell_length_a 13.713047
_cell_length_b 9.266460
_cell_length_c 7.472177
_cell_angle_alpha 83.233777
_cell_angle_beta 120.459631
_cell_angle_gamma 46.865023
_cell_volume 402.834112
_symmetry_space_group_name_H-M "P -1"
_symmetry_group_IT_number 2
_symmetry_cell_setting 'triclinic'
loop_
_space_group_symop_operation_xyz
x,y,z
-x,-y,-z
loop_
_atom_site_type_symbol
_atom_site_label
_atom_site_fract_x
_atom_site_fract_y
_atom_site_fract_z
Si Si1 0.010191 0.119735 0.638170
Si Si2 0.653978 0.716063 0.079958
Si Si3 0.751337 0.784929 0.831507
Si Si4 0.351459 0.797163 0.737376
Si Si5 0.271827 0.847566 0.264287
O O1 0.787374 0.466076 0.380795
O O2 0.095535 0.987061 0.932493
O O3 0.000000 0.000000 0.500000
O O4 0.193862 0.016745 0.723061
O O5 0.795504 0.646865 0.075705
O O6 0.506014 0.759938 0.832799
O O7 0.500000 0.000000 0.000000
O O8 0.500000 0.000000 0.500000
O O9 0.706190 0.006323 0.781327
O O10 0.000000 0.500000 0.000000
O O11 0.222682 0.894607 0.423396
O O12 0.500000 0.500000 0.000000
O O13 0.500000 0.500000 0.500000
#
# Coordination Sequence:
#
# PCOD9070548 Si02
#       5
#     2   2   2   2   2
#     4  12  27  49  77 116 161 217 271 344 415 500
#     4  12  28  50  82 115 165 212 278 347 417 491
#     4  12  29  55  83 122 171 219 280 351 422 504
#     4  12  24  50  74 115 164 203 270 338 409 499
#     4  12  26  49  83 114 158 218 277 337 421 496
#
# _framework density 24.824114000000002
#
# number of rings (size 3 to 8) (size 9 to 14) (size 15 to 20)
#    0.000    0.000    6.000    2.400    2.800    2.400 
#    0.000    0.000    0.000    0.000    0.000    0.000 
#    0.000    0.000    0.000    0.000    0.000    0.000 
#
# Total GULP energy -55893.178907 kJ/mol
# GULP energy per Si atom -5589.317891 kJ/mol
# Density = 2.476761 g / cm^3
# Si number density = 24.824114 Si / 1000 Ang^3
#
#
#
# Elastic Constant Matrix: (Units=GPa)
#
#
# Indices 1 2 3 4 5 6 
#
# 1 154.6768 69.3427 46.3249 12.0557 -7.3075 5.5418
# 2 69.3427 139.4261 89.6289 4.9961 -15.0811 5.5605
# 3 46.3249 89.6289 188.1429 14.7715 -24.4994 8.9363
# 4 12.0557 4.9961 14.7715 61.6877 -9.0400 -15.5307
# 5 -7.3075 -15.0811 -24.4994 -9.0400 42.5575 0.1691
# 6 5.5418 5.5605 8.9363 -15.5307 0.1691 61.6555
#
#
#
# Elastic Compliance Matrix: (Units=1/GPa)
#
#
# Indices 1 2 3 4 5 6 
#
# 1 0.008463 -0.004171 0.000019 -0.001568 -0.000344 -0.000781
# 2 -0.004171 0.012439 -0.004856 0.001204 0.001151 0.000257
# 3 0.000019 -0.004856 0.008137 -0.001449 0.002664 -0.001116
# 4 -0.001568 0.001204 -0.001449 0.018470 0.003227 0.004886
# 5 -0.000344 0.001151 0.002664 0.003227 0.026064 0.000282
# 6 -0.000781 0.000257 -0.001116 0.004886 0.000282 0.017658
#
#
# Mechanical properties :
#
#
# Convention : Reuss Voigt Hill
#
# Bulk Modulus (GPa) = 90.71423 99.20429 94.95926
# Shear Modulus (GPa) = 44.27814 51.64344 47.96079
#
# Velocity S-wave (km/s) = 4.22794 4.56606 4.40025
# Velocity P-wave (km/s) = 7.77535 8.23700 8.00950
#
# Compressibility (1/GPa) = 0.01102363
#
# Stress axis : x y z
#
# Youngs Moduli (GPa) = 118.15657 80.39050 122.88983
#
# Poissons Ratio (x) = 0.33531 -0.00228
# Poissons Ratio (y) = 0.49283 0.59672
# Poissons Ratio (z) = -0.00219 0.39035
#
# Static dielectric constant tensor:
#      x y z
#    x 2.162380 0.086560 -0.008400 
#    y 0.086560 1.984020 -0.025390 
#    z -0.008400 -0.025390 2.177670 
# 
# From -- ./inp_files/15925.got.cif
#   From: 2010.05.17/outbox.cif.g08.bks.cpg/sg2_8_cif.got.tgz:15925.got - 2010.06.03 11:33:40.
