data_PCOD9070805
_publ_section_title
;
Structure prediction by ZEFSAII (Michael W. Deem and Ramdas Pophale) SiO2 
 PCOD9070805
Probable space group: P -1
;
_chemical_formula_sum "Si O2"
_cell_formula_units_Z 16
_cell_length_a 9.255640
_cell_length_b 15.164033
_cell_length_c 9.270504
_cell_angle_alpha 106.886514
_cell_angle_beta 43.487315
_cell_angle_gamma 85.576517
_cell_volume 770.618823
_symmetry_space_group_name_H-M "P -1"
_symmetry_group_IT_number 2
_symmetry_cell_setting 'triclinic'
loop_
_space_group_symop_operation_xyz
x,y,z
-x,-y,-z
loop_
_atom_site_type_symbol
_atom_site_label
_atom_site_fract_x
_atom_site_fract_y
_atom_site_fract_z
Si Si1 0.929800 0.599029 0.696173
Si Si2 0.512426 0.778029 0.922763
Si Si3 0.655760 0.839365 0.545253
Si Si4 0.176967 0.679583 0.027848
Si Si5 0.193683 0.903154 0.728162
Si Si6 0.271847 0.678951 0.619540
Si Si7 0.775932 0.536908 0.074677
Si Si8 0.766696 0.032163 0.593131
O O1 0.740216 0.690796 0.786294
O O2 0.000000 0.500000 0.500000
O O3 0.142727 0.624512 0.597052
O O4 0.825075 0.581565 0.913587
O O5 0.566503 0.807909 0.740326
O O6 0.314345 0.737517 0.029610
O O7 0.427581 0.874163 0.135860
O O8 0.449679 0.871813 0.594025
O O9 0.899914 0.747063 0.277403
O O10 0.704014 0.937395 0.583189
O O11 0.238758 0.667933 0.808125
O O12 0.253829 0.566494 0.981680
O O13 0.161058 0.799628 0.720145
O O14 0.193656 0.934032 0.577718
O O15 0.000000 0.000000 0.000000
O O16 0.545532 0.621893 0.356713
O O17 0.000000 0.500000 0.000000
O O18 0.000000 0.000000 0.500000
#
# Coordination Sequence:
#
# PCOD9070805 Si02
#       8
#     2   2   2   2   2   2   2   2
#     4  12  29  46  72 110 145 186 239 297 361 418
#     4  12  27  46  72 106 145 187 237 295 361 419
#     4  12  26  48  74 103 146 191 239 290 357 429
#     4  12  25  46  77 104 143 188 242 292 351 431
#     4  12  27  47  76 106 143 192 243 289 354 432
#     4  12  27  47  75 106 144 189 243 293 352 430
#     4  12  26  46  76 103 141 190 238 291 356 422
#     4  12  26  46  71 107 145 185 236 299 357 415
#
# _framework density 20.762533999999999
#
# number of rings (size 3 to 8) (size 9 to 14) (size 15 to 20)
#    0.000    0.000    3.750    5.625    7.000    4.000 
#    0.000    0.000    0.000    0.000    0.000    0.000 
#    0.000    0.000    0.000    0.000    0.000    0.000 
#
# Total GULP energy -89666.319064 kJ/mol
# GULP energy per Si atom -5604.144942 kJ/mol
# Density = 2.071528 g / cm^3
# Si number density = 20.762534 Si / 1000 Ang^3
#
#
#
# Elastic Constant Matrix: (Units=GPa)
#
#
# Indices 1 2 3 4 5 6 
#
# 1 103.3161 34.3053 26.1569 -6.7590 5.6825 -10.5418
# 2 34.3053 103.1896 9.4185 4.3699 0.0759 1.7455
# 3 26.1569 9.4185 134.1994 15.0919 -2.8867 -6.9153
# 4 -6.7590 4.3699 15.0919 44.5568 -1.2390 6.5430
# 5 5.6825 0.0759 -2.8867 -1.2390 27.1054 2.7467
# 6 -10.5418 1.7455 -6.9153 6.5430 2.7467 50.0374
#
#
#
# Elastic Compliance Matrix: (Units=1/GPa)
#
#
# Indices 1 2 3 4 5 6 
#
# 1 0.012141 -0.003969 -0.002331 0.002619 -0.002885 0.002190
# 2 -0.003969 0.011081 0.000135 -0.001557 0.000850 -0.001047
# 3 -0.002331 0.000135 0.008346 -0.003314 0.001121 0.001029
# 4 0.002619 -0.001557 -0.003314 0.024585 0.000540 -0.003096
# 5 -0.002885 0.000850 0.001121 0.000540 0.037906 -0.002634
# 6 0.002190 -0.001047 0.001029 -0.003096 -0.002634 0.021175
#
#
# Mechanical properties :
#
#
# Convention : Reuss Voigt Hill
#
# Bulk Modulus (GPa) = 51.98143 53.38515 52.68329
# Shear Modulus (GPa) = 37.31960 42.39487 39.85723
#
# Velocity S-wave (km/s) = 4.24423 4.52363 4.38616
# Velocity P-wave (km/s) = 7.00775 7.28371 7.14706
#
# Compressibility (1/GPa) = 0.01923764
#
# Stress axis : x y z
#
# Youngs Moduli (GPa) = 82.36766 90.24347 119.81245
#
# Poissons Ratio (x) = 0.35819 0.27934
# Poissons Ratio (y) = 0.32693 -0.01622
# Poissons Ratio (z) = 0.19204 -0.01222
#
# Static dielectric constant tensor:
#      x y z
#    x 1.713030 0.031750 -0.002370 
#    y 0.031750 1.712130 -0.005300 
#    z -0.002370 -0.005300 1.687830 
# 
# From -- ./inp_files/56974.got.cif
#   From: 2010.05.17/outbox.cif.g08.bks.cpg/sg2_29_cif.got.tgz:56974.got - 2010.06.03 11:33:40.
