data_PCOD9070005
_publ_section_title
;
Structure prediction by ZEFSAII (Michael W. Deem and Ramdas Pophale) SiO2 
 PCOD9070005
Probable space group: P -1
;
_chemical_formula_sum "Si O2"
_cell_formula_units_Z 12
_cell_length_a 14.797960
_cell_length_b 14.471862
_cell_length_c 9.570965
_cell_angle_alpha 147.205507
_cell_angle_beta 138.522567
_cell_angle_gamma 29.497517
_cell_volume 545.436937
_symmetry_space_group_name_H-M "P -1"
_symmetry_group_IT_number 2
_symmetry_cell_setting 'triclinic'
loop_
_space_group_symop_operation_xyz
x,y,z
-x,-y,-z
loop_
_atom_site_type_symbol
_atom_site_label
_atom_site_fract_x
_atom_site_fract_y
_atom_site_fract_z
Si Si1 0.632592 0.039844 0.742751
Si Si2 0.938676 0.634299 0.750021
Si Si3 0.831800 0.431600 0.589617
Si Si4 0.541648 0.448144 0.756895
Si Si5 0.858970 0.024105 0.765183
Si Si6 0.853309 0.275596 0.711303
O O1 0.500000 0.000000 0.500000
O O2 0.751783 0.891147 0.825070
O O3 0.769782 0.949720 0.657531
O O4 0.529764 0.302676 0.980821
O O5 0.889807 0.542713 0.701421
O O6 0.000000 0.500000 0.500000
O O7 0.078364 0.660399 0.001334
O O8 0.639198 0.518425 0.418426
O O9 0.816588 0.438308 0.747869
O O10 0.004989 0.159635 0.426575
O O11 0.662888 0.347643 0.628957
O O12 0.688124 0.270565 0.818946
O O13 0.000000 0.000000 0.000000
O O14 0.000000 0.000000 0.500000
#
# Coordination Sequence:
#
# PCOD9070005 Si02
#       6
#     2   2   2   2   2   2
#     4  12  25  42  71 110 148 191 247 306 363 432
#     4  12  26  48  76 109 151 196 245 304 368 436
#     4  12  26  47  74 107 148 195 242 304 375 438
#     4  12  26  46  74 106 148 196 252 300 366 447
#     4  12  24  44  73 106 151 191 245 309 369 430
#     4  12  26  50  76 107 151 198 244 304 375 439
#
# _framework density 22.000712
#
# number of rings (size 3 to 8) (size 9 to 14) (size 15 to 20)
#    0.000    0.000    5.000    5.500    2.333    0.000 
#    0.000    1.667    0.000    0.000    0.000    0.000 
#    0.000    0.000    0.000    0.000    0.000    0.000 
#
# Total GULP energy -67061.958903 kJ/mol
# GULP energy per Si atom -5588.496575 kJ/mol
# Density = 2.195064 g / cm^3
# Si number density = 22.000712 Si / 1000 Ang^3
#
#
#
# Elastic Constant Matrix: (Units=GPa)
#
#
# Indices 1 2 3 4 5 6 
#
# 1 137.5448 33.6465 23.1686 -2.2370 13.7660 -1.5533
# 2 33.6465 162.8775 32.9877 -1.3250 9.8210 13.1519
# 3 23.1686 32.9877 73.3228 -12.4936 12.0559 -4.8962
# 4 -2.2370 -1.3250 -12.4936 32.8444 -8.2264 1.2118
# 5 13.7660 9.8210 12.0559 -8.2264 35.5608 -6.6013
# 6 -1.5533 13.1519 -4.8962 1.2118 -6.6013 57.8026
#
#
#
# Elastic Compliance Matrix: (Units=1/GPa)
#
#
# Indices 1 2 3 4 5 6 
#
# 1 0.008081 -0.001184 -0.001756 -0.000761 -0.002367 0.000084
# 2 -0.001184 0.007220 -0.003016 -0.001151 -0.001158 -0.002038
# 3 -0.001756 -0.003016 0.017040 0.005508 -0.002682 0.001661
# 4 -0.000761 -0.001151 0.005508 0.034113 0.006779 0.000767
# 5 -0.002367 -0.001158 -0.002682 0.006779 0.032492 0.003541
# 6 0.000084 -0.002038 0.001661 0.000767 0.003541 0.018295
#
#
# Mechanical properties :
#
#
# Convention : Reuss Voigt Hill
#
# Bulk Modulus (GPa) = 48.94799 61.48341 55.21570
# Shear Modulus (GPa) = 36.77462 44.17104 40.47283
#
# Velocity S-wave (km/s) = 4.09286 4.48561 4.29373
# Velocity P-wave (km/s) = 6.68072 7.40502 7.05217
#
# Compressibility (1/GPa) = 0.02042985
#
# Stress axis : x y z
#
# Youngs Moduli (GPa) = 123.74442 138.50339 58.68415
#
# Poissons Ratio (x) = 0.16399 0.10304
# Poissons Ratio (y) = 0.14651 0.17700
# Poissons Ratio (z) = 0.21727 0.41774
#
# Static dielectric constant tensor:
#      x y z
#    x 1.861210 0.013970 -0.002280 
#    y 0.013970 1.812100 -0.009730 
#    z -0.002280 -0.009730 1.835760 
# 
# From -- ./inp_files/160038.got.cif
#   From: 2010.05.17/outbox.cif.g08.bks.cpg/sg2_81_cif.got.tgz:160038.got - 2010.06.03 11:33:40.
