data_PCOD9070833
_publ_section_title
;
Structure prediction by ZEFSAII (Michael W. Deem and Ramdas Pophale) SiO2 
 PCOD9070833
Probable space group: P -1
;
_chemical_formula_sum "Si O2"
_cell_formula_units_Z 14
_cell_length_a 15.433461
_cell_length_b 14.183141
_cell_length_c 5.152479
_cell_angle_alpha 107.007092
_cell_angle_beta 88.608951
_cell_angle_gamma 145.185930
_cell_volume 565.574059
_symmetry_space_group_name_H-M "P -1"
_symmetry_group_IT_number 2
_symmetry_cell_setting 'triclinic'
loop_
_space_group_symop_operation_xyz
x,y,z
-x,-y,-z
loop_
_atom_site_type_symbol
_atom_site_label
_atom_site_fract_x
_atom_site_fract_y
_atom_site_fract_z
Si Si1 0.865576 0.435310 0.092515
Si Si2 0.617992 0.036685 0.656346
Si Si3 0.089560 0.397646 0.287226
Si Si4 0.890702 0.911926 0.187366
Si Si5 0.247889 0.002520 0.772138
Si Si6 0.555375 0.305572 0.353770
Si Si7 0.437826 0.496513 0.245416
O O1 0.724554 0.216415 0.958977
O O2 0.853162 0.512301 0.935419
O O3 0.914435 0.517967 0.438082
O O4 0.000000 0.500000 0.000000
O O5 0.724141 0.061574 0.487658
O O6 0.500000 0.000000 0.500000
O O7 0.493777 0.848953 0.673920
O O8 0.245663 0.490574 0.488320
O O9 0.902403 0.172836 0.152855
O O10 0.814348 0.947758 0.257113
O O11 0.753738 0.696998 0.963586
O O12 0.000000 0.000000 0.500000
O O13 0.000000 0.000000 0.000000
O O14 0.431517 0.197086 0.034662
O O15 0.498969 0.332835 0.583828
O O16 0.500000 0.500000 0.500000
O O17 0.500000 0.500000 0.000000
#
# Coordination Sequence:
#
# PCOD9070833 Si02
#       7
#     2   2   2   2   2   2   2
#     4  12  25  47  72 104 155 207 255 322 384 452
#     4  12  26  47  76 112 162 208 266 322 390 474
#     4  12  28  47  76 112 153 205 269 318 388 470
#     4  12  28  52  82 118 157 204 266 336 406 481
#     4  12  28  49  81 114 159 212 262 334 399 479
#     4  12  28  48  80 113 157 210 268 323 403 476
#     4  12  26  51  80 111 157 204 259 332 407 472
#
# _framework density 24.753609999999998
#
# number of rings (size 3 to 8) (size 9 to 14) (size 15 to 20)
#    0.000    0.000    4.286    4.714    4.000    2.286 
#    0.000    0.000    0.000    0.000    0.000    0.000 
#    0.000    0.000    0.000    0.000    0.000    0.000 
#
# Total GULP energy -78065.401675 kJ/mol
# GULP energy per Si atom -5576.100120 kJ/mol
# Density = 2.469727 g / cm^3
# Si number density = 24.753610 Si / 1000 Ang^3
#
#
#
# Elastic Constant Matrix: (Units=GPa)
#
#
# Indices 1 2 3 4 5 6 
#
# 1 140.9319 6.7022 33.6902 -12.0667 8.3951 -11.0270
# 2 6.7022 61.2323 28.5900 7.3423 -3.9284 3.6575
# 3 33.6902 28.5900 132.0465 -9.7248 2.9701 -16.5495
# 4 -12.0667 7.3423 -9.7248 43.7573 1.4790 -6.6411
# 5 8.3951 -3.9284 2.9701 1.4790 51.6143 1.1680
# 6 -11.0270 3.6575 -16.5495 -6.6411 1.1680 45.6618
#
#
#
# Elastic Compliance Matrix: (Units=1/GPa)
#
#
# Indices 1 2 3 4 5 6 
#
# 1 0.007890 -0.000657 -0.001447 0.002284 -0.001356 0.001800
# 2 -0.000657 0.019854 -0.005136 -0.005403 0.002169 -0.004452
# 3 -0.001447 -0.005136 0.009836 0.003307 -0.000910 0.004131
# 4 0.002284 -0.005403 0.003307 0.026102 -0.001857 0.006026
# 5 -0.001356 0.002169 -0.000910 -0.001857 0.019902 -0.001610
# 6 0.001800 -0.004452 0.004131 0.006026 -0.001610 0.025106
#
#
# Mechanical properties :
#
#
# Convention : Reuss Voigt Hill
#
# Bulk Modulus (GPa) = 43.28636 52.46395 47.87516
# Shear Modulus (GPa) = 38.20632 45.88857 42.04744
#
# Velocity S-wave (km/s) = 3.93296 4.31026 4.12593
# Velocity P-wave (km/s) = 6.17649 6.78319 6.48694
#
# Compressibility (1/GPa) = 0.02310196
#
# Stress axis : x y z
#
# Youngs Moduli (GPa) = 126.74549 50.36786 101.66885
#
# Poissons Ratio (x) = 0.03307 0.14707
# Poissons Ratio (y) = 0.08322 0.52215
# Poissons Ratio (z) = 0.18334 0.25868
#
# Static dielectric constant tensor:
#      x y z
#    x 1.834060 -0.270960 -0.187980 
#    y -0.270960 1.786540 0.000350 
#    z -0.187980 0.000350 2.190070 
# 
# From -- ./inp_files/97344.got.cif
#   From: 2010.05.17/outbox.cif.g08.bks.cpg/sg2_49_cif.got.tgz:97344.got - 2010.06.03 11:33:40.
