data_PCOD9070550
_publ_section_title
;
Structure prediction by ZEFSAII (Michael W. Deem and Ramdas Pophale) SiO2 
 PCOD9070550
Probable space group: P -1
;
_chemical_formula_sum "Si O2"
_cell_formula_units_Z 16
_cell_length_a 16.784767
_cell_length_b 9.257713
_cell_length_c 19.953636
_cell_angle_alpha 135.224302
_cell_angle_beta 160.546773
_cell_angle_gamma 49.557829
_cell_volume 724.469381
_symmetry_space_group_name_H-M "P -1"
_symmetry_group_IT_number 2
_symmetry_cell_setting 'triclinic'
loop_
_space_group_symop_operation_xyz
x,y,z
-x,-y,-z
loop_
_atom_site_type_symbol
_atom_site_label
_atom_site_fract_x
_atom_site_fract_y
_atom_site_fract_z
Si Si1 0.574368 0.137638 0.920281
Si Si2 0.041453 0.324767 0.029182
Si Si3 0.967141 0.541987 0.171184
Si Si4 0.048777 0.403898 0.340213
Si Si5 0.446998 0.815710 0.596355
Si Si6 0.288729 0.060790 0.900655
Si Si7 0.954547 0.820877 0.460570
Si Si8 0.317126 0.019653 0.422071
O O1 0.330356 0.234892 0.779821
O O2 0.504766 0.998733 0.755099
O O3 0.800769 0.295910 0.136858
O O4 0.647176 0.991883 0.990438
O O5 0.928174 0.109780 0.838878
O O6 0.000000 0.500000 0.000000
O O7 0.916017 0.380312 0.017499
O O8 0.321741 0.313184 0.261229
O O9 0.208526 0.679701 0.385404
O O10 0.013866 0.439131 0.245018
O O11 0.768058 0.703741 0.073889
O O12 0.089185 0.625936 0.480240
O O13 0.254815 0.250861 0.463216
O O14 0.408130 0.910203 0.523924
O O15 0.058096 0.916794 0.643617
O O16 0.500000 0.000000 0.000000
O O17 0.000000 0.000000 0.500000
O O18 0.500000 0.000000 0.500000
#
# Coordination Sequence:
#
# PCOD9070550 Si02
#       8
#     2   2   2   2   2   2   2   2
#     4  12  25  46  74 104 150 183 237 306 364 425
#     4  12  26  47  77 107 141 193 248 296 359 432
#     4  12  25  45  76 104 143 193 243 293 362 434
#     4  12  27  47  72 110 145 192 238 302 375 418
#     4  12  25  50  75 104 148 191 242 301 355 440
#     4  12  25  46  74 105 141 189 241 294 356 437
#     4  12  24  50  75 106 144 190 244 299 358 439
#     4  12  29  49  71 109 151 191 242 302 367 426
#
# _framework density 22.085131000000001
#
# number of rings (size 3 to 8) (size 9 to 14) (size 15 to 20)
#    0.000    0.000    6.250    3.000    3.500    2.500 
#    2.250    0.000    0.000    0.000    0.000    0.000 
#    0.000    0.000    0.000    0.000    0.000    0.000 
#
# Total GULP energy -89667.568780 kJ/mol
# GULP energy per Si atom -5604.223049 kJ/mol
# Density = 2.203486 g / cm^3
# Si number density = 22.085131 Si / 1000 Ang^3
#
#
#
# Elastic Constant Matrix: (Units=GPa)
#
#
# Indices 1 2 3 4 5 6 
#
# 1 100.7118 23.8308 21.3928 -20.8413 6.7295 11.7712
# 2 23.8308 127.3322 22.7636 -23.7546 11.6363 -14.9021
# 3 21.3928 22.7636 69.6041 -20.6878 -1.1405 2.7824
# 4 -20.8413 -23.7546 -20.6878 43.9933 -6.8411 -6.0155
# 5 6.7295 11.6363 -1.1405 -6.8411 43.7926 -0.2255
# 6 11.7712 -14.9021 2.7824 -6.0155 -0.2255 45.8098
#
#
#
# Elastic Compliance Matrix: (Units=1/GPa)
#
#
# Indices 1 2 3 4 5 6 
#
# 1 0.011809 -0.001490 -0.002071 0.003257 -0.000979 -0.002970
# 2 -0.001490 0.009867 -0.001748 0.004102 -0.001776 0.004229
# 3 -0.002071 -0.001748 0.017607 0.006680 0.002284 -0.000217
# 4 0.003257 0.004102 0.006680 0.030726 0.003405 0.004143
# 5 -0.000979 -0.001776 0.002284 0.003405 0.024049 0.000101
# 6 -0.002970 0.004229 -0.000217 0.004143 0.000101 0.024526
#
#
# Mechanical properties :
#
#
# Convention : Reuss Voigt Hill
#
# Bulk Modulus (GPa) = 34.88726 48.18030 41.53378
# Shear Modulus (GPa) = 36.03421 42.02988 39.03204
#
# Velocity S-wave (km/s) = 4.04370 4.36717 4.20854
# Velocity P-wave (km/s) = 6.13457 6.87696 6.51635
#
# Compressibility (1/GPa) = 0.02866376
#
# Stress axis : x y z
#
# Youngs Moduli (GPa) = 84.68451 101.34434 56.79654
#
# Poissons Ratio (x) = 0.15103 0.11764
# Poissons Ratio (y) = 0.12620 0.09928
# Poissons Ratio (z) = 0.17540 0.17714
#
# Static dielectric constant tensor:
#      x y z
#    x 1.777390 -0.037010 0.020480 
#    y -0.037010 1.801850 -0.002380 
#    z 0.020480 -0.002380 1.825250 
# 
# From -- ./inp_files/297484.got.cif
#   From: 2010.05.17/outbox.cif.g08.bks.cpg/sg2_149_cif.got.tgz:297484.got - 2010.06.03 11:33:40.
