data_PCOD9070444
_publ_section_title
;
Structure prediction by ZEFSAII (Michael W. Deem and Ramdas Pophale) SiO2 
 PCOD9070444
Probable space group: P -1
;
_chemical_formula_sum "Si O2"
_cell_formula_units_Z 14
_cell_length_a 4.910374
_cell_length_b 9.711429
_cell_length_c 11.607357
_cell_angle_alpha 112.972324
_cell_angle_beta 94.869799
_cell_angle_gamma 72.106955
_cell_volume 484.582617
_symmetry_space_group_name_H-M "P -1"
_symmetry_group_IT_number 2
_symmetry_cell_setting 'triclinic'
loop_
_space_group_symop_operation_xyz
x,y,z
-x,-y,-z
loop_
_atom_site_type_symbol
_atom_site_label
_atom_site_fract_x
_atom_site_fract_y
_atom_site_fract_z
Si Si1 0.168283 0.791650 0.504683
Si Si2 0.075630 0.052894 0.735801
Si Si3 0.952126 0.430526 0.201890
Si Si4 0.293866 0.298721 0.961577
Si Si5 0.232248 0.342765 0.417331
Si Si6 0.574918 0.289500 0.753244
Si Si7 0.738517 0.130563 0.091870
O O1 0.446787 0.680294 0.542120
O O2 0.211224 0.727254 0.354604
O O3 0.888933 0.781661 0.559334
O O4 0.185437 0.967549 0.590798
O O5 0.135686 0.210837 0.837826
O O6 0.727359 0.106971 0.737663
O O7 0.233675 0.924823 0.793784
O O8 0.719278 0.596530 0.274969
O O9 0.789250 0.300165 0.143338
O O10 0.188118 0.358151 0.283855
O O11 0.109088 0.428617 0.084988
O O12 0.506738 0.352379 0.902089
O O13 0.461151 0.161571 0.011526
O O14 0.000000 0.500000 0.500000
O O15 0.000000 0.000000 0.000000
#
# Coordination Sequence:
#
# PCOD9070444 Si02
#       7
#     2   2   2   2   2   2   2
#     4  12  29  50  84 116 161 211 267 325 392 473
#     4  12  27  48  78 112 157 206 264 328 395 469
#     4  12  27  48  81 110 156 204 266 332 392 471
#     4  12  27  46  78 111 154 208 264 323 397 469
#     4  12  27  52  84 119 156 209 271 326 392 468
#     4  12  29  49  72 116 162 205 259 323 408 471
#     4  12  24  48  75 110 148 200 266 324 389 465
#
# _framework density 28.890843
#
# number of rings (size 3 to 8) (size 9 to 14) (size 15 to 20)
#    0.000    0.000    5.714    2.571    6.000    4.000 
#    0.000    0.000    0.000    0.000    0.000    0.000 
#    0.000    0.000    0.000    0.000    0.000    0.000 
#
# Total GULP energy -78202.001870 kJ/mol
# GULP energy per Si atom -5585.857276 kJ/mol
# Density = 2.882509 g / cm^3
# Si number density = 28.890843 Si / 1000 Ang^3
#
#
#
# Elastic Constant Matrix: (Units=GPa)
#
#
# Indices 1 2 3 4 5 6 
#
# 1 109.0102 46.5376 54.1759 9.7850 -12.4472 -2.4975
# 2 46.5376 132.1107 55.6665 1.3558 -5.8126 -24.0859
# 3 54.1759 55.6665 215.5700 -24.5967 -26.5196 0.6582
# 4 9.7850 1.3558 -24.5967 69.7333 -3.0724 -11.5639
# 5 -12.4472 -5.8126 -26.5196 -3.0724 44.8597 -5.0279
# 6 -2.4975 -24.0859 0.6582 -11.5639 -5.0279 54.7961
#
#
#
# Elastic Compliance Matrix: (Units=1/GPa)
#
#
# Indices 1 2 3 4 5 6 
#
# 1 0.012146 -0.003483 -0.002297 -0.002624 0.001225 -0.001391
# 2 -0.003483 0.010356 -0.001786 0.000394 -0.000151 0.004484
# 3 -0.002297 -0.001786 0.006365 0.002719 0.003068 -0.000111
# 4 -0.002624 0.000394 0.002719 0.016383 0.002468 0.003705
# 5 0.001225 -0.000151 0.003068 0.002468 0.024904 0.002759
# 6 -0.001391 0.004484 -0.000111 0.003705 0.002759 0.021193
#
#
# Mechanical properties :
#
#
# Convention : Reuss Voigt Hill
#
# Bulk Modulus (GPa) = 72.81352 85.49453 79.15402
# Shear Modulus (GPa) = 45.02129 53.89854 49.45992
#
# Velocity S-wave (km/s) = 3.95184 4.32394 4.14207
# Velocity P-wave (km/s) = 6.78826 7.38817 7.09456
#
# Compressibility (1/GPa) = 0.01373371
#
# Stress axis : x y z
#
# Youngs Moduli (GPa) = 82.33345 96.56394 157.09842
#
# Poissons Ratio (x) = 0.33636 0.36090
# Poissons Ratio (y) = 0.28679 0.28058
# Poissons Ratio (z) = 0.18915 0.17247
#
# Static dielectric constant tensor:
#      x y z
#    x 2.420920 0.077660 0.077060 
#    y 0.077660 2.372680 -0.056000 
#    z 0.077060 -0.056000 2.282880 
# 
# From -- ./inp_files/365311.got.cif
#   From: 2010.05.17/outbox.cif.g08.bks.cpg/sg2_183_cif.got.tgz:365311.got - 2010.06.03 11:33:40.
