data_PCOD9070099
_publ_section_title
;
Structure prediction by ZEFSAII (Michael W. Deem and Ramdas Pophale) SiO2 
 PCOD9070099
Probable space group: P -1
;
_chemical_formula_sum "Si O2"
_cell_formula_units_Z 14
_cell_length_a 5.379429
_cell_length_b 25.705816
_cell_length_c 22.985924
_cell_angle_alpha 170.248115
_cell_angle_beta 74.496326
_cell_angle_gamma 103.888467
_cell_volume 513.437621
_symmetry_space_group_name_H-M "P -1"
_symmetry_group_IT_number 2
_symmetry_cell_setting 'triclinic'
loop_
_space_group_symop_operation_xyz
x,y,z
-x,-y,-z
loop_
_atom_site_type_symbol
_atom_site_label
_atom_site_fract_x
_atom_site_fract_y
_atom_site_fract_z
Si Si1 0.552825 0.125938 0.309904
Si Si2 0.149790 0.948419 0.224001
Si Si3 0.833148 0.463066 0.742499
Si Si4 0.593971 0.401886 0.321255
Si Si5 0.089774 0.745553 0.664854
Si Si6 0.812975 0.592639 0.168468
Si Si7 0.515707 0.085187 0.659794
O O1 0.425992 0.970212 0.201430
O O2 0.602451 0.443793 0.690057
O O3 0.826607 0.089780 0.217213
O O4 0.388090 0.967658 0.096679
O O5 0.116640 0.157524 0.514497
O O6 0.937205 0.126315 0.389163
O O7 0.075658 0.609847 0.864100
O O8 0.722003 0.684987 0.046337
O O9 0.500000 0.500000 0.500000
O O10 0.355979 0.545150 0.451605
O O11 0.859357 0.539329 0.443958
O O12 0.000000 0.000000 0.000000
O O13 0.557765 0.778514 0.358142
O O14 0.754830 0.287249 0.868973
O O15 0.000000 0.500000 0.000000
O O16 0.500000 0.000000 0.500000
#
# Coordination Sequence:
#
# PCOD9070099 Si02
#       7
#     2   2   2   2   2   2   2
#     4  12  30  46  80 108 164 200 270 320 408 482
#     4  12  28  49  76 111 159 205 262 327 402 478
#     4  12  28  49  76 111 159 205 262 327 402 478
#     4  12  28  50  82 117 159 208 271 331 407 484
#     4  12  28  50  82 117 159 208 271 331 407 484
#     4  12  24  45  74 109 152 201 264 328 395 474
#     4  12  24  45  74 109 152 201 264 328 395 474
#
# _framework density 27.267187
#
# number of rings (size 3 to 8) (size 9 to 14) (size 15 to 20)
#    0.000    0.000    2.857    6.000    8.000    0.000 
#    0.000    0.000    0.000    0.000    0.000    0.000 
#    0.000    0.000    0.000    0.000    0.000    0.000 
#
# Total GULP energy -78349.537784 kJ/mol
# GULP energy per Si atom -5596.395556 kJ/mol
# Density = 2.720513 g / cm^3
# Si number density = 27.267187 Si / 1000 Ang^3
#
#
#
# Elastic Constant Matrix: (Units=GPa)
#
#
# Indices 1 2 3 4 5 6 
#
# 1 173.8833 58.1762 48.9051 10.6344 32.0416 12.5960
# 2 58.1762 158.5077 42.2160 -25.2256 19.8083 27.4287
# 3 48.9051 42.2160 93.6238 -30.5504 33.8834 -9.9743
# 4 10.6344 -25.2256 -30.5504 58.6017 0.4094 1.2003
# 5 32.0416 19.8083 33.8834 0.4094 70.1880 14.8333
# 6 12.5960 27.4287 -9.9743 1.2003 14.8333 49.7978
#
#
#
# Elastic Compliance Matrix: (Units=1/GPa)
#
#
# Indices 1 2 3 4 5 6 
#
# 1 0.008436 -0.002199 -0.005141 -0.005120 -0.000355 -0.001723
# 2 -0.002199 0.009199 -0.002995 0.002903 0.000994 -0.005477
# 3 -0.005141 -0.002995 0.023408 0.011705 -0.010385 0.010450
# 4 -0.005120 0.002903 0.011705 0.025320 -0.004891 0.002887
# 5 -0.000355 0.000994 -0.010385 -0.004891 0.021004 -0.008677
# 6 -0.001723 -0.005477 0.010450 0.002887 -0.008677 0.028142
#
#
# Mechanical properties :
#
#
# Convention : Reuss Voigt Hill
#
# Bulk Modulus (GPa) = 49.08546 80.51216 64.79881
# Shear Modulus (GPa) = 34.97206 54.16532 44.56869
#
# Velocity S-wave (km/s) = 3.58518 4.46181 4.04730
# Velocity P-wave (km/s) = 5.93117 7.49232 6.75699
#
# Compressibility (1/GPa) = 0.02037263
#
# Stress axis : x y z
#
# Youngs Moduli (GPa) = 118.54025 108.70488 42.72004
#
# Poissons Ratio (x) = 0.23908 0.21961
# Poissons Ratio (y) = 0.26071 0.12796
# Poissons Ratio (z) = 0.60938 0.32561
#
# Static dielectric constant tensor:
#      x y z
#    x 2.427970 -0.141360 -0.184650 
#    y -0.141360 2.111460 0.070400 
#    z -0.184650 0.070400 2.180570 
# 
# From -- ./inp_files/605284.got.cif
#   From: 2010.05.17/outbox.cif.g08.bks.cpg/sg2_303_cif.got.tgz:605284.got - 2010.06.03 11:33:40.
