data_PCOD9070235
_publ_section_title
;
Structure prediction by ZEFSAII (Michael W. Deem and Ramdas Pophale) SiO2 
 PCOD9070235
Probable space group: P -1
;
_chemical_formula_sum "Si O2"
_cell_formula_units_Z 11
_cell_length_a 9.194194
_cell_length_b 11.902727
_cell_length_c 11.455129
_cell_angle_alpha 141.430885
_cell_angle_beta 121.312746
_cell_angle_gamma 38.199329
_cell_volume 468.507535
_symmetry_space_group_name_H-M "P -1"
_symmetry_group_IT_number 2
_symmetry_cell_setting 'triclinic'
loop_
_space_group_symop_operation_xyz
x,y,z
-x,-y,-z
loop_
_atom_site_type_symbol
_atom_site_label
_atom_site_fract_x
_atom_site_fract_y
_atom_site_fract_z
Si Si1 0.500000 0.500000 0.500000
Si Si2 0.193411 0.003605 0.125745
Si Si3 0.906328 0.755932 0.221929
Si Si4 0.405267 0.161499 0.210884
Si Si5 0.292573 0.009146 0.430830
Si Si6 0.610884 0.427052 0.764789
O O1 0.369442 0.397901 0.364158
O O2 0.531056 0.468419 0.631345
O O3 0.164111 0.071385 0.304417
O O4 0.204202 0.179769 0.197568
O O5 0.455277 0.709124 0.980541
O O6 0.000000 0.000000 0.000000
O O7 0.100513 0.754375 0.257277
O O8 0.636245 0.985778 0.250439
O O9 0.885886 0.788392 0.377996
O O10 0.000000 0.500000 0.000000
O O11 0.500000 0.000000 0.000000
O O12 0.420572 0.729327 0.301091
O O13 0.500000 0.000000 0.500000
#
# Coordination Sequence:
#
# PCOD9070235 Si02
#       6
#     1   2   2   2   2   2
#     4  12  24  46  76 112 144 198 266 314 374 454
#     4  12  28  50  73 113 159 201 252 330 397 455
#     4  12  24  46  78 108 143 201 258 316 373 459
#     4  12  25  49  77 110 153 197 261 318 383 466
#     4  12  25  49  72 111 154 196 259 316 395 459
#     4  12  26  46  74 107 149 201 257 313 382 463
#
# _framework density 23.478811
#
# number of rings (size 3 to 8) (size 9 to 14) (size 15 to 20)
#    0.000    0.000    7.273    1.091    5.091    0.000 
#    3.273    1.818    0.000    0.000    0.000    0.000 
#    0.000    0.000    0.000    0.000    0.000    0.000 
#
# Total GULP energy -61334.879927 kJ/mol
# GULP energy per Si atom -5575.898175 kJ/mol
# Density = 2.342537 g / cm^3
# Si number density = 23.478811 Si / 1000 Ang^3
#
#
#
# Elastic Constant Matrix: (Units=GPa)
#
#
# Indices 1 2 3 4 5 6 
#
# 1 176.7498 52.5207 53.2444 -5.2648 39.2514 17.4721
# 2 52.5207 69.2070 31.1024 -34.0629 6.7061 4.1042
# 3 53.2444 31.1024 139.8618 -28.3910 7.0448 18.1807
# 4 -5.2648 -34.0629 -28.3910 50.3001 11.3282 -2.2147
# 5 39.2514 6.7061 7.0448 11.3282 44.4721 -3.7847
# 6 17.4721 4.1042 18.1807 -2.2147 -3.7847 52.4145
#
#
#
# Elastic Compliance Matrix: (Units=1/GPa)
#
#
# Indices 1 2 3 4 5 6 
#
# 1 0.010432 -0.008224 -0.002352 -0.004414 -0.006699 -0.002688
# 2 -0.008224 0.031098 0.000555 0.021189 -0.002848 0.000803
# 3 -0.002352 0.000555 0.009424 0.005599 -0.001129 -0.002373
# 4 -0.004414 0.021189 0.005599 0.039187 -0.010271 -0.001216
# 5 -0.006699 -0.002848 -0.001129 -0.010271 0.032025 0.004726
# 6 -0.002688 0.000803 -0.002373 -0.001216 0.004726 0.021025
#
#
# Mechanical properties :
#
#
# Convention : Reuss Voigt Hill
#
# Bulk Modulus (GPa) = 32.34895 73.28372 52.81634
# Shear Modulus (GPa) = 28.81262 46.03409 37.42335
#
# Velocity S-wave (km/s) = 3.50691 4.43274 3.99672
# Velocity P-wave (km/s) = 5.49597 7.58152 6.62137
#
# Compressibility (1/GPa) = 0.03091290
#
# Stress axis : x y z
#
# Youngs Moduli (GPa) = 95.86207 32.15643 106.11722
#
# Poissons Ratio (x) = 0.26445 0.24956
# Poissons Ratio (y) = 0.78835 -0.05893
# Poissons Ratio (z) = 0.22544 -0.01786
#
# Static dielectric constant tensor:
#      x y z
#    x 1.912420 0.019760 -0.001330 
#    y 0.019760 1.947900 0.029850 
#    z -0.001330 0.029850 1.903870 
# 
# From -- ./inp_files/173616.got.cif
#   From: 2010.05.17/outbox.cif.g08.bks.cpg/sg2_87_cif.got.tgz:173616.got - 2010.06.03 11:33:40.
