data_PCOD9070308
_publ_section_title
;
Structure prediction by ZEFSAII (Michael W. Deem and Ramdas Pophale) SiO2 
 PCOD9070308
Probable space group: P -1
;
_chemical_formula_sum "Si O2"
_cell_formula_units_Z 14
_cell_length_a 11.999989
_cell_length_b 7.891219
_cell_length_c 13.394167
_cell_angle_alpha 33.356513
_cell_angle_beta 128.604497
_cell_angle_gamma 117.706570
_cell_volume 540.315116
_symmetry_space_group_name_H-M "P -1"
_symmetry_group_IT_number 2
_symmetry_cell_setting 'triclinic'
loop_
_space_group_symop_operation_xyz
x,y,z
-x,-y,-z
loop_
_atom_site_type_symbol
_atom_site_label
_atom_site_fract_x
_atom_site_fract_y
_atom_site_fract_z
Si Si1 0.039900 0.689188 0.526000
Si Si2 0.206507 0.279863 0.993934
Si Si3 0.021967 0.161465 0.134577
Si Si4 0.724462 0.273694 0.828032
Si Si5 0.465935 0.649038 0.624315
Si Si6 0.741022 0.675015 0.456647
Si Si7 0.434522 0.667230 0.978708
O O1 0.131763 0.504248 0.754934
O O2 0.000000 0.500000 0.500000
O O3 0.885196 0.787796 0.440838
O O4 0.102844 0.961517 0.367770
O O5 0.097086 0.145686 0.075705
O O6 0.297328 0.485607 0.011776
O O7 0.305560 0.006097 0.124852
O O8 0.000000 0.500000 0.000000
O O9 0.856513 0.109839 0.047971
O O10 0.596837 0.464160 0.724594
O O11 0.774517 0.528014 0.655810
O O12 0.322896 0.593625 0.510863
O O13 0.457216 0.434377 0.822237
O O14 0.500000 0.000000 0.500000
O O15 0.620645 0.973462 0.242097
O O16 0.500000 0.500000 0.000000
#
# Coordination Sequence:
#
# PCOD9070308 Si02
#       7
#     2   2   2   2   2   2   2
#     4  12  26  44  77 112 147 202 246 310 379 438
#     4  12  26  50  74 112 158 194 254 307 376 455
#     4  12  26  45  73 112 157 198 250 305 375 453
#     4  12  24  47  73 108 146 196 247 311 376 443
#     4  12  27  50  75 106 146 200 253 309 384 448
#     4  12  26  46  76 109 148 193 254 310 375 449
#     4  12  28  48  73 109 147 197 253 314 368 446
#
# _framework density 25.910806000000001
#
# number of rings (size 3 to 8) (size 9 to 14) (size 15 to 20)
#    0.000    0.000    2.857    7.286    4.000    2.286 
#    0.000    0.000    0.000    0.000    0.000    0.000 
#    0.000    0.000    0.000    0.000    0.000    0.000 
#
# Total GULP energy -78366.749845 kJ/mol
# GULP energy per Si atom -5597.624989 kJ/mol
# Density = 2.585183 g / cm^3
# Si number density = 25.910806 Si / 1000 Ang^3
#
#
#
# Elastic Constant Matrix: (Units=GPa)
#
#
# Indices 1 2 3 4 5 6 
#
# 1 132.2226 -1.9063 44.1278 -2.0588 -3.8774 -28.9719
# 2 -1.9063 94.7338 16.7184 -15.6120 11.0088 -11.5131
# 3 44.1278 16.7184 181.9481 1.0589 -17.1930 -24.7392
# 4 -2.0588 -15.6120 1.0589 54.2107 -14.3211 3.6010
# 5 -3.8774 11.0088 -17.1930 -14.3211 45.4868 2.7703
# 6 -28.9719 -11.5131 -24.7392 3.6010 2.7703 38.0727
#
#
#
# Elastic Compliance Matrix: (Units=1/GPa)
#
#
# Indices 1 2 3 4 5 6 
#
# 1 0.009564 0.001373 -0.001582 0.000227 -0.000450 0.006676
# 2 0.001373 0.011992 -0.001176 0.002571 -0.002655 0.003857
# 3 -0.001582 -0.001176 0.006565 -0.000045 0.002463 0.002531
# 4 0.000227 0.002571 -0.000045 0.020894 0.006050 -0.001495
# 5 -0.000450 -0.002655 0.002463 0.006050 0.025545 -0.001976
# 6 0.006676 0.003857 0.002531 -0.001495 -0.001976 0.034442
#
#
# Mechanical properties :
#
#
# Convention : Reuss Voigt Hill
#
# Bulk Modulus (GPa) = 39.44733 58.53158 48.98946
# Shear Modulus (GPa) = 41.58949 50.88502 46.23725
#
# Velocity S-wave (km/s) = 4.01072 4.43635 4.22889
# Velocity P-wave (km/s) = 6.05848 6.99144 6.54161
#
# Compressibility (1/GPa) = 0.02535026
#
# Stress axis : x y z
#
# Youngs Moduli (GPa) = 104.55978 83.38838 152.32334
#
# Poissons Ratio (x) = -0.11447 0.24093
# Poissons Ratio (y) = -0.14353 0.17918
# Poissons Ratio (z) = 0.16538 0.09809
#
# Static dielectric constant tensor:
#      x y z
#    x 1.720910 -0.838080 -0.052410 
#    y -0.838080 -0.006720 0.024580 
#    z -0.052410 0.024580 2.100990 
# 
# From -- ./inp_files/185512.got.cif
#   From: 2010.05.17/outbox.cif.g08.bks.cpg/sg2_93_cif.got.tgz:185512.got - 2010.06.03 11:33:40.
