data_PCOD9070490
_publ_section_title
;
Structure prediction by ZEFSAII (Michael W. Deem and Ramdas Pophale) SiO2 
 PCOD9070490
Probable space group: P -1
;
_chemical_formula_sum "Si O2"
_cell_formula_units_Z 16
_cell_length_a 8.960389
_cell_length_b 8.751528
_cell_length_c 12.247869
_cell_angle_alpha 94.677337
_cell_angle_beta 133.444205
_cell_angle_gamma 98.692792
_cell_volume 665.898362
_symmetry_space_group_name_H-M "P -1"
_symmetry_group_IT_number 2
_symmetry_cell_setting 'triclinic'
loop_
_space_group_symop_operation_xyz
x,y,z
-x,-y,-z
loop_
_atom_site_type_symbol
_atom_site_label
_atom_site_fract_x
_atom_site_fract_y
_atom_site_fract_z
Si Si1 0.500390 0.044440 0.632829
Si Si2 0.086716 0.166045 0.425371
Si Si3 0.471852 0.395941 0.091531
Si Si4 0.084700 0.851326 0.014468
Si Si5 0.212244 0.478535 0.153371
Si Si6 0.741119 0.507993 0.589651
Si Si7 0.274999 0.031023 0.914859
Si Si8 0.251372 0.729798 0.613242
O O1 0.309948 0.127761 0.558028
O O2 0.731947 0.146935 0.802876
O O3 0.500000 0.000000 0.500000
O O4 0.428694 0.885863 0.664168
O O5 0.142219 0.312814 0.377047
O O6 0.906400 0.018146 0.272537
O O7 0.964764 0.222912 0.467065
O O8 0.395225 0.497499 0.155482
O O9 0.671016 0.345498 0.243628
O O10 0.500000 0.500000 0.000000
O O11 0.310651 0.217262 0.976627
O O12 0.201559 0.895976 0.962225
O O13 0.866630 0.711284 0.879653
O O14 0.000000 0.000000 0.000000
O O15 0.207598 0.555459 0.273130
O O16 0.000000 0.500000 0.000000
O O17 0.500000 0.500000 0.500000
O O18 0.771406 0.398914 0.500281
O O19 0.500000 0.000000 0.000000
#
# Coordination Sequence:
#
# PCOD9070490 Si02
#       8
#     2   2   2   2   2   2   2   2
#     4  12  27  46  80 116 156 204 262 326 400 469
#     4  12  27  49  77 117 157 207 261 323 401 473
#     4  12  28  51  79 117 159 206 262 329 401 476
#     4  12  24  49  78 107 150 202 263 328 381 462
#     4  12  29  47  77 114 152 206 273 321 394 470
#     4  12  27  50  78 108 161 212 259 330 397 463
#     4  12  24  48  82 109 152 206 262 322 390 468
#     4  12  26  53  74 114 161 206 260 329 398 469
#
# _framework density 24.027691999999998
#
# number of rings (size 3 to 8) (size 9 to 14) (size 15 to 20)
#    0.000    0.000    6.250    2.250    7.000    0.000 
#    4.500    0.000    0.000    0.000    0.000    0.000 
#    0.000    0.000    0.000    0.000    0.000    0.000 
#
# Total GULP energy -89323.295875 kJ/mol
# GULP energy per Si atom -5582.705992 kJ/mol
# Density = 2.397300 g / cm^3
# Si number density = 24.027692 Si / 1000 Ang^3
#
#
#
# Elastic Constant Matrix: (Units=GPa)
#
#
# Indices 1 2 3 4 5 6 
#
# 1 134.3003 19.2182 41.0027 -6.7888 -11.5332 -3.8015
# 2 19.2182 86.6623 28.4657 -8.0302 -16.9962 6.5237
# 3 41.0027 28.4657 136.3990 -12.9222 -11.8764 -13.9952
# 4 -6.7888 -8.0302 -12.9222 43.3745 -1.3206 -4.2717
# 5 -11.5332 -16.9962 -11.8764 -1.3206 40.3682 -9.6737
# 6 -3.8015 6.5237 -13.9952 -4.2717 -9.6737 51.3781
#
#
#
# Elastic Compliance Matrix: (Units=1/GPa)
#
#
# Indices 1 2 3 4 5 6 
#
# 1 0.008388 -0.000844 -0.002098 0.000629 0.001565 0.000503
# 2 -0.000844 0.013599 -0.002161 0.001746 0.004577 -0.001371
# 3 -0.002098 -0.002161 0.009141 0.002370 0.002021 0.003187
# 4 0.000629 0.001746 0.002370 0.024585 0.003162 0.003110
# 5 0.001565 0.004577 0.002021 0.003162 0.029247 0.005855
# 6 0.000503 -0.001371 0.003187 0.003110 0.005855 0.021904
#
#
# Mechanical properties :
#
#
# Convention : Reuss Voigt Hill
#
# Bulk Modulus (GPa) = 47.79705 59.41499 53.60602
# Shear Modulus (GPa) = 40.30884 44.93581 42.62233
#
# Velocity S-wave (km/s) = 4.10029 4.32924 4.21632
# Velocity P-wave (km/s) = 6.50786 7.05486 6.78687
#
# Compressibility (1/GPa) = 0.02092179
#
# Stress axis : x y z
#
# Youngs Moduli (GPa) = 119.22293 73.53682 109.40269
#
# Poissons Ratio (x) = 0.06204 0.22951
# Poissons Ratio (y) = 0.10058 0.23642
# Poissons Ratio (z) = 0.25011 0.15892
#
# Static dielectric constant tensor:
#      x y z
#    x 1.843040 0.010020 -0.023530 
#    y 0.010020 1.906060 0.022250 
#    z -0.023530 0.022250 1.924590 
# 
# From -- ./inp_files/382785.got.cif
#   From: 2010.05.17/outbox.cif.g08.bks.cpg/sg2_192_cif.got.tgz:382785.got - 2010.06.03 11:33:40.
