data_PCOD9070596
_publ_section_title
;
Structure prediction by ZEFSAII (Michael W. Deem and Ramdas Pophale) SiO2 
 PCOD9070596
Probable space group: P -1
;
_chemical_formula_sum "Si O2"
_cell_formula_units_Z 16
_cell_length_a 19.796788
_cell_length_b 14.697239
_cell_length_c 9.372696
_cell_angle_alpha 135.604857
_cell_angle_beta 133.566878
_cell_angle_gamma 19.491606
_cell_volume 635.166882
_symmetry_space_group_name_H-M "P -1"
_symmetry_group_IT_number 2
_symmetry_cell_setting 'triclinic'
loop_
_space_group_symop_operation_xyz
x,y,z
-x,-y,-z
loop_
_atom_site_type_symbol
_atom_site_label
_atom_site_fract_x
_atom_site_fract_y
_atom_site_fract_z
Si Si1 0.014414 0.844681 0.083564
Si Si2 0.628453 0.905633 0.951984
Si Si3 0.824929 0.086311 0.529896
Si Si4 0.791160 0.447837 0.688370
Si Si5 0.373726 0.036839 0.291439
Si Si6 0.908697 0.705744 0.350475
Si Si7 0.268000 0.964902 0.283371
Si Si8 0.386017 0.593865 0.686512
O O1 0.143363 0.601185 0.111318
O O2 0.796696 0.147547 0.181580
O O3 0.145555 0.815051 0.230405
O O4 0.944643 0.840023 0.849325
O O5 0.725449 0.655962 0.744816
O O6 0.552311 0.074983 0.890783
O O7 0.798481 0.776314 0.135513
O O8 0.500000 0.000000 0.000000
O O9 0.875793 0.899731 0.489333
O O10 0.014122 0.856010 0.439497
O O11 0.646483 0.287941 0.376719
O O12 0.630114 0.533759 0.542235
O O13 0.133871 0.371250 0.317936
O O14 0.500000 0.000000 0.500000
O O15 0.381389 0.895200 0.237722
O O16 0.784580 0.850681 0.479728
O O17 0.408502 0.676159 0.229440
#
# Coordination Sequence:
#
# PCOD9070596 Si02
#       8
#     2   2   2   2   2   2   2   2
#     4   9  20  37  66  94 126 180 218 273 333 391
#     4  12  25  44  72 101 130 178 233 277 333 406
#     4   9  20  39  68  96 128 179 228 269 326 398
#     4   9  17  38  66  90 124 169 224 266 324 393
#     4  12  27  45  69 100 139 179 221 283 347 395
#     4  12  26  44  68 100 138 182 228 271 334 411
#     4  12  25  41  65 100 143 172 217 282 339 397
#     4   9  19  38  65  95 126 175 219 273 326 393
#
# _framework density 25.19023
#
# number of rings (size 3 to 8) (size 9 to 14) (size 15 to 20)
#    0.000    1.500    1.250    5.625    5.250    2.000 
#    0.000    0.000    0.000    0.000    0.000    0.000 
#    0.000    0.000    0.000    0.000    0.000    0.000 
#
# Total GULP energy -89280.959206 kJ/mol
# GULP energy per Si atom -5580.059950 kJ/mol
# Density = 2.513290 g / cm^3
# Si number density = 25.190230 Si / 1000 Ang^3
#
#
#
# Elastic Constant Matrix: (Units=GPa)
#
#
# Indices 1 2 3 4 5 6 
#
# 1 50.1362 23.3001 1.4776 3.9292 -4.6567 -19.0383
# 2 23.3001 66.2466 6.8171 -9.5180 -8.4079 5.7397
# 3 1.4776 6.8171 89.4067 -25.2233 -1.3806 -7.8682
# 4 3.9292 -9.5180 -25.2233 43.3914 -3.9970 4.1461
# 5 -4.6567 -8.4079 -1.3806 -3.9970 37.5291 10.7718
# 6 -19.0383 5.7397 -7.8682 4.1461 10.7718 8.9886
#
#
#
# Elastic Compliance Matrix: (Units=1/GPa)
#
#
# Indices 1 2 3 4 5 6 
#
# 1 -0.011187 0.014532 -0.003527 0.010678 0.022315 -0.067730
# 2 0.014532 0.003893 0.001950 -0.004590 -0.010610 0.044833
# 3 -0.003527 0.001950 0.013322 0.009194 0.002805 -0.004655
# 4 0.010678 -0.004590 0.009194 0.023130 -0.005308 0.029288
# 5 0.022315 -0.010610 0.002805 -0.005308 0.014721 0.041302
# 6 -0.067730 0.044833 -0.004655 0.029288 0.041302 -0.127911
#
#
# Mechanical properties :
#
#
# Convention : Reuss Voigt Hill
#
# Bulk Modulus (GPa) = 31.31051 29.88656 30.59854
# Shear Modulus (GPa) = -50.35351 29.59480 -10.37936
#
# Velocity S-wave (km/s) = -4.47579 3.43133 -2.03208
# Velocity P-wave (km/s) = 3.77540 5.25250 2.58217
#
# Compressibility (1/GPa) = 0.03193815
#
# Stress axis : x y z
#
# Youngs Moduli (GPa) = -89.38687 256.88471 75.06425
#
# Poissons Ratio (x) = -3.73310 0.26473
# Poissons Ratio (y) = 1.29899 -0.14636
# Poissons Ratio (z) = -0.31524 -0.50088
#
# Static dielectric constant tensor:
#      x y z
#    x 2.061240 0.002130 -0.109980 
#    y 0.002130 2.378370 -0.036540 
#    z -0.109980 -0.036540 2.086060 
# 
# From -- ./inp_files/347691.got.cif
#   From: 2010.05.17/outbox.cif.g08.bks.cpg/sg2_174_cif.got.tgz:347691.got - 2010.06.03 11:33:40.
