data_PCOD9070541
_publ_section_title
;
Structure prediction by ZEFSAII (Michael W. Deem and Ramdas Pophale) SiO2 
 PCOD9070541
Probable space group: P -1
;
_chemical_formula_sum "Si O2"
_cell_formula_units_Z 9
_cell_length_a 12.024368
_cell_length_b 8.537332
_cell_length_c 11.973562
_cell_angle_alpha 145.400452
_cell_angle_beta 38.802417
_cell_angle_gamma 120.698052
_cell_volume 406.664393
_symmetry_space_group_name_H-M "P -1"
_symmetry_group_IT_number 2
_symmetry_cell_setting 'triclinic'
loop_
_space_group_symop_operation_xyz
x,y,z
-x,-y,-z
loop_
_atom_site_type_symbol
_atom_site_label
_atom_site_fract_x
_atom_site_fract_y
_atom_site_fract_z
Si Si1 0.814407 0.721034 0.335565
Si Si2 0.546568 0.684183 0.337424
Si Si3 0.307339 0.295199 0.327767
Si Si4 0.285838 0.601589 0.177983
Si Si5 0.000000 0.500000 0.500000
O O1 0.635930 0.693691 0.392675
O O2 0.789911 0.672921 0.456662
O O3 0.809956 0.051948 0.517681
O O4 0.000000 0.500000 0.000000
O O5 0.370817 0.575630 0.420502
O O6 0.500000 0.000000 0.500000
O O7 0.696577 0.456258 0.001649
O O8 0.159216 0.304550 0.353266
O O9 0.500000 0.000000 0.000000
O O10 0.169785 0.434825 0.234215
O O11 0.500000 0.500000 0.000000
#
# Coordination Sequence:
#
# PCOD9070541 Si02
#       5
#     2   2   2   2   1
#     4  12  27  46  75 115 150 199 262 318 386 461
#     4  12  25  47  78 107 153 200 257 314 380 459
#     4  12  26  49  78 112 154 209 255 319 393 459
#     4  12  24  50  73 112 156 202 255 321 384 460
#     4  12  26  44  82 106 150 206 252 312 398 448
#
# _framework density 22.131271000000002
#
# number of rings (size 3 to 8) (size 9 to 14) (size 15 to 20)
#    0.000    0.000    6.667    2.000    3.111    3.556 
#    0.000    4.444    0.000    0.000    0.000    0.000 
#    0.000    0.000    0.000    0.000    0.000    0.000 
#
# Total GULP energy -50126.761777 kJ/mol
# GULP energy per Si atom -5569.640197 kJ/mol
# Density = 2.208090 g / cm^3
# Si number density = 22.131271 Si / 1000 Ang^3
#
#
#
# Elastic Constant Matrix: (Units=GPa)
#
#
# Indices 1 2 3 4 5 6 
#
# 1 110.0907 14.2975 32.4365 -4.9523 -9.9757 -36.9676
# 2 14.2975 82.0510 25.0599 -16.7937 -2.0100 -19.3663
# 3 32.4365 25.0599 132.7797 3.6331 -3.5123 -16.9541
# 4 -4.9523 -16.7937 3.6331 47.6288 -3.5358 10.9406
# 5 -9.9757 -2.0100 -3.5123 -3.5358 43.3567 -8.3343
# 6 -36.9676 -19.3663 -16.9541 10.9406 -8.3343 40.7738
#
#
#
# Elastic Compliance Matrix: (Units=1/GPa)
#
#
# Indices 1 2 3 4 5 6 
#
# 1 0.015001 0.001488 -0.001844 -0.000763 0.006195 0.015012
# 2 0.001488 0.015248 -0.002404 0.004305 0.002543 0.006956
# 3 -0.001844 -0.002404 0.008674 -0.001999 0.000270 0.001385
# 4 -0.000763 0.004305 -0.001999 0.023963 0.000708 -0.005764
# 5 0.006195 0.002543 0.000270 0.000708 0.027047 0.012275
# 6 0.015012 0.006956 0.001385 -0.005764 0.012275 0.046072
#
#
# Mechanical properties :
#
#
# Convention : Reuss Voigt Hill
#
# Bulk Modulus (GPa) = 29.93646 52.05658 40.99652
# Shear Modulus (GPa) = 32.75280 43.22702 37.98991
#
# Velocity S-wave (km/s) = 3.85116 4.42431 4.14765
# Velocity P-wave (km/s) = 5.77334 7.04785 6.44219
#
# Compressibility (1/GPa) = 0.03340409
#
# Stress axis : x y z
#
# Youngs Moduli (GPa) = 66.66061 65.58363 115.28684
#
# Poissons Ratio (x) = -0.09758 0.21258
# Poissons Ratio (y) = -0.09919 0.27709
# Poissons Ratio (z) = 0.12291 0.15763
#
# Static dielectric constant tensor:
#      x y z
#    x 1.833750 0.027420 0.013500 
#    y 0.027420 1.828210 0.016160 
#    z 0.013500 0.016160 1.811580 
# 
# From -- ./inp_files/16684.got.cif
#   From: 2010.05.17/outbox.cif.g08.bks.cpg/sg2_9_cif.got.tgz:16684.got - 2010.06.03 11:33:40.
