data_PCOD9070049
_publ_section_title
;
Structure prediction by ZEFSAII (Michael W. Deem and Ramdas Pophale) SiO2 
 PCOD9070049
Probable space group: P -1
;
_chemical_formula_sum "Si O2"
_cell_formula_units_Z 16
_cell_length_a 11.678624
_cell_length_b 12.723507
_cell_length_c 8.784931
_cell_angle_alpha 100.609200
_cell_angle_beta 86.055861
_cell_angle_gamma 147.554387
_cell_volume 679.020130
_symmetry_space_group_name_H-M "P -1"
_symmetry_group_IT_number 2
_symmetry_cell_setting 'triclinic'
loop_
_space_group_symop_operation_xyz
x,y,z
-x,-y,-z
loop_
_atom_site_type_symbol
_atom_site_label
_atom_site_fract_x
_atom_site_fract_y
_atom_site_fract_z
Si Si1 0.037222 0.139809 0.619043
Si Si2 0.543573 0.590664 0.178423
Si Si3 0.256772 0.433483 0.399279
Si Si4 0.147594 0.773851 0.745868
Si Si5 0.788196 0.239214 0.608352
Si Si6 0.572006 0.855198 0.636326
Si Si7 0.214756 0.613654 0.849987
Si Si8 0.570224 0.251242 0.818853
O O1 0.221257 0.262269 0.756018
O O2 0.127062 0.289062 0.519057
O O3 0.000000 0.000000 0.500000
O O4 0.811326 0.997661 0.672273
O O5 0.384632 0.442617 0.297332
O O6 0.507390 0.689563 0.190395
O O7 0.500000 0.500000 0.000000
O O8 0.430887 0.658621 0.500619
O O9 0.076249 0.339320 0.277062
O O10 0.161586 0.724569 0.566467
O O11 0.169004 0.703594 0.857004
O O12 0.349202 0.011842 0.805594
O O13 0.374277 0.986735 0.400775
O O14 0.689982 0.272662 0.686893
O O15 0.007628 0.396854 0.729432
O O16 0.430841 0.761343 0.773439
O O17 0.271168 0.625354 0.017768
#
# Coordination Sequence:
#
# PCOD9070049 Si02
#       8
#     2   2   2   2   2   2   2   2
#     4  12  26  50  81 109 145 203 260 309 366 438
#     4  12  30  49  76 108 152 201 255 311 373 434
#     4  12  26  50  81 113 150 194 256 318 370 444
#     4  12  24  44  78 117 146 197 248 306 381 455
#     4  12  25  46  79 111 155 195 252 305 380 457
#     4  12  25  45  82 111 151 192 255 308 381 439
#     4  12  27  45  74 113 159 199 240 303 387 451
#     4  12  28  50  72 110 162 200 246 310 379 452
#
# _framework density 23.563365999999998
#
# number of rings (size 3 to 8) (size 9 to 14) (size 15 to 20)
#    0.000    0.000    5.000    4.125    5.250    1.000 
#    0.000    1.875    0.000    0.000    0.000    0.000 
#    0.000    0.000    0.000    0.000    0.000    0.000 
#
# Total GULP energy -89650.294674 kJ/mol
# GULP energy per Si atom -5603.143417 kJ/mol
# Density = 2.350973 g / cm^3
# Si number density = 23.563366 Si / 1000 Ang^3
#
#
#
# Elastic Constant Matrix: (Units=GPa)
#
#
# Indices 1 2 3 4 5 6 
#
# 1 116.0742 41.6416 25.1401 2.0500 7.4707 26.2570
# 2 41.6416 134.2201 25.1923 12.2371 0.0762 26.5384
# 3 25.1401 25.1923 84.5645 8.8232 19.0703 13.5993
# 4 2.0500 12.2371 8.8232 32.5120 10.1877 4.9200
# 5 7.4707 0.0762 19.0703 10.1877 40.6060 6.7836
# 6 26.2570 26.5384 13.5993 4.9200 6.7836 57.1509
#
#
#
# Elastic Compliance Matrix: (Units=1/GPa)
#
#
# Indices 1 2 3 4 5 6 
#
# 1 0.010686 -0.002442 -0.001865 0.001545 -0.000912 -0.003356
# 2 -0.002442 0.009416 -0.001869 -0.003270 0.002603 -0.002833
# 3 -0.001865 -0.001869 0.014568 -0.001091 -0.006066 -0.000928
# 4 0.001545 -0.003270 -0.001091 0.034956 -0.008378 -0.000947
# 5 -0.000912 0.002603 -0.006066 -0.008378 0.030108 -0.002199
# 6 -0.003356 -0.002833 -0.000928 -0.000947 -0.002199 0.020918
#
#
# Mechanical properties :
#
#
# Convention : Reuss Voigt Hill
#
# Bulk Modulus (GPa) = 44.80963 57.64520 51.22742
# Shear Modulus (GPa) = 35.60173 42.24610 38.92392
#
# Velocity S-wave (km/s) = 3.89124 4.23883 4.06875
# Velocity P-wave (km/s) = 6.26474 6.96232 6.62272
#
# Compressibility (1/GPa) = 0.02231663
#
# Stress axis : x y z
#
# Youngs Moduli (GPa) = 93.58165 106.20571 68.64528
#
# Poissons Ratio (x) = 0.25935 0.12802
# Poissons Ratio (y) = 0.22852 0.12832
# Poissons Ratio (z) = 0.17453 0.19853
#
# Static dielectric constant tensor:
#      x y z
#    x 1.896510 -0.013410 0.008300 
#    y -0.013410 1.921150 -0.033650 
#    z 0.008300 -0.033650 1.854540 
# 
# From -- ./inp_files/273415.got.cif
#   From: 2010.05.17/outbox.cif.g08.bks.cpg/sg2_137_cif.got.tgz:273415.got - 2010.06.03 11:33:40.
