data_PCOD9070116
_publ_section_title
;
Structure prediction by ZEFSAII (Michael W. Deem and Ramdas Pophale) SiO2 
 PCOD9070116
Probable space group: P -1
;
_chemical_formula_sum "Si O2"
_cell_formula_units_Z 16
_cell_length_a 18.402100
_cell_length_b 9.144223
_cell_length_c 20.867451
_cell_angle_alpha 38.095369
_cell_angle_beta 21.988758
_cell_angle_gamma 35.137830
_cell_volume 749.965041
_symmetry_space_group_name_H-M "P -1"
_symmetry_group_IT_number 2
_symmetry_cell_setting 'triclinic'
loop_
_space_group_symop_operation_xyz
x,y,z
-x,-y,-z
loop_
_atom_site_type_symbol
_atom_site_label
_atom_site_fract_x
_atom_site_fract_y
_atom_site_fract_z
Si Si1 0.311663 0.114131 0.665524
Si Si2 0.553658 0.389999 0.193514
Si Si3 0.880124 0.837505 0.623207
Si Si4 0.864060 0.352755 0.633368
Si Si5 0.545714 0.759848 0.191127
Si Si6 0.096806 0.030135 0.164671
Si Si7 0.077006 0.702296 0.171329
Si Si8 0.337756 0.613024 0.535890
O O1 0.289828 0.384363 0.619921
O O2 0.103009 0.157471 0.781169
O O3 0.500000 0.000000 0.500000
O O4 0.365277 0.904235 0.749736
O O5 0.323934 0.490355 0.314578
O O6 0.562608 0.548716 0.195476
O O7 0.708170 0.408626 0.005661
O O8 0.952913 0.545938 0.688216
O O9 0.955025 0.849465 0.486299
O O10 0.631667 0.980819 0.781307
O O11 0.000000 0.000000 0.500000
O O12 0.000000 0.500000 0.500000
O O13 0.789400 0.211840 0.798073
O O14 0.453380 0.706004 0.352408
O O15 0.760893 0.801178 0.012443
O O16 0.872260 0.190481 0.325535
O O17 0.075926 0.902809 0.158178
O O18 0.500000 0.500000 0.500000
#
# Coordination Sequence:
#
# PCOD9070116 Si02
#       8
#     2   2   2   2   2   2   2   2
#     4  12  25  49  77 102 146 195 246 296 367 438
#     4  12  28  47  73 108 147 194 247 301 368 439
#     4  12  24  45  76 106 143 192 245 302 370 431
#     4  12  26  45  77 106 147 192 242 305 368 436
#     4  12  27  48  75 110 148 193 245 307 367 438
#     4  12  29  47  75 112 149 193 246 305 371 433
#     4  12  28  47  72 109 151 192 245 302 365 443
#     4  12  28  49  77 107 148 194 245 306 363 437
#
# _framework density 21.334329
#
# number of rings (size 3 to 8) (size 9 to 14) (size 15 to 20)
#    0.000    0.000    5.000    4.125    7.000    2.500 
#    0.000    0.000    0.000    0.000    0.000    0.000 
#    0.000    0.000    0.000    0.000    0.000    0.000 
#
# Total GULP energy -89420.556758 kJ/mol
# GULP energy per Si atom -5588.784797 kJ/mol
# Density = 2.128577 g / cm^3
# Si number density = 21.334329 Si / 1000 Ang^3
#
#
#
# Elastic Constant Matrix: (Units=GPa)
#
#
# Indices 1 2 3 4 5 6 
#
# 1 126.6747 60.8232 71.2944 -11.5516 5.0568 21.6387
# 2 60.8232 74.7810 46.8737 6.3898 -10.2096 0.2052
# 3 71.2944 46.8737 149.8864 4.8443 -3.2275 1.4976
# 4 -11.5516 6.3898 4.8443 35.7208 7.4164 5.7098
# 5 5.0568 -10.2096 -3.2275 7.4164 28.3179 -4.2580
# 6 21.6387 0.2052 1.4976 5.7098 -4.2580 49.6270
#
#
#
# Elastic Compliance Matrix: (Units=1/GPa)
#
#
# Indices 1 2 3 4 5 6 
#
# 1 0.030329 -0.025067 -0.007677 0.023139 -0.024037 -0.017614
# 2 -0.025067 0.038794 0.000970 -0.023309 0.027045 0.015742
# 3 -0.007677 0.000970 0.010272 -0.005750 0.005018 0.004125
# 4 0.023139 -0.023309 -0.005750 0.049277 -0.028797 -0.017960
# 5 -0.024037 0.027045 0.005018 -0.028797 0.060282 0.018703
# 6 -0.017614 0.015742 0.004125 -0.017960 0.018703 0.031312
#
#
# Mechanical properties :
#
#
# Convention : Reuss Voigt Hill
#
# Bulk Modulus (GPa) = 63.10035 78.81386 70.95710
# Shear Modulus (GPa) = 17.29526 34.22318 25.75922
#
# Velocity S-wave (km/s) = 2.85033 4.00951 3.47855
# Velocity P-wave (km/s) = 6.36189 7.64574 7.03317
#
# Compressibility (1/GPa) = 0.01584777
#
# Stress axis : x y z
#
# Youngs Moduli (GPa) = 32.97157 25.77743 97.34747
#
# Poissons Ratio (x) = 0.64616 0.74729
# Poissons Ratio (y) = 0.82650 -0.09441
# Poissons Ratio (z) = 0.25311 -0.02500
#
# Static dielectric constant tensor:
#      x y z
#    x 1.796870 -0.061870 0.014850 
#    y -0.061870 2.049530 0.008930 
#    z 0.014850 0.008930 1.808850 
# 
# From -- ./inp_files/274121.got.cif
#   From: 2010.05.17/outbox.cif.g08.bks.cpg/sg2_138_cif.got.tgz:274121.got - 2010.06.03 11:33:40.
