data_PCOD9070597
_publ_section_title
;
Structure prediction by ZEFSAII (Michael W. Deem and Ramdas Pophale) SiO2 
 PCOD9070597
Probable space group: P -1
;
_chemical_formula_sum "Si O2"
_cell_formula_units_Z 16
_cell_length_a 11.291902
_cell_length_b 9.188567
_cell_length_c 20.697164
_cell_angle_alpha 104.978610
_cell_angle_beta 160.800857
_cell_angle_gamma 75.475480
_cell_volume 682.051494
_symmetry_space_group_name_H-M "P -1"
_symmetry_group_IT_number 2
_symmetry_cell_setting 'triclinic'
loop_
_space_group_symop_operation_xyz
x,y,z
-x,-y,-z
loop_
_atom_site_type_symbol
_atom_site_label
_atom_site_fract_x
_atom_site_fract_y
_atom_site_fract_z
Si Si1 0.507560 0.321954 0.978400
Si Si2 0.263134 0.655280 0.043639
Si Si3 0.269523 0.884572 0.826198
Si Si4 0.683391 0.243953 0.779956
Si Si5 0.529778 0.028480 0.442385
Si Si6 0.437060 0.550190 0.636421
Si Si7 0.528071 0.655027 0.829800
Si Si8 0.709387 0.354748 0.560925
O O1 0.627831 0.282396 0.962870
O O2 0.088827 0.297245 0.780794
O O3 0.500000 0.500000 0.000000
O O4 0.782851 0.244111 0.161416
O O5 0.366676 0.762762 0.169460
O O6 0.480133 0.498840 0.151841
O O7 0.840121 0.605063 0.827025
O O8 0.442608 0.796370 0.845893
O O9 0.937504 0.973250 0.634185
O O10 0.500000 0.000000 0.000000
O O11 0.430759 0.371199 0.628996
O O12 0.690609 0.086454 0.728139
O O13 0.061857 0.324498 0.977641
O O14 0.477826 0.204262 0.422722
O O15 0.500000 0.000000 0.500000
O O16 0.330459 0.633533 0.657402
O O17 0.196823 0.595748 0.457466
O O18 0.500000 0.500000 0.500000
#
# Coordination Sequence:
#
# PCOD9070597 Si02
#       8
#     2   2   2   2   2   2   2   2
#     4  12  25  41  67  96 128 169 216 261 312 381
#     4   9  19  40  68  97 128 166 214 257 311 380
#     4  12  25  44  62  93 133 172 209 261 324 373
#     4   9  20  41  69  97 126 167 210 261 318 375
#     4  12  27  43  64  95 131 169 211 266 322 378
#     4   9  20  40  69  95 126 168 212 261 311 376
#     4   9  19  41  67  94 129 169 211 256 315 380
#     4  12  27  44  64  95 129 166 216 266 318 380
#
# _framework density 23.458639000000002
#
# number of rings (size 3 to 8) (size 9 to 14) (size 15 to 20)
#    0.000    1.500    2.500    3.750    7.000    1.000 
#    2.250    5.000    0.000    0.000    0.000    0.000 
#    0.000    0.000    0.000    0.000    0.000    0.000 
#
# Total GULP energy -89348.290910 kJ/mol
# GULP energy per Si atom -5584.268182 kJ/mol
# Density = 2.340525 g / cm^3
# Si number density = 23.458639 Si / 1000 Ang^3
#
#
#
# Elastic Constant Matrix: (Units=GPa)
#
#
# Indices 1 2 3 4 5 6 
#
# 1 111.0181 39.6778 3.6740 -3.4250 -19.7422 -15.6045
# 2 39.6778 127.0585 13.4333 14.5854 -17.5746 -9.8412
# 3 3.6740 13.4333 46.5774 -0.8026 -3.8249 -2.2591
# 4 -3.4250 14.5854 -0.8026 38.1050 -2.4884 -6.4629
# 5 -19.7422 -17.5746 -3.8249 -2.4884 31.9729 1.3863
# 6 -15.6045 -9.8412 -2.2591 -6.4629 1.3863 33.6116
#
#
#
# Elastic Compliance Matrix: (Units=1/GPa)
#
#
# Indices 1 2 3 4 5 6 
#
# 1 0.011923 -0.002991 0.000712 0.003485 0.005852 0.005136
# 2 -0.002991 0.009959 -0.002431 -0.003851 0.003015 0.000499
# 3 0.000712 -0.002431 0.022366 0.001824 0.001861 0.001396
# 4 0.003485 -0.003851 0.001824 0.029259 0.002264 0.006146
# 5 0.005852 0.003015 0.001861 0.002264 0.036831 0.002641
# 6 0.005136 0.000499 0.001396 0.006146 0.002641 0.033449
#
#
# Mechanical properties :
#
#
# Convention : Reuss Voigt Hill
#
# Bulk Modulus (GPa) = 28.71249 44.24714 36.47982
# Shear Modulus (GPa) = 30.33645 35.92918 33.13282
#
# Velocity S-wave (km/s) = 3.59999 3.91781 3.76226
# Velocity P-wave (km/s) = 5.43564 6.27442 5.87003
#
# Compressibility (1/GPa) = 0.03482805
#
# Stress axis : x y z
#
# Youngs Moduli (GPa) = 83.87041 100.40864 44.70973
#
# Poissons Ratio (x) = 0.30037 -0.03183
# Poissons Ratio (y) = 0.25090 0.10869
# Poissons Ratio (z) = -0.05971 0.24409
#
# Static dielectric constant tensor:
#      x y z
#    x 1.929190 -0.050750 0.050360 
#    y -0.050750 1.929750 -0.069690 
#    z 0.050360 -0.069690 1.970950 
# 
# From -- ./inp_files/307204.got.cif
#   From: 2010.05.17/outbox.cif.g08.bks.cpg/sg2_154_cif.got.tgz:307204.got - 2010.06.03 11:33:40.
