data_PCOD9070638
_publ_section_title
;
Structure prediction by ZEFSAII (Michael W. Deem and Ramdas Pophale) SiO2 
 PCOD9070638
Probable space group: P -1
;
_chemical_formula_sum "Si O2"
_cell_formula_units_Z 15
_cell_length_a 20.275465
_cell_length_b 8.045132
_cell_length_c 9.155972
_cell_angle_alpha 32.287333
_cell_angle_beta 130.829331
_cell_angle_gamma 123.710473
_cell_volume 603.640522
_symmetry_space_group_name_H-M "P -1"
_symmetry_group_IT_number 2
_symmetry_cell_setting 'triclinic'
loop_
_space_group_symop_operation_xyz
x,y,z
-x,-y,-z
loop_
_atom_site_type_symbol
_atom_site_label
_atom_site_fract_x
_atom_site_fract_y
_atom_site_fract_z
Si Si1 0.754039 0.764711 0.727061
Si Si2 0.188936 0.731392 0.054150
Si Si3 0.559390 0.574988 0.667853
Si Si4 0.027392 0.646175 0.274308
Si Si5 0.488163 0.215999 0.084324
Si Si6 0.291875 0.333610 0.709250
Si Si7 0.216443 0.541687 0.722092
Si Si8 0.000000 0.500000 0.000000
O O1 0.797282 0.542965 0.837687
O O2 0.656488 0.647059 0.703466
O O3 0.760321 0.123112 0.426788
O O4 0.800372 0.707178 0.991738
O O5 0.259171 0.634984 0.351249
O O6 0.089498 0.714231 0.974818
O O7 0.219553 0.061524 0.789493
O O8 0.500000 0.500000 0.500000
O O9 0.519031 0.893060 0.436507
O O10 0.547428 0.296319 0.970722
O O11 0.130998 0.589125 0.467114
O O12 0.000000 0.500000 0.500000
O O13 0.993442 0.520972 0.160910
O O14 0.000000 0.000000 0.000000
O O15 0.500000 0.500000 0.000000
O O16 0.386668 0.213812 0.891286
O O17 0.291869 0.423274 0.812969
#
# Coordination Sequence:
#
# PCOD9070638 Si02
#       8
#     2   2   2   2   2   2   2   1
#     4  12  25  46  72 104 143 196 242 309 379 449
#     4  12  27  46  73 105 143 192 246 307 376 452
#     4  12  25  44  69 104 145 189 245 304 371 453
#     4  12  28  50  77 113 153 199 260 326 388 466
#     4  12  25  44  70 105 142 191 241 299 367 449
#     4  12  25  46  70 104 146 189 240 304 373 444
#     4  12  25  47  70 103 142 191 243 303 382 446
#     4  12  28  52  80 114 156 204 268 318 402 460
#
# _framework density 24.849226000000002
#
# number of rings (size 3 to 8) (size 9 to 14) (size 15 to 20)
#    0.000    0.000    1.333    9.600    1.867    2.133 
#    0.000    0.000    0.000    0.000    0.000    0.000 
#    0.000    0.000    0.000    0.000    0.000    0.000 
#
# Total GULP energy -83794.635663 kJ/mol
# GULP energy per Si atom -5586.309044 kJ/mol
# Density = 2.479267 g / cm^3
# Si number density = 24.849226 Si / 1000 Ang^3
#
#
#
# Elastic Constant Matrix: (Units=GPa)
#
#
# Indices 1 2 3 4 5 6 
#
# 1 97.5150 25.7573 11.5191 4.1324 -1.6393 12.1383
# 2 25.7573 82.8499 14.7543 4.2085 0.6093 3.6749
# 3 11.5191 14.7543 99.7919 -7.2508 -13.4463 0.6736
# 4 4.1324 4.2085 -7.2508 41.8570 -2.9042 0.5510
# 5 -1.6393 0.6093 -13.4463 -2.9042 42.3179 14.0555
# 6 12.1383 3.6749 0.6736 0.5510 14.0555 55.3284
#
#
#
# Elastic Compliance Matrix: (Units=1/GPa)
#
#
# Indices 1 2 3 4 5 6 
#
# 1 0.011594 -0.003323 -0.000748 -0.000833 0.001057 -0.002574
# 2 -0.003323 0.013509 -0.001861 -0.001428 -0.001058 0.000137
# 3 -0.000748 -0.001861 0.011106 0.002473 0.003991 -0.000886
# 4 -0.000833 -0.001428 0.002473 0.024741 0.002700 -0.000685
# 5 0.001057 -0.001058 0.003991 0.002700 0.027543 -0.007234
# 6 -0.002574 0.000137 -0.000886 -0.000685 -0.007234 0.020485
#
#
# Mechanical properties :
#
#
# Convention : Reuss Voigt Hill
#
# Bulk Modulus (GPa) = 41.07489 42.69092 41.88290
# Shear Modulus (GPa) = 38.77297 43.10907 40.94102
#
# Velocity S-wave (km/s) = 3.95439 4.16964 4.06344
# Velocity P-wave (km/s) = 6.11679 6.35598 6.23753
#
# Compressibility (1/GPa) = 0.02434578
#
# Stress axis : x y z
#
# Youngs Moduli (GPa) = 86.24936 74.02667 90.04381
#
# Poissons Ratio (x) = 0.24597 0.06733
# Poissons Ratio (y) = 0.28658 0.16757
# Poissons Ratio (z) = 0.06450 0.13776
#
# Static dielectric constant tensor:
#      x y z
#    x 1.974200 0.002980 -0.048270 
#    y 0.002980 1.957710 0.034430 
#    z -0.048270 0.034430 1.930270 
# 
# From -- ./inp_files/343235.got.cif
#   From: 2010.05.17/outbox.cif.g08.bks.cpg/sg2_172_cif.got.tgz:343235.got - 2010.06.03 11:33:40.
