data_PCOD9070711
_publ_section_title
;
Structure prediction by ZEFSAII (Michael W. Deem and Ramdas Pophale) SiO2 
 PCOD9070711
Probable space group: P -1
;
_chemical_formula_sum "Si O2"
_cell_formula_units_Z 11
_cell_length_a 9.277964
_cell_length_b 12.665014
_cell_length_c 8.890977
_cell_angle_alpha 137.357350
_cell_angle_beta 44.672339
_cell_angle_gamma 129.513097
_cell_volume 483.326153
_symmetry_space_group_name_H-M "P -1"
_symmetry_group_IT_number 2
_symmetry_cell_setting 'triclinic'
loop_
_space_group_symop_operation_xyz
x,y,z
-x,-y,-z
loop_
_atom_site_type_symbol
_atom_site_label
_atom_site_fract_x
_atom_site_fract_y
_atom_site_fract_z
Si Si1 0.195121 0.585254 0.551207
Si Si2 0.568904 0.689984 0.848843
Si Si3 0.007203 0.071564 0.239508
Si Si4 0.000000 0.000000 0.500000
Si Si5 0.123152 0.667246 0.012392
Si Si6 0.384399 0.812157 0.400594
O O1 0.325261 0.459376 0.380117
O O2 0.100759 0.654813 0.837155
O O3 0.359346 0.726786 0.490245
O O4 0.000000 0.500000 0.500000
O O5 0.750419 0.841146 0.820944
O O6 0.367663 0.679778 0.883964
O O7 0.495667 0.720310 0.103271
O O8 0.856416 0.194117 0.471260
O O9 0.938982 0.965536 0.326564
O O10 0.000000 0.000000 0.000000
O O11 0.053287 0.822481 0.287407
O O12 0.000000 0.500000 0.000000
O O13 0.500000 0.000000 0.500000
#
# Coordination Sequence:
#
# PCOD9070711 Si02
#       6
#     2   2   2   1   2   2
#     4  12  26  49  80 113 155 218 265 329 418 480
#     4  12  26  49  78 111 162 205 269 330 408 481
#     4  12  25  48  75 117 160 207 268 333 395 494
#     4  12  28  48  84 114 162 214 268 328 420 472
#     4  12  28  52  79 117 164 205 274 343 398 490
#     4  12  25  45  74 114 154 200 269 327 390 484
#
# _framework density 22.758959000000001
#
# number of rings (size 3 to 8) (size 9 to 14) (size 15 to 20)
#    0.000    0.000    5.455    4.364    0.000    3.636 
#    0.000    0.000    0.000    0.000    0.000    0.000 
#    0.000    0.000    0.000    0.000    0.000    0.000 
#
# Total GULP energy -61281.559983 kJ/mol
# GULP energy per Si atom -5571.050908 kJ/mol
# Density = 2.270716 g / cm^3
# Si number density = 22.758959 Si / 1000 Ang^3
#
#
#
# Elastic Constant Matrix: (Units=GPa)
#
#
# Indices 1 2 3 4 5 6 
#
# 1 95.0501 25.7653 22.2485 17.9107 4.9227 6.9177
# 2 25.7653 57.4414 25.1293 13.5378 6.5781 15.0443
# 3 22.2485 25.1293 170.8631 18.3428 8.4753 -9.2437
# 4 17.9107 13.5378 18.3428 37.7116 -12.1041 -4.2153
# 5 4.9227 6.5781 8.4753 -12.1041 48.6084 -9.9806
# 6 6.9177 15.0443 -9.2437 -4.2153 -9.9806 48.1889
#
#
#
# Elastic Compliance Matrix: (Units=1/GPa)
#
#
# Indices 1 2 3 4 5 6 
#
# 1 0.012918 -0.003423 -0.000546 -0.005675 -0.002557 -0.001916
# 2 -0.003423 0.026009 -0.002503 -0.010043 -0.007397 -0.010519
# 3 -0.000546 -0.002503 0.006670 -0.002198 -0.000957 0.001749
# 4 -0.005675 -0.010043 -0.002198 0.039557 0.014206 0.009931
# 5 -0.002557 -0.007397 -0.000957 0.014206 0.027472 0.009426
# 6 -0.001916 -0.010519 0.001749 0.009931 0.009426 0.027467
#
#
# Mechanical properties :
#
#
# Convention : Reuss Voigt Hill
#
# Bulk Modulus (GPa) = 30.62660 52.18233 41.40446
# Shear Modulus (GPa) = 30.50224 43.58254 37.04239
#
# Velocity S-wave (km/s) = 3.66489 4.38078 4.03872
# Velocity P-wave (km/s) = 5.60310 6.96895 6.32301
#
# Compressibility (1/GPa) = 0.03265136
#
# Stress axis : x y z
#
# Youngs Moduli (GPa) = 77.41235 38.44830 149.92529
#
# Poissons Ratio (x) = 0.13161 0.08189
# Poissons Ratio (y) = 0.26499 0.37533
# Poissons Ratio (z) = 0.04228 0.09625
#
# Static dielectric constant tensor:
#      x y z
#    x 1.860360 -0.007460 0.026120 
#    y -0.007460 1.921170 -0.011040 
#    z 0.026120 -0.011040 1.840990 
# 
# From -- ./inp_files/24189.got.cif
#   From: 2010.05.17/outbox.cif.g08.bks.cpg/sg2_13_cif.got.tgz:24189.got - 2010.06.03 11:33:40.
