data_PCOD9070602
_publ_section_title
;
Structure prediction by ZEFSAII (Michael W. Deem and Ramdas Pophale) SiO2 
 PCOD9070602
Probable space group: P -1
;
_chemical_formula_sum "Si O2"
_cell_formula_units_Z 11
_cell_length_a 11.245373
_cell_length_b 13.193489
_cell_length_c 4.821025
_cell_angle_alpha 93.140897
_cell_angle_beta 95.411382
_cell_angle_gamma 142.063339
_cell_volume 427.923469
_symmetry_space_group_name_H-M "P -1"
_symmetry_group_IT_number 2
_symmetry_cell_setting 'triclinic'
loop_
_space_group_symop_operation_xyz
x,y,z
-x,-y,-z
loop_
_atom_site_type_symbol
_atom_site_label
_atom_site_fract_x
_atom_site_fract_y
_atom_site_fract_z
Si Si1 0.745453 0.723054 0.887503
Si Si2 0.011989 0.428975 0.746103
Si Si3 0.332405 0.511397 0.540250
Si Si4 0.000000 0.000000 0.500000
Si Si5 0.318258 0.130100 0.446475
Si Si6 0.369534 0.951880 0.215946
O O1 0.505766 0.577904 0.779697
O O2 0.772789 0.636741 0.716103
O O3 0.813700 0.862813 0.711053
O O4 0.850755 0.816061 0.212679
O O5 0.193755 0.481621 0.703421
O O6 0.000000 0.500000 0.500000
O O7 0.842125 0.236850 0.781257
O O8 0.000000 0.500000 0.000000
O O9 0.468888 0.680578 0.410641
O O10 0.155170 0.007087 0.624476
O O11 0.352191 0.061046 0.242620
O O12 0.500000 0.000000 0.500000
O O13 0.500000 0.000000 0.000000
#
# Coordination Sequence:
#
# PCOD9070602 Si02
#       6
#     2   2   2   1   2   2
#     4   7  13  26  53  80 121 149 206 243 309 354
#     4  12  25  42  65  92 128 166 210 256 311 373
#     4   8  15  30  54  86 116 160 199 252 304 363
#     4   6  12  22  46  78 106 152 186 244 292 346
#     4   8  15  30  54  84 121 152 207 246 307 361
#     4  12  25  42  65  92 126 167 209 258 311 369
#
# _framework density 25.705534
#
# number of rings (size 3 to 8) (size 9 to 14) (size 15 to 20)
#    2.182    0.364    0.000    4.364    0.000    0.000 
#    0.000    0.000    0.000    7.636    0.000    0.000 
#    0.000    0.000    0.000    0.000    0.000    0.000 
#
# Total GULP energy -61238.786668 kJ/mol
# GULP energy per Si atom -5567.162424 kJ/mol
# Density = 2.564703 g / cm^3
# Si number density = 25.705534 Si / 1000 Ang^3
#
#
#
# Elastic Constant Matrix: (Units=GPa)
#
#
# Indices 1 2 3 4 5 6 
#
# 1 187.3589 74.4160 78.5218 -0.1895 -62.1662 31.6629
# 2 74.4160 162.5259 52.3335 13.0594 -26.2540 22.4098
# 3 78.5218 52.3335 183.4337 -12.1549 -31.3652 0.7696
# 4 -0.1895 13.0594 -12.1549 46.2583 -6.0616 -8.9795
# 5 -62.1662 -26.2540 -31.3652 -6.0616 48.4869 -8.7986
# 6 31.6629 22.4098 0.7696 -8.9795 -8.7986 57.1851
#
#
#
# Elastic Compliance Matrix: (Units=1/GPa)
#
#
# Indices 1 2 3 4 5 6 
#
# 1 0.011722 -0.002317 -0.002265 0.000953 0.011778 -0.003590
# 2 -0.002317 0.008296 -0.001659 -0.003336 -0.000429 -0.002536
# 3 -0.002265 -0.001659 0.007409 0.003150 0.001854 0.002584
# 4 0.000953 -0.003336 0.003150 0.025206 0.005614 0.005559
# 5 0.011778 -0.000429 0.001854 0.005614 0.037441 0.000264
# 6 -0.003590 -0.002536 0.002584 0.005559 0.000264 0.021347
#
#
# Mechanical properties :
#
#
# Convention : Reuss Voigt Hill
#
# Bulk Modulus (GPa) = 66.90562 104.87344 85.88953
# Shear Modulus (GPa) = 38.79399 52.25586 45.52492
#
# Velocity S-wave (km/s) = 3.88902 4.51362 4.21291
# Velocity P-wave (km/s) = 6.80075 8.24926 7.55978
#
# Compressibility (1/GPa) = 0.01494643
#
# Stress axis : x y z
#
# Youngs Moduli (GPa) = 85.30695 120.53474 134.96768
#
# Poissons Ratio (x) = 0.27930 0.30568
# Poissons Ratio (y) = 0.19767 0.22389
# Poissons Ratio (z) = 0.19320 0.19994
#
# Static dielectric constant tensor:
#      x y z
#    x 1.921590 -0.031120 0.096700 
#    y -0.031120 2.128300 -0.023460 
#    z 0.096700 -0.023460 1.999050 
# 
# From -- ./inp_files/74792.got.cif
#   From: 2010.05.17/outbox.cif.g08.bks.cpg/sg2_38_cif.got.tgz:74792.got - 2010.06.03 11:33:40.
