data_PCOD9070522
_publ_section_title
;
Structure prediction by ZEFSAII (Michael W. Deem and Ramdas Pophale) SiO2 
 PCOD9070522
Probable space group: P -1
;
_chemical_formula_sum "Si O2"
_cell_formula_units_Z 14
_cell_length_a 7.054681
_cell_length_b 9.172371
_cell_length_c 18.044002
_cell_angle_alpha 150.618360
_cell_angle_beta 117.499290
_cell_angle_gamma 69.995308
_cell_volume 503.234888
_symmetry_space_group_name_H-M "P -1"
_symmetry_group_IT_number 2
_symmetry_cell_setting 'triclinic'
loop_
_space_group_symop_operation_xyz
x,y,z
-x,-y,-z
loop_
_atom_site_type_symbol
_atom_site_label
_atom_site_fract_x
_atom_site_fract_y
_atom_site_fract_z
Si Si1 0.624126 0.281708 0.378327
Si Si2 0.006376 0.650112 0.830068
Si Si3 0.799046 0.135751 0.490854
Si Si4 0.544752 0.293977 0.688185
Si Si5 0.666266 0.335896 0.972673
Si Si6 0.176222 0.398025 0.011379
Si Si7 0.256601 0.718590 0.757895
O O1 0.500000 0.500000 0.500000
O O2 0.799787 0.192204 0.428073
O O3 0.737339 0.411681 0.381520
O O4 0.437458 0.009935 0.203887
O O5 0.086216 0.617264 0.745751
O O6 0.788286 0.414323 0.671183
O O7 0.181665 0.579115 0.890951
O O8 0.000000 0.000000 0.000000
O O9 0.602965 0.868468 0.343672
O O10 0.000000 0.000000 0.500000
O O11 0.764187 0.395310 0.814427
O O12 0.461019 0.597847 0.779372
O O13 0.500000 0.000000 0.500000
O O14 0.895130 0.350815 0.954542
O O15 0.401031 0.436534 0.004675
O O16 0.223955 0.061433 0.890801
#
# Coordination Sequence:
#
# PCOD9070522 Si02
#       7
#     2   2   2   2   2   2   2
#     4  12  27  49  78 112 156 204 260 327 393 460
#     4  12  28  49  78 114 153 206 262 319 392 471
#     4  12  26  52  76 109 160 209 251 323 400 460
#     4  12  28  51  79 118 161 208 264 326 397 465
#     4  12  24  49  77 107 155 206 255 316 399 467
#     4  12  28  50  80 117 158 209 265 325 392 473
#     4  12  28  49  81 118 157 202 268 324 390 471
#
# _framework density 27.820012999999999
#
# number of rings (size 3 to 8) (size 9 to 14) (size 15 to 20)
#    0.000    0.000    4.286    4.714    6.000    0.571 
#    0.000    0.000    0.000    0.000    0.000    0.000 
#    0.000    0.000    0.000    0.000    0.000    0.000 
#
# Total GULP energy -78093.833951 kJ/mol
# GULP energy per Si atom -5578.130997 kJ/mol
# Density = 2.775669 g / cm^3
# Si number density = 27.820013 Si / 1000 Ang^3
#
#
#
# Elastic Constant Matrix: (Units=GPa)
#
#
# Indices 1 2 3 4 5 6 
#
# 1 110.8291 44.4496 51.5803 6.7778 -11.2510 -8.8650
# 2 44.4496 180.3408 49.8440 -28.8282 7.4825 7.5054
# 3 51.5803 49.8440 169.7918 -3.5443 -3.1990 -16.8482
# 4 6.7778 -28.8282 -3.5443 54.1268 0.4930 -10.1537
# 5 -11.2510 7.4825 -3.1990 0.4930 50.2169 -20.8985
# 6 -8.8650 7.5054 -16.8482 -10.1537 -20.8985 44.4885
#
#
#
# Elastic Compliance Matrix: (Units=1/GPa)
#
#
# Indices 1 2 3 4 5 6 
#
# 1 0.012345 -0.003149 -0.002439 -0.002749 0.004607 0.003604
# 2 -0.003149 0.007636 -0.001587 0.003785 -0.003318 -0.003212
# 3 -0.002439 -0.001587 0.007488 0.000595 0.001625 0.003517
# 4 -0.002749 0.003785 0.000595 0.021651 0.000375 0.004157
# 5 0.004607 -0.003318 0.001625 0.000375 0.027901 0.015285
# 6 0.003604 -0.003212 0.003517 0.004157 0.015285 0.033199
#
#
# Mechanical properties :
#
#
# Convention : Reuss Voigt Hill
#
# Bulk Modulus (GPa) = 76.22274 83.63440 79.92857
# Shear Modulus (GPa) = 38.77651 50.77229 44.77440
#
# Velocity S-wave (km/s) = 3.73746 4.27667 4.01612
# Velocity P-wave (km/s) = 6.78843 7.38339 7.09215
#
# Compressibility (1/GPa) = 0.01311945
#
# Stress axis : x y z
#
# Youngs Moduli (GPa) = 81.00454 130.95145 133.54040
#
# Poissons Ratio (x) = 0.41240 0.32566
# Poissons Ratio (y) = 0.25510 0.21196
# Poissons Ratio (z) = 0.19754 0.20785
#
# Static dielectric constant tensor:
#      x y z
#    x 3.791580 0.348710 -0.001550 
#    y 0.348710 2.331050 0.023170 
#    z -0.001550 0.023170 1.985120 
# 
# From -- ./inp_files/219019.got.cif
#   From: 2010.05.17/outbox.cif.g08.bks.cpg/sg2_110_cif.got.tgz:219019.got - 2010.06.03 11:33:40.
