data_PCOD9070963
_publ_section_title
;
Structure prediction by ZEFSAII (Michael W. Deem and Ramdas Pophale) SiO2 
 PCOD9070963
Probable space group: P -1
;
_chemical_formula_sum "Si O2"
_cell_formula_units_Z 16
_cell_length_a 15.151104
_cell_length_b 9.786565
_cell_length_c 8.695671
_cell_angle_alpha 99.505663
_cell_angle_beta 70.511308
_cell_angle_gamma 142.883274
_cell_volume 721.854804
_symmetry_space_group_name_H-M "P -1"
_symmetry_group_IT_number 2
_symmetry_cell_setting 'triclinic'
loop_
_space_group_symop_operation_xyz
x,y,z
-x,-y,-z
loop_
_atom_site_type_symbol
_atom_site_label
_atom_site_fract_x
_atom_site_fract_y
_atom_site_fract_z
Si Si1 0.581451 0.477462 0.548813
Si Si2 0.024940 0.430298 0.116985
Si Si3 0.356213 0.900693 0.983069
Si Si4 0.929827 0.044843 0.959062
Si Si5 0.514087 0.117900 0.370683
Si Si6 0.408142 0.270927 0.916051
Si Si7 0.119497 0.022879 0.391173
Si Si8 0.148621 0.769573 0.509429
O O1 0.500000 0.500000 0.500000
O O2 0.488449 0.316518 0.721976
O O3 0.722341 0.719845 0.596630
O O4 0.598556 0.362416 0.410897
O O5 0.888109 0.264400 0.291779
O O6 0.195387 0.675572 0.120539
O O7 0.000000 0.500000 0.000000
O O8 0.030543 0.288308 0.010388
O O9 0.375959 0.840711 0.800394
O O10 0.375089 0.089497 0.994660
O O11 0.500000 0.000000 0.000000
O O12 0.912200 0.031810 0.782240
O O13 0.750814 0.849971 0.072363
O O14 0.000000 0.000000 0.000000
O O15 0.329894 0.938471 0.405516
O O16 0.500000 0.000000 0.500000
O O17 0.500000 0.500000 0.000000
O O18 0.115538 0.874474 0.458847
O O19 0.000000 0.000000 0.500000
O O20 0.000000 0.500000 0.500000
#
# Coordination Sequence:
#
# PCOD9070963 Si02
#       8
#     2   2   2   2   2   2   2   2
#     4  12  27  48  79 108 155 199 249 311 381 451
#     4  12  25  48  75 107 151 202 250 312 376 451
#     4  12  29  46  78 111 150 197 257 309 382 450
#     4  12  28  48  77 107 150 198 256 313 385 450
#     4  12  26  48  75 113 151 200 252 311 376 452
#     4  12  27  51  76 108 153 195 250 316 379 450
#     4  12  29  49  73 113 151 200 255 312 382 453
#     4  12  27  48  77 108 158 198 253 318 380 449
#
# _framework density 22.165122
#
# number of rings (size 3 to 8) (size 9 to 14) (size 15 to 20)
#    0.000    0.000    5.000    3.750   10.500    1.000 
#    0.000    0.000    0.000    0.000    0.000    0.000 
#    0.000    0.000    0.000    0.000    0.000    0.000 
#
# Total GULP energy -89281.971799 kJ/mol
# GULP energy per Si atom -5580.123237 kJ/mol
# Density = 2.211467 g / cm^3
# Si number density = 22.165122 Si / 1000 Ang^3
#
#
#
# Elastic Constant Matrix: (Units=GPa)
#
#
# Indices 1 2 3 4 5 6 
#
# 1 158.5396 53.3890 2.5024 -5.3387 12.6691 -18.2813
# 2 53.3890 138.6730 20.0923 2.6487 2.3676 -23.9931
# 3 2.5024 20.0923 75.7514 6.2422 1.3323 -6.2334
# 4 -5.3387 2.6487 6.2422 33.5473 2.4666 -11.0922
# 5 12.6691 2.3676 1.3323 2.4666 35.5750 0.9300
# 6 -18.2813 -23.9931 -6.2334 -11.0922 0.9300 49.7120
#
#
#
# Elastic Compliance Matrix: (Units=1/GPa)
#
#
# Indices 1 2 3 4 5 6 
#
# 1 0.007754 -0.002675 0.000494 0.002283 -0.002817 0.002185
# 2 -0.002675 0.009085 -0.002087 0.000278 0.000323 0.003196
# 3 0.000494 -0.002087 0.013962 -0.002175 -0.000421 0.000448
# 4 0.002283 0.000278 -0.002175 0.033522 -0.003290 0.008242
# 5 -0.002817 0.000323 -0.000421 -0.003290 0.029393 -0.002217
# 6 0.002185 0.003196 0.000448 0.008242 -0.002217 0.024398
#
#
# Mechanical properties :
#
#
# Convention : Reuss Voigt Hill
#
# Bulk Modulus (GPa) = 44.90899 58.32570 51.61734
# Shear Modulus (GPa) = 37.29338 43.56554 40.42946
#
# Velocity S-wave (km/s) = 4.10631 4.43821 4.27548
# Velocity P-wave (km/s) = 6.54121 7.25499 6.90733
#
# Compressibility (1/GPa) = 0.02226726
#
# Stress axis : x y z
#
# Youngs Moduli (GPa) = 128.95923 110.06648 71.62380
#
# Poissons Ratio (x) = 0.29438 -0.03542
# Poissons Ratio (y) = 0.34491 0.14949
# Poissons Ratio (z) = -0.06377 0.22972
#
# Static dielectric constant tensor:
#      x y z
#    x 1.687100 0.002240 -0.056440 
#    y 0.002240 1.960960 0.029380 
#    z -0.056440 0.029380 1.855490 
# 
# From -- ./inp_files/298796.got.cif
#   From: 2010.05.17/outbox.cif.g08.bks.cpg/sg2_150_cif.got.tgz:298796.got - 2010.06.03 11:33:40.
