data_PCOD9070502
_publ_section_title
;
Structure prediction by ZEFSAII (Michael W. Deem and Ramdas Pophale) SiO2 
 PCOD9070502
Probable space group: P -1
;
_chemical_formula_sum "Si O2"
_cell_formula_units_Z 16
_cell_length_a 10.962990
_cell_length_b 8.656204
_cell_length_c 17.059891
_cell_angle_alpha 113.005798
_cell_angle_beta 31.281823
_cell_angle_gamma 126.577574
_cell_volume 647.260856
_symmetry_space_group_name_H-M "P -1"
_symmetry_group_IT_number 2
_symmetry_cell_setting 'triclinic'
loop_
_space_group_symop_operation_xyz
x,y,z
-x,-y,-z
loop_
_atom_site_type_symbol
_atom_site_label
_atom_site_fract_x
_atom_site_fract_y
_atom_site_fract_z
Si Si1 0.795728 0.766145 0.588790
Si Si2 0.007567 0.687366 0.069810
Si Si3 0.500113 0.059911 0.423342
Si Si4 0.655108 0.441284 0.342911
Si Si5 0.544814 0.907981 0.034162
Si Si6 0.174826 0.604294 0.299426
Si Si7 0.701202 0.830154 0.165401
Si Si8 0.883748 0.799693 0.721235
O O1 0.545083 0.671102 0.644753
O O2 0.714306 0.746460 0.721693
O O3 0.966727 0.657544 0.463789
O O4 0.000000 0.000000 0.500000
O O5 0.924511 0.632347 0.195039
O O6 0.773413 0.706411 0.158805
O O7 0.293478 0.907774 0.956093
O O8 0.000000 0.500000 0.000000
O O9 0.706182 0.288513 0.329801
O O10 0.500000 0.000000 0.500000
O O11 0.571150 0.931475 0.305169
O O12 0.181938 0.998638 0.574852
O O13 0.500000 0.500000 0.500000
O O14 0.742632 0.835552 0.879369
O O15 0.270012 0.721767 0.188025
O O16 0.500000 0.000000 0.000000
O O17 0.470949 0.699747 0.201103
O O18 0.056777 0.370260 0.321944
O O19 0.000000 0.000000 0.000000
#
# Coordination Sequence:
#
# PCOD9070502 Si02
#       8
#     2   2   2   2   2   2   2   2
#     4  12  25  47  78 105 150 191 243 303 367 435
#     4  12  29  49  76 106 145 196 245 300 369 441
#     4  12  27  45  73 105 149 190 240 304 364 430
#     4  12  27  47  74 110 145 190 244 303 366 434
#     4  12  29  49  74 107 153 193 243 307 365 435
#     4  12  27  46  76 108 142 196 245 300 365 435
#     4  12  24  49  74 104 145 190 245 298 366 433
#     4  12  26  48  74 109 145 195 247 302 366 435
#
# _framework density 24.719555
#
# number of rings (size 3 to 8) (size 9 to 14) (size 15 to 20)
#    0.000    0.000    3.750    5.250   10.500    0.000 
#    0.000    0.000    0.000    0.000    0.000    0.000 
#    0.000    0.000    0.000    0.000    0.000    0.000 
#
# Total GULP energy -89712.745367 kJ/mol
# GULP energy per Si atom -5607.046585 kJ/mol
# Density = 2.466329 g / cm^3
# Si number density = 24.719555 Si / 1000 Ang^3
#
#
#
# Elastic Constant Matrix: (Units=GPa)
#
#
# Indices 1 2 3 4 5 6 
#
# 1 116.8052 12.1951 -14.7787 -11.3580 12.6902 -6.4343
# 2 12.1951 113.5948 13.6951 4.7932 7.2289 -19.3929
# 3 -14.7787 13.6951 89.4322 7.5381 19.4843 3.7486
# 4 -11.3580 4.7932 7.5381 52.5800 -5.3228 0.0393
# 5 12.6902 7.2289 19.4843 -5.3228 41.2043 -5.3440
# 6 -6.4343 -19.3929 3.7486 0.0393 -5.3440 50.2008
#
#
#
# Elastic Compliance Matrix: (Units=1/GPa)
#
#
# Indices 1 2 3 4 5 6 
#
# 1 0.009533 -0.001103 0.002412 0.001443 -0.003668 0.000224
# 2 -0.001103 0.009823 -0.001725 -0.000909 -0.000198 0.003762
# 3 0.002412 -0.001725 0.013739 -0.002047 -0.007484 -0.002178
# 4 0.001443 -0.000909 -0.002047 0.020042 0.003314 0.000324
# 5 -0.003668 -0.000198 -0.007484 0.003314 0.029814 0.003184
# 6 0.000224 0.003762 -0.002178 0.000324 0.003184 0.021903
#
#
# Mechanical properties :
#
#
# Convention : Reuss Voigt Hill
#
# Bulk Modulus (GPa) = 30.99529 38.00616 34.50072
# Shear Modulus (GPa) = 42.94117 49.37842 46.15979
#
# Velocity S-wave (km/s) = 4.17242 4.47424 4.32596
# Velocity P-wave (km/s) = 5.98148 6.48846 6.24012
#
# Compressibility (1/GPa) = 0.03226297
#
# Stress axis : x y z
#
# Youngs Moduli (GPa) = 104.90132 101.80486 72.78683
#
# Poissons Ratio (x) = 0.11234 -0.17559
# Poissons Ratio (y) = 0.11576 0.12552
# Poissons Ratio (z) = -0.25306 0.17556
#
# Static dielectric constant tensor:
#      x y z
#    x 1.985370 0.046580 -0.051420 
#    y 0.046580 1.996940 -0.057880 
#    z -0.051420 -0.057880 1.911380 
# 
# From -- ./inp_files/566839.got.cif
#   From: 2010.05.17/outbox.cif.g08.bks.cpg/sg2_284_cif.got.tgz:566839.got - 2010.06.03 11:33:40.
