data_PCOD9070104
_publ_section_title
;
Structure prediction by ZEFSAII (Michael W. Deem and Ramdas Pophale) SiO2 
 PCOD9070104
Probable space group: P -1
;
_chemical_formula_sum "Si O2"
_cell_formula_units_Z 12
_cell_length_a 11.618510
_cell_length_b 15.146562
_cell_length_c 8.147377
_cell_angle_alpha 106.908619
_cell_angle_beta 55.736929
_cell_angle_gamma 151.180102
_cell_volume 492.003004
_symmetry_space_group_name_H-M "P -1"
_symmetry_group_IT_number 2
_symmetry_cell_setting 'triclinic'
loop_
_space_group_symop_operation_xyz
x,y,z
-x,-y,-z
loop_
_atom_site_type_symbol
_atom_site_label
_atom_site_fract_x
_atom_site_fract_y
_atom_site_fract_z
Si Si1 0.710628 0.647635 0.253517
Si Si2 0.738974 0.158165 0.747833
Si Si3 0.859489 0.723964 0.708011
Si Si4 0.836595 0.204700 0.195140
Si Si5 0.904364 0.452212 0.744189
Si Si6 0.830718 0.917158 0.772526
O O1 0.500000 0.500000 0.500000
O O2 0.482159 0.519103 0.208402
O O3 0.937547 0.870477 0.213536
O O4 0.925164 0.685313 0.078781
O O5 0.947315 0.373183 0.727874
O O6 0.920636 0.173199 0.568431
O O7 0.508682 0.039395 0.710650
O O8 0.500000 0.000000 0.000000
O O9 0.843910 0.823662 0.791740
O O10 0.015632 0.760198 0.749263
O O11 0.860294 0.328296 0.258827
O O12 0.000000 0.500000 0.500000
O O13 0.539991 0.267120 0.995293
O O14 0.000000 0.000000 0.500000
#
# Coordination Sequence:
#
# PCOD9070104 Si02
#       6
#     2   2   2   2   2   2
#     4  12  24  45  75 106 147 195 248 307 367 443
#     4  12  27  48  76 107 152 199 250 309 376 447
#     4  12  26  43  75 112 146 193 251 309 372 439
#     4  12  26  47  73 106 154 193 247 309 374 446
#     4  12  26  47  78 111 151 197 251 306 380 449
#     4  12  25  47  77 110 150 199 252 308 374 446
#
# _framework density 24.390094000000001
#
# number of rings (size 3 to 8) (size 9 to 14) (size 15 to 20)
#    0.000    0.000    6.667    3.000    0.000    4.000 
#    0.000    0.000    0.000    0.000    0.000    0.000 
#    0.000    0.000    0.000    0.000    0.000    0.000 
#
# Total GULP energy -67083.189573 kJ/mol
# GULP energy per Si atom -5590.265798 kJ/mol
# Density = 2.433458 g / cm^3
# Si number density = 24.390094 Si / 1000 Ang^3
#
#
#
# Elastic Constant Matrix: (Units=GPa)
#
#
# Indices 1 2 3 4 5 6 
#
# 1 85.0095 37.8308 0.6139 1.5381 5.6984 -7.1746
# 2 37.8308 149.6366 -2.3503 12.8328 3.3321 -23.5368
# 3 0.6139 -2.3503 154.9822 4.2969 -4.6509 -10.5392
# 4 1.5381 12.8328 4.2969 37.6449 -11.2084 -9.8851
# 5 5.6984 3.3321 -4.6509 -11.2084 39.7901 -4.5316
# 6 -7.1746 -23.5368 -10.5392 -9.8851 -4.5316 53.7176
#
#
#
# Elastic Compliance Matrix: (Units=1/GPa)
#
#
# Indices 1 2 3 4 5 6 
#
# 1 0.013366 -0.003331 -0.000142 0.000189 -0.001576 0.000199
# 2 -0.003331 0.008157 0.000371 -0.002085 -0.000433 0.002782
# 3 -0.000142 0.000371 0.006591 -0.000231 0.000862 0.001467
# 4 0.000189 -0.002085 -0.000231 0.031681 0.009695 0.005714
# 5 -0.001576 -0.000433 0.000862 0.009695 0.028678 0.003972
# 6 0.000199 0.002782 0.001467 0.005714 0.003972 0.021536
#
#
# Mechanical properties :
#
#
# Convention : Reuss Voigt Hill
#
# Bulk Modulus (GPa) = 45.64551 51.31301 48.47926
# Shear Modulus (GPa) = 40.48071 49.79943 45.14007
#
# Velocity S-wave (km/s) = 4.07839 4.52352 4.30671
# Velocity P-wave (km/s) = 6.39789 6.95465 6.68207
#
# Compressibility (1/GPa) = 0.02190796
#
# Stress axis : x y z
#
# Youngs Moduli (GPa) = 74.81741 122.59626 151.73252
#
# Poissons Ratio (x) = 0.40838 0.02161
# Poissons Ratio (y) = 0.24922 -0.05627
# Poissons Ratio (z) = 0.01066 -0.04547
#
# Static dielectric constant tensor:
#      x y z
#    x 1.936750 0.096350 0.013540 
#    y 0.096350 1.909720 0.030580 
#    z 0.013540 0.030580 2.133440 
# 
# From -- ./inp_files/158041.got.cif
#   From: 2010.05.17/outbox.cif.g08.bks.cpg/sg2_80_cif.got.tgz:158041.got - 2010.06.03 11:33:40.
