data_PCOD9070674
_publ_section_title
;
Structure prediction by ZEFSAII (Michael W. Deem and Ramdas Pophale) SiO2 
 PCOD9070674
Probable space group: P -1
;
_chemical_formula_sum "Si O2"
_cell_formula_units_Z 16
_cell_length_a 11.840154
_cell_length_b 5.311750
_cell_length_c 12.584866
_cell_angle_alpha 97.552255
_cell_angle_beta 59.522401
_cell_angle_gamma 103.162277
_cell_volume 664.085105
_symmetry_space_group_name_H-M "P -1"
_symmetry_group_IT_number 2
_symmetry_cell_setting 'triclinic'
loop_
_space_group_symop_operation_xyz
x,y,z
-x,-y,-z
loop_
_atom_site_type_symbol
_atom_site_label
_atom_site_fract_x
_atom_site_fract_y
_atom_site_fract_z
Si Si1 0.927977 0.207142 0.486526
Si Si2 0.017614 0.234974 0.918489
Si Si3 0.351131 0.515969 0.104523
Si Si4 0.658715 0.322911 0.653665
Si Si5 0.743288 0.044715 0.948599
Si Si6 0.202160 0.985662 0.675217
Si Si7 0.395624 0.909385 0.757909
Si Si8 0.402325 0.342322 0.455121
O O1 0.776454 0.163414 0.602165
O O2 0.000000 0.500000 0.500000
O O3 0.908816 0.158649 0.364065
O O4 0.000000 0.000000 0.500000
O O5 0.145081 0.200970 0.784782
O O6 0.895312 0.178820 0.893115
O O7 0.000000 0.500000 0.000000
O O8 0.000000 0.000000 0.000000
O O9 0.334928 0.502368 0.236627
O O10 0.323369 0.793074 0.095848
O O11 0.264385 0.259010 0.081931
O O12 0.500000 0.500000 0.000000
O O13 0.507075 0.170445 0.703199
O O14 0.696542 0.494252 0.540717
O O15 0.671669 0.082219 0.096322
O O16 0.279621 0.851215 0.721147
O O17 0.321318 0.109235 0.547145
O O18 0.498024 0.716169 0.687135
O O19 0.500000 0.500000 0.500000
#
# Coordination Sequence:
#
# PCOD9070674 Si02
#       8
#     2   2   2   2   2   2   2   2
#     4  12  30  52  74 108 156 209 257 309 375 468
#     4  12  29  51  79 113 153 206 259 321 389 464
#     4  12  27  47  76 112 155 206 249 317 389 462
#     4  12  27  47  78 112 156 200 266 316 394 456
#     4  12  28  49  76 111 161 202 260 315 390 457
#     4  12  27  51  79 116 156 205 262 323 397 458
#     4  12  25  47  79 117 152 193 260 337 385 459
#     4  12  25  44  79 113 151 196 248 330 398 449
#
# _framework density 24.093297
#
# number of rings (size 3 to 8) (size 9 to 14) (size 15 to 20)
#    0.000    0.000    5.000    3.750    7.000    2.000 
#    0.000    0.000    0.000    0.000    0.000    0.000 
#    0.000    0.000    0.000    0.000    0.000    0.000 
#
# Total GULP energy -89436.312968 kJ/mol
# GULP energy per Si atom -5589.769561 kJ/mol
# Density = 2.403846 g / cm^3
# Si number density = 24.093297 Si / 1000 Ang^3
#
#
#
# Elastic Constant Matrix: (Units=GPa)
#
#
# Indices 1 2 3 4 5 6 
#
# 1 98.8588 21.6474 36.2006 5.5146 6.0955 -8.0009
# 2 21.6474 102.3550 21.7852 15.2716 11.5802 -3.6311
# 3 36.2006 21.7852 108.6812 22.5521 7.9935 -7.5580
# 4 5.5146 15.2716 22.5521 33.6443 -6.3177 5.1472
# 5 6.0955 11.5802 7.9935 -6.3177 45.9029 4.4711
# 6 -8.0009 -3.6311 -7.5580 5.1472 4.4711 47.7618
#
#
#
# Elastic Compliance Matrix: (Units=1/GPa)
#
#
# Indices 1 2 3 4 5 6 
#
# 1 0.011938 -0.001801 -0.003725 0.001091 -0.000449 0.001198
# 2 -0.001801 0.011493 -0.000150 -0.005720 -0.003567 0.001499
# 3 -0.003725 -0.000150 0.012722 -0.008843 -0.003156 0.002626
# 4 0.001091 -0.005720 -0.008843 0.040840 0.009132 -0.006908
# 5 -0.000449 -0.003567 -0.003156 0.009132 0.024957 -0.004166
# 6 0.001198 0.001499 0.002626 -0.006908 -0.004166 0.022802
#
#
# Mechanical properties :
#
#
# Convention : Reuss Voigt Hill
#
# Bulk Modulus (GPa) = 40.32408 52.12905 46.22657
# Shear Modulus (GPa) = 34.63297 40.81257 37.72277
#
# Velocity S-wave (km/s) = 3.79549 4.12021 3.96118
# Velocity P-wave (km/s) = 5.99838 6.65719 6.33636
#
# Compressibility (1/GPa) = 0.02479908
#
# Stress axis : x y z
#
# Youngs Moduli (GPa) = 83.76757 87.00892 78.60437
#
# Poissons Ratio (x) = 0.15673 0.29282
# Poissons Ratio (y) = 0.15089 0.01181
# Poissons Ratio (z) = 0.31206 0.01307
#
# Static dielectric constant tensor:
#      x y z
#    x 1.959870 -0.000890 0.004690 
#    y -0.000890 2.062920 0.063570 
#    z 0.004690 0.063570 1.871420 
# 
# From -- ./inp_files/410729.got.cif
#   From: 2010.05.17/outbox.cif.g08.bks.cpg/sg2_206_cif.got.tgz:410729.got - 2010.06.03 11:33:40.
