data_PCOD9070792
_publ_section_title
;
Structure prediction by ZEFSAII (Michael W. Deem and Ramdas Pophale) SiO2 
 PCOD9070792
Probable space group: P -1
;
_chemical_formula_sum "Si O2"
_cell_formula_units_Z 14
_cell_length_a 10.912217
_cell_length_b 12.845355
_cell_length_c 12.035111
_cell_angle_alpha 144.894915
_cell_angle_beta 140.002424
_cell_angle_gamma 43.753626
_cell_volume 602.348958
_symmetry_space_group_name_H-M "P -1"
_symmetry_group_IT_number 2
_symmetry_cell_setting 'triclinic'
loop_
_space_group_symop_operation_xyz
x,y,z
-x,-y,-z
loop_
_atom_site_type_symbol
_atom_site_label
_atom_site_fract_x
_atom_site_fract_y
_atom_site_fract_z
Si Si1 0.313644 0.602772 0.390886
Si Si2 0.716536 0.460916 0.302869
Si Si3 0.670516 0.630411 0.017264
Si Si4 0.052092 0.479855 0.272876
Si Si5 0.413031 0.859540 0.390052
Si Si6 0.223071 0.000583 0.619099
Si Si7 0.060991 0.811498 0.951491
O O1 0.500000 0.500000 0.500000
O O2 0.132413 0.546802 0.274063
O O3 0.331993 0.813342 0.593396
O O4 0.305170 0.537807 0.201466
O O5 0.827081 0.444938 0.482980
O O6 0.589969 0.674249 0.378595
O O7 0.881597 0.365504 0.245997
O O8 0.556895 0.336903 0.078350
O O9 0.818003 0.570219 0.170981
O O10 0.720187 0.808172 0.148951
O O11 0.087538 0.257661 0.128453
O O12 0.295147 0.957498 0.503298
O O13 0.500000 0.000000 0.500000
O O14 0.248258 0.811758 0.156107
O O15 0.000000 0.000000 0.500000
O O16 0.000000 0.000000 0.000000
#
# Coordination Sequence:
#
# PCOD9070792 Si02
#       7
#     2   2   2   2   2   2   2
#     4  12  25  50  73 111 152 197 249 317 377 459
#     4  12  26  50  74 109 149 203 254 312 390 455
#     4  12  26  47  78 108 150 200 249 310 389 444
#     4  12  25  46  76 104 155 191 253 317 382 444
#     4  12  26  48  75 108 158 200 260 316 382 463
#     4  12  27  44  77 116 147 201 260 310 378 460
#     4  12  28  45  76 113 149 201 259 315 385 459
#
# _framework density 23.242342000000001
#
# number of rings (size 3 to 8) (size 9 to 14) (size 15 to 20)
#    0.000    0.000    5.714    3.000    6.000    1.714 
#    0.000    0.000    0.000    0.000    0.000    0.000 
#    0.000    0.000    0.000    0.000    0.000    0.000 
#
# Total GULP energy -78200.418602 kJ/mol
# GULP energy per Si atom -5585.744186 kJ/mol
# Density = 2.318944 g / cm^3
# Si number density = 23.242342 Si / 1000 Ang^3
#
#
#
# Elastic Constant Matrix: (Units=GPa)
#
#
# Indices 1 2 3 4 5 6 
#
# 1 92.6160 15.1648 7.3800 8.7949 14.4256 16.7847
# 2 15.1648 145.7750 43.0193 2.5064 14.0238 14.9781
# 3 7.3800 43.0193 80.0506 -1.8145 21.3439 -2.0145
# 4 8.7949 2.5064 -1.8145 52.5302 20.2473 13.2657
# 5 14.4256 14.0238 21.3439 20.2473 39.0545 12.7305
# 6 16.7847 14.9781 -2.0145 13.2657 12.7305 32.8744
#
#
#
# Elastic Compliance Matrix: (Units=1/GPa)
#
#
# Indices 1 2 3 4 5 6 
#
# 1 0.012210 -0.000391 -0.000330 0.000291 -0.002656 -0.005165
# 2 -0.000391 0.008767 -0.005112 0.000177 0.001214 -0.004649
# 3 -0.000330 -0.005112 0.018955 0.004137 -0.012812 0.006952
# 4 0.000291 0.000177 0.004137 0.025845 -0.014236 -0.004892
# 5 -0.002656 0.001214 -0.012812 -0.014236 0.044239 -0.011369
# 6 -0.005165 -0.004649 0.006952 -0.004892 -0.011369 0.041977
#
#
# Mechanical properties :
#
#
# Convention : Reuss Voigt Hill
#
# Bulk Modulus (GPa) = 35.38147 49.95220 42.66684
# Shear Modulus (GPa) = 28.88825 41.75033 35.31929
#
# Velocity S-wave (km/s) = 3.52932 4.24288 3.90245
# Velocity P-wave (km/s) = 5.64483 6.74843 6.22115
#
# Compressibility (1/GPa) = 0.02826338
#
# Stress axis : x y z
#
# Youngs Moduli (GPa) = 81.90167 114.06282 52.75773
#
# Poissons Ratio (x) = 0.04465 0.01743
# Poissons Ratio (y) = 0.03206 0.26970
# Poissons Ratio (z) = 0.02706 0.58310
#
# Static dielectric constant tensor:
#      x y z
#    x 1.961800 -0.072220 0.008240 
#    y -0.072220 1.881420 0.033930 
#    z 0.008240 0.033930 1.846870 
# 
# From -- ./inp_files/427079.got.cif
#   From: 2010.05.17/outbox.cif.g08.bks.cpg/sg2_214_cif.got.tgz:427079.got - 2010.06.03 11:33:40.
