data_PCOD9070831
_publ_section_title
;
Structure prediction by ZEFSAII (Michael W. Deem and Ramdas Pophale) SiO2 
 PCOD9070831
Probable space group: P -1
;
_chemical_formula_sum "Si O2"
_cell_formula_units_Z 14
_cell_length_a 9.101799
_cell_length_b 8.694406
_cell_length_c 20.306026
_cell_angle_alpha 150.286861
_cell_angle_beta 130.988666
_cell_angle_gamma 50.999009
_cell_volume 593.519460
_symmetry_space_group_name_H-M "P -1"
_symmetry_group_IT_number 2
_symmetry_cell_setting 'triclinic'
loop_
_space_group_symop_operation_xyz
x,y,z
-x,-y,-z
loop_
_atom_site_type_symbol
_atom_site_label
_atom_site_fract_x
_atom_site_fract_y
_atom_site_fract_z
Si Si1 0.812147 0.866955 0.218105
Si Si2 0.142360 0.186621 0.399573
Si Si3 0.553365 0.818035 0.370574
Si Si4 0.345112 0.810421 0.577199
Si Si5 0.176113 0.756239 0.933211
Si Si6 0.491852 0.879838 0.879560
Si Si7 0.976680 0.514698 0.348084
O O1 0.782296 0.529420 0.109479
O O2 0.707799 0.101123 0.330611
O O3 0.714341 0.987274 0.165720
O O4 0.039941 0.902452 0.291364
O O5 0.097249 0.244754 0.329770
O O6 0.000000 0.500000 0.500000
O O7 0.379184 0.100371 0.449563
O O8 0.477266 0.496114 0.246827
O O9 0.793114 0.715693 0.409656
O O10 0.565714 0.919981 0.335056
O O11 0.500000 0.500000 0.500000
O O12 0.141241 0.727610 0.456684
O O13 0.113312 0.623942 0.794857
O O14 0.352778 0.952987 0.051561
O O15 0.000000 0.000000 0.000000
O O16 0.500000 0.000000 0.000000
#
# Coordination Sequence:
#
# PCOD9070831 Si02
#       7
#     2   2   2   2   2   2   2
#     4  12  25  48  73 111 150 188 257 314 361 453
#     4  12  25  47  71 115 150 187 247 305 377 450
#     4  12  25  47  77 106 151 202 238 310 377 438
#     4  12  25  47  77 113 150 195 243 313 382 440
#     4  12  28  48  73 109 146 204 254 302 366 442
#     4  12  25  49  74 106 148 198 250 303 372 440
#     4  12  25  49  75 107 159 189 250 301 381 441
#
# _framework density 23.588107000000001
#
# number of rings (size 3 to 8) (size 9 to 14) (size 15 to 20)
#    0.000    0.000    7.143    1.714    2.000    1.714 
#    2.571    2.857    0.000    0.000    0.000    0.000 
#    0.000    0.000    0.000    0.000    0.000    0.000 
#
# Total GULP energy -78186.017832 kJ/mol
# GULP energy per Si atom -5584.715559 kJ/mol
# Density = 2.353442 g / cm^3
# Si number density = 23.588107 Si / 1000 Ang^3
#
#
#
# Elastic Constant Matrix: (Units=GPa)
#
#
# Indices 1 2 3 4 5 6 
#
# 1 125.0175 42.5390 30.2722 20.3347 24.8223 -25.1302
# 2 42.5390 159.9659 40.7860 20.2973 7.0653 -12.7353
# 3 30.2722 40.7860 86.8229 13.9494 11.8586 -4.6300
# 4 20.3347 20.2973 13.9494 36.7566 -2.5112 13.2458
# 5 24.8223 7.0653 11.8586 -2.5112 37.4560 20.5966
# 6 -25.1302 -12.7353 -4.6300 13.2458 20.5966 54.0370
#
#
#
# Elastic Compliance Matrix: (Units=1/GPa)
#
#
# Indices 1 2 3 4 5 6 
#
# 1 0.030534 0.001105 0.003428 -0.037052 -0.046964 0.041737
# 2 0.001105 0.008042 -0.002032 -0.006779 -0.005317 0.005923
# 3 0.003428 -0.002032 0.015407 -0.011184 -0.013111 0.010174
# 4 -0.037052 -0.006779 -0.011184 0.085315 0.072715 -0.068416
# 5 -0.046964 -0.005317 -0.013111 0.072715 0.115090 -0.085909
# 6 0.041737 0.005923 0.010174 -0.068416 -0.085909 0.089699
#
#
# Mechanical properties :
#
#
# Convention : Reuss Voigt Hill
#
# Bulk Modulus (GPa) = 16.95341 66.55563 41.75452
# Shear Modulus (GPa) = 13.93740 42.86386 28.40063
#
# Velocity S-wave (km/s) = 2.43341 4.26747 3.47367
# Velocity P-wave (km/s) = 3.88564 7.24974 5.81622
#
# Compressibility (1/GPa) = 0.05898519
#
# Stress axis : x y z
#
# Youngs Moduli (GPa) = 32.75036 124.34410 64.90536
#
# Poissons Ratio (x) = -0.13735 -0.22250
# Poissons Ratio (y) = -0.03618 0.13187
# Poissons Ratio (z) = -0.11227 0.25264
#
# Static dielectric constant tensor:
#      x y z
#    x 2.776400 -0.220410 0.718670 
#    y -0.220410 1.998500 -0.274840 
#    z 0.718670 -0.274840 2.522790 
# 
# From -- ./inp_files/588293.got.cif
#   From: 2010.05.17/outbox.cif.g08.bks.cpg/sg2_295_cif.got.tgz:588293.got - 2010.06.03 11:33:40.
