data_PCOD9070154
_publ_section_title
;
Structure prediction by ZEFSAII (Michael W. Deem and Ramdas Pophale) SiO2 
 PCOD9070154
Probable space group: P -1
;
_chemical_formula_sum "Si O2"
_cell_formula_units_Z 16
_cell_length_a 17.719401
_cell_length_b 17.098720
_cell_length_c 8.122526
_cell_angle_alpha 148.119943
_cell_angle_beta 138.714488
_cell_angle_gamma 32.336020
_cell_volume 690.166478
_symmetry_space_group_name_H-M "P -1"
_symmetry_group_IT_number 2
_symmetry_cell_setting 'triclinic'
loop_
_space_group_symop_operation_xyz
x,y,z
-x,-y,-z
loop_
_atom_site_type_symbol
_atom_site_label
_atom_site_fract_x
_atom_site_fract_y
_atom_site_fract_z
Si Si1 0.849075 0.537224 0.781676
Si Si2 0.245928 0.394324 0.889380
Si Si3 0.537698 0.301988 0.244803
Si Si4 0.586663 0.294933 0.705951
Si Si5 0.424913 0.146658 0.283828
Si Si6 0.103513 0.810666 0.923522
Si Si7 0.266381 0.090246 0.175792
Si Si8 0.017886 0.812761 0.152010
O O1 0.737443 0.683358 0.724969
O O2 0.870385 0.350471 0.436618
O O3 0.765278 0.614999 0.952085
O O4 0.000000 0.500000 0.000000
O O5 0.217068 0.256775 0.516359
O O6 0.405320 0.318183 0.979057
O O7 0.146019 0.609629 0.060381
O O8 0.500000 0.500000 0.500000
O O9 0.554314 0.283334 0.439197
O O10 0.674502 0.119059 0.058294
O O11 0.528316 0.207776 0.570211
O O12 0.500000 0.500000 0.000000
O O13 0.751251 0.213246 0.841532
O O14 0.397220 0.062813 0.242715
O O15 0.500000 0.000000 0.000000
O O16 0.034424 0.802474 0.963425
O O17 0.000000 0.000000 0.000000
O O18 0.123809 0.159726 0.967734
O O19 0.000000 0.000000 0.500000
#
# Coordination Sequence:
#
# PCOD9070154 Si02
#       8
#     2   2   2   2   2   2   2   2
#     4  12  25  45  70 107 143 187 242 297 360 435
#     4  12  24  46  70 105 147 186 242 297 363 435
#     4  12  26  46  71 106 144 190 239 301 365 437
#     4  12  25  49  74 105 146 191 249 299 365 437
#     4  12  25  46  75 104 148 195 241 302 366 430
#     4  12  27  48  74 107 142 196 249 300 364 433
#     4  12  26  47  70 110 145 197 246 301 372 433
#     4  12  26  47  74 106 151 197 244 304 367 437
#
# _framework density 23.182812999999999
#
# number of rings (size 3 to 8) (size 9 to 14) (size 15 to 20)
#    0.000    0.000    3.750    6.000    3.500    1.000 
#    2.250    0.000    0.000    0.000    0.000    0.000 
#    0.000    0.000    0.000    0.000    0.000    0.000 
#
# Total GULP energy -89428.113773 kJ/mol
# GULP energy per Si atom -5589.257111 kJ/mol
# Density = 2.313005 g / cm^3
# Si number density = 23.182813 Si / 1000 Ang^3
#
#
#
# Elastic Constant Matrix: (Units=GPa)
#
#
# Indices 1 2 3 4 5 6 
#
# 1 63.2403 -11.6340 11.6979 -3.1162 18.2040 -5.7067
# 2 -11.6340 139.7453 36.1799 18.5251 22.4557 -10.8180
# 3 11.6979 36.1799 170.6193 16.4985 8.5308 -8.0691
# 4 -3.1162 18.5251 16.4985 42.1985 -11.7574 6.2705
# 5 18.2040 22.4557 8.5308 -11.7574 38.1758 -1.9361
# 6 -5.7067 -10.8180 -8.0691 6.2705 -1.9361 34.4447
#
#
#
# Elastic Compliance Matrix: (Units=1/GPa)
#
#
# Indices 1 2 3 4 5 6 
#
# 1 0.021435 0.005509 -0.001166 -0.005194 -0.014540 0.005137
# 2 0.005509 0.011119 -0.001193 -0.007822 -0.011060 0.004928
# 3 -0.001166 -0.001193 0.006557 -0.002593 -0.000936 0.001388
# 4 -0.005194 -0.007822 -0.002593 0.034044 0.017679 -0.009128
# 5 -0.014540 -0.011060 -0.000936 0.017679 0.044943 -0.006794
# 6 0.005137 0.004928 0.001388 -0.009128 -0.006794 0.033036
#
#
# Mechanical properties :
#
#
# Convention : Reuss Voigt Hill
#
# Bulk Modulus (GPa) = 22.02089 49.56583 35.79336
# Shear Modulus (GPa) = 31.25595 45.45454 38.35524
#
# Velocity S-wave (km/s) = 3.67582 4.43278 4.07193
# Velocity P-wave (km/s) = 5.24738 6.90118 6.13030
#
# Compressibility (1/GPa) = 0.04541143
#
# Stress axis : x y z
#
# Youngs Moduli (GPa) = 46.65293 89.93704 152.50749
#
# Poissons Ratio (x) = -0.49546 0.17776
# Poissons Ratio (y) = -0.25701 0.18196
# Poissons Ratio (z) = 0.05438 0.10731
#
# Static dielectric constant tensor:
#      x y z
#    x 0.985490 0.409490 -1.090730 
#    y 0.409490 1.745400 0.503020 
#    z -1.090730 0.503020 0.505570 
# 
# From -- ./inp_files/336848.got.cif
#   From: 2010.05.17/outbox.cif.g08.bks.cpg/sg2_169_cif.got.tgz:336848.got - 2010.06.03 11:33:40.
