data_PCOD9070485
_publ_section_title
;
Structure prediction by ZEFSAII (Michael W. Deem and Ramdas Pophale) SiO2 
 PCOD9070485
Probable space group: P -1
;
_chemical_formula_sum "Si O2"
_cell_formula_units_Z 13
_cell_length_a 11.729179
_cell_length_b 8.648883
_cell_length_c 9.128074
_cell_angle_alpha 130.732525
_cell_angle_beta 49.436465
_cell_angle_gamma 113.393175
_cell_volume 532.458529
_symmetry_space_group_name_H-M "P -1"
_symmetry_group_IT_number 2
_symmetry_cell_setting 'triclinic'
loop_
_space_group_symop_operation_xyz
x,y,z
-x,-y,-z
loop_
_atom_site_type_symbol
_atom_site_label
_atom_site_fract_x
_atom_site_fract_y
_atom_site_fract_z
Si Si1 0.778575 0.321079 0.736763
Si Si2 0.659218 0.007868 0.299840
Si Si3 0.000000 0.500000 0.500000
Si Si4 0.535517 0.841480 0.008327
Si Si5 0.261824 0.526838 0.517494
Si Si6 0.062574 0.024686 0.800661
Si Si7 0.861931 0.358063 0.022556
O O1 0.611943 0.234992 0.826939
O O2 0.830944 0.527615 0.745547
O O3 0.901080 0.180920 0.450946
O O4 0.810907 0.321671 0.880492
O O5 0.701625 0.244284 0.417494
O O6 0.500000 0.000000 0.500000
O O7 0.639911 0.939601 0.105775
O O8 0.776424 0.890349 0.240541
O O9 0.094059 0.496175 0.576669
O O10 0.620435 0.644330 0.744079
O O11 0.500000 0.000000 0.000000
O O12 0.259443 0.539077 0.703121
O O13 0.936252 0.150813 0.898202
O O14 0.000000 0.000000 0.000000
O O15 0.000000 0.500000 0.000000
#
# Coordination Sequence:
#
# PCOD9070485 Si02
#       7
#     2   2   1   2   2   2   2
#     4  12  27  50  76 115 155 210 262 325 403 463
#     4  12  26  51  78 112 157 210 258 325 395 473
#     4  12  24  48  80 112 154 198 266 330 382 470
#     4  12  31  51  80 115 166 212 260 329 397 483
#     4  12  28  51  78 121 154 210 268 321 404 475
#     4  12  26  49  77 112 153 200 268 322 393 469
#     4  12  27  45  79 113 155 203 254 333 392 464
#
# _framework density 24.415047000000001
#
# number of rings (size 3 to 8) (size 9 to 14) (size 15 to 20)
#    0.000    0.000    6.154    1.385    6.462    6.154 
#    0.000    0.000    0.000    0.000    0.000    0.000 
#    0.000    0.000    0.000    0.000    0.000    0.000 
#
# Total GULP energy -72443.599425 kJ/mol
# GULP energy per Si atom -5572.584571 kJ/mol
# Density = 2.435948 g / cm^3
# Si number density = 24.415047 Si / 1000 Ang^3
#
#
#
# Elastic Constant Matrix: (Units=GPa)
#
#
# Indices 1 2 3 4 5 6 
#
# 1 131.5545 25.3289 36.9674 -0.6385 28.8942 3.9041
# 2 25.3289 57.6259 30.6441 -13.6524 -2.7047 0.9946
# 3 36.9674 30.6441 176.9407 2.2111 19.1458 -10.4099
# 4 -0.6385 -13.6524 2.2111 49.1253 4.8722 1.9209
# 5 28.8942 -2.7047 19.1458 4.8722 49.7786 -16.7836
# 6 3.9041 0.9946 -10.4099 1.9209 -16.7836 44.5612
#
#
#
# Elastic Compliance Matrix: (Units=1/GPa)
#
#
# Indices 1 2 3 4 5 6 
#
# 1 0.010373 -0.004435 -0.000839 -0.000205 -0.007166 -0.003696
# 2 -0.004435 0.022836 -0.003589 0.005949 0.004814 0.000597
# 3 -0.000839 -0.003589 0.006723 -0.001174 -0.001811 0.001093
# 4 -0.000205 0.005949 -0.001174 0.022341 -0.002003 -0.002107
# 5 -0.007166 0.004814 -0.001811 -0.002003 0.029168 0.011170
# 6 -0.003696 0.000597 0.001093 -0.002107 0.011170 0.027305
#
#
# Mechanical properties :
#
#
# Convention : Reuss Voigt Hill
#
# Bulk Modulus (GPa) = 45.02701 61.33352 53.18027
# Shear Modulus (GPa) = 34.75284 46.90506 40.82895
#
# Velocity S-wave (km/s) = 3.77692 4.38785 4.09380
# Velocity P-wave (km/s) = 6.12393 7.13069 6.64640
#
# Compressibility (1/GPa) = 0.02220889
#
# Stress axis : x y z
#
# Youngs Moduli (GPa) = 96.39975 43.79079 148.73799
#
# Poissons Ratio (x) = 0.19419 0.12476
# Poissons Ratio (y) = 0.42748 0.53375
# Poissons Ratio (z) = 0.08086 0.15714
#
# Static dielectric constant tensor:
#      x y z
#    x 1.851510 -0.152620 -0.024560 
#    y -0.152620 1.648270 -0.134360 
#    z -0.024560 -0.134360 1.898490 
# 
# From -- ./inp_files/239425.got.cif
#   From: 2010.05.17/outbox.cif.g08.bks.cpg/sg2_120_cif.got.tgz:239425.got - 2010.06.03 11:33:40.
