data_PCOD9070030
_publ_section_title
;
Structure prediction by ZEFSAII (Michael W. Deem and Ramdas Pophale) SiO2 
 PCOD9070030
Probable space group: P -1
;
_chemical_formula_sum "Si O2"
_cell_formula_units_Z 16
_cell_length_a 9.232903
_cell_length_b 24.276829
_cell_length_c 15.023257
_cell_angle_alpha 27.433750
_cell_angle_beta 30.341126
_cell_angle_gamma 48.476388
_cell_volume 702.689136
_symmetry_space_group_name_H-M "P -1"
_symmetry_group_IT_number 2
_symmetry_cell_setting 'triclinic'
loop_
_space_group_symop_operation_xyz
x,y,z
-x,-y,-z
loop_
_atom_site_type_symbol
_atom_site_label
_atom_site_fract_x
_atom_site_fract_y
_atom_site_fract_z
Si Si1 0.645749 0.193525 0.412395
Si Si2 0.199611 0.012842 0.286895
Si Si3 0.227322 0.715420 0.444349
Si Si4 0.983701 0.762008 0.318335
Si Si5 0.278892 0.448147 0.777744
Si Si6 0.757116 0.382853 0.738265
Si Si7 0.408783 0.029133 0.606931
Si Si8 0.148519 0.158706 0.448731
O O1 0.600315 0.069468 0.677623
O O2 0.349588 0.229853 0.521626
O O3 0.657317 0.144010 0.375423
O O4 0.963567 0.318349 0.099972
O O5 0.968883 0.934374 0.441401
O O6 0.000000 0.000000 0.500000
O O7 0.417384 0.165086 0.926785
O O8 0.210268 0.570239 0.672306
O O9 0.053188 0.724753 0.432776
O O10 0.057302 0.759807 0.547951
O O11 0.023578 0.654603 0.388983
O O12 0.256806 0.899968 0.935837
O O13 0.500000 0.500000 0.500000
O O14 0.499762 0.415143 0.775600
O O15 0.000000 0.500000 0.500000
O O16 0.521725 0.258516 0.100207
O O17 0.128437 0.071637 0.670696
O O18 0.500000 0.000000 0.500000
#
# Coordination Sequence:
#
# PCOD9070030 Si02
#       8
#     2   2   2   2   2   2   2   2
#     4  12  26  46  81 106 151 197 252 306 372 449
#     4  12  24  48  77 107 152 200 242 317 373 439
#     4  12  26  46  78 107 154 193 253 309 370 445
#     4  12  25  48  74 112 147 196 247 312 374 435
#     4  12  28  49  77 109 142 205 253 293 380 456
#     4  12  29  50  73 105 157 194 247 312 374 448
#     4  12  24  44  75 112 147 194 249 304 375 444
#     4  12  26  46  72 114 144 193 255 306 375 440
#
# _framework density 22.769670999999999
#
# number of rings (size 3 to 8) (size 9 to 14) (size 15 to 20)
#    0.000    0.000    6.250    3.750    3.500    3.000 
#    0.000    0.000    0.000    0.000    0.000    0.000 
#    0.000    0.000    0.000    0.000    0.000    0.000 
#
# Total GULP energy -89527.130033 kJ/mol
# GULP energy per Si atom -5595.445627 kJ/mol
# Density = 2.271785 g / cm^3
# Si number density = 22.769671 Si / 1000 Ang^3
#
#
#
# Elastic Constant Matrix: (Units=GPa)
#
#
# Indices 1 2 3 4 5 6 
#
# 1 127.0922 49.4242 47.9958 -20.1321 -26.1187 2.0204
# 2 49.4242 149.0085 43.8861 -18.4454 -25.0454 2.4139
# 3 47.9958 43.8861 106.2122 -13.0507 -32.8972 13.0501
# 4 -20.1321 -18.4454 -13.0507 41.5216 1.8482 -3.0632
# 5 -26.1187 -25.0454 -32.8972 1.8482 42.6521 -10.7146
# 6 2.0204 2.4139 13.0501 -3.0632 -10.7146 43.4545
#
#
#
# Elastic Compliance Matrix: (Units=1/GPa)
#
#
# Indices 1 2 3 4 5 6 
#
# 1 0.010921 -0.001748 -0.002811 0.003588 0.003742 0.001609
# 2 -0.001748 0.008535 -0.001711 0.002355 0.002763 0.000968
# 3 -0.002811 -0.001711 0.014247 0.001864 0.007672 -0.002030
# 4 0.003588 0.002355 0.001864 0.027420 0.004370 0.002153
# 5 0.003742 0.002763 0.007672 0.004370 0.034651 0.006220
# 6 0.001609 0.000968 -0.002030 0.002153 0.006220 0.025179
#
#
# Mechanical properties :
#
#
# Convention : Reuss Voigt Hill
#
# Bulk Modulus (GPa) = 47.24780 73.88055 60.56418
# Shear Modulus (GPa) = 35.57588 41.59275 38.58431
#
# Velocity S-wave (km/s) = 3.95704 4.27860 4.12096
# Velocity P-wave (km/s) = 6.45546 7.54492 7.02135
#
# Compressibility (1/GPa) = 0.02116501
#
# Stress axis : x y z
#
# Youngs Moduli (GPa) = 91.56506 117.16831 70.19143
#
# Poissons Ratio (x) = 0.20475 0.19730
# Poissons Ratio (y) = 0.16001 0.12006
# Poissons Ratio (z) = 0.25737 0.20042
#
# Static dielectric constant tensor:
#      x y z
#    x 1.900250 -0.115270 0.098240 
#    y -0.115270 2.096160 -0.160590 
#    z 0.098240 -0.160590 1.954700 
# 
# From -- ./inp_files/352101.got.cif
#   From: 2010.05.17/outbox.cif.g08.bks.cpg/sg2_177_cif.got.tgz:352101.got - 2010.06.03 11:33:40.
