data_PCOD9070398
_publ_section_title
;
Structure prediction by ZEFSAII (Michael W. Deem and Ramdas Pophale) SiO2 
 PCOD9070398
Probable space group: P -1
;
_chemical_formula_sum "Si O2"
_cell_formula_units_Z 14
_cell_length_a 11.546670
_cell_length_b 7.462663
_cell_length_c 8.551171
_cell_angle_alpha 99.448872
_cell_angle_beta 56.127455
_cell_angle_gamma 124.898981
_cell_volume 488.643768
_symmetry_space_group_name_H-M "P -1"
_symmetry_group_IT_number 2
_symmetry_cell_setting 'triclinic'
loop_
_space_group_symop_operation_xyz
x,y,z
-x,-y,-z
loop_
_atom_site_type_symbol
_atom_site_label
_atom_site_fract_x
_atom_site_fract_y
_atom_site_fract_z
Si Si1 0.096088 0.298727 0.610852
Si Si2 0.647396 0.254134 0.387117
Si Si3 0.395631 0.242698 0.376770
Si Si4 0.101798 0.333533 0.263270
Si Si5 0.376712 0.830250 0.201892
Si Si6 0.372331 0.303302 0.906173
Si Si7 0.890079 0.160314 0.072579
O O1 0.220220 0.571543 0.559837
O O2 0.224350 0.226993 0.523221
O O3 0.021858 0.241463 0.482965
O O4 0.986409 0.223446 0.842353
O O5 0.536269 0.336403 0.422660
O O6 0.771075 0.249412 0.169675
O O7 0.500000 0.000000 0.500000
O O8 0.349971 0.997476 0.340848
O O9 0.514840 0.437636 0.189022
O O10 0.996549 0.249426 0.167397
O O11 0.205935 0.602961 0.232329
O O12 0.243758 0.280656 0.132289
O O13 0.496337 0.760026 0.171125
O O14 0.500000 0.000000 0.000000
O O15 0.235944 0.110136 0.860553
#
# Coordination Sequence:
#
# PCOD9070398 Si02
#       7
#     2   2   2   2   2   2   2
#     4  12  28  52  87 130 182 232 298 372 457 534
#     4  12  27  54  90 127 177 240 306 360 444 546
#     4  12  25  53  91 130 172 237 308 369 437 540
#     4  12  27  53  88 134 181 233 300 376 453 535
#     4  12  24  47  91 128 173 237 303 371 440 532
#     4  12  25  53  90 126 178 241 303 364 447 541
#     4  12  30  56  90 130 187 237 287 378 463 532
#
# _framework density 28.650727
#
# number of rings (size 3 to 8) (size 9 to 14) (size 15 to 20)
#    0.000    0.000    4.286    5.143    0.000    4.571 
#    0.000    5.714    0.000    0.000    0.000    0.000 
#    0.000    0.000    0.000    0.000    0.000    0.000 
#
# Total GULP energy -78508.413030 kJ/mol
# GULP energy per Si atom -5607.743788 kJ/mol
# Density = 2.858552 g / cm^3
# Si number density = 28.650727 Si / 1000 Ang^3
#
#
#
# Elastic Constant Matrix: (Units=GPa)
#
#
# Indices 1 2 3 4 5 6 
#
# 1 164.2020 83.1897 109.0959 -11.1916 12.8344 22.0958
# 2 83.1897 229.3479 49.6181 12.4326 3.4155 20.0582
# 3 109.0959 49.6181 234.3874 18.4041 -7.5429 -0.9339
# 4 -11.1916 12.4326 18.4041 40.2996 -13.0536 -3.4327
# 5 12.8344 3.4155 -7.5429 -13.0536 48.2795 16.1816
# 6 22.0958 20.0582 -0.9339 -3.4327 16.1816 67.9428
#
#
#
# Elastic Compliance Matrix: (Units=1/GPa)
#
#
# Indices 1 2 3 4 5 6 
#
# 1 0.012423 -0.003402 -0.005620 0.006409 -0.001383 -0.002460
# 2 -0.003402 0.005689 0.000615 -0.003036 0.000019 -0.000723
# 3 -0.005620 0.000615 0.007148 -0.004618 0.000883 0.001301
# 4 0.006409 -0.003036 -0.004618 0.031732 0.006794 -0.001266
# 5 -0.001383 0.000019 0.000883 0.006794 0.024762 -0.005098
# 6 -0.002460 -0.000723 0.001301 -0.001266 -0.005098 0.016900
#
#
# Mechanical properties :
#
#
# Convention : Reuss Voigt Hill
#
# Bulk Modulus (GPa) = 118.38379 123.52720 120.95550
# Shear Modulus (GPa) = 42.27150 57.03994 49.65572
#
# Velocity S-wave (km/s) = 3.84527 4.46676 4.16762
# Velocity P-wave (km/s) = 7.81819 8.35530 8.09121
#
# Compressibility (1/GPa) = 0.00844710
#
# Stress axis : x y z
#
# Youngs Moduli (GPa) = 80.49354 175.79192 139.89724
#
# Poissons Ratio (x) = 0.59806 0.78619
# Poissons Ratio (y) = 0.27385 -0.08610
# Poissons Ratio (z) = 0.45236 -0.10819
#
# Static dielectric constant tensor:
#      x y z
#    x 2.264880 0.014260 0.096240 
#    y 0.014260 2.204590 -0.002070 
#    z 0.096240 -0.002070 2.314200 
# 
# From -- ./inp_files/410741.got.cif
#   From: 2010.05.17/outbox.cif.g08.bks.cpg/sg2_206_cif.got.tgz:410741.got - 2010.06.03 11:33:40.
