data_PCOD9070987
_publ_section_title
;
Structure prediction by ZEFSAII (Michael W. Deem and Ramdas Pophale) SiO2 
 PCOD9070987
Probable space group: P -1
;
_chemical_formula_sum "Si O2"
_cell_formula_units_Z 14
_cell_length_a 9.014103
_cell_length_b 9.016636
_cell_length_c 11.201594
_cell_angle_alpha 118.049097
_cell_angle_beta 110.606806
_cell_angle_gamma 111.758108
_cell_volume 572.130172
_symmetry_space_group_name_H-M "P -1"
_symmetry_group_IT_number 2
_symmetry_cell_setting 'triclinic'
loop_
_space_group_symop_operation_xyz
x,y,z
-x,-y,-z
loop_
_atom_site_type_symbol
_atom_site_label
_atom_site_fract_x
_atom_site_fract_y
_atom_site_fract_z
Si Si1 0.374698 0.770266 0.512140
Si Si2 0.760632 0.639680 0.528705
Si Si3 0.173453 0.954122 0.638946
Si Si4 0.589350 0.874491 0.984783
Si Si5 0.425932 0.407956 0.767145
Si Si6 0.206018 0.022346 0.175740
Si Si7 0.837502 0.514268 0.895203
O O1 0.298419 0.576297 0.511656
O O2 0.624381 0.947350 0.674338
O O3 0.268676 0.648708 0.310697
O O4 0.285803 0.889075 0.569783
O O5 0.579034 0.599242 0.382397
O O6 0.820561 0.812245 0.712954
O O7 0.936203 0.743617 0.517058
O O8 0.257352 0.015059 0.819707
O O9 0.237091 0.174942 0.683008
O O10 0.436907 0.614060 0.872523
O O11 0.694496 0.908660 0.900879
O O12 0.500000 0.000000 0.000000
O O13 0.638342 0.458400 0.885833
O O14 0.989773 0.775734 0.011013
O O15 0.000000 0.500000 0.000000
#
# Coordination Sequence:
#
# PCOD9070987 Si02
#       7
#     2   2   2   2   2   2   2
#     4  12  25  51  79 111 157 201 264 325 383 462
#     4  12  25  49  79 112 150 208 263 318 393 462
#     4  12  27  46  75 113 160 206 251 324 394 462
#     4  12  25  48  77 112 155 205 263 316 387 463
#     4  12  26  49  76 114 160 203 256 327 389 462
#     4  12  25  49  80 108 150 205 259 319 384 460
#     4  12  29  47  79 117 156 207 260 318 394 466
#
# _framework density 24.469957000000001
#
# number of rings (size 3 to 8) (size 9 to 14) (size 15 to 20)
#    0.000    0.000    4.286    5.143    2.000    4.000 
#    2.571    0.000    0.000    0.000    0.000    0.000 
#    0.000    0.000    0.000    0.000    0.000    0.000 
#
# Total GULP energy -78377.552721 kJ/mol
# GULP energy per Si atom -5598.396623 kJ/mol
# Density = 2.441426 g / cm^3
# Si number density = 24.469957 Si / 1000 Ang^3
#
#
#
# Elastic Constant Matrix: (Units=GPa)
#
#
# Indices 1 2 3 4 5 6 
#
# 1 53.2518 31.6526 24.0497 19.9351 -6.3265 -9.5918
# 2 31.6526 110.0880 17.8403 -2.4668 15.3098 -13.1172
# 3 24.0497 17.8403 145.7252 -11.3686 0.1798 -5.0472
# 4 19.9351 -2.4668 -11.3686 48.1254 -2.4555 7.9918
# 5 -6.3265 15.3098 0.1798 -2.4555 35.4376 7.7122
# 6 -9.5918 -13.1172 -5.0472 7.9918 7.7122 36.9500
#
#
#
# Elastic Compliance Matrix: (Units=1/GPa)
#
#
# Indices 1 2 3 4 5 6 
#
# 1 0.036422 -0.010189 -0.005912 -0.017783 0.008140 0.007177
# 2 -0.010189 0.013503 0.000463 0.004115 -0.008022 0.002996
# 3 -0.005912 0.000463 0.008098 0.004528 -0.000746 -0.001088
# 4 -0.017783 0.004115 0.004528 0.030882 -0.000870 -0.009034
# 5 0.008140 -0.008022 -0.000746 -0.000870 0.034803 -0.007913
# 6 0.007177 0.002996 -0.001088 -0.009034 -0.007913 0.033447
#
#
# Mechanical properties :
#
#
# Convention : Reuss Voigt Hill
#
# Bulk Modulus (GPa) = 37.38855 50.68335 44.03595
# Shear Modulus (GPa) = 25.33612 39.80409 32.57011
#
# Velocity S-wave (km/s) = 3.22125 4.03755 3.65228
# Velocity P-wave (km/s) = 5.39887 6.51868 5.98502
#
# Compressibility (1/GPa) = 0.02674616
#
# Stress axis : x y z
#
# Youngs Moduli (GPa) = 27.45589 74.05772 123.49098
#
# Poissons Ratio (x) = 0.75460 0.73011
# Poissons Ratio (y) = 0.27976 -0.05720
# Poissons Ratio (z) = 0.16233 -0.03431
#
# Static dielectric constant tensor:
#      x y z
#    x 2.054850 -0.051710 0.107500 
#    y -0.051710 1.939310 -0.030780 
#    z 0.107500 -0.030780 2.027700 
# 
# From -- ./inp_files/256665.got.cif
#   From: 2010.05.17/outbox.cif.g08.bks.cpg/sg2_129_cif.got.tgz:256665.got - 2010.06.03 11:33:40.
