data_PCOD9070783
_publ_section_title
;
Structure prediction by ZEFSAII (Michael W. Deem and Ramdas Pophale) SiO2 
 PCOD9070783
Probable space group: P -1
;
_chemical_formula_sum "Si O2"
_cell_formula_units_Z 16
_cell_length_a 10.404011
_cell_length_b 8.785090
_cell_length_c 12.424045
_cell_angle_alpha 134.999999
_cell_angle_beta 89.999909
_cell_angle_gamma 114.972877
_cell_volume 644.131016
_symmetry_space_group_name_H-M "P -1"
_symmetry_group_IT_number 2
_symmetry_cell_setting 'triclinic'
loop_
_space_group_symop_operation_xyz
x,y,z
-x,-y,-z
loop_
_atom_site_type_symbol
_atom_site_label
_atom_site_fract_x
_atom_site_fract_y
_atom_site_fract_z
Si Si1 0.880177 0.193304 0.805645
Si Si2 0.041581 0.941144 0.695370
Si Si3 0.458431 0.408028 0.254239
Si Si4 0.619820 0.201840 0.507483
Si Si5 0.958425 0.357979 0.653788
Si Si6 0.458434 0.008837 0.204195
Si Si7 0.880174 0.067049 0.074533
Si Si8 0.619819 0.537796 0.112336
O O1 0.911939 0.187625 0.676568
O O2 0.700808 0.083969 0.776313
O O3 0.914321 0.995016 0.756863
O O4 0.000000 0.500000 0.000000
O O5 0.200810 0.232182 0.807668
O O6 0.993464 0.743471 0.496736
O O7 0.088077 0.863768 0.764637
O O8 0.411947 0.577457 0.400891
O O9 0.585677 0.604383 0.261843
O O10 0.506559 0.256560 0.253282
O O11 0.299191 0.182347 0.075507
O O12 0.799189 0.330547 0.606854
O O13 0.500000 0.000000 0.500000
O O14 0.585683 0.066973 0.323835
O O15 0.085679 0.666370 0.842533
O O16 0.411950 0.746445 0.011060
O O17 0.000000 0.000000 0.000000
O O18 0.500000 0.500000 0.000000
#
# Coordination Sequence:
#
# PCOD9070783 Si02
#       8
#     2   2   2   2   2   2   2   2
#     4  12  25  46  75 104 146 193 246 296 369 440
#     4  12  26  47  71 109 145 192 244 306 365 436
#     4  12  26  47  71 109 145 192 244 306 365 436
#     4  12  25  46  75 104 146 193 246 296 369 440
#     4  12  26  47  71 109 145 192 244 306 365 436
#     4  12  26  47  71 109 145 192 244 306 365 436
#     4  12  25  46  75 104 146 193 246 296 369 440
#     4  12  25  46  75 104 146 193 246 296 369 440
#
# _framework density 24.839666999999999
#
# number of rings (size 3 to 8) (size 9 to 14) (size 15 to 20)
#    0.000    0.000    5.000    6.000    0.000    0.000 
#    0.000    0.000    0.000    0.000    0.000    0.000 
#    0.000    0.000    0.000    0.000    0.000    0.000 
#
# Total GULP energy -89727.548647 kJ/mol
# GULP energy per Si atom -5607.971790 kJ/mol
# Density = 2.478313 g / cm^3
# Si number density = 24.839667 Si / 1000 Ang^3
#
#
#
# Elastic Constant Matrix: (Units=GPa)
#
#
# Indices 1 2 3 4 5 6 
#
# 1 62.4734 -0.0939 4.0665 4.0923 -7.5380 -5.0074
# 2 -0.0939 92.5888 5.1810 -12.0556 -1.2287 -12.8310
# 3 4.0665 5.1810 84.7808 -4.5965 -15.9456 -3.5349
# 4 4.0923 -12.0556 -4.5965 44.5398 -4.0074 -1.7703
# 5 -7.5380 -1.2287 -15.9456 -4.0074 42.7383 3.8194
# 6 -5.0074 -12.8310 -3.5349 -1.7703 3.8194 38.6526
#
#
#
# Elastic Compliance Matrix: (Units=1/GPa)
#
#
# Indices 1 2 3 4 5 6 
#
# 1 0.016561 0.000170 -0.000317 -0.001207 0.002528 0.001868
# 2 0.000170 0.011816 -0.000345 0.003325 0.000191 0.004046
# 3 -0.000317 -0.000345 0.012861 0.001723 0.004839 0.000621
# 4 -0.001207 0.003325 0.001723 0.023952 0.002598 0.001945
# 5 0.002528 0.000191 0.004839 0.002598 0.026043 -0.001621
# 6 0.001868 0.004046 0.000621 0.001945 -0.001621 0.027763
#
#
# Mechanical properties :
#
#
# Convention : Reuss Voigt Hill
#
# Bulk Modulus (GPa) = 24.84261 28.68339 26.76300
# Shear Modulus (GPa) = 37.48170 40.56545 39.02357
#
# Velocity S-wave (km/s) = 3.88873 4.04554 3.96791
# Velocity P-wave (km/s) = 5.49416 5.77878 5.63827
#
# Compressibility (1/GPa) = 0.04025342
#
# Stress axis : x y z
#
# Youngs Moduli (GPa) = 60.38129 84.62997 77.75588
#
# Poissons Ratio (x) = -0.01437 0.02464
# Poissons Ratio (y) = -0.01025 0.02685
# Poissons Ratio (z) = 0.01914 0.02923
#
# Static dielectric constant tensor:
#      x y z
#    x 1.932250 -0.032040 -0.037030 
#    y -0.032040 1.979050 -0.018810 
#    z -0.037030 -0.018810 1.973560 
# 
# From -- ./inp_files/207758.got.cif
#   From: 2010.05.17/outbox.cif.g08.bks.cpg/sg2_104_cif.got.tgz:207758.got - 2010.06.03 11:33:40.
