data_PCOD9070386
_publ_section_title
;
Structure prediction by ZEFSAII (Michael W. Deem and Ramdas Pophale) SiO2 
 PCOD9070386
Probable space group: P -1
;
_chemical_formula_sum "Si O2"
_cell_formula_units_Z 14
_cell_length_a 5.324576
_cell_length_b 20.675986
_cell_length_c 14.823345
_cell_angle_alpha 25.777888
_cell_angle_beta 109.568574
_cell_angle_gamma 94.657810
_cell_volume 563.735177
_symmetry_space_group_name_H-M "P -1"
_symmetry_group_IT_number 2
_symmetry_cell_setting 'triclinic'
loop_
_space_group_symop_operation_xyz
x,y,z
-x,-y,-z
loop_
_atom_site_type_symbol
_atom_site_label
_atom_site_fract_x
_atom_site_fract_y
_atom_site_fract_z
Si Si1 0.452627 0.752004 0.432718
Si Si2 0.088075 0.592606 0.969249
Si Si3 0.611474 0.193040 0.312463
Si Si4 0.166556 0.031712 0.203561
Si Si5 0.489966 0.672110 0.250471
Si Si6 0.589643 0.728486 0.000155
Si Si7 0.068094 0.326934 0.560745
O O1 0.645521 0.771454 0.351665
O O2 0.140364 0.758418 0.354934
O O3 0.376569 0.885226 0.338740
O O4 0.678154 0.555537 0.746666
O O5 0.275391 0.670303 0.847087
O O6 0.752407 0.733567 0.796917
O O7 0.000000 0.500000 0.000000
O O8 0.626041 0.154391 0.255877
O O9 0.813812 0.056149 0.586998
O O10 0.274500 0.165628 0.070333
O O11 0.813651 0.147835 0.978056
O O12 0.500000 0.500000 0.500000
O O13 0.794387 0.663973 0.337603
O O14 0.442403 0.684983 0.121090
O O15 0.852765 0.532045 0.245225
#
# Coordination Sequence:
#
# PCOD9070386 Si02
#       7
#     2   2   2   2   2   2   2
#     4  12  27  49  81 120 155 204 264 325 395 462
#     4  12  24  47  79 114 162 208 253 318 400 476
#     4  12  28  47  82 119 157 208 259 321 398 478
#     4  12  31  48  80 121 162 201 264 335 393 465
#     4  12  29  52  81 113 158 213 272 326 389 466
#     4  12  27  52  80 114 157 212 264 323 398 473
#     4  12  27  51  82 110 153 213 268 313 389 473
#
# _framework density 24.834358000000002
#
# number of rings (size 3 to 8) (size 9 to 14) (size 15 to 20)
#    0.000    0.000    5.714    2.143   10.000    1.714 
#    0.000    0.000    0.000    0.000    0.000    0.000 
#    0.000    0.000    0.000    0.000    0.000    0.000 
#
# Total GULP energy -78463.445706 kJ/mol
# GULP energy per Si atom -5604.531836 kJ/mol
# Density = 2.477783 g / cm^3
# Si number density = 24.834358 Si / 1000 Ang^3
#
#
#
# Elastic Constant Matrix: (Units=GPa)
#
#
# Indices 1 2 3 4 5 6 
#
# 1 117.7647 53.4957 29.0481 -2.2025 5.8126 -6.6376
# 2 53.4957 127.5466 26.9776 18.8948 -4.3330 -3.2727
# 3 29.0481 26.9776 82.4635 13.4542 16.3137 -27.0520
# 4 -2.2025 18.8948 13.4542 34.5268 4.0969 -5.3500
# 5 5.8126 -4.3330 16.3137 4.0969 27.5688 15.8345
# 6 -6.6376 -3.2727 -27.0520 -5.3500 15.8345 50.8204
#
#
#
# Elastic Compliance Matrix: (Units=1/GPa)
#
#
# Indices 1 2 3 4 5 6 
#
# 1 0.011836 -0.005514 -0.001552 0.005284 -0.004577 0.002347
# 2 -0.005514 0.012753 -0.005896 -0.007663 0.012183 -0.007640
# 3 -0.001552 -0.005896 0.029229 -0.000589 -0.032123 0.024923
# 4 0.005284 -0.007663 -0.000589 0.036222 -0.011541 0.007293
# 5 -0.004577 0.012183 -0.032123 -0.011541 0.085608 -0.044801
# 6 0.002347 -0.007640 0.024923 0.007293 -0.044801 0.047485
#
#
# Mechanical properties :
#
#
# Convention : Reuss Voigt Hill
#
# Bulk Modulus (GPa) = 35.84996 60.75750 48.30373
# Shear Modulus (GPa) = 19.35311 37.13343 28.24327
#
# Velocity S-wave (km/s) = 2.79460 3.87103 3.37600
# Velocity P-wave (km/s) = 4.98799 6.67069 5.88974
#
# Compressibility (1/GPa) = 0.02789403
#
# Stress axis : x y z
#
# Youngs Moduli (GPa) = 84.48630 78.41271 34.21252
#
# Poissons Ratio (x) = 0.43238 0.05311
# Poissons Ratio (y) = 0.46587 0.20171
# Poissons Ratio (z) = 0.13114 0.46231
#
# Static dielectric constant tensor:
#      x y z
#    x 1.998480 -0.053040 0.043140 
#    y -0.053040 1.965990 -0.016470 
#    z 0.043140 -0.016470 1.967350 
# 
# From -- ./inp_files/485542.got.cif
#   From: 2010.05.17/outbox.cif.g08.bks.cpg/sg2_243_cif.got.tgz:485542.got - 2010.06.03 11:33:40.
