data_PCOD9070793
_publ_section_title
;
Structure prediction by ZEFSAII (Michael W. Deem and Ramdas Pophale) SiO2 
 PCOD9070793
Probable space group: P -1
;
_chemical_formula_sum "Si O2"
_cell_formula_units_Z 15
_cell_length_a 5.678605
_cell_length_b 9.391443
_cell_length_c 15.195559
_cell_angle_alpha 124.879214
_cell_angle_beta 105.953685
_cell_angle_gamma 68.452515
_cell_volume 616.108518
_symmetry_space_group_name_H-M "P -1"
_symmetry_group_IT_number 2
_symmetry_cell_setting 'triclinic'
loop_
_space_group_symop_operation_xyz
x,y,z
-x,-y,-z
loop_
_atom_site_type_symbol
_atom_site_label
_atom_site_fract_x
_atom_site_fract_y
_atom_site_fract_z
Si Si1 0.129784 0.259935 0.906235
Si Si2 0.204082 0.934811 0.673647
Si Si3 0.500000 0.500000 0.000000
Si Si4 0.638032 0.650859 0.719135
Si Si5 0.005438 0.631678 0.465945
Si Si6 0.408856 0.146706 0.616805
Si Si7 0.788375 0.893941 0.955306
Si Si8 0.378732 0.569199 0.187644
O O1 0.383373 0.319600 0.932382
O O2 0.872928 0.394590 0.888012
O O3 0.131590 0.070086 0.795315
O O4 0.108152 0.240385 0.000872
O O5 0.426137 0.772361 0.678012
O O6 0.023685 0.823009 0.573514
O O7 0.280962 0.055201 0.647224
O O8 0.412392 0.515901 0.893035
O O9 0.771673 0.481651 0.612715
O O10 0.775425 0.792299 0.825911
O O11 0.582406 0.559400 0.771157
O O12 0.000000 0.500000 0.500000
O O13 0.773994 0.683991 0.392476
O O14 0.617160 0.232797 0.710655
O O15 0.500000 0.000000 0.500000
O O16 0.500000 0.000000 0.000000
O O17 0.000000 0.000000 0.000000
#
# Coordination Sequence:
#
# PCOD9070793 Si02
#       8
#     2   2   1   2   2   2   2   2
#     4  12  27  48  79 111 155 209 262 337 397 500
#     4  12  25  48  73 108 152 197 269 318 406 473
#     4  12  26  48  74 112 156 196 268 328 414 468
#     4  12  27  47  74 112 158 210 260 340 403 488
#     4  12  27  47  75 112 156 207 262 336 409 487
#     4  12  25  46  76 106 150 201 267 331 397 484
#     4  12  30  49  79 119 163 211 273 337 409 489
#     4  12  27  46  75 111 150 200 259 324 411 475
#
# _framework density 24.346360000000001
#
# number of rings (size 3 to 8) (size 9 to 14) (size 15 to 20)
#    0.000    0.000    4.000    5.200    5.600    1.067 
#    0.000    0.000    0.000    0.000    0.000    0.000 
#    0.000    0.000    0.000    0.000    0.000    0.000 
#
# Total GULP energy -83615.496811 kJ/mol
# GULP energy per Si atom -5574.366454 kJ/mol
# Density = 2.429095 g / cm^3
# Si number density = 24.346360 Si / 1000 Ang^3
#
#
#
# Elastic Constant Matrix: (Units=GPa)
#
#
# Indices 1 2 3 4 5 6 
#
# 1 33.8058 35.4661 2.8130 -10.4170 22.6181 3.5417
# 2 35.4661 129.4954 8.2638 -24.4830 4.4857 7.4574
# 3 2.8130 8.2638 119.3588 -1.3738 18.2093 -3.5804
# 4 -10.4170 -24.4830 -1.3738 63.6513 14.6560 -11.7513
# 5 22.6181 4.4857 18.2093 14.6560 51.7207 9.7296
# 6 3.5417 7.4574 -3.5804 -11.7513 9.7296 46.9106
#
#
#
# Elastic Compliance Matrix: (Units=1/GPa)
#
#
# Indices 1 2 3 4 5 6 
#
# 1 0.083065 -0.018714 0.006678 0.018845 -0.044493 0.011162
# 2 -0.018714 0.012704 -0.001806 -0.000637 0.008396 -0.002645
# 3 0.006678 -0.001806 0.009601 0.002838 -0.007470 0.002776
# 4 0.018845 -0.000637 0.002838 0.024281 -0.017693 0.008647
# 5 -0.044493 0.008396 -0.007470 -0.017693 0.048146 -0.012964
# 6 0.011162 -0.002645 0.002776 0.008647 -0.012964 0.025962
#
#
# Mechanical properties :
#
#
# Convention : Reuss Voigt Hill
#
# Bulk Modulus (GPa) = 12.87259 41.74953 27.31106
# Shear Modulus (GPa) = 19.42955 48.19765 33.81360
#
# Velocity S-wave (km/s) = 2.82804 4.45417 3.73078
# Velocity P-wave (km/s) = 3.99531 6.60592 5.45897
#
# Compressibility (1/GPa) = 0.07768447
#
# Stress axis : x y z
#
# Youngs Moduli (GPa) = 12.03881 78.71462 104.15163
#
# Poissons Ratio (x) = 1.47310 -0.69549
# Poissons Ratio (y) = 0.22530 0.18811
# Poissons Ratio (z) = -0.08039 0.14217
#
# Static dielectric constant tensor:
#      x y z
#    x 2.213870 0.021690 0.061010 
#    y 0.021690 1.917490 -0.069430 
#    z 0.061010 -0.069430 1.874360 
# 
# From -- ./inp_files/323977.got.cif
#   From: 2010.05.17/outbox.cif.g08.bks.cpg/sg2_162_cif.got.tgz:323977.got - 2010.06.03 11:33:40.
