data_PCOD9070696
_publ_section_title
;
Structure prediction by ZEFSAII (Michael W. Deem and Ramdas Pophale) SiO2 
 PCOD9070696
Probable space group: P -1
;
_chemical_formula_sum "Si O2"
_cell_formula_units_Z 12
_cell_length_a 5.279561
_cell_length_b 9.190902
_cell_length_c 15.465578
_cell_angle_alpha 122.856489
_cell_angle_beta 127.481115
_cell_angle_gamma 54.954826
_cell_volume 465.515770
_symmetry_space_group_name_H-M "P -1"
_symmetry_group_IT_number 2
_symmetry_cell_setting 'triclinic'
loop_
_space_group_symop_operation_xyz
x,y,z
-x,-y,-z
loop_
_atom_site_type_symbol
_atom_site_label
_atom_site_fract_x
_atom_site_fract_y
_atom_site_fract_z
Si Si1 0.648839 0.325189 0.534888
Si Si2 0.626475 0.387862 0.280780
Si Si3 0.543501 0.695303 0.059112
Si Si4 0.654239 0.694721 0.271640
Si Si5 0.700451 0.939811 0.614405
Si Si6 0.215737 0.196804 0.029162
O O1 0.500000 0.500000 0.500000
O O2 0.497241 0.424829 0.626401
O O3 0.537240 0.161709 0.425662
O O4 0.049573 0.264218 0.603396
O O5 0.702519 0.483714 0.239652
O O6 0.352293 0.298601 0.165419
O O7 0.929706 0.226102 0.343297
O O8 0.713416 0.719321 0.191335
O O9 0.500000 0.500000 0.000000
O O10 0.768867 0.699698 0.024879
O O11 0.139193 0.822651 0.023040
O O12 0.313695 0.869237 0.282880
O O13 0.500000 0.000000 0.500000
O O14 0.500000 0.000000 0.000000
#
# Coordination Sequence:
#
# PCOD9070696 Si02
#       6
#     2   2   2   2   2   2
#     4  12  25  45  73 102 144 190 242 302 365 435
#     4  12  26  47  73 104 148 193 238 307 376 434
#     4  12  26  48  77 110 147 195 249 306 372 445
#     4  12  26  45  75 105 145 194 244 300 371 442
#     4  12  25  46  71 105 143 188 245 299 362 443
#     4  12  28  49  77 111 152 192 251 311 372 446
#
# _framework density 25.77786
#
# number of rings (size 3 to 8) (size 9 to 14) (size 15 to 20)
#    0.000    0.000    5.000    5.000    2.333    2.667 
#    0.000    0.000    0.000    0.000    0.000    0.000 
#    0.000    0.000    0.000    0.000    0.000    0.000 
#
# Total GULP energy -67004.525116 kJ/mol
# GULP energy per Si atom -5583.710426 kJ/mol
# Density = 2.571919 g / cm^3
# Si number density = 25.777860 Si / 1000 Ang^3
#
#
#
# Elastic Constant Matrix: (Units=GPa)
#
#
# Indices 1 2 3 4 5 6 
#
# 1 71.3442 29.9355 15.6958 -15.3463 5.7200 -6.4624
# 2 29.9355 169.6389 18.4986 -12.0832 -8.2720 -9.4534
# 3 15.6958 18.4986 96.7902 -14.8610 5.6252 2.7872
# 4 -15.3463 -12.0832 -14.8610 32.1120 -2.4322 -4.9052
# 5 5.7200 -8.2720 5.6252 -2.4322 38.3256 -2.3975
# 6 -6.4624 -9.4534 2.7872 -4.9052 -2.3975 49.0864
#
#
#
# Elastic Compliance Matrix: (Units=1/GPa)
#
#
# Indices 1 2 3 4 5 6 
#
# 1 0.017184 -0.002382 -0.001199 0.006961 -0.002307 0.002455
# 2 -0.002382 0.006673 -0.000842 0.001333 0.002082 0.001254
# 3 -0.001199 -0.000842 0.011434 0.004197 -0.001453 -0.000621
# 4 0.006961 0.001333 0.004197 0.037741 0.001326 0.004771
# 5 -0.002307 0.002082 -0.001453 0.001326 0.027286 0.001645
# 6 0.002455 0.001254 -0.000621 0.004771 0.001645 0.021529
#
#
# Mechanical properties :
#
#
# Convention : Reuss Voigt Hill
#
# Bulk Modulus (GPa) = 37.81244 51.78147 44.79695
# Shear Modulus (GPa) = 35.84010 42.14767 38.99389
#
# Velocity S-wave (km/s) = 3.73278 4.04794 3.89355
# Velocity P-wave (km/s) = 5.76876 6.47912 6.13423
#
# Compressibility (1/GPa) = 0.02644633
#
# Stress axis : x y z
#
# Youngs Moduli (GPa) = 58.19211 149.85104 87.46110
#
# Poissons Ratio (x) = 0.35688 0.10489
# Poissons Ratio (y) = 0.13859 0.07362
# Poissons Ratio (z) = 0.06979 0.12613
#
# Static dielectric constant tensor:
#      x y z
#    x 2.047410 -0.111270 -0.066990 
#    y -0.111270 1.731850 0.328540 
#    z -0.066990 0.328540 1.751940 
# 
# From -- ./inp_files/26633.got.cif
#   From: 2010.05.17/outbox.cif.g08.bks.cpg/sg2_14_cif.got.tgz:26633.got - 2010.06.03 11:33:40.
