data_PCOD9070391
_publ_section_title
;
Structure prediction by ZEFSAII (Michael W. Deem and Ramdas Pophale) SiO2 
 PCOD9070391
Probable space group: P -1
;
_chemical_formula_sum "Si O2"
_cell_formula_units_Z 14
_cell_length_a 11.935291
_cell_length_b 10.477734
_cell_length_c 8.841860
_cell_angle_alpha 65.918595
_cell_angle_beta 79.522112
_cell_angle_gamma 34.009409
_cell_volume 537.504501
_symmetry_space_group_name_H-M "P -1"
_symmetry_group_IT_number 2
_symmetry_cell_setting 'triclinic'
loop_
_space_group_symop_operation_xyz
x,y,z
-x,-y,-z
loop_
_atom_site_type_symbol
_atom_site_label
_atom_site_fract_x
_atom_site_fract_y
_atom_site_fract_z
Si Si1 0.280436 0.424957 0.132053
Si Si2 0.503350 0.721832 0.140225
Si Si3 0.500000 0.500000 0.500000
Si Si4 0.133693 0.299151 0.929960
Si Si5 0.766885 0.221600 0.011622
Si Si6 0.500000 0.000000 0.500000
Si Si7 0.862596 0.521389 0.442603
Si Si8 0.147137 0.953809 0.581044
O O1 0.438942 0.146080 0.289404
O O2 0.039920 0.631480 0.127937
O O3 0.316065 0.408449 0.951503
O O4 0.332681 0.526042 0.127922
O O5 0.567241 0.562308 0.342850
O O6 0.358885 0.767216 0.050104
O O7 0.340202 0.011563 0.078545
O O8 0.346261 0.763463 0.513618
O O9 0.186812 0.358938 0.763815
O O10 0.000000 0.500000 0.000000
O O11 0.787939 0.172879 0.208986
O O12 0.000000 0.000000 0.000000
O O13 0.341290 0.273970 0.500262
O O14 0.000000 0.500000 0.500000
O O15 0.011761 0.233220 0.517857
O O16 0.000000 0.000000 0.500000
#
# Coordination Sequence:
#
# PCOD9070391 Si02
#       8
#     2   2   1   2   2   1   2   2
#     4  12  26  47  75 112 150 201 256 322 393 465
#     4  12  26  50  76 114 155 201 265 329 394 481
#     4  12  28  48  78 118 156 208 260 330 408 472
#     4  12  27  49  75 106 160 205 251 322 399 474
#     4  12  24  47  81 107 154 204 261 323 399 470
#     4  12  26  48  80 118 148 202 270 328 388 472
#     4  12  26  49  78 116 156 204 265 328 393 473
#     4  12  29  50  77 118 163 205 263 333 403 477
#
# _framework density 26.046294
#
# number of rings (size 3 to 8) (size 9 to 14) (size 15 to 20)
#    0.000    0.000    5.714    3.857    2.000    1.714 
#    5.143    0.000    0.000    0.000    0.000    0.000 
#    0.000    0.000    0.000    0.000    0.000    0.000 
#
# Total GULP energy -77951.208531 kJ/mol
# GULP energy per Si atom -5567.943467 kJ/mol
# Density = 2.598701 g / cm^3
# Si number density = 26.046294 Si / 1000 Ang^3
#
#
#
# Elastic Constant Matrix: (Units=GPa)
#
#
# Indices 1 2 3 4 5 6 
#
# 1 100.0650 27.9825 20.1263 2.5855 14.7551 13.8428
# 2 27.9825 214.7014 51.9998 2.7040 -19.8423 12.8833
# 3 20.1263 51.9998 150.0311 -4.0455 -33.7793 -1.6241
# 4 2.5855 2.7040 -4.0455 71.7202 5.9567 -17.8268
# 5 14.7551 -19.8423 -33.7793 5.9567 40.8154 5.4246
# 6 13.8428 12.8833 -1.6241 -17.8268 5.4246 48.0804
#
#
#
# Elastic Compliance Matrix: (Units=1/GPa)
#
#
# Indices 1 2 3 4 5 6 
#
# 1 0.012381 -0.001413 -0.002799 -0.000646 -0.007023 -0.002728
# 2 -0.001413 0.005475 -0.001175 -0.000858 0.002552 -0.001706
# 3 -0.002799 -0.001175 0.009261 0.000148 0.008006 0.000585
# 4 -0.000646 -0.000858 0.000148 0.015945 -0.003279 0.006703
# 5 -0.007023 0.002552 0.008006 -0.003279 0.035870 -0.003654
# 6 -0.002728 -0.001706 0.000585 0.006703 -0.003654 0.024958
#
#
# Mechanical properties :
#
#
# Convention : Reuss Voigt Hill
#
# Bulk Modulus (GPa) = 61.18954 73.89051 67.54002
# Shear Modulus (GPa) = 41.62736 56.43582 49.03159
#
# Velocity S-wave (km/s) = 4.00209 4.65989 4.34346
# Velocity P-wave (km/s) = 6.70069 7.57517 7.15131
#
# Compressibility (1/GPa) = 0.01634266
#
# Stress axis : x y z
#
# Youngs Moduli (GPa) = 80.76750 182.63379 107.98055
#
# Poissons Ratio (x) = 0.25804 0.30227
# Poissons Ratio (y) = 0.11412 0.12690
# Poissons Ratio (z) = 0.22609 0.21464
#
# Static dielectric constant tensor:
#      x y z
#    x 2.279680 -0.017330 0.082920 
#    y -0.017330 2.100730 -0.015460 
#    z 0.082920 -0.015460 2.002530 
# 
# From -- ./inp_files/302560.got.cif
#   From: 2010.05.17/outbox.cif.g08.bks.cpg/sg2_152_cif.got.tgz:302560.got - 2010.06.03 11:33:40.
