data_PCOD9070361
_publ_section_title
;
Structure prediction by ZEFSAII (Michael W. Deem and Ramdas Pophale) SiO2 
 PCOD9070361
Probable space group: P -1
;
_chemical_formula_sum "Si O2"
_cell_formula_units_Z 14
_cell_length_a 15.293297
_cell_length_b 9.461657
_cell_length_c 12.621941
_cell_angle_alpha 135.202409
_cell_angle_beta 26.471857
_cell_angle_gamma 131.700215
_cell_volume 571.011249
_symmetry_space_group_name_H-M "P -1"
_symmetry_group_IT_number 2
_symmetry_cell_setting 'triclinic'
loop_
_space_group_symop_operation_xyz
x,y,z
-x,-y,-z
loop_
_atom_site_type_symbol
_atom_site_label
_atom_site_fract_x
_atom_site_fract_y
_atom_site_fract_z
Si Si1 0.183097 0.880936 0.999196
Si Si2 0.806360 0.354188 0.925004
Si Si3 0.847338 0.379950 0.401392
Si Si4 0.799378 0.968377 0.349090
Si Si5 0.327720 0.328613 0.126731
Si Si6 0.402865 0.880472 0.140116
Si Si7 0.509205 0.340063 0.579808
O O1 0.160209 0.808792 0.107543
O O2 0.265864 0.118335 0.021887
O O3 0.328459 0.726764 0.713437
O O4 0.977108 0.862827 0.151807
O O5 0.779961 0.247749 0.782992
O O6 0.990131 0.521503 0.803265
O O7 0.603212 0.462212 0.217778
O O8 0.881554 0.169101 0.304898
O O9 0.844192 0.539195 0.585208
O O10 0.633259 0.350245 0.559538
O O11 0.666234 0.019460 0.623284
O O12 0.666315 0.837084 0.339113
O O13 0.500000 0.500000 0.000000
O O14 0.420454 0.246276 0.087528
O O15 0.500000 0.000000 0.000000
#
# Coordination Sequence:
#
# PCOD9070361 Si02
#       7
#     2   2   2   2   2   2   2
#     4  12  28  48  74 108 147 188 241 299 359 426
#     4  12  28  46  75 109 143 191 242 296 358 430
#     4  12  28  46  75 109 143 191 242 296 358 430
#     4  12  28  48  74 108 147 188 241 299 359 426
#     4  12  24  47  77 105 142 190 238 297 362 421
#     4  12  24  47  77 105 142 190 238 297 362 421
#     4  12  26  50  74 102 148 192 246 292 360 422
#
# _framework density 24.517904999999999
#
# number of rings (size 3 to 8) (size 9 to 14) (size 15 to 20)
#    0.000    0.000    5.714    2.571    4.000    9.143 
#    0.000    0.000    0.000    0.000    0.000    0.000 
#    0.000    0.000    0.000    0.000    0.000    0.000 
#
# Total GULP energy -78205.914266 kJ/mol
# GULP energy per Si atom -5586.136733 kJ/mol
# Density = 2.446210 g / cm^3
# Si number density = 24.517905 Si / 1000 Ang^3
#
#
#
# Elastic Constant Matrix: (Units=GPa)
#
#
# Indices 1 2 3 4 5 6 
#
# 1 119.7994 37.8755 26.1302 9.0477 -18.7889 13.0765
# 2 37.8755 76.9894 28.2543 5.3297 3.8373 2.5520
# 3 26.1302 28.2543 74.9783 4.0411 -7.6258 18.3615
# 4 9.0477 5.3297 4.0411 26.2712 1.6836 -8.0845
# 5 -18.7889 3.8373 -7.6258 1.6836 44.9593 9.9390
# 6 13.0765 2.5520 18.3615 -8.0845 9.9390 34.7836
#
#
#
# Elastic Compliance Matrix: (Units=1/GPa)
#
#
# Indices 1 2 3 4 5 6 
#
# 1 0.012931 -0.006534 0.001404 -0.006685 0.008461 -0.009094
# 2 -0.006534 0.018964 -0.007680 0.002473 -0.007476 0.007830
# 3 0.001404 -0.007680 0.020625 -0.007216 0.008305 -0.014902
# 4 -0.006685 0.002473 -0.007216 0.047886 -0.010503 0.020272
# 5 0.008461 -0.007476 0.008305 -0.010503 0.032352 -0.018702
# 6 -0.009094 0.007830 -0.014902 0.020272 -0.018702 0.049515
#
#
# Mechanical properties :
#
#
# Convention : Reuss Voigt Hill
#
# Bulk Modulus (GPa) = 37.17679 50.69858 43.93769
# Shear Modulus (GPa) = 23.05613 33.16994 28.11303
#
# Velocity S-wave (km/s) = 3.06989 3.68215 3.38987
# Velocity P-wave (km/s) = 5.26893 6.22902 5.76898
#
# Compressibility (1/GPa) = 0.02689850
#
# Stress axis : x y z
#
# Youngs Moduli (GPa) = 77.33096 52.73216 48.48458
#
# Poissons Ratio (x) = 0.34457 -0.06805
# Poissons Ratio (y) = 0.50530 0.37237
# Poissons Ratio (z) = -0.10854 0.40499
#
# Static dielectric constant tensor:
#      x y z
#    x 1.930940 0.074390 0.047160 
#    y 0.074390 2.028690 -0.036470 
#    z 0.047160 -0.036470 2.024320 
# 
# From -- ./inp_files/448122.got.cif
#   From: 2010.05.17/outbox.cif.g08.bks.cpg/sg2_225_cif.got.tgz:448122.got - 2010.06.03 11:33:40.
