data_PCOD9070692
_publ_section_title
;
Structure prediction by ZEFSAII (Michael W. Deem and Ramdas Pophale) SiO2 
 PCOD9070692
Probable space group: P -1
;
_chemical_formula_sum "Si O2"
_cell_formula_units_Z 16
_cell_length_a 9.234135
_cell_length_b 13.326742
_cell_length_c 14.829270
_cell_angle_alpha 28.951808
_cell_angle_beta 117.265797
_cell_angle_gamma 99.248566
_cell_volume 651.562293
_symmetry_space_group_name_H-M "P -1"
_symmetry_group_IT_number 2
_symmetry_cell_setting 'triclinic'
loop_
_space_group_symop_operation_xyz
x,y,z
-x,-y,-z
loop_
_atom_site_type_symbol
_atom_site_label
_atom_site_fract_x
_atom_site_fract_y
_atom_site_fract_z
Si Si1 0.197285 0.977892 0.834357
Si Si2 0.991661 0.554639 0.348897
Si Si3 0.546281 0.748108 0.539003
Si Si4 0.577133 0.777938 0.979489
Si Si5 0.287622 0.661046 0.770808
Si Si6 0.196165 0.437367 0.061539
Si Si7 0.700690 0.368037 0.716684
Si Si8 0.822895 0.975649 0.690212
O O1 0.402819 0.827324 0.957242
O O2 0.241534 0.893482 0.017801
O O3 0.039127 0.913386 0.812197
O O4 0.092715 0.273406 0.557466
O O5 0.127232 0.646578 0.280095
O O6 0.000000 0.500000 0.500000
O O7 0.764665 0.749526 0.103381
O O8 0.647965 0.661376 0.734984
O O9 0.654314 0.540139 0.656846
O O10 0.323397 0.829338 0.429604
O O11 0.529777 0.989488 0.302806
O O12 0.685740 0.514128 0.166798
O O13 0.237038 0.912904 0.514837
O O14 0.500000 0.500000 0.000000
O O15 0.160787 0.667160 0.812122
O O16 0.226728 0.232300 0.158761
O O17 0.000000 0.500000 0.000000
O O18 0.500000 0.500000 0.500000
#
# Coordination Sequence:
#
# PCOD9070692 Si02
#       8
#     2   2   2   2   2   2   2   2
#     4  12  28  49  80 112 150 196 247 308 373 446
#     4  12  29  52  79 111 148 196 250 311 379 440
#     4  12  25  49  75 106 155 197 246 314 371 438
#     4  12  26  49  78 107 155 195 245 311 370 443
#     4  12  25  45  72 106 148 198 249 298 366 438
#     4  12  28  44  70 108 153 198 251 303 367 445
#     4  12  29  50  81 113 147 195 251 307 380 445
#     4  12  25  46  73 109 150 197 250 300 370 438
#
# _framework density 24.556363000000001
#
# number of rings (size 3 to 8) (size 9 to 14) (size 15 to 20)
#    0.000    0.000    5.000    4.125    8.750    2.000 
#    0.000    0.000    0.000    0.000    0.000    0.000 
#    0.000    0.000    0.000    0.000    0.000    0.000 
#
# Total GULP energy -89507.758532 kJ/mol
# GULP energy per Si atom -5594.234908 kJ/mol
# Density = 2.450047 g / cm^3
# Si number density = 24.556363 Si / 1000 Ang^3
#
#
#
# Elastic Constant Matrix: (Units=GPa)
#
#
# Indices 1 2 3 4 5 6 
#
# 1 193.1769 23.2900 31.3166 22.2067 14.2036 -29.5620
# 2 23.2900 55.9328 -9.0644 4.5658 17.6160 -9.1601
# 3 31.3166 -9.0644 76.6325 13.5241 0.6023 0.5181
# 4 22.2067 4.5658 13.5241 36.6423 4.2286 5.2160
# 5 14.2036 17.6160 0.6023 4.2286 55.4496 4.3050
# 6 -29.5620 -9.1601 0.5181 5.2160 4.3050 39.2885
#
#
#
# Elastic Compliance Matrix: (Units=1/GPa)
#
#
# Indices 1 2 3 4 5 6 
#
# 1 0.007217 -0.001700 -0.002490 -0.003895 -0.001430 0.005740
# 2 -0.001700 0.022489 0.003931 -0.003150 -0.006907 0.005087
# 3 -0.002490 0.003931 0.015337 -0.004522 -0.000392 -0.000516
# 4 -0.003895 -0.003150 -0.004522 0.032830 0.000163 -0.007982
# 5 -0.001430 -0.006907 -0.000392 0.000163 0.020975 -0.005001
# 6 0.005740 0.005087 -0.000516 -0.007982 -0.005001 0.032572
#
#
# Mechanical properties :
#
#
# Convention : Reuss Voigt Hill
#
# Bulk Modulus (GPa) = 22.46075 46.31409 34.38742
# Shear Modulus (GPa) = 34.06451 44.95608 39.51030
#
# Velocity S-wave (km/s) = 3.72855 4.28335 4.01554
# Velocity P-wave (km/s) = 5.26332 6.58513 5.96098
#
# Compressibility (1/GPa) = 0.04452211
#
# Stress axis : x y z
#
# Youngs Moduli (GPa) = 138.56945 44.46627 65.20336
#
# Poissons Ratio (x) = 0.07560 0.16239
# Poissons Ratio (y) = 0.23559 -0.25629
# Poissons Ratio (z) = 0.34511 -0.17478
#
# Static dielectric constant tensor:
#      x y z
#    x 1.841170 -0.051320 0.081350 
#    y -0.051320 2.166610 -0.050370 
#    z 0.081350 -0.050370 1.981140 
# 
# From -- ./inp_files/505079.got.cif
#   From: 2010.05.17/outbox.cif.g08.bks.cpg/sg2_253_cif.got.tgz:505079.got - 2010.06.03 11:33:40.
