data_PCOD9070756
_publ_section_title
;
Structure prediction by ZEFSAII (Michael W. Deem and Ramdas Pophale) SiO2 
 PCOD9070756
Probable space group: P -1
;
_chemical_formula_sum "Si O2"
_cell_formula_units_Z 12
_cell_length_a 4.815243
_cell_length_b 14.820501
_cell_length_c 13.597160
_cell_angle_alpha 33.973631
_cell_angle_beta 92.701078
_cell_angle_gamma 109.849985
_cell_volume 456.467456
_symmetry_space_group_name_H-M "P -1"
_symmetry_group_IT_number 2
_symmetry_cell_setting 'triclinic'
loop_
_space_group_symop_operation_xyz
x,y,z
-x,-y,-z
loop_
_atom_site_type_symbol
_atom_site_label
_atom_site_fract_x
_atom_site_fract_y
_atom_site_fract_z
Si Si1 0.696411 0.772662 0.000074
Si Si2 0.310934 0.327805 0.381819
Si Si3 0.483579 0.182886 0.827053
Si Si4 0.669123 0.040885 0.263685
Si Si5 0.884810 0.646003 0.851509
Si Si6 0.146548 0.335227 0.593843
O O1 0.582400 0.890050 0.824662
O O2 0.087223 0.884237 0.893843
O O3 0.577810 0.554619 0.166328
O O4 0.536813 0.752059 0.122525
O O5 0.082939 0.276416 0.328787
O O6 0.150775 0.327003 0.484162
O O7 0.431123 0.178639 0.524685
O O8 0.170461 0.158094 0.789045
O O9 0.821057 0.313879 0.651403
O O10 0.500000 0.000000 0.000000
O O11 0.903886 0.172450 0.238136
O O12 0.500000 0.500000 0.000000
O O13 0.000000 0.500000 0.000000
O O14 0.500000 0.500000 0.500000
#
# Coordination Sequence:
#
# PCOD9070756 Si02
#       6
#     2   2   2   2   2   2
#     4  12  26  46  76 103 150 187 238 297 355 421
#     4  12  27  47  77 103 148 190 236 301 359 424
#     4  12  25  46  70 103 145 190 241 296 350 429
#     4  12  26  48  72 112 139 189 243 289 361 435
#     4  12  25  48  74 103 141 187 234 297 364 423
#     4  12  26  44  70 105 141 188 241 286 362 422
#
# _framework density 26.288841000000001
#
# number of rings (size 3 to 8) (size 9 to 14) (size 15 to 20)
#    0.000    0.000    5.000    4.500    0.000    4.000 
#    0.000    3.333    0.000    0.000    0.000    0.000 
#    0.000    0.000    0.000    0.000    0.000    0.000 
#
# Total GULP energy -67137.763001 kJ/mol
# GULP energy per Si atom -5594.813583 kJ/mol
# Density = 2.622901 g / cm^3
# Si number density = 26.288841 Si / 1000 Ang^3
#
#
#
# Elastic Constant Matrix: (Units=GPa)
#
#
# Indices 1 2 3 4 5 6 
#
# 1 164.7259 7.8718 32.0099 5.1798 25.6742 -19.6651
# 2 7.8718 159.0927 39.6029 10.8789 0.8349 -0.6659
# 3 32.0099 39.6029 161.6098 -15.2249 35.7906 -8.9208
# 4 5.1798 10.8789 -15.2249 70.4922 -2.7334 8.8058
# 5 25.6742 0.8349 35.7906 -2.7334 33.0213 1.3603
# 6 -19.6651 -0.6659 -8.9208 8.8058 1.3603 29.8504
#
#
#
# Elastic Compliance Matrix: (Units=1/GPa)
#
#
# Indices 1 2 3 4 5 6 
#
# 1 0.007845 -0.000269 0.000172 -0.001500 -0.006649 0.005959
# 2 -0.000269 0.006969 -0.002364 -0.001417 0.002495 -0.000424
# 3 0.000172 -0.002364 0.009281 0.001612 -0.010116 0.002820
# 4 -0.001500 -0.001417 0.001612 0.015546 0.000954 -0.005167
# 5 -0.006649 0.002495 -0.010116 0.000954 0.046835 -0.009763
# 6 0.005959 -0.000424 0.002820 -0.005167 -0.009763 0.040229
#
#
# Mechanical properties :
#
#
# Convention : Reuss Voigt Hill
#
# Bulk Modulus (GPa) = 52.15434 71.59975 61.87704
# Shear Modulus (GPa) = 36.22740 53.73571 44.98155
#
# Velocity S-wave (km/s) = 3.71624 4.52602 4.14097
# Velocity P-wave (km/s) = 6.18837 7.38973 6.81557
#
# Compressibility (1/GPa) = 0.01917386
#
# Stress axis : x y z
#
# Youngs Moduli (GPa) = 127.47080 143.48333 107.74929
#
# Poissons Ratio (x) = 0.03854 -0.01854
# Poissons Ratio (y) = 0.03424 0.25473
# Poissons Ratio (z) = -0.02193 0.33921
#
# Static dielectric constant tensor:
#      x y z
#    x 1.981830 0.010260 -0.077920 
#    y 0.010260 2.124280 -0.086160 
#    z -0.077920 -0.086160 2.380940 
# 
# From -- ./inp_files/484123.got.cif
#   From: 2010.05.17/outbox.cif.g08.bks.cpg/sg2_243_cif.got.tgz:484123.got - 2010.06.03 11:33:40.
