data_PCOD9070471
_publ_section_title
;
Structure prediction by ZEFSAII (Michael W. Deem and Ramdas Pophale) SiO2 
 PCOD9070471
Probable space group: P -1
;
_chemical_formula_sum "Si O2"
_cell_formula_units_Z 14
_cell_length_a 11.617952
_cell_length_b 10.841408
_cell_length_c 7.352278
_cell_angle_alpha 137.482807
_cell_angle_beta 123.517197
_cell_angle_gamma 60.312373
_cell_volume 515.332143
_symmetry_space_group_name_H-M "P -1"
_symmetry_group_IT_number 2
_symmetry_cell_setting 'triclinic'
loop_
_space_group_symop_operation_xyz
x,y,z
-x,-y,-z
loop_
_atom_site_type_symbol
_atom_site_label
_atom_site_fract_x
_atom_site_fract_y
_atom_site_fract_z
Si Si1 0.908863 0.154383 0.218335
Si Si2 0.039831 0.280166 0.797579
Si Si3 0.444437 0.013618 0.674133
Si Si4 0.789861 0.238977 0.787277
Si Si5 0.550841 0.561661 0.806743
Si Si6 0.264142 0.155423 0.147668
Si Si7 0.740555 0.461044 0.321016
O O1 0.039058 0.187832 0.501345
O O2 0.828587 0.293733 0.090724
O O3 0.793581 0.025165 0.036899
O O4 0.000000 0.000000 0.000000
O O5 0.924828 0.205963 0.746785
O O6 0.815071 0.355739 0.441139
O O7 0.000000 0.500000 0.000000
O O8 0.185248 0.224702 0.971015
O O9 0.309987 0.913386 0.462628
O O10 0.569302 0.896118 0.771595
O O11 0.500000 0.000000 0.500000
O O12 0.427803 0.227505 0.940853
O O13 0.688323 0.428162 0.849186
O O14 0.500000 0.500000 0.500000
O O15 0.421499 0.544074 0.810774
O O16 0.231468 0.332770 0.447994
#
# Coordination Sequence:
#
# PCOD9070471 Si02
#       7
#     2   2   2   2   2   2   2
#     4  12  27  50  76 113 157 204 262 323 390 472
#     4  12  29  54  77 116 160 206 264 322 390 467
#     4  12  25  50  83 118 154 208 265 317 390 470
#     4  12  27  48  83 112 159 207 258 324 391 461
#     4  12  26  46  77 117 158 200 257 324 385 464
#     4  12  26  47  84 109 160 205 259 324 389 461
#     4  12  24  48  77 119 152 201 264 319 392 462
#
# _framework density 27.166948000000001
#
# number of rings (size 3 to 8) (size 9 to 14) (size 15 to 20)
#    0.000    0.000    5.714    3.429    2.000    2.857 
#    2.571    0.000    0.000    0.000    0.000    0.000 
#    0.000    0.000    0.000    0.000    0.000    0.000 
#
# Total GULP energy -78390.044217 kJ/mol
# GULP energy per Si atom -5599.288873 kJ/mol
# Density = 2.710511 g / cm^3
# Si number density = 27.166948 Si / 1000 Ang^3
#
#
#
# Elastic Constant Matrix: (Units=GPa)
#
#
# Indices 1 2 3 4 5 6 
#
# 1 103.5745 30.3030 58.1341 -6.4000 -4.4469 -11.1180
# 2 30.3030 164.0225 68.6531 26.8093 5.5579 -30.1845
# 3 58.1341 68.6531 238.7338 30.9928 -1.1467 4.0325
# 4 -6.4000 26.8093 30.9928 53.6796 1.9237 13.2065
# 5 -4.4469 5.5579 -1.1467 1.9237 47.4676 5.1792
# 6 -11.1180 -30.1845 4.0325 13.2065 5.1792 45.1757
#
#
#
# Elastic Compliance Matrix: (Units=1/GPa)
#
#
# Indices 1 2 3 4 5 6 
#
# 1 0.012152 -0.001363 -0.003045 0.003558 0.000949 0.001203
# 2 -0.001363 0.009655 -0.001830 -0.005881 -0.001961 0.008223
# 3 -0.003045 -0.001830 0.005795 -0.002355 0.000365 -0.001843
# 4 0.003558 -0.005881 -0.002355 0.025905 0.001065 -0.010539
# 5 0.000949 -0.001961 0.000365 0.001065 0.021779 -0.003918
# 6 0.001203 0.008223 -0.001843 -0.010539 -0.003918 0.031621
#
#
# Mechanical properties :
#
#
# Convention : Reuss Voigt Hill
#
# Bulk Modulus (GPa) = 66.10270 91.16792 78.63531
# Shear Modulus (GPa) = 40.18508 52.54729 46.36619
#
# Velocity S-wave (km/s) = 3.85020 4.40277 4.13572
# Velocity P-wave (km/s) = 6.64456 7.71214 7.19817
#
# Compressibility (1/GPa) = 0.01512798
#
# Stress axis : x y z
#
# Youngs Moduli (GPa) = 82.28829 103.56982 172.56398
#
# Poissons Ratio (x) = 0.14116 0.52544
# Poissons Ratio (y) = 0.11215 0.31571
# Poissons Ratio (z) = 0.25056 0.18948
#
# Static dielectric constant tensor:
#      x y z
#    x 2.336400 0.094060 -0.245800 
#    y 0.094060 2.330070 -0.206070 
#    z -0.245800 -0.206070 2.273320 
# 
# From -- ./inp_files/308879.got.cif
#   From: 2010.05.17/outbox.cif.g08.bks.cpg/sg2_155_cif.got.tgz:308879.got - 2010.06.03 11:33:40.
