data_PCOD9070938
_publ_section_title
;
Structure prediction by ZEFSAII (Michael W. Deem and Ramdas Pophale) SiO2 
 PCOD9070938
Probable space group: P -1
;
_chemical_formula_sum "Si O2"
_cell_formula_units_Z 12
_cell_length_a 8.872940
_cell_length_b 8.908451
_cell_length_c 13.833987
_cell_angle_alpha 86.464471
_cell_angle_beta 35.714222
_cell_angle_gamma 69.624697
_cell_volume 547.400820
_symmetry_space_group_name_H-M "P -1"
_symmetry_group_IT_number 2
_symmetry_cell_setting 'triclinic'
loop_
_space_group_symop_operation_xyz
x,y,z
-x,-y,-z
loop_
_atom_site_type_symbol
_atom_site_label
_atom_site_fract_x
_atom_site_fract_y
_atom_site_fract_z
Si Si1 0.392239 0.652073 0.470671
Si Si2 0.841125 0.781853 0.225357
Si Si3 0.874029 0.261882 0.714897
Si Si4 0.512963 0.868453 0.712921
Si Si5 0.388073 0.560023 0.833833
Si Si6 0.715111 0.961230 0.798563
O O1 0.500000 0.500000 0.500000
O O2 0.557753 0.761280 0.398390
O O3 0.500238 0.562753 0.313212
O O4 0.034493 0.782018 0.652689
O O5 0.039147 0.748803 0.218288
O O6 0.722744 0.973675 0.237266
O O7 0.048430 0.639282 0.043134
O O8 0.605296 0.447349 0.812524
O O9 0.166908 0.220800 0.503378
O O10 0.786808 0.116088 0.743536
O O11 0.422839 0.725479 0.786125
O O12 0.553418 0.946155 0.788457
O O13 0.500000 0.000000 0.000000
#
# Coordination Sequence:
#
# PCOD9070938 Si02
#       6
#     2   2   2   2   2   2
#     4  12  28  46  72 104 144 182 235 291 344 413
#     4  12  27  46  74 105 142 183 233 287 349 415
#     4  12  25  48  73 101 143 185 233 288 347 412
#     4  12  25  48  73 101 143 185 233 288 347 412
#     4  12  27  46  74 105 142 183 233 287 349 415
#     4  12  28  47  72 102 142 188 232 287 352 411
#
# _framework density 21.921780999999999
#
# number of rings (size 3 to 8) (size 9 to 14) (size 15 to 20)
#    0.000    0.000    3.333    6.000    9.333    0.000 
#    0.000    0.000    0.000    0.000    0.000    0.000 
#    0.000    0.000    0.000    0.000    0.000    0.000 
#
# Total GULP energy -67288.368393 kJ/mol
# GULP energy per Si atom -5607.364033 kJ/mol
# Density = 2.187189 g / cm^3
# Si number density = 21.921781 Si / 1000 Ang^3
#
#
#
# Elastic Constant Matrix: (Units=GPa)
#
#
# Indices 1 2 3 4 5 6 
#
# 1 92.1415 54.2070 4.4870 -4.0803 10.6489 -8.2126
# 2 54.2070 131.8925 3.6357 -9.2382 -1.7701 -26.8695
# 3 4.4870 3.6357 101.4420 2.4218 -9.8837 -3.3327
# 4 -4.0803 -9.2382 2.4218 24.5024 -1.1555 1.4529
# 5 10.6489 -1.7701 -9.8837 -1.1555 25.5013 8.1929
# 6 -8.2126 -26.8695 -3.3327 1.4529 8.1929 37.6713
#
#
#
# Elastic Compliance Matrix: (Units=1/GPa)
#
#
# Indices 1 2 3 4 5 6 
#
# 1 0.015575 -0.006401 -0.001179 -0.000080 -0.007526 0.000366
# 2 -0.006401 0.011779 0.000158 0.003045 0.001583 0.006558
# 3 -0.001179 0.000158 0.010363 -0.000937 0.004534 -0.000178
# 4 -0.000080 0.003045 -0.000937 0.042120 0.001770 0.000062
# 5 -0.007526 0.001583 0.004534 0.001770 0.047694 -0.010552
# 6 0.000366 0.006558 -0.000178 0.000062 -0.010552 0.033580
#
#
# Mechanical properties :
#
#
# Convention : Reuss Voigt Hill
#
# Bulk Modulus (GPa) = 43.71999 50.01506 46.86752
# Shear Modulus (GPa) = 27.23661 35.07811 31.15736
#
# Velocity S-wave (km/s) = 3.52866 4.00453 3.77410
# Velocity P-wave (km/s) = 6.04887 6.65180 6.35748
#
# Compressibility (1/GPa) = 0.02287283
#
# Stress axis : x y z
#
# Youngs Moduli (GPa) = 64.20697 84.89801 96.50063
#
# Poissons Ratio (x) = 0.54341 0.11376
# Poissons Ratio (y) = 0.41097 -0.01524
# Poissons Ratio (z) = 0.07569 -0.01341
#
# Static dielectric constant tensor:
#      x y z
#    x 1.781140 0.007050 0.017820 
#    y 0.007050 1.756420 0.009930 
#    z 0.017820 0.009930 1.781390 
# 
# From -- ./inp_files/145477.got.cif
#   From: 2010.05.17/outbox.cif.g08.bks.cpg/sg2_73_cif.got.tgz:145477.got - 2010.06.03 11:33:40.
