data_PCOD9070369
_publ_section_title
;
Structure prediction by ZEFSAII (Michael W. Deem and Ramdas Pophale) SiO2 
 PCOD9070369
Probable space group: P -1
;
_chemical_formula_sum "Si O2"
_cell_formula_units_Z 14
_cell_length_a 5.377785
_cell_length_b 11.957283
_cell_length_c 13.429498
_cell_angle_alpha 136.387475
_cell_angle_beta 104.747713
_cell_angle_gamma 71.585462
_cell_volume 564.727122
_symmetry_space_group_name_H-M "P -1"
_symmetry_group_IT_number 2
_symmetry_cell_setting 'triclinic'
loop_
_space_group_symop_operation_xyz
x,y,z
-x,-y,-z
loop_
_atom_site_type_symbol
_atom_site_label
_atom_site_fract_x
_atom_site_fract_y
_atom_site_fract_z
Si Si1 0.062684 0.676905 0.657926
Si Si2 0.171309 0.832202 0.452428
Si Si3 0.511659 0.809353 0.154480
Si Si4 0.979769 0.587155 0.158779
Si Si5 0.876466 0.300268 0.090190
Si Si6 0.302460 0.990304 0.880075
Si Si7 0.253623 0.129712 0.401924
O O1 0.804068 0.795052 0.665034
O O2 0.000000 0.500000 0.500000
O O3 0.128582 0.659879 0.769178
O O4 0.265703 0.802559 0.732986
O O5 0.463830 0.846194 0.518214
O O6 0.187987 0.691932 0.281244
O O7 0.987615 0.793806 0.501098
O O8 0.000000 0.000000 0.500000
O O9 0.709875 0.719875 0.199918
O O10 0.634023 0.921268 0.159020
O O11 0.281732 0.933401 0.268004
O O12 0.390419 0.689223 0.992521
O O13 0.004049 0.439859 0.143714
O O14 0.000000 0.500000 0.000000
O O15 0.038158 0.113631 0.971566
O O16 0.500000 0.000000 0.000000
#
# Coordination Sequence:
#
# PCOD9070369 Si02
#       7
#     2   2   2   2   2   2   2
#     4  12  27  49  80 116 157 207 267 339 407 474
#     4  12  28  51  78 115 160 207 266 329 400 485
#     4  12  25  47  81 110 155 209 265 324 401 483
#     4  12  28  48  78 117 156 207 265 332 399 479
#     4  12  26  48  73 113 153 201 266 325 396 483
#     4  12  24  47  78 108 152 207 264 325 396 479
#     4  12  27  50  83 115 154 212 267 326 406 478
#
# _framework density 24.790737
#
# number of rings (size 3 to 8) (size 9 to 14) (size 15 to 20)
#    0.000    0.000    5.714    3.857    2.000    3.429 
#    0.000    4.286    0.000    0.000    0.000    0.000 
#    0.000    0.000    0.000    0.000    0.000    0.000 
#
# Total GULP energy -78206.908106 kJ/mol
# GULP energy per Si atom -5586.207722 kJ/mol
# Density = 2.473431 g / cm^3
# Si number density = 24.790737 Si / 1000 Ang^3
#
#
#
# Elastic Constant Matrix: (Units=GPa)
#
#
# Indices 1 2 3 4 5 6 
#
# 1 74.9705 10.8868 31.9668 -10.4456 27.7283 -1.2006
# 2 10.8868 70.8763 6.3489 1.8982 19.6390 -6.1065
# 3 31.9668 6.3489 161.4740 -2.7799 39.6640 0.0596
# 4 -10.4456 1.8982 -2.7799 47.9738 -9.6114 13.9898
# 5 27.7283 19.6390 39.6640 -9.6114 45.1890 -8.1691
# 6 -1.2006 -6.1065 0.0596 13.9898 -8.1691 44.5683
#
#
#
# Elastic Compliance Matrix: (Units=1/GPa)
#
#
# Indices 1 2 3 4 5 6 
#
# 1 0.017724 -0.000184 -0.001074 0.002472 -0.009707 -0.002102
# 2 -0.000184 0.016634 0.001478 -0.002815 -0.008731 0.001555
# 3 -0.001074 0.001478 0.008185 -0.001074 -0.007557 -0.000885
# 4 0.002472 -0.002815 -0.001074 0.024430 0.004552 -0.007152
# 5 -0.009707 -0.008731 -0.007557 0.004552 0.040296 0.004510
# 6 -0.002102 0.001555 -0.000885 -0.007152 0.004510 0.025667
#
#
# Mechanical properties :
#
#
# Convention : Reuss Voigt Hill
#
# Bulk Modulus (GPa) = 23.26434 45.08064 34.17249
# Shear Modulus (GPa) = 34.05458 44.75411 39.40434
#
# Velocity S-wave (km/s) = 3.71034 4.25346 3.99115
# Velocity P-wave (km/s) = 5.26879 6.50742 5.92059
#
# Compressibility (1/GPa) = 0.04298424
#
# Stress axis : x y z
#
# Youngs Moduli (GPa) = 56.41979 60.11925 122.16851
#
# Poissons Ratio (x) = 0.01105 0.13118
# Poissons Ratio (y) = 0.01037 -0.18057
# Poissons Ratio (z) = 0.06058 -0.08886
#
# Static dielectric constant tensor:
#      x y z
#    x 2.068500 -0.001390 -0.002670 
#    y -0.001390 1.914190 0.082750 
#    z -0.002670 0.082750 1.963640 
# 
# From -- ./inp_files/483125.got.cif
#   From: 2010.05.17/outbox.cif.g08.bks.cpg/sg2_242_cif.got.tgz:483125.got - 2010.06.03 11:33:40.
