data_PCOD9070438
_publ_section_title
;
Structure prediction by ZEFSAII (Michael W. Deem and Ramdas Pophale) SiO2 
 PCOD9070438
Probable space group: P -1
;
_chemical_formula_sum "Si O2"
_cell_formula_units_Z 15
_cell_length_a 11.913637
_cell_length_b 11.825890
_cell_length_c 8.238366
_cell_angle_alpha 35.612852
_cell_angle_beta 80.520641
_cell_angle_gamma 79.280942
_cell_volume 663.902779
_symmetry_space_group_name_H-M "P -1"
_symmetry_group_IT_number 2
_symmetry_cell_setting 'triclinic'
loop_
_space_group_symop_operation_xyz
x,y,z
-x,-y,-z
loop_
_atom_site_type_symbol
_atom_site_label
_atom_site_fract_x
_atom_site_fract_y
_atom_site_fract_z
Si Si1 0.437731 0.088377 0.748635
Si Si2 0.237572 0.847235 0.113848
Si Si3 0.624512 0.563635 0.434028
Si Si4 0.155010 0.004008 0.287380
Si Si5 0.113590 0.594552 0.917348
Si Si6 0.038041 0.688698 0.173217
Si Si7 0.701707 0.727380 0.887229
Si Si8 0.500000 0.000000 0.500000
O O1 0.387558 0.302123 0.562186
O O2 0.524553 0.059729 0.613897
O O3 0.500000 0.000000 0.000000
O O4 0.330276 0.969385 0.861229
O O5 0.290276 0.626439 0.348248
O O6 0.231395 0.928781 0.202781
O O7 0.111288 0.832791 0.091381
O O8 0.500000 0.500000 0.500000
O O9 0.666536 0.675929 0.138024
O O10 0.104962 0.810381 0.591093
O O11 0.218109 0.097250 0.313027
O O12 0.068002 0.177031 0.034169
O O13 0.113112 0.610685 0.092660
O O14 0.223557 0.459664 0.985514
O O15 0.000000 0.500000 0.000000
O O16 0.000000 0.500000 0.500000
O O17 0.590798 0.803568 0.724903
#
# Coordination Sequence:
#
# PCOD9070438 Si02
#       8
#     2   2   2   2   2   2   2   1
#     4  12  25  49  72 106 152 200 250 320 393 465
#     4  12  25  44  76 106 144 199 251 315 391 457
#     4  12  24  48  75 105 149 204 253 315 395 462
#     4  12  25  50  78 102 155 205 253 318 400 462
#     4  12  27  49  76 110 152 205 259 316 392 475
#     4  12  28  48  73 116 153 200 266 324 388 472
#     4  12  26  48  75 110 153 200 261 321 390 470
#     4  12  28  44  76 114 148 198 262 320 382 468
#
# _framework density 22.593669999999999
#
# number of rings (size 3 to 8) (size 9 to 14) (size 15 to 20)
#    0.000    0.000    6.667    2.400    3.733    0.000 
#    0.000    2.000    0.000    0.000    0.000    0.000 
#    0.000    0.000    0.000    0.000    0.000    0.000 
#
# Total GULP energy -83697.285224 kJ/mol
# GULP energy per Si atom -5579.819015 kJ/mol
# Density = 2.254225 g / cm^3
# Si number density = 22.593670 Si / 1000 Ang^3
#
#
#
# Elastic Constant Matrix: (Units=GPa)
#
#
# Indices 1 2 3 4 5 6 
#
# 1 69.8953 5.8605 26.5714 -11.4612 10.7378 0.7500
# 2 5.8605 135.2763 29.5931 -6.5475 26.3695 -15.7968
# 3 26.5714 29.5931 103.4340 -23.4899 3.9399 -6.3812
# 4 -11.4612 -6.5475 -23.4899 31.1941 0.4024 2.1868
# 5 10.7378 26.3695 3.9399 0.4024 35.1813 -11.2472
# 6 0.7500 -15.7968 -6.3812 2.1868 -11.2472 41.3658
#
#
#
# Elastic Compliance Matrix: (Units=1/GPa)
#
#
# Indices 1 2 3 4 5 6 
#
# 1 0.017358 0.001291 -0.003808 0.004038 -0.006664 -0.002434
# 2 0.001291 0.009387 -0.002565 0.000508 -0.006730 0.001309
# 3 -0.003808 -0.002565 0.013170 0.007869 0.001911 0.001225
# 4 0.004038 0.000508 0.007869 0.039739 -0.003498 -0.001717
# 5 -0.006664 -0.006730 0.001911 -0.003498 0.038002 0.008363
# 6 -0.002434 0.001309 0.001225 -0.001717 0.008363 0.027272
#
#
# Mechanical properties :
#
#
# Convention : Reuss Voigt Hill
#
# Bulk Modulus (GPa) = 33.61129 48.07285 40.84207
# Shear Modulus (GPa) = 30.30146 37.98693 34.14420
#
# Velocity S-wave (km/s) = 3.66614 4.10482 3.89167
# Velocity P-wave (km/s) = 5.72970 6.61736 6.18946
#
# Compressibility (1/GPa) = 0.02975191
#
# Stress axis : x y z
#
# Youngs Moduli (GPa) = 57.60874 106.53364 75.93063
#
# Poissons Ratio (x) = -0.13755 0.28915
# Poissons Ratio (y) = -0.07438 0.19474
# Poissons Ratio (z) = 0.21938 0.27323
#
# Static dielectric constant tensor:
#      x y z
#    x 2.010710 -0.015760 -0.041710 
#    y -0.015760 1.845430 0.013150 
#    z -0.041710 0.013150 1.835980 
# 
# From -- ./inp_files/261233.got.cif
#   From: 2010.05.17/outbox.cif.g08.bks.cpg/sg2_131_cif.got.tgz:261233.got - 2010.06.03 11:33:40.
