data_PCOD9070028
_publ_section_title
;
Structure prediction by ZEFSAII (Michael W. Deem and Ramdas Pophale) SiO2 
 PCOD9070028
Probable space group: P -1
;
_chemical_formula_sum "Si O2"
_cell_formula_units_Z 16
_cell_length_a 8.937146
_cell_length_b 7.013607
_cell_length_c 19.061202
_cell_angle_alpha 49.099899
_cell_angle_beta 53.774951
_cell_angle_gamma 64.569010
_cell_volume 726.746962
_symmetry_space_group_name_H-M "P -1"
_symmetry_group_IT_number 2
_symmetry_cell_setting 'triclinic'
loop_
_space_group_symop_operation_xyz
x,y,z
-x,-y,-z
loop_
_atom_site_type_symbol
_atom_site_label
_atom_site_fract_x
_atom_site_fract_y
_atom_site_fract_z
Si Si1 0.601609 0.448483 0.057608
Si Si2 0.115891 0.020716 0.893101
Si Si3 0.127037 0.109942 0.141893
Si Si4 0.362538 0.438945 0.717863
Si Si5 0.166420 0.144853 0.452503
Si Si6 0.521927 0.782320 0.401319
Si Si7 0.356526 0.586700 0.226145
Si Si8 0.182620 0.977412 0.642864
O O1 0.702807 0.171347 0.103228
O O2 0.451184 0.488794 0.151450
O O3 0.500000 0.500000 0.000000
O O4 0.762787 0.646407 0.966301
O O5 0.003623 0.945899 0.874156
O O6 0.170437 0.307542 0.806565
O O7 0.000000 0.000000 0.000000
O O8 0.997953 0.119763 0.244905
O O9 0.273179 0.870399 0.169590
O O10 0.469838 0.264378 0.672547
O O11 0.477983 0.426662 0.759883
O O12 0.315382 0.731855 0.642042
O O13 0.198577 0.414180 0.342862
O O14 0.355017 0.977839 0.422050
O O15 0.144367 0.143941 0.543422
O O16 0.000000 0.000000 0.500000
O O17 0.500000 0.500000 0.500000
O O18 0.706033 0.876593 0.364092
#
# Coordination Sequence:
#
# PCOD9070028 Si02
#       8
#     2   2   2   2   2   2   2   2
#     4  12  26  49  76 105 151 193 244 306 371 439
#     4  12  24  44  75 108 142 188 244 300 368 433
#     4  12  27  45  74 110 148 187 246 305 365 439
#     4  12  24  46  75 102 148 192 237 299 366 437
#     4  12  29  45  74 108 151 194 245 304 358 437
#     4  12  24  47  74 102 142 197 244 292 369 425
#     4  12  27  47  70 107 149 193 246 298 370 435
#     4  12  26  49  71 111 148 193 247 301 362 439
#
# _framework density 22.015913000000001
#
# number of rings (size 3 to 8) (size 9 to 14) (size 15 to 20)
#    0.000    0.000    3.750    6.375    7.000    0.500 
#    0.000    0.000    0.000    0.000    0.000    0.000 
#    0.000    0.000    0.000    0.000    0.000    0.000 
#
# Total GULP energy -89562.762606 kJ/mol
# GULP energy per Si atom -5597.672663 kJ/mol
# Density = 2.196580 g / cm^3
# Si number density = 22.015913 Si / 1000 Ang^3
#
#
#
# Elastic Constant Matrix: (Units=GPa)
#
#
# Indices 1 2 3 4 5 6 
#
# 1 82.5192 6.6876 17.9173 4.4454 8.2134 26.2700
# 2 6.6876 78.1303 28.4344 3.8133 8.2936 3.1161
# 3 17.9173 28.4344 110.0232 7.1489 10.0220 18.1611
# 4 4.4454 3.8133 7.1489 59.2549 9.2925 0.9597
# 5 8.2134 8.2936 10.0220 9.2925 35.2431 -1.8191
# 6 26.2700 3.1161 18.1611 0.9597 -1.8191 48.9343
#
#
#
# Elastic Compliance Matrix: (Units=1/GPa)
#
#
# Indices 1 2 3 4 5 6 
#
# 1 0.015228 -0.000322 -0.000725 -0.000341 -0.003591 -0.008013
# 2 -0.000322 0.014332 -0.003519 -0.000131 -0.002237 0.000486
# 3 -0.000725 -0.003519 0.010931 -0.000648 -0.002122 -0.003510
# 4 -0.000341 -0.000131 -0.000648 0.017675 -0.004370 -0.000077
# 5 -0.003591 -0.002237 -0.002122 -0.004370 0.031706 0.004122
# 6 -0.008013 0.000486 -0.003510 -0.000077 0.004122 0.026163
#
#
# Mechanical properties :
#
#
# Convention : Reuss Voigt Hill
#
# Bulk Modulus (GPa) = 31.88904 41.86125 36.87514
# Shear Modulus (GPa) = 36.86712 43.19534 40.03123
#
# Velocity S-wave (km/s) = 4.09659 4.43426 4.26876
# Velocity P-wave (km/s) = 6.07388 6.72846 6.40953
#
# Compressibility (1/GPa) = 0.03135874
#
# Stress axis : x y z
#
# Youngs Moduli (GPa) = 65.66652 69.77365 91.48003
#
# Poissons Ratio (x) = 0.02249 0.06630
# Poissons Ratio (y) = 0.02117 0.32196
# Poissons Ratio (z) = 0.04760 0.24556
#
# Static dielectric constant tensor:
#      x y z
#    x 1.761220 -0.000960 -0.018770 
#    y -0.000960 1.834200 -0.010950 
#    z -0.018770 -0.010950 1.845410 
# 
# From -- ./inp_files/107329.got.cif
#   From: 2010.05.17/outbox.cif.g08.bks.cpg/sg2_54_cif.got.tgz:107329.got - 2010.06.03 11:33:40.
