data_PCOD9070788
_publ_section_title
;
Structure prediction by ZEFSAII (Michael W. Deem and Ramdas Pophale) SiO2 
 PCOD9070788
Probable space group: P -1
;
_chemical_formula_sum "Si O2"
_cell_formula_units_Z 13
_cell_length_a 9.099135
_cell_length_b 8.920264
_cell_length_c 16.304001
_cell_angle_alpha 132.838707
_cell_angle_beta 141.274814
_cell_angle_gamma 47.042032
_cell_volume 573.214440
_symmetry_space_group_name_H-M "P -1"
_symmetry_group_IT_number 2
_symmetry_cell_setting 'triclinic'
loop_
_space_group_symop_operation_xyz
x,y,z
-x,-y,-z
loop_
_atom_site_type_symbol
_atom_site_label
_atom_site_fract_x
_atom_site_fract_y
_atom_site_fract_z
Si Si1 0.711298 0.501785 0.657666
Si Si2 0.986586 0.142962 0.240015
Si Si3 0.079014 0.210932 0.588833
Si Si4 0.980614 0.682680 0.129356
Si Si5 0.638148 0.982865 0.793454
Si Si6 0.470599 0.691039 0.994998
Si Si7 0.000000 0.500000 0.500000
O O1 0.500000 0.500000 0.500000
O O2 0.641562 0.751460 0.739269
O O3 0.961187 0.390610 0.673386
O O4 0.776933 0.384683 0.730342
O O5 0.092566 0.287426 0.399133
O O6 0.158620 0.067654 0.207510
O O7 0.953780 0.923099 0.177606
O O8 0.713114 0.306629 0.158447
O O9 0.989524 0.331137 0.508934
O O10 0.376335 0.123353 0.692078
O O11 0.000000 0.000000 0.500000
O O12 0.731513 0.694637 0.075303
O O13 0.000000 0.500000 0.000000
O O14 0.669386 0.103311 0.933588
O O15 0.500000 0.500000 0.000000
#
# Coordination Sequence:
#
# PCOD9070788 Si02
#       7
#     2   2   2   2   2   2   1
#     4  12  25  46  75 111 153 207 264 317 401 483
#     4  12  27  47  74 117 157 204 262 333 405 477
#     4  12  25  48  73 111 157 213 261 328 397 483
#     4  12  27  50  77 117 158 207 270 339 405 476
#     4  12  25  47  77 106 155 203 265 319 402 473
#     4  12  25  49  80 108 154 206 267 325 400 491
#     4  12  28  46  76 114 166 200 272 326 404 480
#
# _framework density 22.679122
#
# number of rings (size 3 to 8) (size 9 to 14) (size 15 to 20)
#    0.000    0.000    4.615    5.538    0.000    3.077 
#    0.000    0.000    0.000    0.000    0.000    0.000 
#    0.000    0.000    0.000    0.000    0.000    0.000 
#
# Total GULP energy -72399.228952 kJ/mol
# GULP energy per Si atom -5569.171458 kJ/mol
# Density = 2.262750 g / cm^3
# Si number density = 22.679122 Si / 1000 Ang^3
#
#
#
# Elastic Constant Matrix: (Units=GPa)
#
#
# Indices 1 2 3 4 5 6 
#
# 1 68.9330 14.3057 24.8021 -7.7625 -11.1538 -3.1700
# 2 14.3057 133.2526 22.9523 2.5907 -1.6373 15.7473
# 3 24.8021 22.9523 59.3485 -3.4575 -5.8301 -11.3345
# 4 -7.7625 2.5907 -3.4575 48.4279 -9.4564 -9.9969
# 5 -11.1538 -1.6373 -5.8301 -9.4564 36.6486 1.8853
# 6 -3.1700 15.7473 -11.3345 -9.9969 1.8853 53.2935
#
#
#
# Elastic Compliance Matrix: (Units=1/GPa)
#
#
# Indices 1 2 3 4 5 6 
#
# 1 0.018343 -0.000917 -0.006469 0.003690 0.005440 0.000486
# 2 -0.000917 0.008749 -0.003907 -0.001829 -0.000787 -0.003786
# 3 -0.006469 -0.003907 0.022504 0.002343 0.001736 0.005934
# 4 0.003690 -0.001829 0.002343 0.024078 0.007343 0.005515
# 5 0.005440 -0.000787 0.001736 0.007343 0.031015 0.001206
# 6 0.000486 -0.003786 0.005934 0.005515 0.001206 0.022166
#
#
# Mechanical properties :
#
#
# Convention : Reuss Voigt Hill
#
# Bulk Modulus (GPa) = 37.02358 42.85047 39.93703
# Shear Modulus (GPa) = 31.55662 40.97227 36.26445
#
# Velocity S-wave (km/s) = 3.73425 4.25503 4.00312
# Velocity P-wave (km/s) = 5.91212 6.56320 6.24615
#
# Compressibility (1/GPa) = 0.02700982
#
# Stress axis : x y z
#
# Youngs Moduli (GPa) = 54.51776 114.29379 44.43589
#
# Poissons Ratio (x) = 0.10485 0.28744
# Poissons Ratio (y) = 0.05001 0.17363
# Poissons Ratio (z) = 0.35265 0.44658
#
# Static dielectric constant tensor:
#      x y z
#    x 1.798740 0.017640 0.052340 
#    y 0.017640 1.827060 0.003320 
#    z 0.052340 0.003320 1.724620 
# 
# From -- ./inp_files/296617.got.cif
#   From: 2010.05.17/outbox.cif.g08.bks.cpg/sg2_149_cif.got.tgz:296617.got - 2010.06.03 11:33:40.
