data_PCOD9070322
_publ_section_title
;
Structure prediction by ZEFSAII (Michael W. Deem and Ramdas Pophale) SiO2 
 PCOD9070322
Probable space group: P -1
;
_chemical_formula_sum "Si O2"
_cell_formula_units_Z 14
_cell_length_a 15.044050
_cell_length_b 14.925124
_cell_length_c 8.139802
_cell_angle_alpha 50.795827
_cell_angle_beta 110.818646
_cell_angle_gamma 150.986043
_cell_volume 584.600357
_symmetry_space_group_name_H-M "P -1"
_symmetry_group_IT_number 2
_symmetry_cell_setting 'triclinic'
loop_
_space_group_symop_operation_xyz
x,y,z
-x,-y,-z
loop_
_atom_site_type_symbol
_atom_site_label
_atom_site_fract_x
_atom_site_fract_y
_atom_site_fract_z
Si Si1 0.132282 0.290706 0.410665
Si Si2 0.132270 0.790423 0.175091
Si Si3 0.541236 0.049726 0.772197
Si Si4 0.098849 0.493925 0.990081
Si Si5 0.563368 0.667870 0.217631
Si Si6 0.759145 0.514190 0.388280
Si Si7 0.262468 0.269134 0.045730
O O1 0.045455 0.314868 0.251006
O O2 0.329452 0.454400 0.243286
O O3 0.250618 0.448468 0.477946
O O4 0.934013 0.991221 0.671465
O O5 0.252870 0.806311 0.288289
O O6 0.974797 0.672729 0.342002
O O7 0.989967 0.613249 0.126450
O O8 0.310564 0.083721 0.917930
O O9 0.575231 0.221931 0.560532
O O10 0.500000 0.000000 0.000000
O O11 0.352098 0.789090 0.842660
O O12 0.000000 0.500000 0.000000
O O13 0.500000 0.500000 0.500000
O O14 0.725013 0.786878 0.054101
O O15 0.765712 0.627444 0.136640
O O16 0.500000 0.500000 0.000000
#
# Coordination Sequence:
#
# PCOD9070322 Si02
#       7
#     2   2   2   2   2   2   2
#     4  12  25  48  74 105 151 197 247 300 371 444
#     4  12  26  47  75 112 146 195 251 305 379 437
#     4  12  24  47  74 107 145 195 246 303 378 435
#     4  12  27  44  77 112 145 196 250 306 372 447
#     4  12  25  47  78 103 151 204 241 304 376 435
#     4  12  25  49  73 103 152 196 244 311 372 440
#     4  12  30  47  73 116 150 194 254 306 366 447
#
# _framework density 23.947982
#
# number of rings (size 3 to 8) (size 9 to 14) (size 15 to 20)
#    0.000    0.000    7.143    1.714    6.000    1.143 
#    0.000    0.000    0.000    0.000    0.000    0.000 
#    0.000    0.000    0.000    0.000    0.000    0.000 
#
# Total GULP energy -78432.547142 kJ/mol
# GULP energy per Si atom -5602.324796 kJ/mol
# Density = 2.389348 g / cm^3
# Si number density = 23.947982 Si / 1000 Ang^3
#
#
#
# Elastic Constant Matrix: (Units=GPa)
#
#
# Indices 1 2 3 4 5 6 
#
# 1 125.4573 15.5380 41.1147 -5.2127 15.5175 17.4287
# 2 15.5380 115.5373 35.2088 -20.6425 16.2441 -1.7947
# 3 41.1147 35.2088 123.4008 -23.4469 35.8242 -2.3060
# 4 -5.2127 -20.6425 -23.4469 32.4285 4.6278 8.1982
# 5 15.5175 16.2441 35.8242 4.6278 57.4876 -4.2833
# 6 17.4287 -1.7947 -2.3060 8.1982 -4.2833 41.2927
#
#
#
# Elastic Compliance Matrix: (Units=1/GPa)
#
#
# Indices 1 2 3 4 5 6 
#
# 1 0.009718 -0.000230 -0.002755 0.000750 -0.001241 -0.004543
# 2 -0.000230 0.010562 -0.000754 0.006879 -0.003094 -0.001173
# 3 -0.002755 -0.000754 0.013658 0.010429 -0.008473 -0.001057
# 4 0.000750 0.006879 0.010429 0.047344 -0.013217 -0.010206
# 5 -0.001241 -0.003094 -0.008473 -0.013217 0.025333 0.005168
# 6 -0.004543 -0.001173 -0.001057 -0.010206 0.005168 0.028587
#
#
# Mechanical properties :
#
#
# Convention : Reuss Voigt Hill
#
# Bulk Modulus (GPa) = 37.78996 60.90202 49.34599
# Shear Modulus (GPa) = 33.00381 44.41068 38.70725
#
# Velocity S-wave (km/s) = 3.71637 4.31102 4.02469
# Velocity P-wave (km/s) = 5.85059 7.08985 6.49983
#
# Compressibility (1/GPa) = 0.02646205
#
# Stress axis : x y z
#
# Youngs Moduli (GPa) = 102.90510 94.68246 73.21657
#
# Poissons Ratio (x) = 0.02175 0.20168
# Poissons Ratio (y) = 0.02363 0.05517
# Poissons Ratio (z) = 0.28345 0.07134
#
# Static dielectric constant tensor:
#      x y z
#    x 1.970840 -0.038920 -0.045750 
#    y -0.038920 1.961720 -0.039280 
#    z -0.045750 -0.039280 1.946820 
# 
# From -- ./inp_files/188177.got.cif
#   From: 2010.05.17/outbox.cif.g08.bks.cpg/sg2_95_cif.got.tgz:188177.got - 2010.06.03 11:33:40.
