data_PCOD9070515
_publ_section_title
;
Structure prediction by ZEFSAII (Michael W. Deem and Ramdas Pophale) SiO2 
 PCOD9070515
Probable space group: P -1
;
_chemical_formula_sum "Si O2"
_cell_formula_units_Z 16
_cell_length_a 8.996868
_cell_length_b 9.753742
_cell_length_c 12.403246
_cell_angle_alpha 68.490511
_cell_angle_beta 84.379534
_cell_angle_gamma 44.782910
_cell_volume 691.092446
_symmetry_space_group_name_H-M "P -1"
_symmetry_group_IT_number 2
_symmetry_cell_setting 'triclinic'
loop_
_space_group_symop_operation_xyz
x,y,z
-x,-y,-z
loop_
_atom_site_type_symbol
_atom_site_label
_atom_site_fract_x
_atom_site_fract_y
_atom_site_fract_z
Si Si1 0.335753 0.453807 0.281416
Si Si2 0.161250 0.415987 0.911592
Si Si3 0.924841 0.894280 0.500081
Si Si4 0.410110 0.164154 0.770142
Si Si5 0.865700 0.876389 0.267019
Si Si6 0.593474 0.501184 0.382374
Si Si7 0.518372 0.658167 0.935608
Si Si8 0.753614 0.795920 0.694697
O O1 0.526955 0.420481 0.324934
O O2 0.345776 0.432484 0.158334
O O3 0.319829 0.288780 0.351194
O O4 0.113602 0.692873 0.264035
O O5 0.311396 0.203745 0.885187
O O6 0.995450 0.599428 0.781779
O O7 0.344958 0.383022 0.961857
O O8 0.000000 0.500000 0.000000
O O9 0.849177 0.948245 0.367813
O O10 0.757282 0.939169 0.580213
O O11 0.155258 0.646458 0.565692
O O12 0.000000 0.000000 0.500000
O O13 0.217053 0.233101 0.692157
O O14 0.479084 0.284982 0.715581
O O15 0.608285 0.927348 0.774273
O O16 0.705574 0.091646 0.142986
O O17 0.500000 0.500000 0.500000
O O18 0.500000 0.500000 0.000000
#
# Coordination Sequence:
#
# PCOD9070515 Si02
#       8
#     2   2   2   2   2   2   2   2
#     4  12  25  49  74 113 149 194 254 303 380 444
#     4  12  24  49  76 106 146 196 252 308 368 442
#     4  12  27  47  75 112 156 195 249 309 374 456
#     4  12  26  47  75 115 147 199 251 310 376 448
#     4  12  26  48  76 107 148 200 251 303 380 449
#     4  12  25  45  75 111 154 198 248 309 375 449
#     4  12  28  47  74 106 150 193 248 320 367 446
#     4  12  27  48  77 111 153 198 245 311 376 448
#
# _framework density 23.15175
#
# number of rings (size 3 to 8) (size 9 to 14) (size 15 to 20)
#    0.000    0.000    6.250    2.250    3.500    5.000 
#    0.000    0.000    0.000    0.000    0.000    0.000 
#    0.000    0.000    0.000    0.000    0.000    0.000 
#
# Total GULP energy -89246.548286 kJ/mol
# GULP energy per Si atom -5577.909268 kJ/mol
# Density = 2.309906 g / cm^3
# Si number density = 23.151750 Si / 1000 Ang^3
#
#
#
# Elastic Constant Matrix: (Units=GPa)
#
#
# Indices 1 2 3 4 5 6 
#
# 1 111.4681 37.9679 42.8485 -2.8292 16.5499 27.7450
# 2 37.9679 122.7438 43.8306 15.0199 0.6844 2.9173
# 3 42.8485 43.8306 65.0012 8.9526 9.5774 11.2809
# 4 -2.8292 15.0199 8.9526 39.4843 -0.6765 2.1737
# 5 16.5499 0.6844 9.5774 -0.6765 57.0451 7.6323
# 6 27.7450 2.9173 11.2809 2.1737 7.6323 58.6128
#
#
#
# Elastic Compliance Matrix: (Units=1/GPa)
#
#
# Indices 1 2 3 4 5 6 
#
# 1 0.014132 -0.002120 -0.007202 0.003693 -0.002145 -0.005056
# 2 -0.002120 0.011399 -0.006327 -0.003119 0.001289 0.001602
# 3 -0.007202 -0.006327 0.025359 -0.003853 -0.002038 -0.000748
# 4 0.003693 -0.003119 -0.003853 0.027760 0.000197 -0.001907
# 5 -0.002145 0.001289 -0.002038 0.000197 0.018627 -0.001089
# 6 -0.005056 0.001602 -0.000748 -0.001907 -0.001089 0.019731
#
#
# Mechanical properties :
#
#
# Convention : Reuss Voigt Hill
#
# Bulk Modulus (GPa) = 51.03977 60.94526 55.99251
# Shear Modulus (GPa) = 32.29233 42.66617 37.47925
#
# Velocity S-wave (km/s) = 3.73877 4.29755 4.02786
# Velocity P-wave (km/s) = 6.38212 7.14189 6.77267
#
# Compressibility (1/GPa) = 0.01959257
#
# Stress axis : x y z
#
# Youngs Moduli (GPa) = 70.76057 87.73082 39.43379
#
# Poissons Ratio (x) = 0.18595 0.28400
# Poissons Ratio (y) = 0.14998 0.24950
# Poissons Ratio (z) = 0.50961 0.55508
#
# Static dielectric constant tensor:
#      x y z
#    x 1.844090 0.038130 0.145790 
#    y 0.038130 1.994870 -0.121450 
#    z 0.145790 -0.121450 1.588390 
# 
# From -- ./inp_files/381995.got.cif
#   From: 2010.05.17/outbox.cif.g08.bks.cpg/sg2_191_cif.got.tgz:381995.got - 2010.06.03 11:33:40.
