data_PCOD9070931
_publ_section_title
;
Structure prediction by ZEFSAII (Michael W. Deem and Ramdas Pophale) SiO2 
 PCOD9070931
Probable space group: P -1
;
_chemical_formula_sum "Si O2"
_cell_formula_units_Z 16
_cell_length_a 8.734826
_cell_length_b 18.250120
_cell_length_c 5.266692
_cell_angle_alpha 86.276792
_cell_angle_beta 86.945973
_cell_angle_gamma 125.762627
_cell_volume 675.500291
_symmetry_space_group_name_H-M "P -1"
_symmetry_group_IT_number 2
_symmetry_cell_setting 'triclinic'
loop_
_space_group_symop_operation_xyz
x,y,z
-x,-y,-z
loop_
_atom_site_type_symbol
_atom_site_label
_atom_site_fract_x
_atom_site_fract_y
_atom_site_fract_z
Si Si1 0.898988 0.298084 0.705898
Si Si2 0.353145 0.750424 0.759435
Si Si3 0.121305 0.232100 0.844188
Si Si4 0.873996 0.034551 0.073257
Si Si5 0.301155 0.410402 0.122107
Si Si6 0.158730 0.485095 0.452864
Si Si7 0.376557 0.033110 0.393411
Si Si8 0.543421 0.669193 0.536998
O O1 0.782350 0.286505 0.467525
O O2 0.963252 0.231371 0.695427
O O3 0.086834 0.402336 0.671636
O O4 0.768582 0.275016 0.968127
O O5 0.491407 0.858850 0.690732
O O6 0.469806 0.706779 0.742698
O O7 0.296660 0.247642 0.669533
O O8 0.015616 0.143661 0.045688
O O9 0.209973 0.322978 0.976979
O O10 0.729555 0.009709 0.856807
O O11 0.770791 0.993463 0.359106
O O12 0.000000 0.000000 0.000000
O O13 0.172446 0.442525 0.204308
O O14 0.353723 0.375248 0.367450
O O15 0.500000 0.500000 0.000000
O O16 0.356503 0.582914 0.443564
O O17 0.000000 0.500000 0.500000
O O18 0.500000 0.000000 0.500000
#
# Coordination Sequence:
#
# PCOD9070931 Si02
#       8
#     2   2   2   2   2   2   2   2
#     4  12  26  48  72 110 148 201 253 305 372 450
#     4  12  28  47  77 110 150 196 252 314 379 446
#     4  12  27  47  76 104 153 198 252 304 381 450
#     4  12  28  48  80 116 154 199 257 322 382 456
#     4  12  26  46  73 106 149 202 247 305 376 449
#     4  12  25  48  70 110 151 196 253 310 368 447
#     4  12  26  51  79 112 154 199 257 319 390 455
#     4  12  27  44  71 106 150 198 248 309 377 446
#
# _framework density 23.686146999999998
#
# number of rings (size 3 to 8) (size 9 to 14) (size 15 to 20)
#    0.000    0.000    3.750    5.625    7.000    0.500 
#    0.000    0.000    0.000    0.000    0.000    0.000 
#    0.000    0.000    0.000    0.000    0.000    0.000 
#
# Total GULP energy -89546.633918 kJ/mol
# GULP energy per Si atom -5596.664620 kJ/mol
# Density = 2.363224 g / cm^3
# Si number density = 23.686147 Si / 1000 Ang^3
#
#
#
# Elastic Constant Matrix: (Units=GPa)
#
#
# Indices 1 2 3 4 5 6 
#
# 1 86.1394 11.0446 15.9207 0.8610 -21.7278 -4.2810
# 2 11.0446 140.6887 40.1304 -18.5900 -14.9718 0.4799
# 3 15.9207 40.1304 135.9950 -16.4256 -30.1825 23.6212
# 4 0.8610 -18.5900 -16.4256 36.8999 12.9667 1.4671
# 5 -21.7278 -14.9718 -30.1825 12.9667 47.9034 -0.4759
# 6 -4.2810 0.4799 23.6212 1.4671 -0.4759 34.6046
#
#
#
# Elastic Compliance Matrix: (Units=1/GPa)
#
#
# Indices 1 2 3 4 5 6 
#
# 1 0.013608 -0.000600 -0.000834 -0.003334 0.006387 0.002490
# 2 -0.000600 0.008184 -0.002146 0.003099 0.000106 0.001147
# 3 -0.000834 -0.002146 0.010773 0.002254 0.005054 -0.007453
# 4 -0.003334 0.003099 0.002254 0.032696 -0.008009 -0.003490
# 5 0.006387 0.000106 0.005054 -0.008009 0.029139 -0.001921
# 6 0.002490 0.001147 -0.007453 -0.003490 -0.001921 0.034399
#
#
# Mechanical properties :
#
#
# Convention : Reuss Voigt Hill
#
# Bulk Modulus (GPa) = 39.36249 55.22385 47.29317
# Shear Modulus (GPa) = 34.61972 43.59673 39.10823
#
# Velocity S-wave (km/s) = 3.82724 4.29488 4.06778
# Velocity P-wave (km/s) = 6.01538 6.92532 6.48633
#
# Compressibility (1/GPa) = 0.02540489
#
# Stress axis : x y z
#
# Youngs Moduli (GPa) = 73.48516 122.18934 92.82774
#
# Poissons Ratio (x) = 0.07330 0.07741
# Poissons Ratio (y) = 0.04408 0.19923
# Poissons Ratio (z) = 0.06128 0.26225
#
# Static dielectric constant tensor:
#      x y z
#    x 1.923880 0.000890 0.065960 
#    y 0.000890 1.850990 0.001110 
#    z 0.065960 0.001110 1.937180 
# 
# From -- ./inp_files/47815.got.cif
#   From: 2010.05.17/outbox.cif.g08.bks.cpg/sg2_24_cif.got.tgz:47815.got - 2010.06.03 11:33:40.
