data_PCOD9070164
_publ_section_title
;
Structure prediction by ZEFSAII (Michael W. Deem and Ramdas Pophale) SiO2 
 PCOD9070164
Probable space group: P -1
;
_chemical_formula_sum "Si O2"
_cell_formula_units_Z 16
_cell_length_a 13.308541
_cell_length_b 9.491718
_cell_length_c 8.848822
_cell_angle_alpha 42.195648
_cell_angle_beta 64.719934
_cell_angle_gamma 79.524078
_cell_volume 662.008618
_symmetry_space_group_name_H-M "P -1"
_symmetry_group_IT_number 2
_symmetry_cell_setting 'triclinic'
loop_
_space_group_symop_operation_xyz
x,y,z
-x,-y,-z
loop_
_atom_site_type_symbol
_atom_site_label
_atom_site_fract_x
_atom_site_fract_y
_atom_site_fract_z
Si Si1 0.119688 0.440617 0.430754
Si Si2 0.431050 0.033523 0.166885
Si Si3 0.186969 0.241586 0.855229
Si Si4 0.748394 0.242498 0.138441
Si Si5 0.020489 0.885236 0.424366
Si Si6 0.802567 0.315994 0.360412
Si Si7 0.445473 0.503258 0.868286
Si Si8 0.381272 0.121094 0.668633
O O1 0.167086 0.342877 0.624646
O O2 0.000000 0.500000 0.500000
O O3 0.199562 0.647393 0.137753
O O4 0.091289 0.260141 0.462135
O O5 0.317231 0.849608 0.400665
O O6 0.523761 0.013611 0.251532
O O7 0.404682 0.266419 0.016563
O O8 0.500000 0.000000 0.000000
O O9 0.206658 0.440404 0.799551
O O10 0.294269 0.133445 0.849467
O O11 0.081984 0.059117 0.124691
O O12 0.834429 0.274204 0.199395
O O13 0.654006 0.369033 0.152826
O O14 0.690894 0.996388 0.332836
O O15 0.106119 0.736306 0.539167
O O16 0.000000 0.000000 0.500000
O O17 0.547359 0.639665 0.594548
O O18 0.500000 0.500000 0.000000
#
# Coordination Sequence:
#
# PCOD9070164 Si02
#       8
#     2   2   2   2   2   2   2   2
#     4  12  27  51  78 105 146 196 247 308 371 434
#     4  12  27  43  74 107 153 195 241 300 363 442
#     4  12  28  49  78 107 148 194 249 306 370 443
#     4  12  27  46  76 111 150 195 247 305 369 444
#     4  12  29  49  78 108 146 194 248 312 373 433
#     4  12  28  48  73 112 151 191 251 304 370 444
#     4  12  24  46  72 104 149 193 239 296 364 432
#     4  12  26  47  73 110 147 195 245 294 368 443
#
# _framework density 24.168869999999998
#
# number of rings (size 3 to 8) (size 9 to 14) (size 15 to 20)
#    0.000    0.000    3.750    5.250   10.500    2.000 
#    0.000    0.000    0.000    0.000    0.000    0.000 
#    0.000    0.000    0.000    0.000    0.000    0.000 
#
# Total GULP energy -89714.344931 kJ/mol
# GULP energy per Si atom -5607.146558 kJ/mol
# Density = 2.411386 g / cm^3
# Si number density = 24.168870 Si / 1000 Ang^3
#
#
#
# Elastic Constant Matrix: (Units=GPa)
#
#
# Indices 1 2 3 4 5 6 
#
# 1 64.4221 -0.7788 2.3901 -2.8907 12.4091 6.1759
# 2 -0.7788 73.6710 -17.9971 -19.0814 6.7755 0.2992
# 3 2.3901 -17.9971 80.0747 3.9157 0.6800 -3.9569
# 4 -2.8907 -19.0814 3.9157 49.2093 5.9376 -0.6958
# 5 12.4091 6.7755 0.6800 5.9376 33.5897 9.8331
# 6 6.1759 0.2992 -3.9569 -0.6958 9.8331 45.7320
#
#
#
# Elastic Compliance Matrix: (Units=1/GPa)
#
#
# Indices 1 2 3 4 5 6 
#
# 1 0.017031 0.001332 -0.000309 0.002340 -0.006717 -0.000855
# 2 0.001332 0.016759 0.003497 0.006988 -0.005564 0.001316
# 3 -0.000309 0.003497 0.013346 0.000463 -0.001376 0.001476
# 4 0.002340 0.006988 0.000463 0.023995 -0.006977 0.001544
# 5 -0.006717 -0.005564 -0.001376 -0.006977 0.036738 -0.007181
# 6 -0.000855 0.001316 0.001476 0.001544 -0.007181 0.023669
#
#
# Mechanical properties :
#
#
# Convention : Reuss Voigt Hill
#
# Bulk Modulus (GPa) = 17.80093 20.59957 19.20025
# Shear Modulus (GPa) = 35.40527 41.34311 38.37419
#
# Velocity S-wave (km/s) = 3.83157 4.14042 3.98898
# Velocity P-wave (km/s) = 5.19190 5.60349 5.40162
#
# Compressibility (1/GPa) = 0.05617685
#
# Stress axis : x y z
#
# Youngs Moduli (GPa) = 58.71606 59.67059 74.93110
#
# Poissons Ratio (x) = -0.07948 0.02313
# Poissons Ratio (y) = -0.07821 -0.26206
# Poissons Ratio (z) = 0.01812 -0.20869
#
# Static dielectric constant tensor:
#      x y z
#    x 1.938890 0.014530 0.051940 
#    y 0.014530 1.904460 0.014770 
#    z 0.051940 0.014770 1.941530 
# 
# From -- ./inp_files/297253.got.cif
#   From: 2010.05.17/outbox.cif.g08.bks.cpg/sg2_149_cif.got.tgz:297253.got - 2010.06.03 11:33:40.
