data_PCOD9070619
_publ_section_title
;
Structure prediction by ZEFSAII (Michael W. Deem and Ramdas Pophale) SiO2 
 PCOD9070619
Probable space group: P -1
;
_chemical_formula_sum "Si O2"
_cell_formula_units_Z 10
_cell_length_a 13.395016
_cell_length_b 9.213476
_cell_length_c 9.882417
_cell_angle_alpha 86.296114
_cell_angle_beta 47.145330
_cell_angle_gamma 125.733915
_cell_volume 457.701290
_symmetry_space_group_name_H-M "P -1"
_symmetry_group_IT_number 2
_symmetry_cell_setting 'triclinic'
loop_
_space_group_symop_operation_xyz
x,y,z
-x,-y,-z
loop_
_atom_site_type_symbol
_atom_site_label
_atom_site_fract_x
_atom_site_fract_y
_atom_site_fract_z
Si Si1 0.850125 0.018675 0.419829
Si Si2 0.411989 0.402360 0.931458
Si Si3 0.755648 0.214599 0.658681
Si Si4 0.563940 0.268533 0.623990
Si Si5 0.959486 0.290684 0.026416
O O1 0.807492 0.097998 0.572230
O O2 0.915462 0.165074 0.213949
O O3 0.583778 0.680273 0.675880
O O4 0.100946 0.148462 0.217178
O O5 0.487008 0.316622 0.804006
O O6 0.500000 0.500000 0.000000
O O7 0.704207 0.263023 0.570166
O O8 0.000000 0.500000 0.500000
O O9 0.500000 0.000000 0.000000
O O10 0.300222 0.973499 0.809415
O O11 0.778969 0.525386 0.303817
O O12 0.000000 0.500000 0.000000
#
# Coordination Sequence:
#
# PCOD9070619 Si02
#       5
#     2   2   2   2   2
#     4  12  26  45  73 100 143 187 230 291 351 409
#     4  12  27  48  70 105 146 182 233 290 352 421
#     4  12  25  43  70 103 135 185 243 282 343 416
#     4  12  26  45  74 101 144 188 229 294 352 407
#     4  12  26  46  73 106 143 179 243 294 341 414
#
# _framework density 21.848312
#
# number of rings (size 3 to 8) (size 9 to 14) (size 15 to 20)
#    0.000    0.000    2.000    8.400    2.800    4.800 
#    0.000    0.000    0.000    0.000    0.000    0.000 
#    0.000    0.000    0.000    0.000    0.000    0.000 
#
# Total GULP energy -56069.339177 kJ/mol
# GULP energy per Si atom -5606.933918 kJ/mol
# Density = 2.179858 g / cm^3
# Si number density = 21.848312 Si / 1000 Ang^3
#
#
#
# Elastic Constant Matrix: (Units=GPa)
#
#
# Indices 1 2 3 4 5 6 
#
# 1 53.2827 14.5906 10.8968 5.7213 5.3394 9.5106
# 2 14.5906 93.0092 34.9822 -2.3872 -20.4604 20.5003
# 3 10.8968 34.9822 143.1437 1.5923 -3.5560 11.7767
# 4 5.7213 -2.3872 1.5923 50.1922 -0.6455 -8.9450
# 5 5.3394 -20.4604 -3.5560 -0.6455 48.5769 2.6260
# 6 9.5106 20.5003 11.7767 -8.9450 2.6260 36.4591
#
#
#
# Elastic Compliance Matrix: (Units=1/GPa)
#
#
# Indices 1 2 3 4 5 6 
#
# 1 0.021169 -0.003024 -0.000575 -0.003332 -0.003460 -0.004204
# 2 -0.003024 0.015477 -0.002754 -0.000087 0.007057 -0.007553
# 3 -0.000575 -0.002754 0.007770 -0.000477 -0.000486 -0.000893
# 4 -0.003332 -0.000087 -0.000477 0.021443 0.000238 0.006316
# 5 -0.003460 0.007057 -0.000486 0.000238 0.024154 -0.004590
# 6 -0.004204 -0.007553 -0.000893 0.006316 -0.004590 0.034940
#
#
# Mechanical properties :
#
#
# Convention : Reuss Voigt Hill
#
# Bulk Modulus (GPa) = 31.53888 45.59720 38.56804
# Shear Modulus (GPa) = 33.73136 42.31005 38.02071
#
# Velocity S-wave (km/s) = 3.93350 4.40538 4.17611
# Velocity P-wave (km/s) = 5.92424 6.84045 6.39876
#
# Compressibility (1/GPa) = 0.03170690
#
# Stress axis : x y z
#
# Youngs Moduli (GPa) = 47.23994 64.61172 128.70648
#
# Poissons Ratio (x) = 0.19541 0.07405
# Poissons Ratio (y) = 0.14287 0.35451
# Poissons Ratio (z) = 0.02718 0.17797
#
# Static dielectric constant tensor:
#      x y z
#    x 1.787930 -0.012340 0.050020 
#    y -0.012340 1.766760 0.027140 
#    z 0.050020 0.027140 1.789070 
# 
# From -- ./inp_files/15760.got.cif
#   From: 2010.05.17/outbox.cif.g08.bks.cpg/sg2_8_cif.got.tgz:15760.got - 2010.06.03 11:33:40.
