data_PCOD9070481
_publ_section_title
;
Structure prediction by ZEFSAII (Michael W. Deem and Ramdas Pophale) SiO2 
 PCOD9070481
Probable space group: P -1
;
_chemical_formula_sum "Si O2"
_cell_formula_units_Z 16
_cell_length_a 17.703466
_cell_length_b 17.830536
_cell_length_c 10.839161
_cell_angle_alpha 149.522558
_cell_angle_beta 25.904221
_cell_angle_gamma 150.544062
_cell_volume 684.111421
_symmetry_space_group_name_H-M "P -1"
_symmetry_group_IT_number 2
_symmetry_cell_setting 'triclinic'
loop_
_space_group_symop_operation_xyz
x,y,z
-x,-y,-z
loop_
_atom_site_type_symbol
_atom_site_label
_atom_site_fract_x
_atom_site_fract_y
_atom_site_fract_z
Si Si1 0.360778 0.502272 0.593532
Si Si2 0.979278 0.353744 0.066519
Si Si3 0.479280 0.853744 0.566518
Si Si4 0.988130 0.625563 0.595941
Si Si5 0.139221 0.997728 0.906469
Si Si6 0.059786 0.080195 0.661064
Si Si7 0.488132 0.125564 0.095939
Si Si8 0.440216 0.419805 0.838935
O O1 0.500000 0.500000 0.500000
O O2 0.371661 0.684725 0.835678
O O3 0.444510 0.480689 0.308535
O O4 0.137895 0.377815 0.762814
O O5 0.749999 0.250000 0.250001
O O6 0.008811 0.535288 0.314675
O O7 0.037508 0.249218 0.931049
O O8 0.537508 0.749217 0.431049
O O9 0.637896 0.877816 0.262813
O O10 0.508812 0.035288 0.814673
O O11 0.000000 0.500000 0.500000
O O12 0.128337 0.815274 0.664325
O O13 0.778703 0.617278 0.901768
O O14 0.055488 0.019312 0.191468
O O15 0.000000 0.000000 0.000000
O O16 0.278704 0.117280 0.401768
O O17 0.000000 0.000000 0.500000
O O18 0.500000 0.000000 0.000000
O O19 0.500000 0.500000 0.000000
#
# Coordination Sequence:
#
# PCOD9070481 Si02
#       8
#     2   2   2   2   2   2   2   2
#     4  12  26  48  81 111 148 202 252 308 379 442
#     4  12  26  48  72 113 154 195 250 313 377 444
#     4  12  26  48  72 113 154 195 250 313 377 444
#     4  12  24  48  79 107 152 198 251 311 372 446
#     4  12  26  48  81 111 148 202 252 308 379 442
#     4  12  26  49  74 112 159 193 248 316 374 448
#     4  12  24  48  79 107 152 198 251 311 372 446
#     4  12  26  49  74 112 159 193 248 316 374 448
#
# _framework density 23.388003000000001
#
# number of rings (size 3 to 8) (size 9 to 14) (size 15 to 20)
#    0.000    0.000    7.500    3.000    0.000    2.000 
#    0.000    0.000    0.000    0.000    0.000    0.000 
#    0.000    0.000    0.000    0.000    0.000    0.000 
#
# Total GULP energy -89348.386893 kJ/mol
# GULP energy per Si atom -5584.274181 kJ/mol
# Density = 2.333477 g / cm^3
# Si number density = 23.388003 Si / 1000 Ang^3
#
#
#
# Elastic Constant Matrix: (Units=GPa)
#
#
# Indices 1 2 3 4 5 6 
#
# 1 104.9249 42.9911 57.4682 -18.5724 1.8014 -6.6051
# 2 42.9911 124.3215 54.9109 -21.6409 1.7669 -9.4787
# 3 57.4682 54.9109 161.0749 -30.5553 -10.6053 -8.7536
# 4 -18.5724 -21.6409 -30.5553 78.2789 -8.0449 1.3923
# 5 1.8014 1.7669 -10.6053 -8.0449 59.8330 2.8002
# 6 -6.6051 -9.4787 -8.7536 1.3923 2.8002 32.3079
#
#
#
# Elastic Compliance Matrix: (Units=1/GPa)
#
#
# Indices 1 2 3 4 5 6 
#
# 1 0.012746 -0.002636 -0.003499 0.000825 -0.000858 0.000923
# 2 -0.002636 0.010329 -0.002278 0.001251 -0.000549 0.001868
# 3 -0.003499 -0.002278 0.008817 0.002173 0.001993 0.000739
# 4 0.000825 0.001251 0.002173 0.014390 0.002244 0.000310
# 5 -0.000858 -0.000549 0.001993 0.002244 0.017476 -0.001408
# 6 0.000923 0.001868 0.000739 0.000310 -0.001408 0.031998
#
#
# Mechanical properties :
#
#
# Convention : Reuss Voigt Hill
#
# Bulk Modulus (GPa) = 66.37228 77.89574 72.13401
# Shear Modulus (GPa) = 42.51567 49.74736 46.13151
#
# Velocity S-wave (km/s) = 4.26824 4.61699 4.44604
# Velocity P-wave (km/s) = 7.26160 7.86132 7.56740
#
# Compressibility (1/GPa) = 0.01506653
#
# Stress axis : x y z
#
# Youngs Moduli (GPa) = 78.45701 96.81033 113.42009
#
# Poissons Ratio (x) = 0.25520 0.39682
# Poissons Ratio (y) = 0.20682 0.25838
# Poissons Ratio (z) = 0.27449 0.22054
#
# Static dielectric constant tensor:
#      x y z
#    x 1.999950 0.011260 0.121960 
#    y 0.011260 1.903630 -0.005810 
#    z 0.121960 -0.005810 1.870460 
# 
# From -- ./inp_files/472452.got.cif
#   From: 2010.05.17/outbox.cif.g08.bks.cpg/sg2_237_cif.got.tgz:472452.got - 2010.06.03 11:33:40.
