data_PCOD9070633
_publ_section_title
;
Structure prediction by ZEFSAII (Michael W. Deem and Ramdas Pophale) SiO2 
 PCOD9070633
Probable space group: P -1
;
_chemical_formula_sum "Si O2"
_cell_formula_units_Z 12
_cell_length_a 9.296124
_cell_length_b 15.006593
_cell_length_c 10.152590
_cell_angle_alpha 126.432395
_cell_angle_beta 150.487232
_cell_angle_gamma 62.606886
_cell_volume 555.564115
_symmetry_space_group_name_H-M "P -1"
_symmetry_group_IT_number 2
_symmetry_cell_setting 'triclinic'
loop_
_space_group_symop_operation_xyz
x,y,z
-x,-y,-z
loop_
_atom_site_type_symbol
_atom_site_label
_atom_site_fract_x
_atom_site_fract_y
_atom_site_fract_z
Si Si1 0.267834 0.580235 0.842558
Si Si2 0.091435 0.630398 0.228188
Si Si3 0.232952 0.760677 0.187013
Si Si4 0.476845 0.708886 0.861888
Si Si5 0.351700 0.027976 0.773458
Si Si6 0.778748 0.907484 0.822804
O O1 0.369004 0.661457 0.874469
O O2 0.000000 0.500000 0.500000
O O3 0.500000 0.500000 0.000000
O O4 0.177378 0.653950 0.954506
O O5 0.225754 0.708605 0.282566
O O6 0.281263 0.658606 0.537044
O O7 0.786414 0.670704 0.049770
O O8 0.000000 0.500000 0.000000
O O9 0.568524 0.822124 0.486231
O O10 0.985600 0.840877 0.023513
O O11 0.540157 0.841523 0.043815
O O12 0.519268 0.962162 0.739775
O O13 0.000000 0.000000 0.500000
O O14 0.500000 0.000000 0.000000
O O15 0.000000 0.000000 0.000000
#
# Coordination Sequence:
#
# PCOD9070633 Si02
#       6
#     2   2   2   2   2   2
#     4  12  26  46  69 100 138 181 228 284 345 412
#     4  12  25  44  69 100 134 176 227 282 340 406
#     4  12  25  45  71 103 140 182 230 287 347 412
#     4  12  25  44  69  99 134 178 226 279 341 408
#     4  12  25  44  69 100 138 181 229 283 343 410
#     4  12  26  45  70 104 141 184 232 287 347 414
#
# _framework density 21.599668000000001
#
# number of rings (size 3 to 8) (size 9 to 14) (size 15 to 20)
#    0.000    0.000    0.000   12.000    0.000    2.667 
#    0.000    0.000    0.000    0.000    0.000    0.000 
#    0.000    0.000    0.000    0.000    0.000    0.000 
#
# Total GULP energy -67067.378061 kJ/mol
# GULP energy per Si atom -5588.948172 kJ/mol
# Density = 2.155051 g / cm^3
# Si number density = 21.599668 Si / 1000 Ang^3
#
#
#
# Elastic Constant Matrix: (Units=GPa)
#
#
# Indices 1 2 3 4 5 6 
#
# 1 139.9771 57.9440 48.6599 9.9050 -8.5506 37.9628
# 2 57.9440 180.0737 65.2658 6.3688 -1.0655 26.2199
# 3 48.6599 65.2658 182.9578 -8.6231 3.6092 19.9369
# 4 9.9050 6.3688 -8.6231 54.3768 -2.3460 12.3891
# 5 -8.5506 -1.0655 3.6092 -2.3460 44.6421 -0.0567
# 6 37.9628 26.2199 19.9369 12.3891 -0.0567 57.5453
#
#
#
# Elastic Compliance Matrix: (Units=1/GPa)
#
#
# Indices 1 2 3 4 5 6 
#
# 1 0.009987 -0.001902 -0.001491 -0.000592 0.001951 -0.005076
# 2 -0.001902 0.007045 -0.001901 -0.000513 -0.000071 -0.001186
# 3 -0.001491 -0.001901 0.006730 0.001722 -0.000786 -0.000853
# 4 -0.000592 -0.000513 0.001722 0.019831 0.000772 -0.004241
# 5 0.001951 -0.000071 -0.000786 0.000772 0.022875 -0.001126
# 6 -0.005076 -0.001186 -0.000853 -0.004241 -0.001126 0.022475
#
#
# Mechanical properties :
#
#
# Convention : Reuss Voigt Hill
#
# Bulk Modulus (GPa) = 75.90174 94.08312 84.99243
# Shear Modulus (GPa) = 48.11360 53.38877 50.75118
#
# Velocity S-wave (km/s) = 4.72478 4.97705 4.85255
# Velocity P-wave (km/s) = 8.06109 8.75673 8.41610
#
# Compressibility (1/GPa) = 0.01317493
#
# Stress axis : x y z
#
# Youngs Moduli (GPa) = 100.12681 141.95377 148.58815
#
# Poissons Ratio (x) = 0.26995 0.22156
# Poissons Ratio (y) = 0.19041 0.28242
# Poissons Ratio (z) = 0.14930 0.26981
#
# Static dielectric constant tensor:
#      x y z
#    x 1.695210 -0.102120 -0.081080 
#    y -0.102120 1.651930 -0.049980 
#    z -0.081080 -0.049980 1.709080 
# 
# From -- ./inp_files/177114.got.cif
#   From: 2010.05.17/outbox.cif.g08.bks.cpg/sg2_89_cif.got.tgz:177114.got - 2010.06.03 11:33:40.
