data_PCOD9070989
_publ_section_title
;
Structure prediction by ZEFSAII (Michael W. Deem and Ramdas Pophale) SiO2 
 PCOD9070989
Probable space group: P -1
;
_chemical_formula_sum "Si O2"
_cell_formula_units_Z 12
_cell_length_a 9.227401
_cell_length_b 9.764071
_cell_length_c 8.544207
_cell_angle_alpha 120.458605
_cell_angle_beta 74.817500
_cell_angle_gamma 70.676728
_cell_volume 531.722179
_symmetry_space_group_name_H-M "P -1"
_symmetry_group_IT_number 2
_symmetry_cell_setting 'triclinic'
loop_
_space_group_symop_operation_xyz
x,y,z
-x,-y,-z
loop_
_atom_site_type_symbol
_atom_site_label
_atom_site_fract_x
_atom_site_fract_y
_atom_site_fract_z
Si Si1 0.050169 0.329860 0.002549
Si Si2 0.704636 0.311630 0.784752
Si Si3 0.138430 0.845159 0.008770
Si Si4 0.515518 0.160045 0.178478
Si Si5 0.158163 0.476258 0.328549
Si Si6 0.630190 0.059266 0.436381
O O1 0.173070 0.127773 0.765910
O O2 0.165725 0.339979 0.111754
O O3 0.000000 0.500000 0.000000
O O4 0.881854 0.331322 0.120190
O O5 0.825627 0.365853 0.678745
O O6 0.655937 0.189897 0.620696
O O7 0.500000 0.500000 0.000000
O O8 0.829701 0.186866 0.825924
O O9 0.311364 0.848529 0.932314
O O10 0.000000 0.000000 0.000000
O O11 0.339069 0.362989 0.308456
O O12 0.539258 0.147550 0.348639
O O13 0.500000 0.000000 0.000000
O O14 0.000000 0.500000 0.500000
O O15 0.500000 0.000000 0.500000
#
# Coordination Sequence:
#
# PCOD9070989 Si02
#       6
#     2   2   2   2   2   2
#     4  12  27  51  75 115 158 209 264 327 392 478
#     4  12  27  51  81 117 160 213 269 330 398 481
#     4  12  25  48  83 110 161 208 267 327 401 469
#     4  12  25  48  77 113 159 209 268 328 397 475
#     4  12  28  48  79 117 161 207 267 332 398 472
#     4  12  28  46  81 112 157 212 266 326 403 472
#
# _framework density 22.568178
#
# number of rings (size 3 to 8) (size 9 to 14) (size 15 to 20)
#    0.000    0.000    6.667    2.000    4.667    2.667 
#    0.000    0.000    0.000    0.000    0.000    0.000 
#    0.000    0.000    0.000    0.000    0.000    0.000 
#
# Total GULP energy -66836.395495 kJ/mol
# GULP energy per Si atom -5569.699625 kJ/mol
# Density = 2.251681 g / cm^3
# Si number density = 22.568178 Si / 1000 Ang^3
#
#
#
# Elastic Constant Matrix: (Units=GPa)
#
#
# Indices 1 2 3 4 5 6 
#
# 1 199.6096 94.0008 52.2326 -18.3987 23.7244 13.0745
# 2 94.0008 205.1406 66.7991 -48.9673 11.1041 1.1832
# 3 52.2326 66.7991 122.9364 -2.3928 30.4883 -8.8120
# 4 -18.3987 -48.9673 -2.3928 35.2269 3.7419 5.2470
# 5 23.7244 11.1041 30.4883 3.7419 43.9599 -0.7209
# 6 13.0745 1.1832 -8.8120 5.2470 -0.7209 64.5819
#
#
#
# Elastic Compliance Matrix: (Units=1/GPa)
#
#
# Indices 1 2 3 4 5 6 
#
# 1 0.006935 -0.002596 -0.001036 0.000433 -0.002430 -0.001560
# 2 -0.002596 0.010810 -0.004819 0.013464 0.000844 -0.001415
# 3 -0.001036 -0.004819 0.012893 -0.006031 -0.006611 0.002473
# 4 0.000433 0.013464 -0.006031 0.048066 -0.003627 -0.005103
# 5 -0.002430 0.000844 -0.006611 -0.003627 0.028744 0.000190
# 6 -0.001560 -0.001415 0.002473 -0.005103 0.000190 0.016580
#
#
# Mechanical properties :
#
#
# Convention : Reuss Voigt Hill
#
# Bulk Modulus (GPa) = 72.81326 105.97242 89.39284
# Shear Modulus (GPa) = 34.36232 49.73069 42.04651
#
# Velocity S-wave (km/s) = 3.90628 4.69932 4.32103
# Velocity P-wave (km/s) = 7.25804 8.74662 8.03687
#
# Compressibility (1/GPa) = 0.01373376
#
# Stress axis : x y z
#
# Youngs Moduli (GPa) = 144.20594 92.50600 77.56324
#
# Poissons Ratio (x) = 0.24016 0.08038
# Poissons Ratio (y) = 0.37439 0.37380
# Poissons Ratio (z) = 0.14944 0.44581
#
# Static dielectric constant tensor:
#      x y z
#    x 1.293110 -0.246380 0.160960 
#    y -0.246380 1.770520 0.086600 
#    z 0.160960 0.086600 1.766810 
# 
# From -- ./inp_files/156156.got.cif
#   From: 2010.05.17/outbox.cif.g08.bks.cpg/sg2_79_cif.got.tgz:156156.got - 2010.06.03 11:33:40.
