data_PCOD9070779
_publ_section_title
;
Structure prediction by ZEFSAII (Michael W. Deem and Ramdas Pophale) SiO2 
 PCOD9070779
Probable space group: P -1
;
_chemical_formula_sum "Si O2"
_cell_formula_units_Z 12
_cell_length_a 22.351488
_cell_length_b 5.152548
_cell_length_c 4.872853
_cell_angle_alpha 121.802789
_cell_angle_beta 91.899191
_cell_angle_gamma 99.603117
_cell_volume 465.322522
_symmetry_space_group_name_H-M "P -1"
_symmetry_group_IT_number 2
_symmetry_cell_setting 'triclinic'
loop_
_space_group_symop_operation_xyz
x,y,z
-x,-y,-z
loop_
_atom_site_type_symbol
_atom_site_label
_atom_site_fract_x
_atom_site_fract_y
_atom_site_fract_z
Si Si1 0.873533 0.629867 0.912368
Si Si2 0.042675 0.777971 0.493928
Si Si3 0.627053 0.365949 0.897584
Si Si4 0.292268 0.019456 0.618217
Si Si5 0.788674 0.515991 0.333126
Si Si6 0.543269 0.260403 0.329983
O O1 0.921634 0.405553 0.809343
O O2 0.746334 0.765324 0.426358
O O3 0.846458 0.633656 0.606942
O O4 0.905604 0.981091 0.195929
O O5 0.000000 0.500000 0.500000
O O6 0.000000 0.000000 0.500000
O O7 0.677355 0.178417 0.704118
O O8 0.569897 0.222195 0.612575
O O9 0.749951 0.208625 0.301609
O O10 0.603460 0.354113 0.199002
O O11 0.344279 0.265637 0.931435
O O12 0.182313 0.511088 0.973843
O O13 0.500000 0.500000 0.500000
O O14 0.500000 0.000000 0.000000
#
# Coordination Sequence:
#
# PCOD9070779 Si02
#       6
#     2   2   2   2   2   2
#     4  12  29  52  80 114 155 203 256 315 383 456
#     4  12  28  50  78 113 153 200 254 315 380 454
#     4  12  27  47  76 110 151 200 252 313 379 452
#     4  12  29  51  78 115 155 202 257 316 382 456
#     4  12  30  52  80 115 156 204 256 317 381 456
#     4  12  25  46  74 109 150 197 251 312 377 450
#
# _framework density 25.788561000000001
#
# number of rings (size 3 to 8) (size 9 to 14) (size 15 to 20)
#    0.000    0.000    0.000    8.000    0.000   22.667 
#    0.000    0.000    0.000    0.000    0.000    0.000 
#    0.000    0.000    0.000    0.000    0.000    0.000 
#
# Total GULP energy -67372.474019 kJ/mol
# GULP energy per Si atom -5614.372835 kJ/mol
# Density = 2.572987 g / cm^3
# Si number density = 25.788561 Si / 1000 Ang^3
#
#
#
# Elastic Constant Matrix: (Units=GPa)
#
#
# Indices 1 2 3 4 5 6 
#
# 1 142.1839 44.8944 21.6373 13.9584 -35.0653 -0.7814
# 2 44.8944 140.5639 31.4818 18.1957 -5.6038 1.5455
# 3 21.6373 31.4818 127.0248 22.9158 -11.8529 3.6608
# 4 13.9584 18.1957 22.9158 61.1784 -2.4535 6.9267
# 5 -35.0653 -5.6038 -11.8529 -2.4535 59.3774 5.9292
# 6 -0.7814 1.5455 3.6608 6.9267 5.9292 37.3453
#
#
#
# Elastic Compliance Matrix: (Units=1/GPa)
#
#
# Indices 1 2 3 4 5 6 
#
# 1 0.009250 -0.002554 -0.000271 -0.001008 0.005156 -0.000306
# 2 -0.002554 0.008404 -0.001499 -0.001420 -0.001091 0.000182
# 3 -0.000271 -0.001499 0.008929 -0.002719 0.001423 -0.000541
# 4 -0.001008 -0.001420 -0.002719 0.018355 -0.000207 -0.003067
# 5 0.005156 -0.001091 0.001423 -0.000207 0.020377 -0.003183
# 6 -0.000306 0.000182 -0.000541 -0.003067 -0.003183 0.027890
#
#
# Mechanical properties :
#
#
# Convention : Reuss Voigt Hill
#
# Bulk Modulus (GPa) = 55.75653 67.31107 61.53380
# Shear Modulus (GPa) = 46.36902 52.36417 49.36659
#
# Velocity S-wave (km/s) = 4.24494 4.51102 4.38000
# Velocity P-wave (km/s) = 6.75970 7.30001 7.03505
#
# Compressibility (1/GPa) = 0.01793512
#
# Stress axis : x y z
#
# Youngs Moduli (GPa) = 108.11127 118.99208 111.99659
#
# Poissons Ratio (x) = 0.30393 0.03033
# Poissons Ratio (y) = 0.27614 0.16785
# Poissons Ratio (z) = 0.02927 0.17833
#
# Static dielectric constant tensor:
#      x y z
#    x 2.038350 0.015920 0.081870 
#    y 0.015920 1.966470 0.014430 
#    z 0.081870 0.014430 1.982090 
# 
# From -- ./inp_files/114954.got.cif
#   From: 2010.05.17/outbox.cif.g08.bks.cpg/sg2_58_cif.got.tgz:114954.got - 2010.06.03 11:33:40.
