data_PCOD9070065
_publ_section_title
;
Structure prediction by ZEFSAII (Michael W. Deem and Ramdas Pophale) SiO2 
 PCOD9070065
Probable space group: P -1
;
_chemical_formula_sum "Si O2"
_cell_formula_units_Z 12
_cell_length_a 6.594206
_cell_length_b 4.913862
_cell_length_c 13.784460
_cell_angle_alpha 109.628996
_cell_angle_beta 68.516455
_cell_angle_gamma 111.205264
_cell_volume 376.676556
_symmetry_space_group_name_H-M "P -1"
_symmetry_group_IT_number 2
_symmetry_cell_setting 'triclinic'
loop_
_space_group_symop_operation_xyz
x,y,z
-x,-y,-z
loop_
_atom_site_type_symbol
_atom_site_label
_atom_site_fract_x
_atom_site_fract_y
_atom_site_fract_z
Si Si1 0.170769 0.619591 0.639941
Si Si2 0.509692 0.108108 0.689397
Si Si3 0.282249 0.336619 0.404668
Si Si4 0.163719 0.988676 0.034728
Si Si5 0.373580 0.450403 0.933175
Si Si6 0.030040 0.922212 0.272305
O O1 0.178966 0.347594 0.530594
O O2 0.068016 0.437413 0.733090
O O3 0.950328 0.714196 0.635672
O O4 0.457057 0.729733 0.624391
O O5 0.610001 0.315261 0.604612
O O6 0.488392 0.318092 0.809589
O O7 0.224457 0.007398 0.701059
O O8 0.252988 0.981852 0.319913
O O9 0.383711 0.306191 0.029018
O O10 0.120188 0.158642 0.951232
O O11 0.152811 0.973221 0.153078
O O12 0.264254 0.714976 0.951925
#
# Coordination Sequence:
#
# PCOD9070065 Si02
#       6
#     2   2   2   2   2   2
#     4  12  25  44  69 103 139 180 231 291 355 420
#     4  12  25  43  69 101 138 182 230 290 353 419
#     4  12  24  45  70 101 138 183 232 289 353 422
#     4  12  26  45  70 103 141 186 237 293 353 422
#     4  12  25  46  71 103 140 187 239 294 353 423
#     4  12  25  45  70 101 138 184 232 289 351 422
#
# _framework density 31.857568000000001
#
# number of rings (size 3 to 8) (size 9 to 14) (size 15 to 20)
#    0.000    0.000    0.000   11.000    0.000    2.667 
#    0.000    0.000    0.000    0.000    0.000    0.000 
#    0.000    0.000    0.000    0.000    0.000    0.000 
#
# Total GULP energy -67382.244659 kJ/mol
# GULP energy per Si atom -5615.187055 kJ/mol
# Density = 3.178506 g / cm^3
# Si number density = 31.857568 Si / 1000 Ang^3
#
#
#
# Elastic Constant Matrix: (Units=GPa)
#
#
# Indices 1 2 3 4 5 6 
#
# 1 287.4230 64.5976 32.9296 28.2355 7.5223 -24.0963
# 2 64.5976 261.6725 95.9079 18.5469 17.3374 9.5662
# 3 32.9296 95.9079 76.2469 -1.6835 4.6326 -2.3140
# 4 28.2355 18.5469 -1.6835 57.8740 7.5643 -1.2835
# 5 7.5223 17.3374 4.6326 7.5643 81.8962 22.0398
# 6 -24.0963 9.5662 -2.3140 -1.2835 22.0398 99.5674
#
#
#
# Elastic Compliance Matrix: (Units=1/GPa)
#
#
# Indices 1 2 3 4 5 6 
#
# 1 0.003980 -0.000461 -0.001127 -0.001762 -0.000318 0.001029
# 2 -0.000461 0.007657 -0.009483 -0.002454 -0.000553 -0.000977
# 3 -0.001127 -0.009483 0.025673 0.004378 -0.000099 0.001313
# 4 -0.001762 -0.002454 0.004378 0.019256 -0.001476 0.000486
# 5 -0.000318 -0.000553 -0.000099 -0.001476 0.013303 -0.002990
# 6 0.001029 -0.000977 0.001313 0.000486 -0.002990 0.011085
#
#
# Mechanical properties :
#
#
# Convention : Reuss Voigt Hill
#
# Bulk Modulus (GPa) = 65.93075 112.46806 89.19941
# Shear Modulus (GPa) = 46.23066 76.66135 61.44601
#
# Velocity S-wave (km/s) = 3.81355 4.91081 4.39654
# Velocity P-wave (km/s) = 6.33493 8.21795 7.33710
#
# Compressibility (1/GPa) = 0.01516743
#
# Stress axis : x y z
#
# Youngs Moduli (GPa) = 251.27888 130.59296 38.95118
#
# Poissons Ratio (x) = 0.06018 0.04391
# Poissons Ratio (y) = 0.11580 0.36938
# Poissons Ratio (z) = 0.28329 1.23843
#
# Static dielectric constant tensor:
#      x y z
#    x 2.502850 0.095790 0.026850 
#    y 0.095790 2.301750 0.043880 
#    z 0.026850 0.043880 2.073860 
# 
# From -- ./inp_files/22933.got.cif
#   From: 2010.05.17/outbox.cif.g08.bks.cpg/sg2_12_cif.got.tgz:22933.got - 2010.06.03 11:33:40.
