data_PCOD9070592
_publ_section_title
;
Structure prediction by ZEFSAII (Michael W. Deem and Ramdas Pophale) SiO2 
 PCOD9070592
Probable space group: P -1
;
_chemical_formula_sum "Si O2"
_cell_formula_units_Z 10
_cell_length_a 12.833404
_cell_length_b 10.865450
_cell_length_c 7.298579
_cell_angle_alpha 39.891497
_cell_angle_beta 135.473710
_cell_angle_gamma 146.881702
_cell_volume 349.361568
_symmetry_space_group_name_H-M "P -1"
_symmetry_group_IT_number 2
_symmetry_cell_setting 'triclinic'
loop_
_space_group_symop_operation_xyz
x,y,z
-x,-y,-z
loop_
_atom_site_type_symbol
_atom_site_label
_atom_site_fract_x
_atom_site_fract_y
_atom_site_fract_z
Si Si1 0.216070 0.753481 0.926940
Si Si2 0.090621 0.005349 0.914716
Si Si3 0.773163 0.266400 0.467457
Si Si4 0.379547 0.589458 0.589894
Si Si5 0.689906 0.735170 0.576898
O O1 0.262777 0.770558 0.750764
O O2 0.104553 0.201731 0.212696
O O3 0.244789 0.002811 0.716029
O O4 0.000000 0.500000 0.000000
O O5 0.227871 0.937615 0.196191
O O6 0.216849 0.293140 0.682786
O O7 0.000000 0.000000 0.000000
O O8 0.657641 0.331024 0.358810
O O9 0.000000 0.500000 0.500000
O O10 0.591725 0.679823 0.718545
O O11 0.353105 0.733050 0.241134
O O12 0.500000 0.500000 0.500000
#
# Coordination Sequence:
#
# PCOD9070592 Si02
#       5
#     2   2   2   2   2
#     4  12  24  53  84 116 164 223 274 335 417 495
#     4  12  25  55  78 120 167 220 274 336 418 495
#     4  12  25  49  87 116 160 219 276 334 413 490
#     4  12  29  51  85 120 166 215 278 346 412 489
#     4  12  30  50  83 129 165 215 282 344 416 495
#
# _framework density 28.623640000000002
#
# number of rings (size 3 to 8) (size 9 to 14) (size 15 to 20)
#    0.000    0.000    8.000    0.600    5.600    2.400 
#    3.600    0.000    0.000    1.200    0.000    0.000 
#    0.000    0.000    0.000    0.000    0.000    0.000 
#
# Total GULP energy -56198.506668 kJ/mol
# GULP energy per Si atom -5619.850667 kJ/mol
# Density = 2.855849 g / cm^3
# Si number density = 28.623640 Si / 1000 Ang^3
#
#
#
# Elastic Constant Matrix: (Units=GPa)
#
#
# Indices 1 2 3 4 5 6 
#
# 1 186.1452 72.1961 55.6000 2.5818 -5.6232 15.0212
# 2 72.1961 225.8698 78.3577 -14.0218 -5.1001 21.9470
# 3 55.6000 78.3577 193.9307 -17.9038 6.1507 -2.3940
# 4 2.5818 -14.0218 -17.9038 53.6483 -7.8341 -6.2415
# 5 -5.6232 -5.1001 6.1507 -7.8341 47.2331 3.0124
# 6 15.0212 21.9470 -2.3940 -6.2415 3.0124 64.0560
#
#
#
# Elastic Compliance Matrix: (Units=1/GPa)
#
#
# Indices 1 2 3 4 5 6 
#
# 1 0.006522 -0.001545 -0.001395 -0.001226 0.000665 -0.001203
# 2 -0.001545 0.005809 -0.001870 0.000914 0.000944 -0.001653
# 3 -0.001395 -0.001870 0.006526 0.001775 -0.001015 0.001432
# 4 -0.001226 0.000914 0.001775 0.020178 0.002949 0.001868
# 5 0.000665 0.000944 -0.001015 0.002949 0.022055 -0.001267
# 6 -0.001203 -0.001653 0.001432 0.001868 -0.001267 0.016755
#
#
# Mechanical properties :
#
#
# Convention : Reuss Voigt Hill
#
# Bulk Modulus (GPa) = 108.26243 113.13926 110.70084
# Shear Modulus (GPa) = 55.22271 59.64027 57.43149
#
# Velocity S-wave (km/s) = 4.39711 4.56960 4.48418
# Velocity P-wave (km/s) = 7.98024 8.21304 8.09748
#
# Compressibility (1/GPa) = 0.00923681
#
# Stress axis : x y z
#
# Youngs Moduli (GPa) = 153.32350 172.15932 153.24269
#
# Poissons Ratio (x) = 0.26600 0.21373
# Poissons Ratio (y) = 0.23690 0.28655
# Poissons Ratio (z) = 0.21385 0.32193
#
# Static dielectric constant tensor:
#      x y z
#    x 2.301820 -0.100910 -0.046410 
#    y -0.100910 2.285200 -0.031740 
#    z -0.046410 -0.031740 2.246990 
# 
# From -- ./inp_files/57421.got.cif
#   From: 2010.05.17/outbox.cif.g08.bks.cpg/sg2_29_cif.got.tgz:57421.got - 2010.06.03 11:33:40.
