data_PCOD9070949
_publ_section_title
;
Structure prediction by ZEFSAII (Michael W. Deem and Ramdas Pophale) SiO2 
 PCOD9070949
Probable space group: P -1
;
_chemical_formula_sum "Si O2"
_cell_formula_units_Z 14
_cell_length_a 8.167263
_cell_length_b 13.611502
_cell_length_c 20.024041
_cell_angle_alpha 146.267938
_cell_angle_beta 33.670896
_cell_angle_gamma 147.128629
_cell_volume 601.248192
_symmetry_space_group_name_H-M "P -1"
_symmetry_group_IT_number 2
_symmetry_cell_setting 'triclinic'
loop_
_space_group_symop_operation_xyz
x,y,z
-x,-y,-z
loop_
_atom_site_type_symbol
_atom_site_label
_atom_site_fract_x
_atom_site_fract_y
_atom_site_fract_z
Si Si1 0.617938 0.942447 0.358012
Si Si2 0.723837 0.080579 0.675063
Si Si3 0.604472 0.861900 0.061036
Si Si4 0.636459 0.516669 0.783476
Si Si5 0.606897 0.917977 0.851198
Si Si6 0.616942 0.365502 0.426578
Si Si7 0.422809 0.482825 0.683713
O O1 0.409385 0.964889 0.380513
O O2 0.514742 0.708837 0.267331
O O3 0.500000 0.000000 0.500000
O O4 0.012830 0.051661 0.265490
O O5 0.490733 0.142248 0.832486
O O6 0.086525 0.271327 0.668683
O O7 0.661645 0.868607 0.607424
O O8 0.435889 0.963308 0.129508
O O9 0.507816 0.644818 0.941742
O O10 0.000000 0.000000 0.000000
O O11 0.538613 0.513247 0.737633
O O12 0.040127 0.618253 0.707696
O O13 0.379183 0.675927 0.787880
O O14 0.500000 0.000000 0.000000
O O15 0.500000 0.500000 0.500000
O O16 0.678350 0.462419 0.534298
#
# Coordination Sequence:
#
# PCOD9070949 Si02
#       7
#     2   2   2   2   2   2   2
#     4  12  28  52  78 111 155 197 255 313 377 448
#     4  12  27  47  77 110 149 194 249 314 371 453
#     4  12  26  48  75 108 153 197 256 307 374 450
#     4  12  26  47  74 107 151 199 246 313 375 443
#     4  12  26  49  77 111 154 203 250 305 379 446
#     4  12  25  48  74 107 146 198 251 309 378 445
#     4  12  26  45  77 109 148 194 252 306 377 446
#
# _framework density 23.284894999999999
#
# number of rings (size 3 to 8) (size 9 to 14) (size 15 to 20)
#    0.000    0.000    2.857    6.857    4.000    4.000 
#    0.000    0.000    0.000    0.000    0.000    0.000 
#    0.000    0.000    0.000    0.000    0.000    0.000 
#
# Total GULP energy -78451.808070 kJ/mol
# GULP energy per Si atom -5603.700576 kJ/mol
# Density = 2.323190 g / cm^3
# Si number density = 23.284895 Si / 1000 Ang^3
#
#
#
# Elastic Constant Matrix: (Units=GPa)
#
#
# Indices 1 2 3 4 5 6 
#
# 1 113.1323 37.3227 47.4829 5.5567 6.9715 -1.6787
# 2 37.3227 135.3622 54.4644 32.5480 -10.3936 -6.8700
# 3 47.4829 54.4644 155.6568 11.4398 23.1165 -1.2689
# 4 5.5567 32.5480 11.4398 55.2981 -8.4767 -12.1759
# 5 6.9715 -10.3936 23.1165 -8.4767 45.2431 -0.7538
# 6 -1.6787 -6.8700 -1.2689 -12.1759 -0.7538 34.6084
#
#
#
# Elastic Compliance Matrix: (Units=1/GPa)
#
#
# Indices 1 2 3 4 5 6 
#
# 1 0.010577 -0.002149 -0.002404 0.000625 -0.000775 0.000201
# 2 -0.002149 0.010748 -0.003280 -0.004819 0.003578 0.000292
# 3 -0.002404 -0.003280 0.009119 -0.000682 -0.005183 -0.000786
# 4 0.000625 -0.004819 -0.000682 0.023152 0.003604 0.007273
# 5 -0.000775 0.003578 -0.005183 0.003604 0.026406 0.002326
# 6 0.000201 0.000292 -0.000786 0.007273 0.002326 0.031543
#
#
# Mechanical properties :
#
#
# Convention : Reuss Voigt Hill
#
# Bulk Modulus (GPa) = 67.66514 75.85456 71.75985
# Shear Modulus (GPa) = 37.83941 44.68868 41.26404
#
# Velocity S-wave (km/s) = 4.03558 4.38564 4.21424
# Velocity P-wave (km/s) = 7.13003 7.63495 7.38681
#
# Compressibility (1/GPa) = 0.01477866
#
# Stress axis : x y z
#
# Youngs Moduli (GPa) = 94.54443 93.03962 109.66226
#
# Poissons Ratio (x) = 0.19990 0.26362
# Poissons Ratio (y) = 0.20314 0.35971
# Poissons Ratio (z) = 0.22728 0.30519
#
# Static dielectric constant tensor:
#      x y z
#    x 1.895200 -0.000880 0.010380 
#    y -0.000880 1.893440 -0.034840 
#    z 0.010380 -0.034840 1.899300 
# 
# From -- ./inp_files/271891.got.cif
#   From: 2010.05.17/outbox.cif.g08.bks.cpg/sg2_136_cif.got.tgz:271891.got - 2010.06.03 11:33:40.
