data_PCOD9070293
_publ_section_title
;
Structure prediction by ZEFSAII (Michael W. Deem and Ramdas Pophale) SiO2 
 PCOD9070293
Probable space group: P -1
;
_chemical_formula_sum "Si O2"
_cell_formula_units_Z 13
_cell_length_a 20.870342
_cell_length_b 18.147298
_cell_length_c 23.067062
_cell_angle_alpha 159.462474
_cell_angle_beta 167.864441
_cell_angle_gamma 20.798254
_cell_volume 621.821659
_symmetry_space_group_name_H-M "P -1"
_symmetry_group_IT_number 2
_symmetry_cell_setting 'triclinic'
loop_
_space_group_symop_operation_xyz
x,y,z
-x,-y,-z
loop_
_atom_site_type_symbol
_atom_site_label
_atom_site_fract_x
_atom_site_fract_y
_atom_site_fract_z
Si Si1 0.577945 0.087329 0.414336
Si Si2 0.621852 0.588312 0.352149
Si Si3 0.905886 0.664245 0.319366
Si Si4 0.109497 0.985043 0.237554
Si Si5 0.082286 0.752699 0.410045
Si Si6 0.000000 0.500000 0.500000
Si Si7 0.770519 0.519945 0.865755
O O1 0.725720 0.030189 0.565859
O O2 0.668614 0.302513 0.631885
O O3 0.756362 0.889680 0.385792
O O4 0.203153 0.104879 0.099936
O O5 0.389102 0.831871 0.332934
O O6 0.822246 0.495004 0.518451
O O7 0.855301 0.547309 0.473620
O O8 0.376429 0.447120 0.020133
O O9 0.013818 0.714463 0.388346
O O10 0.999925 0.239145 0.311808
O O11 0.454751 0.679654 0.680814
O O12 0.000000 0.000000 0.500000
O O13 0.912233 0.614242 0.116214
O O14 0.000000 0.500000 0.000000
#
# Coordination Sequence:
#
# PCOD9070293 Si02
#       7
#     2   2   2   2   2   1   2
#     4  12  24  47  71 104 144 190 239 299 363 431
#     4  12  26  46  74 104 144 192 240 302 363 430
#     4  12  24  47  71 104 144 190 239 299 363 431
#     4  12  26  46  74 104 144 192 240 302 363 430
#     4  12  26  45  71 106 144 189 242 297 362 430
#     4  12  26  50  72 112 144 186 258 294 376 420
#     4  12  26  45  71 106 144 189 242 297 362 430
#
# _framework density 20.906313999999998
#
# number of rings (size 3 to 8) (size 9 to 14) (size 15 to 20)
#    0.000    0.000    3.077    7.846    0.000    4.923 
#    0.000    3.077    0.000    0.000    0.000    0.000 
#    0.000    0.000    0.000    0.000    0.000    0.000 
#
# Total GULP energy -72457.417462 kJ/mol
# GULP energy per Si atom -5573.647497 kJ/mol
# Density = 2.085873 g / cm^3
# Si number density = 20.906314 Si / 1000 Ang^3
#
#
#
# Elastic Constant Matrix: (Units=GPa)
#
#
# Indices 1 2 3 4 5 6 
#
# 1 -345.1268 1171.5067 586.0840 507.8049 -422.1831 -444.0825
# 2 1171.5067-2234.2288 -952.7377-1058.4843 976.9709 886.8628
# 3 586.0840 -952.7377 -360.3937 -492.1456 382.8514 400.3742
# 4 507.8049-1058.4843 -492.1456 -453.6006 433.8481 412.1050
# 5 -422.1831 976.9709 382.8514 433.8481 -356.9013 -355.0904
# 6 -444.0825 886.8628 400.3742 412.1050 -355.0904 -327.1949
#
#
#
# Elastic Compliance Matrix: (Units=1/GPa)
#
#
# Indices 1 2 3 4 5 6 
#
# 1 0.003755 -0.003721 0.002746 0.006162 0.001894 -0.006115
# 2 -0.003721 0.002439 0.003737 -0.003397 0.011753 -0.000801
# 3 0.002746 0.003737 -0.001367 -0.003323 -0.011714 0.013256
# 4 0.006162 -0.003397 -0.003323 0.022414 -0.006692 0.013855
# 5 0.001894 0.011753 -0.011714 -0.006692 0.000762 0.005696
# 6 -0.006115 -0.000801 0.013256 0.013855 0.005696 0.030562
#
#
# Mechanical properties :
#
#
# Convention : Reuss Voigt Hill
#
# Bulk Modulus (GPa) = 96.59831 -147.78259 -25.59214
# Shear Modulus (GPa) = 88.51148 -477.17951 -194.33401
#
# Velocity S-wave (km/s) = 6.51376 -15.12422 -9.65176
# Velocity P-wave (km/s) = 10.14287 19.38636 11.68232
#
# Compressibility (1/GPa) = 0.01035215
#
# Stress axis : x y z
#
# Youngs Moduli (GPa) = 266.29832 410.02318 -731.40598
#
# Poissons Ratio (x) = 1.52551 2.00864
# Poissons Ratio (y) = 0.99077 2.73320
# Poissons Ratio (z) = -0.73133 -1.53222
#
# Static dielectric constant tensor:
#      x y z
#    x 1.784560 0.034230 0.026180 
#    y 0.034230 1.845360 0.013780 
#    z 0.026180 0.013780 1.723810 
# 
# From -- ./inp_files/312961.got.cif
#   From: 2010.05.17/outbox.cif.g08.bks.cpg/sg2_157_cif.got.tgz:312961.got - 2010.06.03 11:33:40.
