data_PCOD9070613
_publ_section_title
;
Structure prediction by ZEFSAII (Michael W. Deem and Ramdas Pophale) SiO2 
 PCOD9070613
Probable space group: P -1
;
_chemical_formula_sum "Si O2"
_cell_formula_units_Z 16
_cell_length_a 10.057882
_cell_length_b 5.225957
_cell_length_c 18.840923
_cell_angle_alpha 95.359576
_cell_angle_beta 46.352017
_cell_angle_gamma 93.427506
_cell_volume 713.440094
_symmetry_space_group_name_H-M "P -1"
_symmetry_group_IT_number 2
_symmetry_cell_setting 'triclinic'
loop_
_space_group_symop_operation_xyz
x,y,z
-x,-y,-z
loop_
_atom_site_type_symbol
_atom_site_label
_atom_site_fract_x
_atom_site_fract_y
_atom_site_fract_z
Si Si1 0.975853 0.335615 0.711201
Si Si2 0.255221 0.146883 0.167666
Si Si3 0.348103 0.372288 0.003419
Si Si4 0.914520 0.737738 0.494254
Si Si5 0.054787 0.701901 0.045417
Si Si6 0.262669 0.248817 0.728036
Si Si7 0.518661 0.220906 0.320129
Si Si8 0.595139 0.030269 0.129847
O O1 0.875969 0.610655 0.762808
O O2 0.036566 0.294757 0.607072
O O3 0.144584 0.305637 0.702751
O O4 0.835140 0.111330 0.777965
O O5 0.283815 0.139799 0.072253
O O6 0.449544 0.175342 0.136433
O O7 0.176580 0.551354 0.054971
O O8 0.500000 0.500000 0.000000
O O9 0.418539 0.261553 0.900071
O O10 0.695195 0.743696 0.584012
O O11 0.000000 0.500000 0.500000
O O12 0.000000 0.000000 0.500000
O O13 0.878374 0.800537 0.155780
O O14 0.194612 0.895520 0.961270
O O15 0.000000 0.500000 0.000000
O O16 0.379578 0.504815 0.707773
O O17 0.386189 0.992319 0.669802
O O18 0.540016 0.097172 0.230953
#
# Coordination Sequence:
#
# PCOD9070613 Si02
#       8
#     2   2   2   2   2   2   2   2
#     4  12  26  47  77 106 146 188 244 308 368 441
#     4  12  25  44  72 109 145 190 246 308 367 426
#     4  12  25  43  68 106 144 198 255 306 360 433
#     4  12  27  52  81 111 139 182 241 308 377 438
#     4  12  25  43  67  99 151 198 247 291 359 438
#     4  12  27  46  70 107 146 198 239 291 363 441
#     4  12  28  48  73 105 148 188 243 297 366 442
#     4  12  26  41  70 101 148 195 246 306 362 421
#
# _framework density 22.426552000000001
#
# number of rings (size 3 to 8) (size 9 to 14) (size 15 to 20)
#    0.000    0.000    3.750    6.375    1.750    2.000 
#    0.000    0.000    0.000    0.000    0.000    0.000 
#    0.000    0.000    0.000    0.000    0.000    0.000 
#
# Total GULP energy -89683.794700 kJ/mol
# GULP energy per Si atom -5605.237169 kJ/mol
# Density = 2.237551 g / cm^3
# Si number density = 22.426552 Si / 1000 Ang^3
#
#
#
# Elastic Constant Matrix: (Units=GPa)
#
#
# Indices 1 2 3 4 5 6 
#
# 1 114.6553 34.0643 41.0559 7.5862 -19.3654 -1.0403
# 2 34.0643 108.5150 24.0759 1.3503 -17.0267 3.0858
# 3 41.0559 24.0759 108.8684 4.6601 -2.3629 8.5129
# 4 7.5862 1.3503 4.6601 30.7708 -1.7179 -6.6562
# 5 -19.3654 -17.0267 -2.3629 -1.7179 49.7283 9.2882
# 6 -1.0403 3.0858 8.5129 -6.6562 9.2882 47.6274
#
#
#
# Elastic Compliance Matrix: (Units=1/GPa)
#
#
# Indices 1 2 3 4 5 6 
#
# 1 0.011396 -0.002207 -0.003660 -0.001944 0.003421 0.000107
# 2 -0.002207 0.010707 -0.001400 0.000227 0.002941 -0.001033
# 3 -0.003660 -0.001400 0.011054 -0.001186 -0.001061 -0.001924
# 4 -0.001944 0.000227 -0.001186 0.034208 -0.000494 0.005032
# 5 0.003421 0.002941 -0.001061 -0.000494 0.023226 -0.004525
# 6 0.000107 -0.001033 -0.001924 0.005032 -0.004525 0.022995
#
#
# Mechanical properties :
#
#
# Convention : Reuss Voigt Hill
#
# Bulk Modulus (GPa) = 53.70545 58.93677 56.32111
# Shear Modulus (GPa) = 37.22234 41.14814 39.18524
#
# Velocity S-wave (km/s) = 4.07842 4.28810 4.18457
# Velocity P-wave (km/s) = 6.79538 7.13120 6.96531
#
# Compressibility (1/GPa) = 0.01862008
#
# Stress axis : x y z
#
# Youngs Moduli (GPa) = 87.75290 93.39766 90.46837
#
# Poissons Ratio (x) = 0.20615 0.33114
# Poissons Ratio (y) = 0.19369 0.12670
# Poissons Ratio (z) = 0.32120 0.13080
#
# Static dielectric constant tensor:
#      x y z
#    x 1.822680 -0.003440 -0.008330 
#    y -0.003440 1.877760 -0.023600 
#    z -0.008330 -0.023600 1.805190 
# 
# From -- ./inp_files/40010.got.cif
#   From: 2010.05.17/outbox.cif.g08.bks.cpg/sg2_21_cif.got.tgz:40010.got - 2010.06.03 11:33:40.
