data_PCOD9070014
_publ_section_title
;
Structure prediction by ZEFSAII (Michael W. Deem and Ramdas Pophale) SiO2 
 PCOD9070014
Probable space group: P -1
;
_chemical_formula_sum "Si O2"
_cell_formula_units_Z 16
_cell_length_a 11.889003
_cell_length_b 19.825654
_cell_length_c 17.206591
_cell_angle_alpha 160.094429
_cell_angle_beta 32.658076
_cell_angle_gamma 138.252900
_cell_volume 721.915409
_symmetry_space_group_name_H-M "P -1"
_symmetry_group_IT_number 2
_symmetry_cell_setting 'triclinic'
loop_
_space_group_symop_operation_xyz
x,y,z
-x,-y,-z
loop_
_atom_site_type_symbol
_atom_site_label
_atom_site_fract_x
_atom_site_fract_y
_atom_site_fract_z
Si Si1 0.690372 0.071619 0.011098
Si Si2 0.740193 0.020387 0.584548
Si Si3 0.055796 0.697571 0.448385
Si Si4 0.119049 0.648915 0.904589
Si Si5 0.474780 0.794432 0.249123
Si Si6 0.788654 0.426640 0.065214
Si Si7 0.137937 0.574966 0.433706
Si Si8 0.438111 0.775109 0.575301
O O1 0.742482 0.255692 0.131751
O O2 0.638429 0.138611 0.202318
O O3 0.903258 0.886094 0.695198
O O4 0.500000 0.000000 0.000000
O O5 0.634176 0.130600 0.688149
O O6 0.567178 0.924834 0.624709
O O7 0.811405 0.190836 0.778140
O O8 0.939594 0.836759 0.247281
O O9 0.302310 0.704836 0.300320
O O10 0.008135 0.691675 0.561800
O O11 0.004079 0.498325 0.225601
O O12 0.251116 0.538176 0.781796
O O13 0.500000 0.000000 0.500000
O O14 0.692631 0.621817 0.916371
O O15 0.601315 0.557726 0.263237
O O16 0.000000 0.500000 0.000000
O O17 0.261520 0.725994 0.567504
O O18 0.000000 0.500000 0.500000
#
# Coordination Sequence:
#
# PCOD9070014 Si02
#       8
#     2   2   2   2   2   2   2   2
#     4  12  29  47  73 111 148 193 241 295 372 438
#     4  12  24  44  74 106 140 189 245 296 359 432
#     4  12  27  50  76 105 149 193 245 302 363 434
#     4  12  25  45  75 104 144 190 242 295 361 436
#     4  12  25  47  77 107 144 196 250 299 362 438
#     4  12  25  43  75 106 144 186 241 303 360 428
#     4  12  28  48  76 109 149 192 245 306 372 430
#     4  12  27  47  72 108 149 187 244 304 365 433
#
# _framework density 22.163262
#
# number of rings (size 3 to 8) (size 9 to 14) (size 15 to 20)
#    0.000    0.000    3.750    6.000    5.250    4.500 
#    0.000    0.000    0.000    0.000    0.000    0.000 
#    0.000    0.000    0.000    0.000    0.000    0.000 
#
# Total GULP energy -89647.180745 kJ/mol
# GULP energy per Si atom -5602.948797 kJ/mol
# Density = 2.211282 g / cm^3
# Si number density = 22.163262 Si / 1000 Ang^3
#
#
#
# Elastic Constant Matrix: (Units=GPa)
#
#
# Indices 1 2 3 4 5 6 
#
# 1 137.7607 36.5563 18.8222 14.4762 19.3645 -3.1821
# 2 36.5563 158.0786 39.7023 4.5765 26.6615 -9.8707
# 3 18.8222 39.7023 69.0572 2.3973 18.1675 18.0409
# 4 14.4762 4.5765 2.3973 32.0644 0.8407 8.4269
# 5 19.3645 26.6615 18.1675 0.8407 46.3136 11.8227
# 6 -3.1821 -9.8707 18.0409 8.4269 11.8227 47.8735
#
#
#
# Elastic Compliance Matrix: (Units=1/GPa)
#
#
# Indices 1 2 3 4 5 6 
#
# 1 0.008626 -0.000793 -0.001593 -0.004243 -0.003092 0.002521
# 2 -0.000793 0.008805 -0.005027 -0.001718 -0.003997 0.004946
# 3 -0.001593 -0.005027 0.020624 0.002251 -0.002342 -0.008732
# 4 -0.004243 -0.001718 0.002251 0.035337 0.003421 -0.008550
# 5 -0.003092 -0.003997 -0.002342 0.003421 0.027998 -0.007664
# 6 0.002521 0.004946 -0.008732 -0.008550 -0.007664 0.028764
#
#
# Mechanical properties :
#
#
# Convention : Reuss Voigt Hill
#
# Bulk Modulus (GPa) = 43.04997 61.67311 52.36154
# Shear Modulus (GPa) = 32.73904 43.23801 37.98853
#
# Velocity S-wave (km/s) = 3.84757 4.42168 4.14458
# Velocity P-wave (km/s) = 6.26136 7.34544 6.82496
#
# Compressibility (1/GPa) = 0.02322882
#
# Stress axis : x y z
#
# Youngs Moduli (GPa) = 115.93204 113.57756 48.48641
#
# Poissons Ratio (x) = 0.09007 0.07724
# Poissons Ratio (y) = 0.09193 0.24374
# Poissons Ratio (z) = 0.18468 0.57095
#
# Static dielectric constant tensor:
#      x y z
#    x 1.786920 0.008060 -0.023990 
#    y 0.008060 1.777700 0.000260 
#    z -0.023990 0.000260 1.855600 
# 
# From -- ./inp_files/307397.got.cif
#   From: 2010.05.17/outbox.cif.g08.bks.cpg/sg2_154_cif.got.tgz:307397.got - 2010.06.03 11:33:40.
