data_PCOD9070069
_publ_section_title
;
Structure prediction by ZEFSAII (Michael W. Deem and Ramdas Pophale) SiO2 
 PCOD9070069
Probable space group: P -1
;
_chemical_formula_sum "Si O2"
_cell_formula_units_Z 11
_cell_length_a 16.757928
_cell_length_b 4.822843
_cell_length_c 7.869802
_cell_angle_alpha 91.610285
_cell_angle_beta 123.799897
_cell_angle_gamma 60.124255
_cell_volume 430.069622
_symmetry_space_group_name_H-M "P -1"
_symmetry_group_IT_number 2
_symmetry_cell_setting 'triclinic'
loop_
_space_group_symop_operation_xyz
x,y,z
-x,-y,-z
loop_
_atom_site_type_symbol
_atom_site_label
_atom_site_fract_x
_atom_site_fract_y
_atom_site_fract_z
Si Si1 0.166522 0.804083 0.906108
Si Si2 0.538148 0.178014 0.422668
Si Si3 0.894105 0.274394 0.624354
Si Si4 0.259926 0.159913 0.835979
Si Si5 0.500000 0.000000 0.000000
Si Si6 0.806179 0.903862 0.712766
O O1 0.219328 0.920287 0.828013
O O2 0.232642 0.401248 0.970062
O O3 0.027305 0.991566 0.724064
O O4 0.184056 0.940831 0.101496
O O5 0.500000 0.500000 0.500000
O O6 0.488565 0.188391 0.177056
O O7 0.500000 0.000000 0.500000
O O8 0.677095 0.987279 0.551236
O O9 0.822444 0.557463 0.399306
O O10 0.894447 0.498131 0.782604
O O11 0.169558 0.899138 0.395664
O O12 0.393076 0.971209 0.931587
#
# Coordination Sequence:
#
# PCOD9070069 Si02
#       6
#     2   2   2   2   1   2
#     4  12  25  45  72 105 142 188 239 299 371 440
#     4  12  27  48  74 108 149 197 250 304 367 447
#     4  12  24  45  71 105 143 186 236 302 364 444
#     4  12  26  45  70 104 142 189 242 296 368 437
#     4  12  28  50  78 106 156 196 252 308 378 436
#     4  12  24  45  70 105 143 184 245 295 372 436
#
# _framework density 25.577252999999999
#
# number of rings (size 3 to 8) (size 9 to 14) (size 15 to 20)
#    0.000    0.000    1.818    8.727    0.000    1.455 
#    0.000    0.000    0.000    0.000    0.000    0.000 
#    0.000    0.000    0.000    0.000    0.000    0.000 
#
# Total GULP energy -61423.383586 kJ/mol
# GULP energy per Si atom -5583.943962 kJ/mol
# Density = 2.551904 g / cm^3
# Si number density = 25.577253 Si / 1000 Ang^3
#
#
#
# Elastic Constant Matrix: (Units=GPa)
#
#
# Indices 1 2 3 4 5 6 
#
# 1 169.0530 36.5917 53.7900 -4.5893 14.2651 12.7359
# 2 36.5917 93.0694 21.7925 39.7823 -5.8429 10.5430
# 3 53.7900 21.7925 118.8018 29.0826 -17.8903 -3.7364
# 4 -4.5893 39.7823 29.0826 53.1118 -18.0341 1.1353
# 5 14.2651 -5.8429 -17.8903 -18.0341 42.5503 9.4299
# 6 12.7359 10.5430 -3.7364 1.1353 9.4299 53.7910
#
#
#
# Elastic Compliance Matrix: (Units=1/GPa)
#
#
# Indices 1 2 3 4 5 6 
#
# 1 0.009305 -0.005348 -0.005374 0.006760 -0.002994 -0.001146
# 2 -0.005348 0.019608 0.002757 -0.017015 -0.001163 -0.001822
# 3 -0.005374 0.002757 0.013009 -0.008370 0.003851 0.001137
# 4 0.006760 -0.017015 -0.008370 0.039839 0.009045 -0.001274
# 5 -0.002994 -0.001163 0.003851 0.009045 0.030769 -0.004381
# 6 -0.001146 -0.001822 0.001137 -0.001274 -0.004381 0.020093
#
#
# Mechanical properties :
#
#
# Convention : Reuss Voigt Hill
#
# Bulk Modulus (GPa) = 38.47105 67.25253 52.86179
# Shear Modulus (GPa) = 31.80303 47.80728 39.80515
#
# Velocity S-wave (km/s) = 3.53003 4.32804 3.94924
# Velocity P-wave (km/s) = 5.62926 7.16428 6.44265
#
# Compressibility (1/GPa) = 0.02599357
#
# Stress axis : x y z
#
# Youngs Moduli (GPa) = 107.46467 50.99921 76.86724
#
# Poissons Ratio (x) = 0.27275 0.41309
# Poissons Ratio (y) = 0.57473 -0.21196
# Poissons Ratio (z) = 0.57752 -0.14063
#
# Static dielectric constant tensor:
#      x y z
#    x 1.930480 -0.076280 -0.095450 
#    y -0.076280 2.036010 -0.007090 
#    z -0.095450 -0.007090 2.118520 
# 
# From -- ./inp_files/321469.got.cif
#   From: 2010.05.17/outbox.cif.g08.bks.cpg/sg2_161_cif.got.tgz:321469.got - 2010.06.03 11:33:40.
