data_PCOD9070256
_publ_section_title
;
Structure prediction by ZEFSAII (Michael W. Deem and Ramdas Pophale) SiO2 
 PCOD9070256
Probable space group: P -1
;
_chemical_formula_sum "Si O2"
_cell_formula_units_Z 13
_cell_length_a 14.444489
_cell_length_b 14.343975
_cell_length_c 8.222562
_cell_angle_alpha 139.190261
_cell_angle_beta 48.917002
_cell_angle_gamma 149.389554
_cell_volume 566.864883
_symmetry_space_group_name_H-M "P -1"
_symmetry_group_IT_number 2
_symmetry_cell_setting 'triclinic'
loop_
_space_group_symop_operation_xyz
x,y,z
-x,-y,-z
loop_
_atom_site_type_symbol
_atom_site_label
_atom_site_fract_x
_atom_site_fract_y
_atom_site_fract_z
Si Si1 0.907141 0.554289 0.272306
Si Si2 0.561430 0.121484 0.259598
Si Si3 0.226201 0.992124 0.641529
Si Si4 0.935935 0.781690 0.243905
Si Si5 0.359862 0.369756 0.837924
Si Si6 0.701538 0.957159 0.001384
Si Si7 0.500000 0.500000 0.500000
O O1 0.738869 0.361959 0.321868
O O2 0.861226 0.637111 0.299431
O O3 0.059881 0.750634 0.469973
O O4 0.000000 0.500000 0.000000
O O5 0.407968 0.083140 0.471616
O O6 0.597732 0.017257 0.194369
O O7 0.500000 0.000000 0.000000
O O8 0.209930 0.128931 0.753061
O O9 0.244068 0.027968 0.858333
O O10 0.776102 0.632563 0.096245
O O11 0.000000 0.000000 0.500000
O O12 0.119497 0.867564 0.083708
O O13 0.473498 0.423123 0.619446
O O14 0.500000 0.500000 0.000000
O O15 0.591150 0.728497 0.760814
#
# Coordination Sequence:
#
# PCOD9070256 Si02
#       7
#     2   2   2   2   2   2   1
#     4  12  25  50  78 110 154 205 264 322 394 472
#     4  12  26  47  80 108 154 209 262 324 398 469
#     4  12  27  49  74 116 156 204 268 323 393 476
#     4  12  25  48  80 108 153 207 259 322 392 470
#     4  12  27  48  76 117 153 203 267 321 396 469
#     4  12  27  49  73 115 155 203 270 323 395 479
#     4  12  24  46  78 106 156 200 252 328 392 460
#
# _framework density 22.933153999999998
#
# number of rings (size 3 to 8) (size 9 to 14) (size 15 to 20)
#    0.000    0.000    7.692    1.385    4.308    2.462 
#    2.769    0.000    0.000    0.000    0.000    0.000 
#    0.000    0.000    0.000    0.000    0.000    0.000 
#
# Total GULP energy -72473.248335 kJ/mol
# GULP energy per Si atom -5574.865257 kJ/mol
# Density = 2.288096 g / cm^3
# Si number density = 22.933154 Si / 1000 Ang^3
#
#
#
# Elastic Constant Matrix: (Units=GPa)
#
#
# Indices 1 2 3 4 5 6 
#
# 1 81.2125 6.6400 9.1464 27.0455 15.3018 -30.9176
# 2 6.6400 135.2486 22.1059 37.8140 12.8672 -14.8718
# 3 9.1464 22.1059 64.7213 32.1079 32.0890 -14.9573
# 4 27.0455 37.8140 32.1079 32.6073 0.7170 3.5315
# 5 15.3018 12.8672 32.0890 0.7170 40.9561 -7.0989
# 6 -30.9176 -14.8718 -14.9573 3.5315 -7.0989 41.7984
#
#
#
# Elastic Compliance Matrix: (Units=1/GPa)
#
#
# Indices 1 2 3 4 5 6 
#
# 1 0.002032 -0.005621 -0.018123 0.023094 0.013655 -0.006614
# 2 -0.005621 0.005633 -0.010338 0.008726 0.007351 -0.005342
# 3 -0.018123 -0.010338 -0.002377 0.031266 0.008003 -0.019217
# 4 0.023094 0.008726 0.031266 -0.031860 -0.030296 0.028922
# 5 0.013655 0.007351 0.008003 -0.030296 0.014846 0.020661
# 6 -0.006614 -0.005342 -0.019217 0.028922 0.020661 0.011321
#
#
# Mechanical properties :
#
#
# Convention : Reuss Voigt Hill
#
# Bulk Modulus (GPa) = -15.90452 39.66299 11.87924
# Shear Modulus (GPa) = 106.83694 39.29171 73.06432
#
# Velocity S-wave (km/s) = 6.83282 4.14371 5.65056
# Velocity P-wave (km/s) = 7.43637 6.34243 6.91108
#
# Compressibility (1/GPa) = -0.06287521
#
# Stress axis : x y z
#
# Youngs Moduli (GPa) = 492.03023 177.52523 -420.68706
#
# Poissons Ratio (x) = 0.99785 -7.62414
# Poissons Ratio (y) = 2.76564 -4.34900
# Poissons Ratio (z) = 8.91709 1.83523
#
# Static dielectric constant tensor:
#      x y z
#    x 1.833190 0.058570 -0.041630 
#    y 0.058570 1.873550 -0.017720 
#    z -0.041630 -0.017720 1.810190 
# 
# From -- ./inp_files/312073.got.cif
#   From: 2010.05.17/outbox.cif.g08.bks.cpg/sg2_157_cif.got.tgz:312073.got - 2010.06.03 11:33:40.
