data_PCOD9070218
_publ_section_title
;
Structure prediction by ZEFSAII (Michael W. Deem and Ramdas Pophale) SiO2 
 PCOD9070218
Probable space group: P -1
;
_chemical_formula_sum "Si O2"
_cell_formula_units_Z 16
_cell_length_a 18.067112
_cell_length_b 7.403414
_cell_length_c 20.555343
_cell_angle_alpha 134.285271
_cell_angle_beta 160.034521
_cell_angle_gamma 45.628937
_cell_volume 661.569666
_symmetry_space_group_name_H-M "P -1"
_symmetry_group_IT_number 2
_symmetry_cell_setting 'triclinic'
loop_
_space_group_symop_operation_xyz
x,y,z
-x,-y,-z
loop_
_atom_site_type_symbol
_atom_site_label
_atom_site_fract_x
_atom_site_fract_y
_atom_site_fract_z
Si Si1 0.500857 0.229342 0.844913
Si Si2 0.192671 0.535887 0.120591
Si Si3 0.899854 0.716397 0.152679
Si Si4 0.936037 0.377958 0.226191
Si Si5 0.390656 0.820902 0.559294
Si Si6 0.349523 0.829821 0.873357
Si Si7 0.926608 0.785454 0.431343
Si Si8 0.319216 0.973403 0.395676
O O1 0.472941 0.539131 0.908998
O O2 0.319510 0.154090 0.727342
O O3 0.419660 0.100340 0.680568
O O4 0.766618 0.179464 0.042818
O O5 0.423449 0.378675 0.299552
O O6 0.173608 0.835465 0.192500
O O7 0.159596 0.445046 0.997926
O O8 0.000000 0.500000 0.000000
O O9 0.877130 0.570089 0.164896
O O10 0.148119 0.766961 0.362602
O O11 0.731397 0.985126 0.086878
O O12 0.941926 0.534079 0.336823
O O13 0.176645 0.227522 0.370241
O O14 0.409115 0.815724 0.494989
O O15 0.116921 0.773719 0.638852
O O16 0.500000 0.000000 0.000000
O O17 0.000000 0.000000 0.500000
O O18 0.500000 0.000000 0.500000
#
# Coordination Sequence:
#
# PCOD9070218 Si02
#       8
#     2   2   2   2   2   2   2   2
#     4  12  26  45  77 112 161 202 252 321 382 478
#     4  12  28  50  79 107 146 203 261 327 392 455
#     4  12  27  50  77 109 157 204 260 319 386 472
#     4  12  27  48  73 121 153 204 264 318 395 466
#     4  12  27  52  76 113 150 202 261 320 393 467
#     4  12  25  47  71 114 156 205 253 309 389 467
#     4  12  24  46  75 113 158 208 250 313 392 466
#     4  12  29  49  79 110 153 201 260 334 392 459
#
# _framework density 24.184908
#
# number of rings (size 3 to 8) (size 9 to 14) (size 15 to 20)
#    0.000    0.000    5.000    3.375    5.250    4.500 
#    0.000    0.000    0.000    0.000    0.000    0.000 
#    0.000    0.000    0.000    0.000    0.000    0.000 
#
# Total GULP energy -89414.910682 kJ/mol
# GULP energy per Si atom -5588.431918 kJ/mol
# Density = 2.412986 g / cm^3
# Si number density = 24.184908 Si / 1000 Ang^3
#
#
#
# Elastic Constant Matrix: (Units=GPa)
#
#
# Indices 1 2 3 4 5 6 
#
# 1 154.5093 16.7854 57.8914 13.0533 21.1364 -24.0110
# 2 16.7854 52.2810 10.5385 5.9409 -11.6660 -25.2136
# 3 57.8914 10.5385 129.0757 13.7880 21.4714 -20.7969
# 4 13.0533 5.9409 13.7880 56.5369 -11.6886 -2.5146
# 5 21.1364 -11.6660 21.4714 -11.6886 58.9145 14.1746
# 6 -24.0110 -25.2136 -20.7969 -2.5146 14.1746 45.7573
#
#
#
# Elastic Compliance Matrix: (Units=1/GPa)
#
#
# Indices 1 2 3 4 5 6 
#
# 1 0.008793 -0.001026 -0.002349 -0.001969 -0.003872 0.004072
# 2 -0.001026 0.026539 0.000333 -0.001634 0.001917 0.013553
# 3 -0.002349 0.000333 0.010708 -0.002868 -0.004801 0.005147
# 4 -0.001969 -0.001634 -0.002868 0.020157 0.006417 -0.004117
# 5 -0.003872 0.001917 -0.004801 0.006417 0.024247 -0.010316
# 6 0.004072 0.013553 0.005147 -0.004117 -0.010316 0.036768
#
#
# Mechanical properties :
#
#
# Convention : Reuss Voigt Hill
#
# Bulk Modulus (GPa) = 25.02804 56.25520 40.64162
# Shear Modulus (GPa) = 34.10265 48.95179 41.52722
#
# Velocity S-wave (km/s) = 3.75918 4.50384 4.14825
# Velocity P-wave (km/s) = 5.40490 7.09627 6.30754
#
# Compressibility (1/GPa) = 0.03995519
#
# Stress axis : x y z
#
# Youngs Moduli (GPa) = 113.73301 37.67969 93.38590
#
# Poissons Ratio (x) = 0.03865 0.21940
# Poissons Ratio (y) = 0.11667 -0.03106
# Poissons Ratio (z) = 0.26720 -0.01253
#
# Static dielectric constant tensor:
#      x y z
#    x 1.892860 0.106580 -0.043100 
#    y 0.106580 2.089120 -0.110990 
#    z -0.043100 -0.110990 2.003910 
# 
# From -- ./inp_files/599791.got.cif
#   From: 2010.05.17/outbox.cif.g08.bks.cpg/sg2_300_cif.got.tgz:599791.got - 2010.06.03 11:33:40.
