data_PCOD9070983
_publ_section_title
;
Structure prediction by ZEFSAII (Michael W. Deem and Ramdas Pophale) SiO2 
 PCOD9070983
Probable space group: P -1
;
_chemical_formula_sum "Si O2"
_cell_formula_units_Z 11
_cell_length_a 13.947381
_cell_length_b 9.565689
_cell_length_c 10.410638
_cell_angle_alpha 112.851805
_cell_angle_beta 146.738147
_cell_angle_gamma 43.302909
_cell_volume 423.640342
_symmetry_space_group_name_H-M "P -1"
_symmetry_group_IT_number 2
_symmetry_cell_setting 'triclinic'
loop_
_space_group_symop_operation_xyz
x,y,z
-x,-y,-z
loop_
_atom_site_type_symbol
_atom_site_label
_atom_site_fract_x
_atom_site_fract_y
_atom_site_fract_z
Si Si1 0.784857 0.215803 0.943073
Si Si2 0.000000 0.500000 0.000000
Si Si3 0.626799 0.010555 0.761516
Si Si4 0.654993 0.648758 0.884786
Si Si5 0.954106 0.905077 0.523533
Si Si6 0.839742 0.560496 0.468196
O O1 0.574759 0.220210 0.733144
O O2 0.665918 0.460060 0.851451
O O3 0.932644 0.134515 0.220019
O O4 0.000000 0.000000 0.000000
O O5 0.678286 0.690776 0.780507
O O6 0.943197 0.723521 0.027072
O O7 0.461567 0.142550 0.757349
O O8 0.500000 0.000000 0.500000
O O9 0.386978 0.889024 0.756931
O O10 0.968989 0.500304 0.224874
O O11 0.000000 0.000000 0.500000
O O12 0.136780 0.635378 0.581818
O O13 0.000000 0.500000 0.500000
#
# Coordination Sequence:
#
# PCOD9070983 Si02
#       6
#     2   1   2   2   2   2
#     4  12  27  50  73 111 154 200 250 320 383 445
#     4  12  26  44  80 114 142 200 258 308 378 452
#     4  12  27  49  75 108 152 196 255 313 383 450
#     4  12  27  48  78 113 152 202 256 312 385 452
#     4  12  30  48  76 117 154 203 257 313 383 461
#     4  12  25  48  77 106 155 199 246 313 379 453
#
# _framework density 25.965420999999999
#
# number of rings (size 3 to 8) (size 9 to 14) (size 15 to 20)
#    0.000    0.000    5.455    2.727    7.636    3.636 
#    0.000    0.000    0.000    0.000    0.000    0.000 
#    0.000    0.000    0.000    0.000    0.000    0.000 
#
# Total GULP energy -61265.762614 kJ/mol
# GULP energy per Si atom -5569.614783 kJ/mol
# Density = 2.590632 g / cm^3
# Si number density = 25.965421 Si / 1000 Ang^3
#
#
#
# Elastic Constant Matrix: (Units=GPa)
#
#
# Indices 1 2 3 4 5 6 
#
# 1 139.9027 61.1238 2.6277 -20.8411 12.5053 2.9950
# 2 61.1238 231.4755 23.8801 -14.9145 5.4841 -20.5921
# 3 2.6277 23.8801 27.1868 4.4541 -0.5272 -11.0286
# 4 -20.8411 -14.9145 4.4541 45.8423 -7.4927 20.5747
# 5 12.5053 5.4841 -0.5272 -7.4927 38.7681 -15.9186
# 6 2.9950 -20.5921 -11.0286 20.5747 -15.9186 60.1042
#
#
#
# Elastic Compliance Matrix: (Units=1/GPa)
#
#
# Indices 1 2 3 4 5 6 
#
# 1 0.009291 -0.002273 -0.001429 0.004898 -0.003427 -0.004088
# 2 -0.002273 0.005496 -0.004288 0.000768 0.000488 0.001076
# 3 -0.001429 -0.004288 0.047763 -0.011561 0.004637 0.012552
# 4 0.004898 0.000768 -0.011561 0.031079 -0.001202 -0.013059
# 5 -0.003427 0.000488 0.004637 -0.001202 0.030652 0.009718
# 6 -0.004088 0.001076 0.012552 -0.013059 0.009718 0.026557
#
#
# Mechanical properties :
#
#
# Convention : Reuss Voigt Hill
#
# Bulk Modulus (GPa) = 21.47288 63.75869 42.61578
# Shear Modulus (GPa) = 27.42090 49.67180 38.54635
#
# Velocity S-wave (km/s) = 3.25322 4.37853 3.85714
# Velocity P-wave (km/s) = 4.73276 7.08312 6.02369
#
# Compressibility (1/GPa) = 0.04657038
#
# Stress axis : x y z
#
# Youngs Moduli (GPa) = 107.62840 181.93867 20.93665
#
# Poissons Ratio (x) = 0.41354 0.02992
# Poissons Ratio (y) = 0.24463 0.08978
# Poissons Ratio (z) = 0.15379 0.78021
#
# Static dielectric constant tensor:
#      x y z
#    x 2.346500 0.333590 -0.047230 
#    y 0.333590 1.597100 -0.111960 
#    z -0.047230 -0.111960 2.323630 
# 
# From -- ./inp_files/17103.got.cif
#   From: 2010.05.17/outbox.cif.g08.bks.cpg/sg2_9_cif.got.tgz:17103.got - 2010.06.03 11:33:40.
