data_PCOD9070492
_publ_section_title
;
Structure prediction by ZEFSAII (Michael W. Deem and Ramdas Pophale) SiO2 
 PCOD9070492
Probable space group: P -1
;
_chemical_formula_sum "Si O2"
_cell_formula_units_Z 15
_cell_length_a 7.806411
_cell_length_b 9.761511
_cell_length_c 8.743532
_cell_angle_alpha 55.912604
_cell_angle_beta 90.372620
_cell_angle_gamma 94.100721
_cell_volume 549.932931
_symmetry_space_group_name_H-M "P -1"
_symmetry_group_IT_number 2
_symmetry_cell_setting 'triclinic'
loop_
_space_group_symop_operation_xyz
x,y,z
-x,-y,-z
loop_
_atom_site_type_symbol
_atom_site_label
_atom_site_fract_x
_atom_site_fract_y
_atom_site_fract_z
Si Si1 0.752729 0.110157 0.366328
Si Si2 0.324298 0.169027 0.687897
Si Si3 0.000000 0.000000 0.000000
Si Si4 0.022174 0.575391 0.783267
Si Si5 0.839267 0.742466 0.061517
Si Si6 0.694039 0.468514 0.646182
Si Si7 0.508168 0.324051 0.030220
Si Si8 0.698450 0.135042 0.701562
O O1 0.923080 0.232016 0.319228
O O2 0.630248 0.218302 0.195978
O O3 0.683424 0.092311 0.549451
O O4 0.754658 0.936419 0.387956
O O5 0.187252 0.163702 0.830866
O O6 0.369927 0.362232 0.528025
O O7 0.501940 0.096293 0.782966
O O8 0.027051 0.833161 0.986970
O O9 0.851163 0.055959 0.838388
O O10 0.157760 0.453065 0.793531
O O11 0.857775 0.539420 0.700653
O O12 0.000000 0.500000 0.000000
O O13 0.684175 0.760529 0.935597
O O14 0.739245 0.332446 0.608463
O O15 0.572566 0.369129 0.831582
O O16 0.500000 0.500000 0.000000
#
# Coordination Sequence:
#
# PCOD9070492 Si02
#       8
#     2   2   1   2   2   2   2   2
#     4  12  28  48  80 117 154 201 266 327 390 458
#     4  12  29  48  82 117 158 203 265 326 389 465
#     4  12  30  48  82 116 156 200 264 320 398 456
#     4  12  26  48  76 112 160 208 258 318 389 465
#     4  12  27  48  79 113 157 208 260 320 391 467
#     4  12  26  49  80 113 158 209 258 315 398 471
#     4  12  24  48  82 115 150 209 266 317 388 467
#     4  12  27  53  81 113 158 205 262 324 392 472
#
# _framework density 27.276056000000001
#
# number of rings (size 3 to 8) (size 9 to 14) (size 15 to 20)
#    0.000    0.000    5.333    3.200    5.600    4.800 
#    0.000    0.000    0.000    0.000    0.000    0.000 
#    0.000    0.000    0.000    0.000    0.000    0.000 
#
# Total GULP energy -83958.652415 kJ/mol
# GULP energy per Si atom -5597.243494 kJ/mol
# Density = 2.721397 g / cm^3
# Si number density = 27.276056 Si / 1000 Ang^3
#
#
#
# Elastic Constant Matrix: (Units=GPa)
#
#
# Indices 1 2 3 4 5 6 
#
# 1 95.6913 18.5715 36.0494 13.9637 25.0905 20.9896
# 2 18.5715 241.7666 48.1470 18.1955 -4.9513 18.1356
# 3 36.0494 48.1470 160.4995 1.1033 15.3344 -18.9563
# 4 13.9637 18.1955 1.1033 44.3168 2.5853 -1.9601
# 5 25.0905 -4.9513 15.3344 2.5853 50.5302 3.0432
# 6 20.9896 18.1356 -18.9563 -1.9601 3.0432 56.5714
#
#
#
# Elastic Compliance Matrix: (Units=1/GPa)
#
#
# Indices 1 2 3 4 5 6 
#
# 1 0.015652 0.000348 -0.003858 -0.004948 -0.005888 -0.007066
# 2 0.000348 0.004871 -0.001926 -0.002238 0.001153 -0.002476
# 3 -0.003858 -0.001926 0.008367 0.002090 -0.001220 0.004991
# 4 -0.004948 -0.002238 0.002090 0.025169 0.000067 0.004122
# 5 -0.005888 0.001153 -0.001220 0.000067 0.023184 0.000162
# 6 -0.007066 -0.002476 0.004991 0.004122 0.000162 0.022899
#
#
# Mechanical properties :
#
#
# Convention : Reuss Voigt Hill
#
# Bulk Modulus (GPa) = 55.50504 78.16589 66.83547
# Shear Modulus (GPa) = 42.72791 56.62964 49.67877
#
# Velocity S-wave (km/s) = 3.96220 4.56144 4.27234
# Velocity P-wave (km/s) = 6.42849 7.51411 6.99240
#
# Compressibility (1/GPa) = 0.01801638
#
# Stress axis : x y z
#
# Youngs Moduli (GPa) = 63.88960 205.29998 119.52374
#
# Poissons Ratio (x) = -0.07140 0.46111
# Poissons Ratio (y) = -0.02222 0.23026
# Poissons Ratio (z) = 0.24648 0.39550
#
# Static dielectric constant tensor:
#      x y z
#    x 2.406740 0.101350 -0.218280 
#    y 0.101350 2.424970 -0.171920 
#    z -0.218280 -0.171920 2.180650 
# 
# From -- ./inp_files/157008.got.cif
#   From: 2010.05.17/outbox.cif.g08.bks.cpg/sg2_79_cif.got.tgz:157008.got - 2010.06.03 11:33:40.
