data_PCOD9070653
_publ_section_title
;
Structure prediction by ZEFSAII (Michael W. Deem and Ramdas Pophale) SiO2 
 PCOD9070653
Probable space group: P -1
;
_chemical_formula_sum "Si O2"
_cell_formula_units_Z 16
_cell_length_a 5.268332
_cell_length_b 13.657195
_cell_length_c 14.241606
_cell_angle_alpha 58.386241
_cell_angle_beta 54.919262
_cell_angle_gamma 57.193243
_cell_volume 670.224905
_symmetry_space_group_name_H-M "P -1"
_symmetry_group_IT_number 2
_symmetry_cell_setting 'triclinic'
loop_
_space_group_symop_operation_xyz
x,y,z
-x,-y,-z
loop_
_atom_site_type_symbol
_atom_site_label
_atom_site_fract_x
_atom_site_fract_y
_atom_site_fract_z
Si Si1 0.354621 0.301339 0.815137
Si Si2 0.729887 0.312659 0.275028
Si Si3 0.364394 0.296656 0.022700
Si Si4 0.626927 0.495556 0.583274
Si Si5 0.826838 0.029893 0.423258
Si Si6 0.629443 0.052529 0.786756
Si Si7 0.876464 0.064745 0.093255
Si Si8 0.369990 0.507855 0.128568
O O1 0.612464 0.369460 0.697309
O O2 0.396992 0.186938 0.796191
O O3 0.002077 0.406405 0.825237
O O4 0.367516 0.241933 0.945973
O O5 0.610138 0.392759 0.355827
O O6 0.766471 0.172178 0.345542
O O7 0.442069 0.380842 0.227821
O O8 0.061189 0.314680 0.148470
O O9 0.696364 0.210390 0.046727
O O10 0.395085 0.422929 0.915110
O O11 0.500000 0.500000 0.500000
O O12 0.000000 0.500000 0.500000
O O13 0.500000 0.000000 0.500000
O O14 0.000000 0.000000 0.500000
O O15 0.075842 0.941262 0.342026
O O16 0.433601 0.982384 0.803153
O O17 0.832447 0.979208 0.871019
O O18 0.000000 0.000000 0.000000
O O19 0.500000 0.500000 0.000000
#
# Coordination Sequence:
#
# PCOD9070653 Si02
#       8
#     2   2   2   2   2   2   2   2
#     4  12  27  48  78 116 161 204 267 324 403 479
#     4  12  27  53  82 117 162 206 271 334 405 476
#     4  12  25  46  75 121 159 202 257 329 405 484
#     4  12  30  52  77 111 153 212 265 327 389 457
#     4  12  31  55  81 112 153 219 277 332 386 465
#     4  12  28  49  76 112 156 210 260 323 392 467
#     4  12  25  44  73 113 161 202 246 309 400 473
#     4  12  25  44  79 116 163 206 251 325 407 484
#
# _framework density 23.872584
#
# number of rings (size 3 to 8) (size 9 to 14) (size 15 to 20)
#    0.000    0.000    5.000    3.750    7.000    1.000 
#    0.000    0.000    0.000    0.000    0.000    0.000 
#    0.000    0.000    0.000    0.000    0.000    0.000 
#
# Total GULP energy -89474.702529 kJ/mol
# GULP energy per Si atom -5592.168908 kJ/mol
# Density = 2.381825 g / cm^3
# Si number density = 23.872584 Si / 1000 Ang^3
#
#
#
# Elastic Constant Matrix: (Units=GPa)
#
#
# Indices 1 2 3 4 5 6 
#
# 1 111.0340 26.9972 58.9885 -9.9001 -5.9474 -12.1345
# 2 26.9972 125.2066 42.2553 -1.7282 9.3630 -21.7950
# 3 58.9885 42.2553 133.3535 11.4217 -3.2595 -7.5968
# 4 -9.9001 -1.7282 11.4217 49.9649 2.5748 7.0646
# 5 -5.9474 9.3630 -3.2595 2.5748 56.3541 0.1517
# 6 -12.1345 -21.7950 -7.5968 7.0646 0.1517 43.2272
#
#
#
# Elastic Compliance Matrix: (Units=1/GPa)
#
#
# Indices 1 2 3 4 5 6 
#
# 1 0.012668 -0.000565 -0.005602 0.003480 0.000943 0.001715
# 2 -0.000565 0.009926 -0.002725 0.000341 -0.001894 0.004318
# 3 -0.005602 -0.002725 0.011155 -0.003736 0.000678 -0.000378
# 4 0.003480 0.000341 -0.003736 0.022056 -0.000905 -0.003109
# 5 0.000943 -0.001894 0.000678 -0.000905 0.018241 -0.000487
# 6 0.001715 0.004318 -0.000378 -0.003109 -0.000487 0.026235
#
#
# Mechanical properties :
#
#
# Convention : Reuss Voigt Hill
#
# Bulk Modulus (GPa) = 62.63345 69.56400 66.09873
# Shear Modulus (GPa) = 40.52286 45.99943 43.26115
#
# Velocity S-wave (km/s) = 4.12450 4.39438 4.26158
# Velocity P-wave (km/s) = 6.99825 7.41285 7.20853
#
# Compressibility (1/GPa) = 0.01596591
#
# Stress axis : x y z
#
# Youngs Moduli (GPa) = 78.93948 100.74327 89.64315
#
# Poissons Ratio (x) = 0.05691 0.50218
# Poissons Ratio (y) = 0.04459 0.24427
# Poissons Ratio (z) = 0.44221 0.27452
#
# Static dielectric constant tensor:
#      x y z
#    x 2.119410 0.191930 -0.009550 
#    y 0.191930 2.018490 0.044000 
#    z -0.009550 0.044000 1.937770 
# 
# From -- ./inp_files/484320.got.cif
#   From: 2010.05.17/outbox.cif.g08.bks.cpg/sg2_243_cif.got.tgz:484320.got - 2010.06.03 11:33:40.
