data_PCOD9070590
_publ_section_title
;
Structure prediction by ZEFSAII (Michael W. Deem and Ramdas Pophale) SiO2 
 PCOD9070590
Probable space group: P -1
;
_chemical_formula_sum "Si O2"
_cell_formula_units_Z 11
_cell_length_a 10.353865
_cell_length_b 8.096220
_cell_length_c 6.402463
_cell_angle_alpha 66.261771
_cell_angle_beta 61.300440
_cell_angle_gamma 99.468871
_cell_volume 385.778550
_symmetry_space_group_name_H-M "P -1"
_symmetry_group_IT_number 2
_symmetry_cell_setting 'triclinic'
loop_
_space_group_symop_operation_xyz
x,y,z
-x,-y,-z
loop_
_atom_site_type_symbol
_atom_site_label
_atom_site_fract_x
_atom_site_fract_y
_atom_site_fract_z
Si Si1 0.499464 0.365838 0.372145
Si Si2 0.000000 0.500000 0.000000
Si Si3 0.904337 0.100799 0.638510
Si Si4 0.362843 0.812249 0.320169
Si Si5 0.789166 0.497685 0.784076
Si Si6 0.158701 0.198969 0.843068
O O1 0.500000 0.500000 0.500000
O O2 0.564043 0.219282 0.505956
O O3 0.306073 0.264339 0.525350
O O4 0.632109 0.491509 0.033208
O O5 0.108904 0.364104 0.902314
O O6 0.881732 0.425693 0.923406
O O7 0.807144 0.172876 0.512585
O O8 0.051274 0.301133 0.515974
O O9 0.000000 0.000000 0.500000
O O10 0.780929 0.917898 0.968929
O O11 0.293213 0.644395 0.277264
O O12 0.500000 0.000000 0.000000
O O13 0.000000 0.000000 0.000000
#
# Coordination Sequence:
#
# PCOD9070590 Si02
#       6
#     2   1   2   2   2   2
#     4  12  27  53  78 117 159 213 273 341 410 487
#     4  12  24  52  82 120 158 216 278 328 410 494
#     4  12  25  51  77 115 160 213 268 333 409 489
#     4  12  29  52  80 123 165 210 282 342 409 496
#     4  12  28  51  85 113 163 220 267 342 410 490
#     4  12  28  51  82 115 163 213 275 340 411 490
#
# _framework density 28.513766
#
# number of rings (size 3 to 8) (size 9 to 14) (size 15 to 20)
#    0.000    0.000    5.455    2.727    2.545    2.909 
#    0.000    0.000    0.000    0.000    0.000    0.000 
#    0.000    0.000    0.000    0.000    0.000    0.000 
#
# Total GULP energy -61316.538265 kJ/mol
# GULP energy per Si atom -5574.230751 kJ/mol
# Density = 2.844887 g / cm^3
# Si number density = 28.513766 Si / 1000 Ang^3
#
#
#
# Elastic Constant Matrix: (Units=GPa)
#
#
# Indices 1 2 3 4 5 6 
#
# 1 215.4501 51.8257 42.6242 -9.9633 -16.5440 -21.5398
# 2 51.8257 138.7532 47.5378 4.6741 -12.5581 5.4469
# 3 42.6242 47.5378 182.7534 -9.7862 -40.2372 -5.8957
# 4 -9.9633 4.6741 -9.7862 43.8409 -4.9570 -11.9268
# 5 -16.5440 -12.5581 -40.2372 -4.9570 62.2088 -1.0818
# 6 -21.5398 5.4469 -5.8957 -11.9268 -1.0818 49.4333
#
#
#
# Elastic Compliance Matrix: (Units=1/GPa)
#
#
# Indices 1 2 3 4 5 6 
#
# 1 0.005759 -0.002166 -0.000278 0.002521 0.001173 0.003349
# 2 -0.002166 0.008918 -0.002150 -0.002749 -0.000435 -0.002855
# 3 -0.000278 -0.002150 0.007281 0.002771 0.004453 0.001750
# 4 0.002521 -0.002749 0.002771 0.027041 0.004208 0.008348
# 5 0.001173 -0.000435 0.004453 0.004208 0.019559 0.002533
# 6 0.003349 -0.002855 0.001750 0.008348 0.002533 0.024281
#
#
# Mechanical properties :
#
#
# Convention : Reuss Voigt Hill
#
# Bulk Modulus (GPa) = 78.30719 91.21466 84.76093
# Shear Modulus (GPa) = 47.04394 57.42786 52.23590
#
# Velocity S-wave (km/s) = 4.06626 4.49267 4.28478
# Velocity P-wave (km/s) = 7.04049 7.67928 7.36681
#
# Compressibility (1/GPa) = 0.01277022
#
# Stress axis : x y z
#
# Youngs Moduli (GPa) = 173.64077 112.13510 137.34138
#
# Poissons Ratio (x) = 0.24287 0.03824
# Poissons Ratio (y) = 0.37608 0.29523
# Poissons Ratio (z) = 0.04834 0.24105
#
# Static dielectric constant tensor:
#      x y z
#    x 2.277460 -0.196260 0.258920 
#    y -0.196260 2.236190 -0.026480 
#    z 0.258920 -0.026480 2.316310 
# 
# From -- ./inp_files/17007.got.cif
#   From: 2010.05.17/outbox.cif.g08.bks.cpg/sg2_9_cif.got.tgz:17007.got - 2010.06.03 11:33:40.
