data_PCOD9070684
_publ_section_title
;
Structure prediction by ZEFSAII (Michael W. Deem and Ramdas Pophale) SiO2 
 PCOD9070684
Probable space group: P -1
;
_chemical_formula_sum "Si O2"
_cell_formula_units_Z 12
_cell_length_a 16.703782
_cell_length_b 9.006899
_cell_length_c 9.356378
_cell_angle_alpha 149.230829
_cell_angle_beta 134.471423
_cell_angle_gamma 45.214941
_cell_volume 493.210850
_symmetry_space_group_name_H-M "P -1"
_symmetry_group_IT_number 2
_symmetry_cell_setting 'triclinic'
loop_
_space_group_symop_operation_xyz
x,y,z
-x,-y,-z
loop_
_atom_site_type_symbol
_atom_site_label
_atom_site_fract_x
_atom_site_fract_y
_atom_site_fract_z
Si Si1 0.939905 0.846310 0.675283
Si Si2 0.575547 0.726723 0.274973
Si Si3 0.222374 0.525226 0.472700
Si Si4 0.699508 0.781691 0.199300
Si Si5 0.939113 0.828262 0.121399
Si Si6 0.361498 0.579505 0.421136
O O1 0.810388 0.819132 0.456786
O O2 0.000000 0.500000 0.500000
O O3 0.971647 0.021928 0.722249
O O4 0.000000 0.000000 0.000000
O O5 0.699111 0.544248 0.346320
O O6 0.598170 0.816234 0.217467
O O7 0.500000 0.000000 0.500000
O O8 0.500000 0.500000 0.000000
O O9 0.309658 0.445692 0.380495
O O10 0.142320 0.874724 0.653192
O O11 0.145690 0.288567 0.186213
O O12 0.670251 0.065790 0.293632
O O13 0.701801 0.498732 0.866311
O O14 0.000000 0.500000 0.000000
O O15 0.500000 0.500000 0.500000
#
# Coordination Sequence:
#
# PCOD9070684 Si02
#       6
#     2   2   2   2   2   2
#     4  12  26  47  72 104 143 188 240 301 365 434
#     4  12  25  45  71 104 142 189 243 300 362 437
#     4  12  26  46  73 106 145 192 242 302 367 436
#     4  12  25  45  71 102 140 188 237 294 361 432
#     4  12  26  47  73 106 144 192 246 303 365 438
#     4  12  26  46  70 104 144 187 236 296 362 433
#
# _framework density 24.330363999999999
#
# number of rings (size 3 to 8) (size 9 to 14) (size 15 to 20)
#    0.000    0.000    0.000   11.000    0.000    2.667 
#    0.000    0.000    0.000    0.000    0.000    0.000 
#    0.000    0.000    0.000    0.000    0.000    0.000 
#
# Total GULP energy -67005.905721 kJ/mol
# GULP energy per Si atom -5583.825477 kJ/mol
# Density = 2.427499 g / cm^3
# Si number density = 24.330364 Si / 1000 Ang^3
#
#
#
# Elastic Constant Matrix: (Units=GPa)
#
#
# Indices 1 2 3 4 5 6 
#
# 1 134.5581 11.0945 39.5287 9.2938 21.0827 10.4043
# 2 11.0945 70.6196 31.5377 17.6553 5.7762 -1.0407
# 3 39.5287 31.5377 185.7678 15.4970 22.5538 -10.2499
# 4 9.2938 17.6553 15.4970 55.3577 -2.9575 5.1115
# 5 21.0827 5.7762 22.5538 -2.9575 50.6822 -1.1228
# 6 10.4043 -1.0407 -10.2499 5.1115 -1.1228 37.3356
#
#
#
# Elastic Compliance Matrix: (Units=1/GPa)
#
#
# Indices 1 2 3 4 5 6 
#
# 1 0.008644 -0.000267 -0.001514 -0.000844 -0.003003 -0.002807
# 2 -0.000267 0.016446 -0.002186 -0.004695 -0.001053 0.000544
# 3 -0.001514 -0.002186 0.006551 -0.001201 -0.002056 0.002262
# 4 -0.000844 -0.004695 -0.001201 0.020448 0.002548 -0.002948
# 5 -0.003003 -0.001053 -0.002056 0.002548 0.022176 0.000561
# 6 -0.002807 0.000544 0.002262 -0.002948 0.000561 0.028623
#
#
# Mechanical properties :
#
#
# Convention : Reuss Voigt Hill
#
# Bulk Modulus (GPa) = 42.17900 61.69636 51.93768
# Shear Modulus (GPa) = 42.11420 49.26075 45.68748
#
# Velocity S-wave (km/s) = 4.16496 4.50451 4.33806
# Velocity P-wave (km/s) = 6.36418 7.24340 6.81798
#
# Compressibility (1/GPa) = 0.02370848
#
# Stress axis : x y z
#
# Youngs Moduli (GPa) = 115.68300 60.80383 152.64862
#
# Poissons Ratio (x) = 0.01622 0.23111
# Poissons Ratio (y) = 0.03086 0.33367
# Poissons Ratio (z) = 0.17514 0.13291
#
# Static dielectric constant tensor:
#      x y z
#    x 1.927750 -0.005000 -0.061860 
#    y -0.005000 2.015180 -0.068580 
#    z -0.061860 -0.068580 1.866950 
# 
# From -- ./inp_files/297204.got.cif
#   From: 2010.05.17/outbox.cif.g08.bks.cpg/sg2_149_cif.got.tgz:297204.got - 2010.06.03 11:33:40.
