data_PCOD9070385
_publ_section_title
;
Structure prediction by ZEFSAII (Michael W. Deem and Ramdas Pophale) SiO2 
 PCOD9070385
Probable space group: P -1
;
_chemical_formula_sum "Si O2"
_cell_formula_units_Z 16
_cell_length_a 7.746455
_cell_length_b 17.416140
_cell_length_c 15.699224
_cell_angle_alpha 148.357582
_cell_angle_beta 36.017256
_cell_angle_gamma 134.481565
_cell_volume 652.890220
_symmetry_space_group_name_H-M "P -1"
_symmetry_group_IT_number 2
_symmetry_cell_setting 'triclinic'
loop_
_space_group_symop_operation_xyz
x,y,z
-x,-y,-z
loop_
_atom_site_type_symbol
_atom_site_label
_atom_site_fract_x
_atom_site_fract_y
_atom_site_fract_z
Si Si1 0.837296 0.699177 0.583041
Si Si2 0.730936 0.240132 0.024566
Si Si3 0.421083 0.087090 0.229461
Si Si4 0.042866 0.088899 0.979571
Si Si5 0.234122 0.627177 0.052657
Si Si6 0.116120 0.387349 0.160367
Si Si7 0.815415 0.852692 0.450408
Si Si8 0.598307 0.079780 0.448960
O O1 0.593303 0.722729 0.775097
O O2 0.665052 0.758006 0.626403
O O3 0.950638 0.536447 0.382447
O O4 0.118849 0.811077 0.569502
O O5 0.977873 0.318614 0.062144
O O6 0.713261 0.291180 0.981864
O O7 0.771020 0.064173 0.842358
O O8 0.433711 0.121140 0.356552
O O9 0.725475 0.050910 0.029305
O O10 0.311418 0.047023 0.773239
O O11 0.050754 0.264530 0.143529
O O12 0.000000 0.000000 0.000000
O O13 0.039894 0.738237 0.288138
O O14 0.529727 0.587294 0.946647
O O15 0.000000 0.500000 0.000000
O O16 0.659704 0.823968 0.395430
O O17 0.000000 0.000000 0.500000
O O18 0.500000 0.000000 0.500000
#
# Coordination Sequence:
#
# PCOD9070385 Si02
#       8
#     2   2   2   2   2   2   2   2
#     4  12  27  49  78 116 154 205 267 328 399 474
#     4  12  26  52  83 110 159 209 264 332 399 474
#     4  12  24  47  79 114 153 203 265 327 388 474
#     4  12  24  48  81 113 156 209 265 329 397 477
#     4  12  30  52  75 114 162 209 259 328 403 472
#     4  12  29  51  78 116 156 208 269 327 398 475
#     4  12  25  46  72 110 156 201 263 326 385 466
#     4  12  27  46  78 117 157 209 267 326 405 481
#
# _framework density 24.506416000000002
#
# number of rings (size 3 to 8) (size 9 to 14) (size 15 to 20)
#    0.000    0.000    5.000    4.500    3.500    1.000 
#    0.000    0.625    0.000    0.000    0.000    0.000 
#    0.000    0.000    0.000    0.000    0.000    0.000 
#
# Total GULP energy -89335.966031 kJ/mol
# GULP energy per Si atom -5583.497877 kJ/mol
# Density = 2.445064 g / cm^3
# Si number density = 24.506416 Si / 1000 Ang^3
#
#
#
# Elastic Constant Matrix: (Units=GPa)
#
#
# Indices 1 2 3 4 5 6 
#
# 1 104.6550 27.6293 42.5235 -12.8661 -20.0220 -9.9690
# 2 27.6293 98.9209 53.2696 4.6981 1.9037 -9.8087
# 3 42.5235 53.2696 156.9930 8.9269 -23.1177 -17.9084
# 4 -12.8661 4.6981 8.9269 56.3226 -3.2194 -1.8560
# 5 -20.0220 1.9037 -23.1177 -3.2194 36.9389 -10.7153
# 6 -9.9690 -9.8087 -17.9084 -1.8560 -10.7153 52.2737
#
#
#
# Elastic Compliance Matrix: (Units=1/GPa)
#
#
# Indices 1 2 3 4 5 6 
#
# 1 0.013154 -0.003021 -0.001246 0.004007 0.007799 0.003256
# 2 -0.003021 0.013527 -0.004603 -0.001434 -0.005575 -0.000809
# 3 -0.001246 -0.004603 0.009693 -0.000945 0.006571 0.003533
# 4 0.004007 -0.001434 -0.000945 0.019211 0.003803 0.001633
# 5 0.007799 -0.005575 0.006571 0.003803 0.039180 0.010859
# 6 0.003256 -0.000809 0.003533 0.001633 0.010859 0.023093
#
#
# Mechanical properties :
#
#
# Convention : Reuss Voigt Hill
#
# Bulk Modulus (GPa) = 53.66355 67.49041 60.57698
# Shear Modulus (GPa) = 35.25850 44.91681 40.08766
#
# Velocity S-wave (km/s) = 3.79720 4.28584 4.04889
# Velocity P-wave (km/s) = 6.41640 7.21740 6.82866
#
# Compressibility (1/GPa) = 0.01863462
#
# Stress axis : x y z
#
# Youngs Moduli (GPa) = 76.02338 73.92697 103.16262
#
# Poissons Ratio (x) = 0.22330 0.12853
# Poissons Ratio (y) = 0.22964 0.47488
# Poissons Ratio (z) = 0.09472 0.34030
#
# Static dielectric constant tensor:
#      x y z
#    x 2.092700 0.065020 -0.037450 
#    y 0.065020 1.994810 -0.024580 
#    z -0.037450 -0.024580 1.993140 
# 
# From -- ./inp_files/562078.got.cif
#   From: 2010.05.17/outbox.cif.g08.bks.cpg/sg2_282_cif.got.tgz:562078.got - 2010.06.03 11:33:40.
