data_PCOD9070257
_publ_section_title
;
Structure prediction by ZEFSAII (Michael W. Deem and Ramdas Pophale) SiO2 
 PCOD9070257
Probable space group: P -1
;
_chemical_formula_sum "Si O2"
_cell_formula_units_Z 16
_cell_length_a 11.094370
_cell_length_b 8.882290
_cell_length_c 9.114317
_cell_angle_alpha 105.063950
_cell_angle_beta 50.447650
_cell_angle_gamma 99.908366
_cell_volume 668.693409
_symmetry_space_group_name_H-M "P -1"
_symmetry_group_IT_number 2
_symmetry_cell_setting 'triclinic'
loop_
_space_group_symop_operation_xyz
x,y,z
-x,-y,-z
loop_
_atom_site_type_symbol
_atom_site_label
_atom_site_fract_x
_atom_site_fract_y
_atom_site_fract_z
Si Si1 0.217496 0.133490 0.955884
Si Si2 0.092475 0.769772 0.659928
Si Si3 0.662968 0.976175 0.451115
Si Si4 0.109722 0.718670 0.309954
Si Si5 0.672920 0.574164 0.869971
Si Si6 0.625370 0.108661 0.018889
Si Si7 0.109902 0.460406 0.763270
Si Si8 0.628288 0.702358 0.617875
O O1 0.238180 0.124196 0.765467
O O2 0.295012 0.288535 0.004337
O O3 0.036664 0.130043 0.134019
O O4 0.303878 0.991099 0.929961
O O5 0.037771 0.758640 0.532146
O O6 0.100719 0.609434 0.700745
O O7 0.258054 0.856307 0.548126
O O8 0.659635 0.876730 0.576463
O O9 0.500000 0.000000 0.500000
O O10 0.204657 0.560703 0.227781
O O11 0.235372 0.842280 0.184975
O O12 0.979580 0.683209 0.281661
O O13 0.694123 0.643771 0.707706
O O14 0.500000 0.500000 0.000000
O O15 0.552588 0.267087 0.185888
O O16 0.500000 0.000000 0.000000
O O17 0.294201 0.410055 0.594545
O O18 0.000000 0.500000 0.000000
#
# Coordination Sequence:
#
# PCOD9070257 Si02
#       8
#     2   2   2   2   2   2   2   2
#     4  12  26  47  73 104 153 193 247 301 374 440
#     4  12  27  49  74 105 146 200 247 305 375 444
#     4  12  29  48  72 107 152 193 241 310 381 443
#     4  12  26  47  76 109 146 194 249 303 370 432
#     4  12  24  46  78 108 145 195 248 307 359 440
#     4  12  25  44  73 111 148 191 248 303 361 445
#     4  12  28  48  74 111 151 191 249 307 369 442
#     4  12  25  47  72 107 143 191 248 296 365 442
#
# _framework density 23.927258999999999
#
# number of rings (size 3 to 8) (size 9 to 14) (size 15 to 20)
#    0.000    0.000    6.250    3.000    5.250    0.500 
#    0.000    1.875    0.000    0.000    0.000    0.000 
#    0.000    0.000    0.000    0.000    0.000    0.000 
#
# Total GULP energy -89472.554486 kJ/mol
# GULP energy per Si atom -5592.034655 kJ/mol
# Density = 2.387280 g / cm^3
# Si number density = 23.927259 Si / 1000 Ang^3
#
#
#
# Elastic Constant Matrix: (Units=GPa)
#
#
# Indices 1 2 3 4 5 6 
#
# 1 55.4508 25.0192 1.6349 -13.1161 -10.3509 -0.8730
# 2 25.0192 59.1875 21.3578 -31.3452 15.0736 6.0345
# 3 1.6349 21.3578 147.5280 -6.5733 14.4345 0.0186
# 4 -13.1161 -31.3452 -6.5733 52.2783 -10.3093 -2.3428
# 5 -10.3509 15.0736 14.4345 -10.3093 40.8564 3.9958
# 6 -0.8730 6.0345 0.0186 -2.3428 3.9958 33.1332
#
#
#
# Elastic Compliance Matrix: (Units=1/GPa)
#
#
# Indices 1 2 3 4 5 6 
#
# 1 0.026990 -0.014605 0.000672 0.000541 0.011933 0.001970
# 2 -0.014605 0.035364 -0.003179 0.014676 -0.011490 -0.004400
# 3 0.000672 -0.003179 0.007338 -0.001098 -0.001596 0.000707
# 4 0.000541 0.014676 -0.001098 0.028348 0.002355 -0.000938
# 5 0.011933 -0.011490 -0.001596 0.002355 0.033034 -0.001409
# 6 0.001970 -0.004400 0.000707 -0.000938 -0.001409 0.031138
#
#
# Mechanical properties :
#
#
# Convention : Reuss Voigt Hill
#
# Bulk Modulus (GPa) = 28.19488 39.79890 33.99689
# Shear Modulus (GPa) = 24.00849 39.53055 31.76952
#
# Velocity S-wave (km/s) = 3.17108 4.06903 3.64779
# Velocity P-wave (km/s) = 5.02163 6.22458 5.65518
#
# Compressibility (1/GPa) = 0.03546744
#
# Stress axis : x y z
#
# Youngs Moduli (GPa) = 37.05046 28.27756 136.27148
#
# Poissons Ratio (x) = 0.41299 -0.09152
# Poissons Ratio (y) = 0.54112 0.43321
# Poissons Ratio (z) = -0.02488 0.08990
#
# Static dielectric constant tensor:
#      x y z
#    x 1.962830 0.012770 -0.044980 
#    y 0.012770 1.889830 0.006260 
#    z -0.044980 0.006260 1.972220 
# 
# From -- ./inp_files/244390.got.cif
#   From: 2010.05.17/outbox.cif.g08.bks.cpg/sg2_123_cif.got.tgz:244390.got - 2010.06.03 11:33:40.
