data_PCOD9070519
_publ_section_title
;
Structure prediction by ZEFSAII (Michael W. Deem and Ramdas Pophale) SiO2 
 PCOD9070519
Probable space group: P -1
;
_chemical_formula_sum "Si O2"
_cell_formula_units_Z 14
_cell_length_a 6.536703
_cell_length_b 14.141424
_cell_length_c 10.872570
_cell_angle_alpha 58.219376
_cell_angle_beta 64.136697
_cell_angle_gamma 104.305270
_cell_volume 601.129293
_symmetry_space_group_name_H-M "P -1"
_symmetry_group_IT_number 2
_symmetry_cell_setting 'triclinic'
loop_
_space_group_symop_operation_xyz
x,y,z
-x,-y,-z
loop_
_atom_site_type_symbol
_atom_site_label
_atom_site_fract_x
_atom_site_fract_y
_atom_site_fract_z
Si Si1 0.679727 0.171374 0.345042
Si Si2 0.936528 0.215562 0.988249
Si Si3 0.212865 0.404891 0.223028
Si Si4 0.430338 0.938339 0.196416
Si Si5 0.012137 0.457968 0.665191
Si Si6 0.807469 0.804728 0.463116
Si Si7 0.422240 0.266534 0.688710
O O1 0.856576 0.239434 0.124901
O O2 0.424896 0.182827 0.426888
O O3 0.930997 0.269812 0.314947
O O4 0.500000 0.000000 0.500000
O O5 0.698155 0.049900 0.135888
O O6 0.913800 0.304530 0.829525
O O7 0.248844 0.252792 0.863383
O O8 0.271273 0.340658 0.365792
O O9 0.142814 0.503753 0.229047
O O10 0.500000 0.500000 0.000000
O O11 0.408417 0.798004 0.296099
O O12 0.146604 0.917960 0.330020
O O13 0.500000 0.000000 0.000000
O O14 0.353409 0.572559 0.524789
O O15 0.000000 0.500000 0.500000
O O16 0.795796 0.812746 0.313676
#
# Coordination Sequence:
#
# PCOD9070519 Si02
#       7
#     2   2   2   2   2   2   2
#     4  12  29  50  73 111 153 198 254 304 377 450
#     4  12  27  44  76 112 148 192 250 312 369 445
#     4  12  28  48  76 107 152 200 247 307 373 448
#     4  12  25  46  76 111 143 193 248 307 375 435
#     4  12  26  48  73 113 147 193 252 305 377 442
#     4  12  24  49  77 100 149 196 245 305 371 438
#     4  12  25  48  76 107 147 192 248 310 372 440
#
# _framework density 23.289498999999999
#
# number of rings (size 3 to 8) (size 9 to 14) (size 15 to 20)
#    0.000    0.000    4.286    5.143    6.000    4.571 
#    0.000    0.000    0.000    0.000    0.000    0.000 
#    0.000    0.000    0.000    0.000    0.000    0.000 
#
# Total GULP energy -78322.538407 kJ/mol
# GULP energy per Si atom -5594.467029 kJ/mol
# Density = 2.323649 g / cm^3
# Si number density = 23.289499 Si / 1000 Ang^3
#
#
#
# Elastic Constant Matrix: (Units=GPa)
#
#
# Indices 1 2 3 4 5 6 
#
# 1 89.9570 40.8390 38.8419 9.4435 -10.6564 -19.7694
# 2 40.8390 106.9069 36.3796 12.0146 -11.1146 -22.2263
# 3 38.8419 36.3796 107.5451 24.7018 -19.0154 -14.5463
# 4 9.4435 12.0146 24.7018 56.3953 -7.9614 -3.7742
# 5 -10.6564 -11.1146 -19.0154 -7.9614 54.8721 12.0741
# 6 -19.7694 -22.2263 -14.5463 -3.7742 12.0741 36.3014
#
#
#
# Elastic Compliance Matrix: (Units=1/GPa)
#
#
# Indices 1 2 3 4 5 6 
#
# 1 0.015397 -0.003660 -0.003732 0.000142 -0.000054 0.004681
# 2 -0.003660 0.012547 -0.002096 -0.000831 -0.000069 0.004785
# 3 -0.003732 -0.002096 0.012838 -0.004151 0.002578 0.000539
# 4 0.000142 -0.000831 -0.004151 0.019870 0.001413 -0.000500
# 5 -0.000054 -0.000069 0.002578 0.001413 0.020559 -0.005730
# 6 0.004681 0.004785 0.000539 -0.000500 -0.005730 0.035096
#
#
# Mechanical properties :
#
#
# Convention : Reuss Voigt Hill
#
# Bulk Modulus (GPa) = 45.86105 59.61444 52.73775
# Shear Modulus (GPa) = 35.07521 42.07033 38.57277
#
# Velocity S-wave (km/s) = 3.88500 4.25480 4.07410
# Velocity P-wave (km/s) = 6.31338 7.05623 6.69512
#
# Compressibility (1/GPa) = 0.02180500
#
# Stress axis : x y z
#
# Youngs Moduli (GPa) = 64.94842 79.70313 77.89567
#
# Poissons Ratio (x) = 0.29172 0.29068
# Poissons Ratio (y) = 0.23772 0.16329
# Poissons Ratio (z) = 0.24236 0.16708
#
# Static dielectric constant tensor:
#      x y z
#    x 1.912080 0.076980 -0.028870 
#    y 0.076980 1.892030 -0.004850 
#    z -0.028870 -0.004850 1.869640 
# 
# From -- ./inp_files/81733.got.cif
#   From: 2010.05.17/outbox.cif.g08.bks.cpg/sg2_41_cif.got.tgz:81733.got - 2010.06.03 11:33:40.
