data_PCOD9070764
_publ_section_title
;
Structure prediction by ZEFSAII (Michael W. Deem and Ramdas Pophale) SiO2 
 PCOD9070764
Probable space group: P -1
;
_chemical_formula_sum "Si O2"
_cell_formula_units_Z 15
_cell_length_a 10.588237
_cell_length_b 9.981912
_cell_length_c 12.840458
_cell_angle_alpha 108.413814
_cell_angle_beta 71.625031
_cell_angle_gamma 151.895446
_cell_volume 604.544012
_symmetry_space_group_name_H-M "P -1"
_symmetry_group_IT_number 2
_symmetry_cell_setting 'triclinic'
loop_
_space_group_symop_operation_xyz
x,y,z
-x,-y,-z
loop_
_atom_site_type_symbol
_atom_site_label
_atom_site_fract_x
_atom_site_fract_y
_atom_site_fract_z
Si Si1 0.732964 0.639522 0.821305
Si Si2 0.000000 0.000000 0.500000
Si Si3 0.775546 0.198667 0.431333
Si Si4 0.307192 0.089393 0.076060
Si Si5 0.914955 0.482518 0.266192
Si Si6 0.653029 0.895759 0.685439
Si Si7 0.829015 0.500328 0.936759
Si Si8 0.246086 0.143390 0.677425
O O1 0.636628 0.695115 0.913662
O O2 0.740259 0.509878 0.860919
O O3 0.032292 0.950832 0.779659
O O4 0.539615 0.433175 0.721552
O O5 0.260548 0.154878 0.420223
O O6 0.156835 0.161681 0.612253
O O7 0.814432 0.266130 0.315753
O O8 0.793731 0.049721 0.406531
O O9 0.000000 0.500000 0.500000
O O10 0.500000 0.000000 0.500000
O O11 0.277820 0.060722 0.200589
O O12 0.561972 0.233656 0.008041
O O13 0.042713 0.789541 0.015444
O O14 0.163400 0.802177 0.324476
O O15 0.026578 0.509325 0.140935
O O16 0.658786 0.348155 0.293797
#
# Coordination Sequence:
#
# PCOD9070764 Si02
#       8
#     2   1   2   2   2   2   2   2
#     4  12  25  48  74 112 146 190 246 313 362 448
#     4  12  28  52  76 108 150 198 242 306 382 442
#     4  12  25  46  72 107 145 191 249 306 368 438
#     4  12  26  48  75 114 149 202 249 311 374 446
#     4  12  27  48  74 109 151 198 249 306 369 447
#     4  12  29  48  76 108 153 196 253 304 370 452
#     4  12  26  47  81 106 156 195 250 312 381 436
#     4  12  26  44  79 106 146 192 243 304 378 440
#
# _framework density 24.812090000000001
#
# number of rings (size 3 to 8) (size 9 to 14) (size 15 to 20)
#    0.000    0.000    2.667    7.200    3.733    5.333 
#    0.000    0.000    0.000    0.000    0.000    0.000 
#    0.000    0.000    0.000    0.000    0.000    0.000 
#
# Total GULP energy -83862.345733 kJ/mol
# GULP energy per Si atom -5590.823049 kJ/mol
# Density = 2.475562 g / cm^3
# Si number density = 24.812090 Si / 1000 Ang^3
#
#
#
# Elastic Constant Matrix: (Units=GPa)
#
#
# Indices 1 2 3 4 5 6 
#
# 1 81.1167 27.4980 26.5040 -3.6783 -9.5386 10.8999
# 2 27.4980 117.2503 23.4242 -1.3289 -9.4786 14.1557
# 3 26.5040 23.4242 108.5548 -27.6583 -10.1869 16.4903
# 4 -3.6783 -1.3289 -27.6583 52.2101 9.6135 -4.2354
# 5 -9.5386 -9.4786 -10.1869 9.6135 48.4125 -8.9038
# 6 10.8999 14.1557 16.4903 -4.2354 -8.9038 37.7166
#
#
#
# Elastic Compliance Matrix: (Units=1/GPa)
#
#
# Indices 1 2 3 4 5 6 
#
# 1 0.014482 -0.002500 -0.002830 -0.000986 0.001646 -0.001732
# 2 -0.002500 0.009710 -0.001306 -0.000971 0.000914 -0.002244
# 3 -0.002830 -0.001306 0.012214 0.005973 -0.000050 -0.003373
# 4 -0.000986 -0.000971 0.005973 0.022887 -0.003722 -0.000271
# 5 0.001646 0.000914 -0.000050 -0.003722 0.022647 0.004132
# 6 -0.001732 -0.002244 -0.003373 -0.000271 0.004132 0.030276
#
#
# Mechanical properties :
#
#
# Convention : Reuss Voigt Hill
#
# Bulk Modulus (GPa) = 43.22527 51.30823 47.26675
# Shear Modulus (GPa) = 37.53793 42.96756 40.25274
#
# Velocity S-wave (km/s) = 3.89381 4.16591 4.03215
# Velocity P-wave (km/s) = 6.13796 6.62294 6.38505
#
# Compressibility (1/GPa) = 0.02313461
#
# Stress axis : x y z
#
# Youngs Moduli (GPa) = 69.05334 102.98980 81.87111
#
# Poissons Ratio (x) = 0.25747 0.23170
# Poissons Ratio (y) = 0.17263 0.10688
# Poissons Ratio (z) = 0.19542 0.13445
#
# Static dielectric constant tensor:
#      x y z
#    x 2.086890 -0.010230 -0.023650 
#    y -0.010230 1.909590 -0.052220 
#    z -0.023650 -0.052220 2.012030 
# 
# From -- ./inp_files/519830.got.cif
#   From: 2010.05.17/outbox.cif.g08.bks.cpg/sg2_260_cif.got.tgz:519830.got - 2010.06.03 11:33:40.
