data_PCOD9070396
_publ_section_title
;
Structure prediction by ZEFSAII (Michael W. Deem and Ramdas Pophale) SiO2 
 PCOD9070396
Probable space group: P -1
;
_chemical_formula_sum "Si O2"
_cell_formula_units_Z 12
_cell_length_a 12.003866
_cell_length_b 11.704460
_cell_length_c 5.476449
_cell_angle_alpha 52.910365
_cell_angle_beta 119.432121
_cell_angle_gamma 132.208310
_cell_volume 449.757321
_symmetry_space_group_name_H-M "P -1"
_symmetry_group_IT_number 2
_symmetry_cell_setting 'triclinic'
loop_
_space_group_symop_operation_xyz
x,y,z
-x,-y,-z
loop_
_atom_site_type_symbol
_atom_site_label
_atom_site_fract_x
_atom_site_fract_y
_atom_site_fract_z
Si Si1 0.157583 0.292944 0.906485
Si Si2 0.934150 0.307918 0.262100
Si Si3 0.498263 0.089039 0.636062
Si Si4 0.408101 0.333943 0.782498
Si Si5 0.797836 0.949013 0.447530
Si Si6 0.703297 0.352512 0.230835
O O1 0.322971 0.363504 0.871149
O O2 0.190455 0.444129 0.929642
O O3 0.044727 0.290406 0.589312
O O4 0.112585 0.118005 0.216296
O O5 0.785856 0.272276 0.293806
O O6 0.882138 0.149517 0.228934
O O7 0.000000 0.500000 0.000000
O O8 0.349871 0.097743 0.489951
O O9 0.656009 0.275249 0.552498
O O10 0.500000 0.000000 0.500000
O O11 0.500000 0.000000 0.000000
O O12 0.500000 0.500000 0.500000
O O13 0.272220 0.171542 0.705361
O O14 0.539822 0.301111 0.023841
#
# Coordination Sequence:
#
# PCOD9070396 Si02
#       6
#     2   2   2   2   2   2
#     4  12  27  51  75 112 161 211 268 329 410 498
#     4  12  30  52  77 114 165 220 271 326 413 496
#     4  12  26  47  81 125 160 207 273 353 414 483
#     4  12  24  47  83 118 157 203 272 345 412 481
#     4  12  27  49  81 115 158 211 272 337 410 489
#     4  12  25  52  80 120 160 209 275 345 412 485
#
# _framework density 26.681052000000001
#
# number of rings (size 3 to 8) (size 9 to 14) (size 15 to 20)
#    0.000    0.000    5.000    4.500    2.333    0.667 
#    3.000    0.000    0.000    0.000    0.000    0.000 
#    0.000    0.000    0.000    0.000    0.000    0.000 
#
# Total GULP energy -67257.150419 kJ/mol
# GULP energy per Si atom -5604.762535 kJ/mol
# Density = 2.662033 g / cm^3
# Si number density = 26.681052 Si / 1000 Ang^3
#
#
#
# Elastic Constant Matrix: (Units=GPa)
#
#
# Indices 1 2 3 4 5 6 
#
# 1 152.9996 5.9920 32.1178 -7.5938 23.5477 -3.5998
# 2 5.9920 141.1120 47.7791 -32.3035 10.3161 -11.9682
# 3 32.1178 47.7791 158.2691 -29.8705 30.1379 6.7673
# 4 -7.5938 -32.3035 -29.8705 59.4194 8.4469 3.9129
# 5 23.5477 10.3161 30.1379 8.4469 45.9502 -3.0334
# 6 -3.5998 -11.9682 6.7673 3.9129 -3.0334 46.1920
#
#
#
# Elastic Compliance Matrix: (Units=1/GPa)
#
#
# Indices 1 2 3 4 5 6 
#
# 1 0.007299 0.000547 -0.000726 0.001347 -0.003604 0.000466
# 2 0.000547 0.008922 -0.001790 0.004124 -0.001726 0.002154
# 3 -0.000726 -0.001790 0.009188 0.004621 -0.006278 -0.002670
# 4 0.001347 0.004124 0.004621 0.022982 -0.009007 -0.002042
# 5 -0.003604 -0.001726 -0.006278 -0.009007 0.029964 0.002922
# 6 0.000466 0.002154 -0.002670 -0.002042 0.002922 0.022999
#
#
# Mechanical properties :
#
#
# Convention : Reuss Voigt Hill
#
# Bulk Modulus (GPa) = 46.56983 69.35094 57.96038
# Shear Modulus (GPa) = 44.46481 54.74510 49.60495
#
# Velocity S-wave (km/s) = 4.08675 4.53463 4.31650
# Velocity P-wave (km/s) = 6.30562 7.31206 6.82741
#
# Compressibility (1/GPa) = 0.02147313
#
# Stress axis : x y z
#
# Youngs Moduli (GPa) = 136.99622 112.07897 108.84019
#
# Poissons Ratio (x) = -0.06133 0.07900
# Poissons Ratio (y) = -0.07497 0.19478
# Poissons Ratio (z) = 0.09943 0.20058
#
# Static dielectric constant tensor:
#      x y z
#    x 2.011130 0.037510 -0.045380 
#    y 0.037510 2.206700 -0.065130 
#    z -0.045380 -0.065130 2.228700 
# 
# From -- ./inp_files/68249.got.cif
#   From: 2010.05.17/outbox.cif.g08.bks.cpg/sg2_35_cif.got.tgz:68249.got - 2010.06.03 11:33:40.
