data_PCOD9070001
_publ_section_title
;
Structure prediction by ZEFSAII (Michael W. Deem and Ramdas Pophale) SiO2 
 PCOD9070001
Probable space group: P -1
;
_chemical_formula_sum "Si O2"
_cell_formula_units_Z 12
_cell_length_a 9.119725
_cell_length_b 6.735131
_cell_length_c 13.653733
_cell_angle_alpha 101.733135
_cell_angle_beta 53.616366
_cell_angle_gamma 125.285241
_cell_volume 538.603068
_symmetry_space_group_name_H-M "P -1"
_symmetry_group_IT_number 2
_symmetry_cell_setting 'triclinic'
loop_
_space_group_symop_operation_xyz
x,y,z
-x,-y,-z
loop_
_atom_site_type_symbol
_atom_site_label
_atom_site_fract_x
_atom_site_fract_y
_atom_site_fract_z
Si Si1 0.254089 0.231961 0.940954
Si Si2 0.413512 0.939224 0.639145
Si Si3 0.492302 0.341503 0.280606
Si Si4 0.783971 0.489548 0.613317
Si Si5 0.414544 0.910069 0.133202
Si Si6 0.101451 0.374376 0.200238
O O1 0.344024 0.418336 0.830257
O O2 0.411341 0.142561 0.896115
O O3 0.241086 0.358786 0.057541
O O4 0.000000 0.000000 0.000000
O O5 0.412486 0.720806 0.671240
O O6 0.156917 0.842970 0.732937
O O7 0.500000 0.000000 0.500000
O O8 0.586153 0.198086 0.651759
O O9 0.301416 0.370904 0.398293
O O10 0.410796 0.110954 0.217495
O O11 0.825777 0.617468 0.716095
O O12 0.000000 0.500000 0.500000
O O13 0.168295 0.654156 0.196915
O O14 0.500000 0.000000 0.000000
#
# Coordination Sequence:
#
# PCOD9070001 Si02
#       6
#     2   2   2   2   2   2
#     4  12  26  45  74 115 152 188 246 311 375 450
#     4  12  28  50  71 110 149 198 257 302 364 443
#     4  12  25  47  76 105 151 194 244 312 379 435
#     4  12  26  52  73 106 149 197 255 307 360 447
#     4  12  24  44  72 111 148 191 243 296 379 449
#     4  12  24  48  76 106 155 192 242 311 368 443
#
# _framework density 22.279858999999998
#
# number of rings (size 3 to 8) (size 9 to 14) (size 15 to 20)
#    0.000    0.000    6.667    3.500    2.333    2.667 
#    3.000    0.000    0.000    0.000    0.000    0.000 
#    0.000    0.000    0.000    0.000    0.000    0.000 
#
# Total GULP energy -67008.802338 kJ/mol
# GULP energy per Si atom -5584.066861 kJ/mol
# Density = 2.222915 g / cm^3
# Si number density = 22.279859 Si / 1000 Ang^3
#
#
#
# Elastic Constant Matrix: (Units=GPa)
#
#
# Indices 1 2 3 4 5 6 
#
# 1 124.1843 57.4780 57.1305 -3.7944 -2.0670 -1.0869
# 2 57.4780 128.9062 43.9662 -8.3223 -19.8527 1.5078
# 3 57.1305 43.9662 124.3590 5.2648 2.2941 -6.2853
# 4 -3.7944 -8.3223 5.2648 31.4498 3.1063 -12.7849
# 5 -2.0670 -19.8527 2.2941 3.1063 46.5868 -10.1737
# 6 -1.0869 1.5078 -6.2853 -12.7849 -10.1737 43.6117
#
#
#
# Elastic Compliance Matrix: (Units=1/GPa)
#
#
# Indices 1 2 3 4 5 6 
#
# 1 0.011755 -0.003955 -0.004033 0.001123 -0.001055 -0.000068
# 2 -0.003955 0.011212 -0.002299 0.002865 0.004773 0.001136
# 3 -0.004033 -0.002299 0.010866 -0.002589 -0.001422 0.000454
# 4 0.001123 0.002865 -0.002589 0.037395 0.001266 0.010814
# 5 -0.001055 0.004773 -0.001422 0.001266 0.024690 0.005735
# 6 -0.000068 0.001136 0.000454 0.010814 0.005735 0.027462
#
#
# Mechanical properties :
#
#
# Convention : Reuss Voigt Hill
#
# Bulk Modulus (GPa) = 75.42686 77.17765 76.30226
# Shear Modulus (GPa) = 33.69891 38.92132 36.31011
#
# Velocity S-wave (km/s) = 3.89334 4.18416 4.04137
# Velocity P-wave (km/s) = 7.35789 7.61960 7.48989
#
# Compressibility (1/GPa) = 0.01325788
#
# Stress axis : x y z
#
# Youngs Moduli (GPa) = 85.07201 89.19194 92.03197
#
# Poissons Ratio (x) = 0.35273 0.37121
# Poissons Ratio (y) = 0.33644 0.21158
# Poissons Ratio (z) = 0.34314 0.20505
#
# Static dielectric constant tensor:
#      x y z
#    x 1.873150 0.000670 0.063080 
#    y 0.000670 1.842090 -0.009770 
#    z 0.063080 -0.009770 1.903440 
# 
# From -- ./inp_files/40140.got.cif
#   From: 2010.05.17/outbox.cif.g08.bks.cpg/sg2_21_cif.got.tgz:40140.got - 2010.06.03 11:33:40.
