data_PCOD9070246
_publ_section_title
;
Structure prediction by ZEFSAII (Michael W. Deem and Ramdas Pophale) SiO2 
 PCOD9070246
Probable space group: P -1
;
_chemical_formula_sum "Si O2"
_cell_formula_units_Z 16
_cell_length_a 9.013642
_cell_length_b 8.557484
_cell_length_c 22.752042
_cell_angle_alpha 125.723762
_cell_angle_beta 31.493208
_cell_angle_gamma 113.030471
_cell_volume 720.365374
_symmetry_space_group_name_H-M "P -1"
_symmetry_group_IT_number 2
_symmetry_cell_setting 'triclinic'
loop_
_space_group_symop_operation_xyz
x,y,z
-x,-y,-z
loop_
_atom_site_type_symbol
_atom_site_label
_atom_site_fract_x
_atom_site_fract_y
_atom_site_fract_z
Si Si1 0.286411 0.625780 0.239962
Si Si2 0.343868 0.926918 0.884512
Si Si3 0.110621 0.026423 0.770663
Si Si4 0.032168 0.279853 0.417020
Si Si5 0.810930 0.337561 0.026974
Si Si6 0.166667 0.607159 0.622911
Si Si7 0.292764 0.874134 0.403621
Si Si8 0.353857 0.735780 0.113426
O O1 0.541126 0.430248 0.096221
O O2 0.401055 0.715143 0.279403
O O3 0.242630 0.748970 0.222015
O O4 0.008484 0.554608 0.338441
O O5 0.623964 0.845257 0.728113
O O6 0.340237 0.730498 0.880294
O O7 0.427729 0.115760 0.929204
O O8 0.000000 0.000000 0.000000
O O9 0.451772 0.018882 0.645891
O O10 0.915128 0.163461 0.816517
O O11 0.065762 0.806887 0.738874
O O12 0.010389 0.136682 0.889450
O O13 0.000000 0.500000 0.500000
O O14 0.908480 0.308782 0.398959
O O15 0.822171 0.196305 0.512659
O O16 0.000000 0.500000 0.000000
O O17 0.500000 0.500000 0.500000
O O18 0.000000 0.000000 0.500000
O O19 0.500000 0.500000 0.000000
#
# Coordination Sequence:
#
# PCOD9070246 Si02
#       8
#     2   2   2   2   2   2   2   2
#     4  12  24  49  71 105 155 197 253 308 378 464
#     4  12  28  48  77 111 154 202 256 316 384 468
#     4  12  28  47  77 114 151 197 250 323 389 449
#     4  12  26  50  75 110 150 199 264 314 381 465
#     4  12  24  46  77 110 150 196 253 314 385 462
#     4  12  28  50  74 110 152 201 253 323 388 452
#     4  12  27  46  76 104 148 206 254 304 377 462
#     4  12  27  47  74 117 156 197 251 321 394 455
#
# _framework density 22.21095
#
# number of rings (size 3 to 8) (size 9 to 14) (size 15 to 20)
#    0.000    0.000    6.250    2.250    5.250    1.500 
#    0.000    0.000    0.000    0.000    0.000    0.000 
#    0.000    0.000    0.000    0.000    0.000    0.000 
#
# Total GULP energy -89320.451275 kJ/mol
# GULP energy per Si atom -5582.528205 kJ/mol
# Density = 2.216040 g / cm^3
# Si number density = 22.210950 Si / 1000 Ang^3
#
#
#
# Elastic Constant Matrix: (Units=GPa)
#
#
# Indices 1 2 3 4 5 6 
#
# 1 77.5349 23.0911 23.0343 -15.8437 -17.1110 1.0427
# 2 23.0911 77.8707 -2.6473 0.3250 6.8218 11.2949
# 3 23.0343 -2.6473 88.1809 8.2465 -8.9155 7.8129
# 4 -15.8437 0.3250 8.2465 52.8114 -0.3763 6.8829
# 5 -17.1110 6.8218 -8.9155 -0.3763 51.5722 -3.0534
# 6 1.0427 11.2949 7.8129 6.8829 -3.0534 40.7287
#
#
#
# Elastic Compliance Matrix: (Units=1/GPa)
#
#
# Indices 1 2 3 4 5 6 
#
# 1 0.019213 -0.006735 -0.005326 0.006450 0.006498 0.001795
# 2 -0.006735 0.015983 0.002408 -0.001910 -0.004226 -0.004716
# 3 -0.005326 0.002408 0.013347 -0.003368 0.000048 -0.002519
# 4 0.006450 -0.001910 -0.003368 0.021750 0.001819 -0.002529
# 5 0.006498 -0.004226 0.000048 0.001819 0.022266 0.002358
# 6 0.001795 -0.004716 -0.002519 -0.002529 0.002358 0.026902
#
#
# Mechanical properties :
#
#
# Convention : Reuss Voigt Hill
#
# Bulk Modulus (GPa) = 34.20242 36.72698 35.46470
# Shear Modulus (GPa) = 33.66691 42.36302 38.01497
#
# Velocity S-wave (km/s) = 3.89753 4.37201 4.14157
# Velocity P-wave (km/s) = 5.97383 6.48516 6.23474
#
# Compressibility (1/GPa) = 0.02923770
#
# Stress axis : x y z
#
# Youngs Moduli (GPa) = 52.04689 62.56651 74.92346
#
# Poissons Ratio (x) = 0.42138 0.39906
# Poissons Ratio (y) = 0.35054 -0.18045
# Poissons Ratio (z) = 0.27721 -0.15068
#
# Static dielectric constant tensor:
#      x y z
#    x 1.776340 0.001360 -0.014000 
#    y 0.001360 1.780600 0.106230 
#    z -0.014000 0.106230 1.976260 
# 
# From -- ./inp_files/308379.got.cif
#   From: 2010.05.17/outbox.cif.g08.bks.cpg/sg2_155_cif.got.tgz:308379.got - 2010.06.03 11:33:40.
