data_PCOD9070147
_publ_section_title
;
Structure prediction by ZEFSAII (Michael W. Deem and Ramdas Pophale) SiO2 
 PCOD9070147
Probable space group: P -1
;
_chemical_formula_sum "Si O2"
_cell_formula_units_Z 14
_cell_length_a 9.615767
_cell_length_b 12.027681
_cell_length_c 15.235686
_cell_angle_alpha 152.431467
_cell_angle_beta 54.494141
_cell_angle_gamma 124.609342
_cell_volume 657.236139
_symmetry_space_group_name_H-M "P -1"
_symmetry_group_IT_number 2
_symmetry_cell_setting 'triclinic'
loop_
_space_group_symop_operation_xyz
x,y,z
-x,-y,-z
loop_
_atom_site_type_symbol
_atom_site_label
_atom_site_fract_x
_atom_site_fract_y
_atom_site_fract_z
Si Si1 0.797089 0.478731 0.065192
Si Si2 0.546330 0.183731 0.351144
Si Si3 0.345817 0.015920 0.137337
Si Si4 0.700886 0.460821 0.891389
Si Si5 0.364439 0.036369 0.498661
Si Si6 0.183720 0.399521 0.370291
Si Si7 0.820622 0.832634 0.970410
O O1 0.734827 0.736740 0.288279
O O2 0.719883 0.259932 0.003354
O O3 0.740285 0.409165 0.939697
O O4 0.000000 0.500000 0.000000
O O5 0.452532 0.088229 0.408001
O O6 0.672306 0.421998 0.504471
O O7 0.416314 0.172293 0.307811
O O8 0.674713 0.002278 0.146433
O O9 0.195336 0.143502 0.235429
O O10 0.500000 0.000000 0.000000
O O11 0.811381 0.693204 0.968685
O O12 0.739702 0.230951 0.659944
O O13 0.500000 0.500000 0.000000
O O14 0.500000 0.000000 0.500000
O O15 0.230072 0.357485 0.222595
O O16 0.000000 0.500000 0.500000
O O17 0.000000 0.000000 0.000000
#
# Coordination Sequence:
#
# PCOD9070147 Si02
#       7
#     2   2   2   2   2   2   2
#     4  12  29  49  71 113 154 192 244 316 381 429
#     4  12  24  46  74 109 144 196 256 296 368 449
#     4  12  26  49  77 104 153 197 247 310 371 444
#     4  12  24  47  75 107 148 194 250 301 366 454
#     4  12  24  45  82 105 143 202 254 294 367 455
#     4  12  27  45  73 111 148 193 249 308 380 436
#     4  12  25  45  73 112 151 188 242 315 370 431
#
# _framework density 21.301324999999999
#
# number of rings (size 3 to 8) (size 9 to 14) (size 15 to 20)
#    0.000    0.000    7.143    2.143    2.000    2.857 
#    2.571    0.000    0.000    0.000    0.000    0.000 
#    0.000    0.000    0.000    0.000    0.000    0.000 
#
# Total GULP energy -78215.087319 kJ/mol
# GULP energy per Si atom -5586.791951 kJ/mol
# Density = 2.125284 g / cm^3
# Si number density = 21.301325 Si / 1000 Ang^3
#
#
#
# Elastic Constant Matrix: (Units=GPa)
#
#
# Indices 1 2 3 4 5 6 
#
# 1 118.8670 49.3201 42.8498 0.0279 -21.9425 -11.6062
# 2 49.3201 145.9799 31.7494 9.5802 -14.5743 -7.7304
# 3 42.8498 31.7494 132.3673 -1.0056 -12.5397 0.6042
# 4 0.0279 9.5802 -1.0056 40.5111 -8.9540 3.7794
# 5 -21.9425 -14.5743 -12.5397 -8.9540 36.8219 3.3445
# 6 -11.6062 -7.7304 0.6042 3.7794 3.3445 33.9143
#
#
#
# Elastic Compliance Matrix: (Units=1/GPa)
#
#
# Indices 1 2 3 4 5 6 
#
# 1 0.011750 -0.002838 -0.002643 0.001464 0.005085 0.002757
# 2 -0.002838 0.008283 -0.001024 -0.001936 0.000669 0.001085
# 3 -0.002643 -0.001024 0.008800 0.000910 0.001377 -0.001532
# 4 0.001464 -0.001936 0.000910 0.027134 0.007351 -0.003705
# 5 0.005085 0.000669 0.001377 0.007351 0.032909 -0.002196
# 6 0.002757 0.001085 -0.001532 -0.003705 -0.002196 0.031334
#
#
# Mechanical properties :
#
#
# Convention : Reuss Voigt Hill
#
# Bulk Modulus (GPa) = 63.19568 71.67252 67.43410
# Shear Modulus (GPa) = 36.10246 40.46914 38.28580
#
# Velocity S-wave (km/s) = 4.12132 4.36345 4.24411
# Velocity P-wave (km/s) = 7.23733 7.68806 7.46609
#
# Compressibility (1/GPa) = 0.01582387
#
# Stress axis : x y z
#
# Youngs Moduli (GPa) = 85.10426 120.72851 113.63151
#
# Poissons Ratio (x) = 0.34257 0.30032
# Poissons Ratio (y) = 0.24149 0.11641
# Poissons Ratio (z) = 0.22493 0.12368
#
# Static dielectric constant tensor:
#      x y z
#    x 1.645970 -0.012090 0.148870 
#    y -0.012090 1.762740 0.060430 
#    z 0.148870 0.060430 1.733360 
# 
# From -- ./inp_files/494126.got.cif
#   From: 2010.05.17/outbox.cif.g08.bks.cpg/sg2_248_cif.got.tgz:494126.got - 2010.06.03 11:33:40.
