data_PCOD9070914
_publ_section_title
;
Structure prediction by ZEFSAII (Michael W. Deem and Ramdas Pophale) SiO2 
 PCOD9070914
Probable space group: P -1
;
_chemical_formula_sum "Si O2"
_cell_formula_units_Z 12
_cell_length_a 8.865804
_cell_length_b 9.222779
_cell_length_c 16.304352
_cell_angle_alpha 142.721688
_cell_angle_beta 66.275105
_cell_angle_gamma 83.604361
_cell_volume 464.205271
_symmetry_space_group_name_H-M "P -1"
_symmetry_group_IT_number 2
_symmetry_cell_setting 'triclinic'
loop_
_space_group_symop_operation_xyz
x,y,z
-x,-y,-z
loop_
_atom_site_type_symbol
_atom_site_label
_atom_site_fract_x
_atom_site_fract_y
_atom_site_fract_z
Si Si1 0.230451 0.537206 0.759120
Si Si2 0.821697 0.473898 0.043142
Si Si3 0.774530 0.680267 0.694362
Si Si4 0.349299 0.653836 0.515680
Si Si5 0.990719 0.303074 0.654222
Si Si6 0.414425 0.338327 0.972793
O O1 0.501521 0.327259 0.566711
O O2 0.165175 0.347493 0.652162
O O3 0.249935 0.494823 0.833981
O O4 0.000000 0.000000 0.000000
O O5 0.577517 0.787819 0.175903
O O6 0.036285 0.029743 0.768704
O O7 0.000000 0.500000 0.000000
O O8 0.620184 0.634316 0.666107
O O9 0.860018 0.530596 0.699037
O O10 0.000000 0.500000 0.500000
O O11 0.571703 0.122190 0.925535
O O12 0.500000 0.500000 0.500000
O O13 0.865276 0.424165 0.826597
O O14 0.000000 0.000000 0.500000
O O15 0.500000 0.500000 0.000000
#
# Coordination Sequence:
#
# PCOD9070914 Si02
#       6
#     2   2   2   2   2   2
#     4  12  27  50  84 114 157 208 261 325 390 463
#     4  12  26  49  75 112 158 198 265 317 387 468
#     4  12  27  50  78 109 158 205 257 322 392 468
#     4  12  25  47  80 114 151 207 264 322 389 460
#     4  12  27  51  77 117 154 200 261 319 394 467
#     4  12  27  48  75 110 155 207 252 322 390 461
#
# _framework density 25.850633999999999
#
# number of rings (size 3 to 8) (size 9 to 14) (size 15 to 20)
#    0.000    0.000    3.333    6.500    4.667    2.000 
#    3.000    0.000    0.000    0.000    0.000    0.000 
#    0.000    0.000    0.000    0.000    0.000    0.000 
#
# Total GULP energy -66896.727845 kJ/mol
# GULP energy per Si atom -5574.727320 kJ/mol
# Density = 2.579180 g / cm^3
# Si number density = 25.850634 Si / 1000 Ang^3
#
#
#
# Elastic Constant Matrix: (Units=GPa)
#
#
# Indices 1 2 3 4 5 6 
#
# 1 141.1468 73.8818 22.3002 -19.3402 -10.5180 25.9048
# 2 73.8818 264.6386 53.2827 -38.1703 -1.0041 -14.5300
# 3 22.3002 53.2827 80.1910 -23.0382 -1.5645 3.1130
# 4 -19.3402 -38.1703 -23.0382 57.4604 5.2873 -1.0950
# 5 -10.5180 -1.0041 -1.5645 5.2873 18.2941 -2.9503
# 6 25.9048 -14.5300 3.1130 -1.0950 -2.9503 63.4354
#
#
#
# Elastic Compliance Matrix: (Units=1/GPa)
#
#
# Indices 1 2 3 4 5 6 
#
# 1 0.009865 -0.002782 -0.000402 0.000809 0.004538 -0.004421
# 2 -0.002782 0.005448 -0.002425 0.001910 -0.001663 0.002459
# 3 -0.000402 -0.002425 0.015520 0.004502 -0.000516 -0.001099
# 4 0.000809 0.001910 0.004502 0.021226 -0.005178 0.000012
# 5 0.004538 -0.001663 -0.000516 -0.005178 0.058702 0.000432
# 6 -0.004421 0.002459 -0.001099 0.000012 0.000432 0.018207
#
#
# Mechanical properties :
#
#
# Convention : Reuss Voigt Hill
#
# Bulk Modulus (GPa) = 50.98504 87.21173 69.09839
# Shear Modulus (GPa) = 34.07741 50.27209 42.17475
#
# Velocity S-wave (km/s) = 3.63470 4.41468 4.04354
# Velocity P-wave (km/s) = 6.11396 7.73278 6.97052
#
# Compressibility (1/GPa) = 0.01961360
#
# Stress axis : x y z
#
# Youngs Moduli (GPa) = 101.36895 183.55727 64.43413
#
# Poissons Ratio (x) = 0.51064 0.02592
# Poissons Ratio (y) = 0.28200 0.15628
# Poissons Ratio (z) = 0.04078 0.44519
#
# Static dielectric constant tensor:
#      x y z
#    x 2.316800 -0.005720 -0.261900 
#    y -0.005720 2.037420 0.221500 
#    z -0.261900 0.221500 2.958030 
# 
# From -- ./inp_files/149791.got.cif
#   From: 2010.05.17/outbox.cif.g08.bks.cpg/sg2_75_cif.got.tgz:149791.got - 2010.06.03 11:33:40.
