data_PCOD9070429
_publ_section_title
;
Structure prediction by ZEFSAII (Michael W. Deem and Ramdas Pophale) SiO2 
 PCOD9070429
Probable space group: P -1
;
_chemical_formula_sum "Si O2"
_cell_formula_units_Z 16
_cell_length_a 12.018744
_cell_length_b 26.526619
_cell_length_c 9.146212
_cell_angle_alpha 150.859026
_cell_angle_beta 41.644068
_cell_angle_gamma 149.262264
_cell_volume 725.684613
_symmetry_space_group_name_H-M "P -1"
_symmetry_group_IT_number 2
_symmetry_cell_setting 'triclinic'
loop_
_space_group_symop_operation_xyz
x,y,z
-x,-y,-z
loop_
_atom_site_type_symbol
_atom_site_label
_atom_site_fract_x
_atom_site_fract_y
_atom_site_fract_z
Si Si1 0.450893 0.366054 0.642448
Si Si2 0.438649 0.883446 0.663127
Si Si3 0.042984 0.138464 0.287769
Si Si4 0.166710 0.624810 0.760299
Si Si5 0.343865 0.918003 0.310196
Si Si6 0.592160 0.726452 0.227171
Si Si7 0.047943 0.245313 0.248021
Si Si8 0.874105 0.528860 0.086851
O O1 0.271708 0.275478 0.464837
O O2 0.661049 0.398052 0.443210
O O3 0.390998 0.279307 0.629458
O O4 0.500000 0.500000 0.000000
O O5 0.559637 0.830773 0.471002
O O6 0.175577 0.787094 0.668244
O O7 0.549039 0.962431 0.606258
O O8 0.500000 0.000000 0.000000
O O9 0.995226 0.148805 0.192148
O O10 0.885446 0.131476 0.538254
O O11 0.000000 0.000000 0.000000
O O12 0.000000 0.500000 0.500000
O O13 0.296895 0.778527 0.963753
O O14 0.040665 0.609159 0.990979
O O15 0.500000 0.000000 0.500000
O O16 0.798342 0.751580 0.011829
O O17 0.356944 0.591080 0.061387
O O18 0.173768 0.388731 0.563577
O O19 0.000000 0.500000 0.000000
#
# Coordination Sequence:
#
# PCOD9070429 Si02
#       8
#     2   2   2   2   2   2   2   2
#     4  12  28  47  74 109 150 196 250 311 373 443
#     4  12  28  47  76 109 150 202 247 307 379 444
#     4  12  26  45  74 106 146 195 248 307 370 441
#     4  12  25  47  77 103 147 195 252 306 369 448
#     4  12  24  48  74 105 147 191 252 305 364 448
#     4  12  28  49  75 114 154 194 251 308 381 453
#     4  12  27  50  74 112 153 194 249 310 377 449
#     4  12  25  46  77 109 145 196 245 304 381 443
#
# _framework density 22.048145000000002
#
# number of rings (size 3 to 8) (size 9 to 14) (size 15 to 20)
#    0.000    0.000    5.000    4.125    7.000    0.500 
#    0.000    0.000    0.000    0.000    0.000    0.000 
#    0.000    0.000    0.000    0.000    0.000    0.000 
#
# Total GULP energy -89332.366430 kJ/mol
# GULP energy per Si atom -5583.272902 kJ/mol
# Density = 2.199796 g / cm^3
# Si number density = 22.048145 Si / 1000 Ang^3
#
#
#
# Elastic Constant Matrix: (Units=GPa)
#
#
# Indices 1 2 3 4 5 6 
#
# 1 69.9957 5.4638 5.7688 -7.3705 -6.9783 -11.2812
# 2 5.4638 70.0333 13.2204 -22.5075 -13.3771 10.0143
# 3 5.7688 13.2204 109.2806 3.7138 -22.1619 -1.8578
# 4 -7.3705 -22.5075 3.7138 49.2138 0.0137 -0.5376
# 5 -6.9783 -13.3771 -22.1619 0.0137 38.2965 1.9721
# 6 -11.2812 10.0143 -1.8578 -0.5376 1.9721 53.6242
#
#
#
# Elastic Compliance Matrix: (Units=1/GPa)
#
#
# Indices 1 2 3 4 5 6 
#
# 1 0.015323 -0.000480 -0.000306 0.002133 0.002280 0.003240
# 2 -0.000480 0.019073 -0.001440 0.008716 0.005936 -0.003844
# 3 -0.000306 -0.001440 0.010515 -0.001495 0.005509 0.000351
# 4 0.002133 0.008716 -0.001495 0.024725 0.002615 -0.001079
# 5 0.002280 0.005936 0.005509 0.002615 0.031870 -0.001584
# 6 0.003240 -0.003844 0.000351 -0.001079 -0.001584 0.020107
#
#
# Mechanical properties :
#
#
# Convention : Reuss Voigt Hill
#
# Bulk Modulus (GPa) = 24.71570 33.13508 28.92539
# Shear Modulus (GPa) = 35.82903 43.21733 39.52318
#
# Velocity S-wave (km/s) = 4.03555 4.43214 4.23849
# Velocity P-wave (km/s) = 5.74007 6.42285 6.09103
#
# Compressibility (1/GPa) = 0.04046011
#
# Stress axis : x y z
#
# Youngs Moduli (GPa) = 65.25956 52.43065 95.10184
#
# Poissons Ratio (x) = 0.02517 0.02909
# Poissons Ratio (y) = 0.03133 0.13692
# Poissons Ratio (z) = 0.01996 0.07548
#
# Static dielectric constant tensor:
#      x y z
#    x 1.798390 -0.063350 -0.094460 
#    y -0.063350 1.707960 -0.007110 
#    z -0.094460 -0.007110 1.731770 
# 
# From -- ./inp_files/285865.got.cif
#   From: 2010.05.17/outbox.cif.g08.bks.cpg/sg2_143_cif.got.tgz:285865.got - 2010.06.03 11:33:40.
