data_PCOD9070161
_publ_section_title
;
Structure prediction by ZEFSAII (Michael W. Deem and Ramdas Pophale) SiO2 
 PCOD9070161
Probable space group: P -1
;
_chemical_formula_sum "Si O2"
_cell_formula_units_Z 12
_cell_length_a 8.930850
_cell_length_b 12.749052
_cell_length_c 8.069225
_cell_angle_alpha 70.417485
_cell_angle_beta 33.230478
_cell_angle_gamma 76.759568
_cell_volume 472.017727
_symmetry_space_group_name_H-M "P -1"
_symmetry_group_IT_number 2
_symmetry_cell_setting 'triclinic'
loop_
_space_group_symop_operation_xyz
x,y,z
-x,-y,-z
loop_
_atom_site_type_symbol
_atom_site_label
_atom_site_fract_x
_atom_site_fract_y
_atom_site_fract_z
Si Si1 0.902085 0.315807 0.058483
Si Si2 0.756049 0.077838 0.159498
Si Si3 0.333815 0.882617 0.169156
Si Si4 0.549635 0.683454 0.277893
Si Si5 0.369103 0.615403 0.047359
Si Si6 0.888552 0.700870 0.660107
O O1 0.800494 0.187411 0.175144
O O2 0.809515 0.381811 0.952581
O O3 0.224581 0.316853 0.787781
O O4 0.737455 0.356093 0.348970
O O5 0.500000 0.000000 0.500000
O O6 0.704773 0.112600 0.997927
O O7 0.000000 0.000000 0.000000
O O8 0.022940 0.824132 0.527684
O O9 0.495646 0.798612 0.175912
O O10 0.500000 0.000000 0.000000
O O11 0.715408 0.632839 0.000883
O O12 0.644321 0.704173 0.749898
O O13 0.500000 0.500000 0.000000
O O14 0.148256 0.643231 0.377941
#
# Coordination Sequence:
#
# PCOD9070161 Si02
#       6
#     2   2   2   2   2   2
#     4  12  24  46  71 109 143 191 243 315 349 440
#     4  12  27  42  68 105 145 194 249 291 352 433
#     4  12  26  46  73 106 152 200 239 288 370 441
#     4  12  25  45  73 104 152 189 235 297 376 426
#     4  12  27  51  80 106 140 195 252 309 371 426
#     4  12  24  50  74 105 147 191 240 302 370 437
#
# _framework density 25.422772999999999
#
# number of rings (size 3 to 8) (size 9 to 14) (size 15 to 20)
#    0.000    0.000    5.000    4.500    4.667    0.667 
#    0.000    5.000    0.000    0.000    0.000    0.000 
#    0.000    0.000    0.000    0.000    0.000    0.000 
#
# Total GULP energy -66969.379961 kJ/mol
# GULP energy per Si atom -5580.781663 kJ/mol
# Density = 2.536491 g / cm^3
# Si number density = 25.422773 Si / 1000 Ang^3
#
#
#
# Elastic Constant Matrix: (Units=GPa)
#
#
# Indices 1 2 3 4 5 6 
#
# 1 131.7750 33.1361 28.2995 16.1878 -17.7122 -26.9490
# 2 33.1361 97.5305 16.6120 18.0342 -15.1081 -22.5833
# 3 28.2995 16.6120 133.9437 39.1411 -14.9006 -8.5520
# 4 16.1878 18.0342 39.1411 28.5104 -1.8746 -12.9251
# 5 -17.7122 -15.1081 -14.9006 -1.8746 60.3142 7.9782
# 6 -26.9490 -22.5833 -8.5520 -12.9251 7.9782 48.0375
#
#
#
# Elastic Compliance Matrix: (Units=1/GPa)
#
#
# Indices 1 2 3 4 5 6 
#
# 1 0.009335 -0.001713 -0.001075 -0.000949 0.001524 0.003732
# 2 -0.001713 0.013107 0.001513 -0.007904 0.002521 0.002925
# 3 -0.001075 0.001513 0.013603 -0.020394 0.003253 -0.003497
# 4 -0.000949 -0.007904 -0.020394 0.074149 -0.006737 0.013191
# 5 0.001524 0.002521 0.003253 -0.006737 0.018554 -0.002275
# 6 0.003732 0.002925 -0.003497 0.013191 -0.002275 0.027590
#
#
# Mechanical properties :
#
#
# Convention : Reuss Voigt Hill
#
# Bulk Modulus (GPa) = 29.85368 57.70493 43.77931
# Shear Modulus (GPa) = 29.40275 46.38586 37.89430
#
# Velocity S-wave (km/s) = 3.40450 4.27614 3.86497
# Velocity P-wave (km/s) = 5.21752 6.86498 6.09715
#
# Compressibility (1/GPa) = 0.03349671
#
# Stress axis : x y z
#
# Youngs Moduli (GPa) = 107.12627 76.29686 73.51075
#
# Poissons Ratio (x) = 0.13068 0.07899
# Poissons Ratio (y) = 0.18348 -0.11124
# Poissons Ratio (z) = 0.11512 -0.11546
#
# Static dielectric constant tensor:
#      x y z
#    x 2.190410 -0.011850 0.097480 
#    y -0.011850 2.232990 -0.034870 
#    z 0.097480 -0.034870 2.038730 
# 
# From -- ./inp_files/205783.got.cif
#   From: 2010.05.17/outbox.cif.g08.bks.cpg/sg2_103_cif.got.tgz:205783.got - 2010.06.03 11:33:40.
