data_PCOD9070948
_publ_section_title
;
Structure prediction by ZEFSAII (Michael W. Deem and Ramdas Pophale) SiO2 
 PCOD9070948
Probable space group: P -1
;
_chemical_formula_sum "Si O2"
_cell_formula_units_Z 16
_cell_length_a 14.243123
_cell_length_b 6.896209
_cell_length_c 8.661443
_cell_angle_alpha 104.125496
_cell_angle_beta 104.425119
_cell_angle_gamma 103.858693
_cell_volume 757.071600
_symmetry_space_group_name_H-M "P -1"
_symmetry_group_IT_number 2
_symmetry_cell_setting 'triclinic'
loop_
_space_group_symop_operation_xyz
x,y,z
-x,-y,-z
loop_
_atom_site_type_symbol
_atom_site_label
_atom_site_fract_x
_atom_site_fract_y
_atom_site_fract_z
Si Si1 0.940405 0.964075 0.807496
Si Si2 0.448276 0.365999 0.304707
Si Si3 0.591263 0.203069 0.125990
Si Si4 0.101565 0.450566 0.484696
Si Si5 0.699565 0.445195 0.913983
Si Si6 0.247153 0.909364 0.618096
Si Si7 0.277145 0.970885 0.297037
Si Si8 0.865557 0.776834 0.239415
O O1 0.832049 0.003058 0.783894
O O2 0.017385 0.119558 0.746866
O O3 0.919341 0.729230 0.687566
O O4 0.000000 0.000000 0.000000
O O5 0.500000 0.500000 0.500000
O O6 0.540403 0.339487 0.236181
O O7 0.378990 0.473836 0.200427
O O8 0.370449 0.139215 0.280389
O O9 0.668518 0.115822 0.235798
O O10 0.645708 0.336360 0.027830
O O11 0.500000 0.000000 0.000000
O O12 0.179140 0.671098 0.505688
O O13 0.140631 0.364223 0.638157
O O14 0.000000 0.500000 0.500000
O O15 0.726291 0.263707 0.794985
O O16 0.798056 0.636256 0.047591
O O17 0.292048 0.012595 0.494381
O O18 0.180497 0.038505 0.696002
#
# Coordination Sequence:
#
# PCOD9070948 Si02
#       8
#     2   2   2   2   2   2   2   2
#     4  12  28  46  75 107 150 193 241 301 360 440
#     4  12  29  49  75 107 148 193 249 304 370 438
#     4  12  26  49  77 107 145 194 244 307 368 429
#     4  12  25  48  74 106 147 197 243 297 368 431
#     4  12  28  48  77 107 149 191 245 308 369 436
#     4  12  27  47  77 107 150 191 246 302 363 443
#     4  12  29  49  70 111 150 191 248 299 368 438
#     4  12  26  49  74 110 146 194 245 298 365 440
#
# _framework density 21.134065
#
# number of rings (size 3 to 8) (size 9 to 14) (size 15 to 20)
#    0.000    0.000    5.000    3.750   12.250    1.500 
#    0.000    0.000    0.000    0.000    0.000    0.000 
#    0.000    0.000    0.000    0.000    0.000    0.000 
#
# Total GULP energy -89650.959057 kJ/mol
# GULP energy per Si atom -5603.184941 kJ/mol
# Density = 2.108596 g / cm^3
# Si number density = 21.134065 Si / 1000 Ang^3
#
#
#
# Elastic Constant Matrix: (Units=GPa)
#
#
# Indices 1 2 3 4 5 6 
#
# 1 67.1987 10.7277 -1.4113 -7.0918 -0.8194 -0.3118
# 2 10.7277 65.7166 11.6957 -5.0609 9.5138 -6.9870
# 3 -1.4113 11.6957 93.4793 -6.6701 10.2524 -9.7607
# 4 -7.0918 -5.0609 -6.6701 39.8465 -6.1499 3.4133
# 5 -0.8194 9.5138 10.2524 -6.1499 38.3319 -1.3023
# 6 -0.3118 -6.9870 -9.7607 3.4133 -1.3023 39.4908
#
#
#
# Elastic Compliance Matrix: (Units=1/GPa)
#
#
# Indices 1 2 3 4 5 6 
#
# 1 0.015626 -0.002668 0.000586 0.002771 0.001270 -0.000401
# 2 -0.002668 0.016741 -0.001438 0.000642 -0.003643 0.002410
# 3 0.000586 -0.001438 0.011493 0.001266 -0.002420 0.002402
# 4 0.002771 0.000642 0.001266 0.026613 0.003772 -0.001727
# 5 0.001270 -0.003643 -0.002420 0.003772 0.028250 -0.000627
# 6 -0.000401 0.002410 0.002402 -0.001727 -0.000627 0.026468
#
#
# Mechanical properties :
#
#
# Convention : Reuss Voigt Hill
#
# Bulk Modulus (GPa) = 27.15937 29.82432 28.49184
# Shear Modulus (GPa) = 34.60108 37.22601 35.91354
#
# Velocity S-wave (km/s) = 4.05064 4.20148 4.12675
# Velocity P-wave (km/s) = 5.89541 6.13834 6.01810
#
# Compressibility (1/GPa) = 0.03681970
#
# Stress axis : x y z
#
# Youngs Moduli (GPa) = 63.99772 59.73229 87.01084
#
# Poissons Ratio (x) = 0.15938 -0.05101
# Poissons Ratio (y) = 0.17076 0.12512
# Poissons Ratio (z) = -0.03752 0.08589
#
# Static dielectric constant tensor:
#      x y z
#    x 1.754530 0.016740 -0.045820 
#    y 0.016740 1.751680 0.001250 
#    z -0.045820 0.001250 1.760420 
# 
# From -- ./inp_files/38088.got.cif
#   From: 2010.05.17/outbox.cif.g08.bks.cpg/sg2_20_cif.got.tgz:38088.got - 2010.06.03 11:33:40.
