data_PCOD9070080
_publ_section_title
;
Structure prediction by ZEFSAII (Michael W. Deem and Ramdas Pophale) SiO2 
 PCOD9070080
Probable space group: P -1
;
_chemical_formula_sum "Si O2"
_cell_formula_units_Z 10
_cell_length_a 10.574088
_cell_length_b 5.449728
_cell_length_c 11.301949
_cell_angle_alpha 115.077301
_cell_angle_beta 139.370805
_cell_angle_gamma 82.526409
_cell_volume 363.280673
_symmetry_space_group_name_H-M "P -1"
_symmetry_group_IT_number 2
_symmetry_cell_setting 'triclinic'
loop_
_space_group_symop_operation_xyz
x,y,z
-x,-y,-z
loop_
_atom_site_type_symbol
_atom_site_label
_atom_site_fract_x
_atom_site_fract_y
_atom_site_fract_z
Si Si1 0.788686 0.631981 0.465499
Si Si2 0.727743 0.036796 0.343302
Si Si3 0.663496 0.644522 0.003104
Si Si4 0.876311 0.162635 0.081227
Si Si5 0.446866 0.157440 0.379445
O O1 0.870450 0.902851 0.492694
O O2 0.890022 0.723399 0.683597
O O3 0.824198 0.333310 0.404688
O O4 0.544207 0.540868 0.248919
O O5 0.617473 0.799278 0.119501
O O6 0.585610 0.112178 0.358282
O O7 0.796102 0.438253 0.085519
O O8 0.774333 0.904071 0.047199
O O9 0.785564 0.017724 0.862987
O O10 0.500000 0.500000 0.500000
O O11 0.500000 0.000000 0.500000
#
# Coordination Sequence:
#
# PCOD9070080 Si02
#       5
#     2   2   2   2   2
#     4  12  24  45  72 114 145 181 234 285 363 434
#     4  12  25  46  73 105 148 190 224 297 360 409
#     4  12  24  47  72 109 155 175 227 298 357 430
#     4  12  27  45  77 110 139 193 232 287 367 416
#     4  12  26  49  72  98 140 191 242 294 346 411
#
# _framework density 27.526927000000001
#
# number of rings (size 3 to 8) (size 9 to 14) (size 15 to 20)
#    0.000    0.000    4.000    6.000    0.000    4.800 
#    0.000    6.000    0.000    0.000    0.000    0.000 
#    0.000    0.000    0.000    0.000    0.000    0.000 
#
# Total GULP energy -56015.856685 kJ/mol
# GULP energy per Si atom -5601.585668 kJ/mol
# Density = 2.746427 g / cm^3
# Si number density = 27.526927 Si / 1000 Ang^3
#
#
#
# Elastic Constant Matrix: (Units=GPa)
#
#
# Indices 1 2 3 4 5 6 
#
# 1 76.4671 49.2077 55.9305 10.0112 -14.0390 -4.1283
# 2 49.2077 293.3652 91.7342 12.0084 -11.6066 6.9326
# 3 55.9305 91.7342 278.4794 -13.6672 -20.9636 -5.4621
# 4 10.0112 12.0084 -13.6672 72.2190 -9.2872 -10.2328
# 5 -14.0390 -11.6066 -20.9636 -9.2872 43.4094 11.4997
# 6 -4.1283 6.9326 -5.4621 -10.2328 11.4997 45.8035
#
#
#
# Elastic Compliance Matrix: (Units=1/GPa)
#
#
# Indices 1 2 3 4 5 6 
#
# 1 0.017100 -0.001816 -0.002694 -0.002133 0.003233 0.000207
# 2 -0.001816 0.004100 -0.001035 -0.000766 0.000141 -0.001114
# 3 -0.002694 -0.001035 0.004665 0.001671 0.001327 0.000510
# 4 -0.002133 -0.000766 0.001671 0.015312 0.002410 0.002939
# 5 0.003233 0.000141 0.001327 0.002410 0.026803 -0.005762
# 6 0.000207 -0.001114 0.000510 0.002939 -0.005762 0.024184
#
#
# Mechanical properties :
#
#
# Convention : Reuss Voigt Hill
#
# Bulk Modulus (GPa) = 67.67365 115.78406 91.72885
# Shear Modulus (GPa) = 46.22031 62.38233 54.30132
#
# Velocity S-wave (km/s) = 4.10212 4.76566 4.44628
# Velocity P-wave (km/s) = 6.86108 8.51090 7.73013
#
# Compressibility (1/GPa) = 0.01477680
#
# Stress axis : x y z
#
# Youngs Moduli (GPa) = 58.47918 243.89794 214.37433
#
# Poissons Ratio (x) = 0.44284 0.57744
# Poissons Ratio (y) = 0.10618 0.22183
# Poissons Ratio (z) = 0.15752 0.25238
#
# Static dielectric constant tensor:
#      x y z
#    x 2.289800 0.028410 0.063860 
#    y 0.028410 2.143670 0.011220 
#    z 0.063860 0.011220 2.125770 
# 
# From -- ./inp_files/57255.got.cif
#   From: 2010.05.17/outbox.cif.g08.bks.cpg/sg2_29_cif.got.tgz:57255.got - 2010.06.03 11:33:40.
