data_PCOD9070556
_publ_section_title
;
Structure prediction by ZEFSAII (Michael W. Deem and Ramdas Pophale) SiO2 
 PCOD9070556
Probable space group: P -1
;
_chemical_formula_sum "Si O2"
_cell_formula_units_Z 14
_cell_length_a 6.311915
_cell_length_b 8.688582
_cell_length_c 17.146380
_cell_angle_alpha 104.623761
_cell_angle_beta 111.898219
_cell_angle_gamma 122.844961
_cell_volume 595.357093
_symmetry_space_group_name_H-M "P -1"
_symmetry_group_IT_number 2
_symmetry_cell_setting 'triclinic'
loop_
_space_group_symop_operation_xyz
x,y,z
-x,-y,-z
loop_
_atom_site_type_symbol
_atom_site_label
_atom_site_fract_x
_atom_site_fract_y
_atom_site_fract_z
Si Si1 0.648945 0.339874 0.893455
Si Si2 0.632911 0.183054 0.707389
Si Si3 0.369268 0.740222 0.590215
Si Si4 0.653877 0.499068 0.176621
Si Si5 0.601016 0.599567 0.704725
Si Si6 0.655914 0.799190 0.470772
Si Si7 0.660396 0.117353 0.120079
O O1 0.615242 0.290873 0.790728
O O2 0.555068 0.481761 0.902218
O O3 0.469559 0.094694 0.872417
O O4 0.000000 0.500000 0.000000
O O5 0.605274 0.246372 0.627170
O O6 0.986771 0.286023 0.774626
O O7 0.352404 0.915668 0.634236
O O8 0.573675 0.764318 0.691589
O O9 0.579545 0.819658 0.549891
O O10 0.000000 0.500000 0.500000
O O11 0.622997 0.526299 0.266799
O O12 0.593107 0.276323 0.138970
O O13 0.446326 0.432588 0.587971
O O14 0.954025 0.716235 0.794386
O O15 0.000000 0.000000 0.500000
O O16 0.500000 0.000000 0.000000
#
# Coordination Sequence:
#
# PCOD9070556 Si02
#       7
#     2   2   2   2   2   2   2
#     4  12  28  48  78 113 149 199 257 316 391 468
#     4  12  25  47  73 105 150 197 252 317 387 465
#     4  12  27  44  74 112 151 208 265 321 398 463
#     4  12  24  50  77 105 158 194 249 316 393 451
#     4  12  25  46  73 105 152 193 251 323 377 461
#     4  12  25  45  72 104 152 200 258 317 386 459
#     4  12  28  48  77 113 150 200 258 317 393 468
#
# _framework density 23.5153
#
# number of rings (size 3 to 8) (size 9 to 14) (size 15 to 20)
#    0.000    0.000    2.857    6.857    4.000    5.714 
#    0.000    0.000    0.000    0.000    0.000    0.000 
#    0.000    0.000    0.000    0.000    0.000    0.000 
#
# Total GULP energy -78077.781325 kJ/mol
# GULP energy per Si atom -5576.984380 kJ/mol
# Density = 2.346178 g / cm^3
# Si number density = 23.515300 Si / 1000 Ang^3
#
#
#
# Elastic Constant Matrix: (Units=GPa)
#
#
# Indices 1 2 3 4 5 6 
#
# 1 91.0786 40.1877 43.3994 -4.7598 15.3800 -12.7323
# 2 40.1877 134.7767 34.1603 -0.7479 7.2549 -17.8158
# 3 43.3994 34.1603 100.7025 -2.7832 -1.2309 -4.3271
# 4 -4.7598 -0.7479 -2.7832 51.9327 -7.4066 8.3409
# 5 15.3800 7.2549 -1.2309 -7.4066 38.0151 -10.2931
# 6 -12.7323 -17.8158 -4.3271 8.3409 -10.2931 41.7375
#
#
#
# Elastic Compliance Matrix: (Units=1/GPa)
#
#
# Indices 1 2 3 4 5 6 
#
# 1 0.016333 -0.002786 -0.006090 0.000026 -0.005801 0.001726
# 2 -0.002786 0.009091 -0.001774 -0.000698 0.000008 0.002988
# 3 -0.006090 -0.001774 0.013189 0.000675 0.003200 -0.000593
# 4 0.000026 -0.000698 0.000675 0.020296 0.003152 -0.003499
# 5 -0.005801 0.000008 0.003200 0.003152 0.030871 0.005549
# 6 0.001726 0.002988 -0.000593 -0.003499 0.005549 0.027767
#
#
# Mechanical properties :
#
#
# Convention : Reuss Voigt Hill
#
# Bulk Modulus (GPa) = 57.76060 62.45029 60.10545
# Shear Modulus (GPa) = 34.57409 40.25774 37.41592
#
# Velocity S-wave (km/s) = 3.83858 4.14210 3.99323
# Velocity P-wave (km/s) = 6.65301 7.03498 6.84666
#
# Compressibility (1/GPa) = 0.01731284
#
# Stress axis : x y z
#
# Youngs Moduli (GPa) = 61.22594 110.00235 75.82199
#
# Poissons Ratio (x) = 0.30647 0.46175
# Poissons Ratio (y) = 0.17058 0.13450
# Poissons Ratio (z) = 0.37286 0.19513
#
# Static dielectric constant tensor:
#      x y z
#    x 1.959650 -0.067570 -0.001360 
#    y -0.067570 1.991330 0.008920 
#    z -0.001360 0.008920 1.788460 
# 
# From -- ./inp_files/106362.got.cif
#   From: 2010.05.17/outbox.cif.g08.bks.cpg/sg2_54_cif.got.tgz:106362.got - 2010.06.03 11:33:40.
