data_PCOD9070370
_publ_section_title
;
Structure prediction by ZEFSAII (Michael W. Deem and Ramdas Pophale) SiO2 
 PCOD9070370
Probable space group: P -1
;
_chemical_formula_sum "Si O2"
_cell_formula_units_Z 14
_cell_length_a 9.624557
_cell_length_b 14.811200
_cell_length_c 11.778731
_cell_angle_alpha 29.985578
_cell_angle_beta 50.369638
_cell_angle_gamma 63.377928
_cell_volume 622.102965
_symmetry_space_group_name_H-M "P -1"
_symmetry_group_IT_number 2
_symmetry_cell_setting 'triclinic'
loop_
_space_group_symop_operation_xyz
x,y,z
-x,-y,-z
loop_
_atom_site_type_symbol
_atom_site_label
_atom_site_fract_x
_atom_site_fract_y
_atom_site_fract_z
Si Si1 0.333946 0.841546 0.003396
Si Si2 0.425534 0.138250 0.805241
Si Si3 0.109428 0.230982 0.001223
Si Si4 0.276293 0.975363 0.650890
Si Si5 0.613621 0.570848 0.167294
Si Si6 0.702924 0.594473 0.839470
Si Si7 0.027772 0.550449 0.562999
O O1 0.237845 0.865960 0.908544
O O2 0.434186 0.046129 0.777412
O O3 0.462188 0.694744 0.091573
O O4 0.166472 0.756482 0.269807
O O5 0.220653 0.121039 0.983740
O O6 0.528686 0.363530 0.494527
O O7 0.500000 0.000000 0.000000
O O8 0.224927 0.295592 0.985145
O O9 0.131940 0.418471 0.713863
O O10 0.886416 0.132987 0.232877
O O11 0.500000 0.000000 0.500000
O O12 0.256029 0.183334 0.436137
O O13 0.698986 0.544393 0.028806
O O14 0.843993 0.532337 0.750798
O O15 0.500000 0.500000 0.000000
O O16 0.000000 0.500000 0.500000
#
# Coordination Sequence:
#
# PCOD9070370 Si02
#       7
#     2   2   2   2   2   2   2
#     4  12  24  47  78 109 152 198 255 317 375 455
#     4  12  25  45  79 118 149 199 259 308 385 459
#     4  12  26  46  76 113 151 200 255 317 381 455
#     4  12  26  46  74 110 150 200 258 310 380 454
#     4  12  26  50  78 112 160 197 249 323 383 448
#     4  12  27  48  74 111 154 203 256 315 382 450
#     4  12  25  46  75 111 151 201 253 313 383 453
#
# _framework density 22.504314000000001
#
# number of rings (size 3 to 8) (size 9 to 14) (size 15 to 20)
#    0.000    0.000    5.714    4.714    2.000    2.286 
#    0.000    0.000    0.000    0.000    0.000    0.000 
#    0.000    0.000    0.000    0.000    0.000    0.000 
#
# Total GULP energy -78172.079821 kJ/mol
# GULP energy per Si atom -5583.719987 kJ/mol
# Density = 2.245309 g / cm^3
# Si number density = 22.504314 Si / 1000 Ang^3
#
#
#
# Elastic Constant Matrix: (Units=GPa)
#
#
# Indices 1 2 3 4 5 6 
#
# 1 113.6132 31.8061 41.6357 6.1664 -2.3214 8.9049
# 2 31.8061 115.3399 39.9150 14.3772 -5.5833 1.6403
# 3 41.6357 39.9150 108.3972 -8.6472 -8.0735 -3.8236
# 4 6.1664 14.3772 -8.6472 45.2705 2.1144 -5.1915
# 5 -2.3214 -5.5833 -8.0735 2.1144 38.1715 -2.1790
# 6 8.9049 1.6403 -3.8236 -5.1915 -2.1790 37.9397
#
#
#
# Elastic Compliance Matrix: (Units=1/GPa)
#
#
# Indices 1 2 3 4 5 6 
#
# 1 0.011035 -0.001333 -0.004073 -0.002212 -0.000450 -0.003271
# 2 -0.001333 0.010940 -0.003822 -0.004187 0.000882 -0.001068
# 3 -0.004073 -0.003822 0.012802 0.004488 0.001831 0.003131
# 4 -0.002212 -0.004187 0.004488 0.025142 -0.000931 0.004539
# 5 -0.000450 0.000882 0.001831 -0.000931 0.026833 0.001666
# 6 -0.003271 -0.001068 0.003131 0.004539 0.001666 0.028204
#
#
# Mechanical properties :
#
#
# Convention : Reuss Voigt Hill
#
# Bulk Modulus (GPa) = 61.27356 62.67376 61.97366
# Shear Modulus (GPa) = 36.00938 39.20924 37.60931
#
# Velocity S-wave (km/s) = 4.00448 4.17861 4.09247
# Velocity P-wave (km/s) = 6.97622 7.15480 7.06608
#
# Compressibility (1/GPa) = 0.01632025
#
# Stress axis : x y z
#
# Youngs Moduli (GPa) = 90.62185 91.40650 78.11192
#
# Poissons Ratio (x) = 0.12184 0.31815
# Poissons Ratio (y) = 0.12080 0.29858
# Poissons Ratio (z) = 0.36911 0.34940
#
# Static dielectric constant tensor:
#      x y z
#    x 1.901980 0.031160 -0.037730 
#    y 0.031160 1.308790 0.402990 
#    z -0.037730 0.402990 1.608690 
# 
# From -- ./inp_files/278845.got.cif
#   From: 2010.05.17/outbox.cif.g08.bks.cpg/sg2_140_cif.got.tgz:278845.got - 2010.06.03 11:33:40.
