data_PCOD9070648
_publ_section_title
;
Structure prediction by ZEFSAII (Michael W. Deem and Ramdas Pophale) SiO2 
 PCOD9070648
Probable space group: P -1
;
_chemical_formula_sum "Si O2"
_cell_formula_units_Z 15
_cell_length_a 5.563199
_cell_length_b 20.318605
_cell_length_c 5.247606
_cell_angle_alpha 90.071518
_cell_angle_beta 94.349702
_cell_angle_gamma 79.056079
_cell_volume 580.653178
_symmetry_space_group_name_H-M "P -1"
_symmetry_group_IT_number 2
_symmetry_cell_setting 'triclinic'
loop_
_space_group_symop_operation_xyz
x,y,z
-x,-y,-z
loop_
_atom_site_type_symbol
_atom_site_label
_atom_site_fract_x
_atom_site_fract_y
_atom_site_fract_z
Si Si1 0.370603 0.233884 0.246071
Si Si2 0.787501 0.180987 0.606903
Si Si3 0.354604 0.356169 0.974791
Si Si4 0.484258 0.578468 0.528519
Si Si5 0.787193 0.885471 0.055859
Si Si6 0.973060 0.317695 0.568952
Si Si7 0.942541 0.057570 0.288524
Si Si8 0.500000 0.000000 0.000000
O O1 0.508652 0.195355 0.498487
O O2 0.159965 0.286725 0.363764
O O3 0.503390 0.283569 0.088062
O O4 0.298568 0.178928 0.056325
O O5 0.847548 0.254854 0.622732
O O6 0.916915 0.133228 0.390201
O O7 0.929850 0.138990 0.845916
O O8 0.456300 0.389490 0.736569
O O9 0.107842 0.338763 0.830057
O O10 0.354910 0.404521 0.218617
O O11 0.500000 0.500000 0.500000
O O12 0.210141 0.618630 0.555262
O O13 0.805126 0.948206 0.863441
O O14 0.601878 0.933881 0.218889
O O15 0.687195 0.047935 0.147330
O O16 0.000000 0.000000 0.500000
#
# Coordination Sequence:
#
# PCOD9070648 Si02
#       8
#     2   2   2   2   2   2   2   1
#     4  12  26  47  77 115 148 202 263 332 388 464
#     4  12  25  44  72 107 146 192 255 324 393 454
#     4  12  26  50  80 119 157 207 263 319 386 468
#     4  12  30  52  80 120 168 211 256 317 390 470
#     4  12  27  46  73 106 145 194 257 320 397 460
#     4  12  26  48  81 112 155 203 265 326 391 463
#     4  12  27  45  67 101 144 193 249 311 389 471
#     4  12  26  46  68 102 138 200 244 316 376 476
#
# _framework density 25.832975000000001
#
# number of rings (size 3 to 8) (size 9 to 14) (size 15 to 20)
#    0.000    0.000    8.000    0.800    1.867    6.933 
#    0.000    0.000    0.000    0.000    0.000    0.000 
#    0.000    0.000    0.000    0.000    0.000    0.000 
#
# Total GULP energy -83660.022554 kJ/mol
# GULP energy per Si atom -5577.334837 kJ/mol
# Density = 2.577418 g / cm^3
# Si number density = 25.832975 Si / 1000 Ang^3
#
#
#
# Elastic Constant Matrix: (Units=GPa)
#
#
# Indices 1 2 3 4 5 6 
#
# 1 65.8905 52.7845 31.9216 0.3255 16.6411 -0.4332
# 2 52.7845 209.4415 59.4251 16.5712 7.0628 -5.2550
# 3 31.9216 59.4251 126.4696 5.7141 5.0638 16.3529
# 4 0.3255 16.5712 5.7141 50.2977 5.0639 9.5280
# 5 16.6411 7.0628 5.0638 5.0639 44.6034 0.9025
# 6 -0.4332 -5.2550 16.3529 9.5280 0.9025 42.5321
#
#
#
# Elastic Compliance Matrix: (Units=1/GPa)
#
#
# Indices 1 2 3 4 5 6 
#
# 1 0.022395 -0.004611 -0.003368 0.002406 -0.007528 0.000574
# 2 -0.004611 0.006785 -0.002240 -0.002479 0.001137 0.002184
# 3 -0.003368 -0.002240 0.010340 0.000366 0.000484 -0.004379
# 4 0.002406 -0.002479 0.000366 0.021935 -0.002930 -0.005274
# 5 -0.007528 0.001137 0.000484 -0.002930 0.025326 -0.000003
# 6 0.000574 0.002184 -0.004379 -0.005274 -0.000003 0.026653
#
#
# Mechanical properties :
#
#
# Convention : Reuss Voigt Hill
#
# Bulk Modulus (GPa) = 52.40380 76.67378 64.53879
# Shear Modulus (GPa) = 35.65539 44.66468 40.16003
#
# Velocity S-wave (km/s) = 3.71917 4.16261 3.94712
# Velocity P-wave (km/s) = 6.22677 7.26967 6.76834
#
# Compressibility (1/GPa) = 0.01908259
#
# Stress axis : x y z
#
# Youngs Moduli (GPa) = 44.65320 147.38808 96.71241
#
# Poissons Ratio (x) = 0.67955 0.32569
# Poissons Ratio (y) = 0.20588 0.21665
# Poissons Ratio (z) = 0.15038 0.33018
#
# Static dielectric constant tensor:
#      x y z
#    x 2.944150 -0.416320 -0.142250 
#    y -0.416320 2.175300 -0.007980 
#    z -0.142250 -0.007980 2.265260 
# 
# From -- ./inp_files/9379.got.cif
#   From: 2010.05.17/outbox.cif.g08.bks.cpg/sg2_5_cif.got.tgz:9379.got - 2010.06.03 11:33:40.
