data_PCOD9070978
_publ_section_title
;
Structure prediction by ZEFSAII (Michael W. Deem and Ramdas Pophale) SiO2 
 PCOD9070978
Probable space group: P -1
;
_chemical_formula_sum "Si O2"
_cell_formula_units_Z 13
_cell_length_a 8.897586
_cell_length_b 8.185986
_cell_length_c 11.799367
_cell_angle_alpha 140.623878
_cell_angle_beta 67.097190
_cell_angle_gamma 115.411710
_cell_volume 489.985440
_symmetry_space_group_name_H-M "P -1"
_symmetry_group_IT_number 2
_symmetry_cell_setting 'triclinic'
loop_
_space_group_symop_operation_xyz
x,y,z
-x,-y,-z
loop_
_atom_site_type_symbol
_atom_site_label
_atom_site_fract_x
_atom_site_fract_y
_atom_site_fract_z
Si Si1 0.693196 0.010028 0.289003
Si Si2 0.000000 0.500000 0.500000
Si Si3 0.224329 0.457112 0.836818
Si Si4 0.648246 0.953978 0.849975
Si Si5 0.638046 0.817576 0.528694
Si Si6 0.924751 0.320224 0.680311
Si Si7 0.814066 0.822430 0.940928
O O1 0.835413 0.266438 0.405942
O O2 0.746988 0.768468 0.207583
O O3 0.515396 0.060775 0.401852
O O4 0.692362 0.943232 0.119958
O O5 0.018104 0.388145 0.569167
O O6 0.259836 0.741563 0.036620
O O7 0.048180 0.400624 0.793225
O O8 0.352199 0.436245 0.684476
O O9 0.772405 0.826425 0.823234
O O10 0.618381 0.796831 0.657978
O O11 0.500000 0.000000 0.000000
O O12 0.812146 0.028097 0.566032
O O13 0.804226 0.526635 0.823174
O O14 0.000000 0.000000 0.000000
#
# Coordination Sequence:
#
# PCOD9070978 Si02
#       7
#     2   1   2   2   2   2   2
#     4  12  27  51  76 113 154 202 259 316 389 459
#     4  12  26  46  76 108 156 192 258 310 382 460
#     4  12  28  50  77 115 155 204 257 316 388 464
#     4  12  28  50  77 115 157 202 258 319 381 452
#     4  12  29  51  78 116 154 202 260 323 388 450
#     4  12  28  48  78 113 151 207 255 316 392 456
#     4  12  25  48  76 110 153 202 257 316 374 464
#
# _framework density 26.531399
#
# number of rings (size 3 to 8) (size 9 to 14) (size 15 to 20)
#    0.000    0.000    6.154    1.846    6.462    3.077 
#    0.000    0.000    0.000    0.000    0.000    0.000 
#    0.000    0.000    0.000    0.000    0.000    0.000 
#
# Total GULP energy -72731.631960 kJ/mol
# GULP energy per Si atom -5594.740920 kJ/mol
# Density = 2.647101 g / cm^3
# Si number density = 26.531399 Si / 1000 Ang^3
#
#
#
# Elastic Constant Matrix: (Units=GPa)
#
#
# Indices 1 2 3 4 5 6 
#
# 1 81.6788 38.1707 -2.1554 -8.2090 5.3532 -26.1119
# 2 38.1707 120.8664 12.2106 -14.4902 14.2598 -5.9160
# 3 -2.1554 12.2106 116.1475 -16.6562 8.3118 -8.3214
# 4 -8.2090 -14.4902 -16.6562 53.9891 -5.5774 3.5561
# 5 5.3532 14.2598 8.3118 -5.5774 40.1248 -12.0390
# 6 -26.1119 -5.9160 -8.3214 3.5561 -12.0390 42.2286
#
#
#
# Elastic Compliance Matrix: (Units=1/GPa)
#
#
# Indices 1 2 3 4 5 6 
#
# 1 0.018664 -0.005671 0.001780 0.001386 0.002891 0.011805
# 2 -0.005671 0.010608 -0.000984 0.001530 -0.003609 -0.003372
# 3 0.001780 -0.000984 0.009350 0.002658 -0.000744 0.002369
# 4 0.001386 0.001530 0.002658 0.020108 0.001625 0.000365
# 5 0.002891 -0.003609 -0.000744 0.001625 0.028977 0.009260
# 6 0.011805 -0.003372 0.002369 0.000365 0.009260 0.033584
#
#
# Mechanical properties :
#
#
# Convention : Reuss Voigt Hill
#
# Bulk Modulus (GPa) = 34.63574 46.12717 40.38146
# Shear Modulus (GPa) = 35.54511 45.29960 40.42236
#
# Velocity S-wave (km/s) = 3.66421 4.13655 3.90752
# Velocity P-wave (km/s) = 5.56641 6.34337 5.96755
#
# Compressibility (1/GPa) = 0.02887191
#
# Stress axis : x y z
#
# Youngs Moduli (GPa) = 53.57891 94.26630 106.94628
#
# Poissons Ratio (x) = 0.53461 -0.19039
# Poissons Ratio (y) = 0.30386 0.10528
# Poissons Ratio (z) = -0.09538 0.09279
#
# Static dielectric constant tensor:
#      x y z
#    x 2.128070 -0.037840 -0.142880 
#    y -0.037840 2.053540 -0.054250 
#    z -0.142880 -0.054250 2.201080 
# 
# From -- ./inp_files/377473.got.cif
#   From: 2010.05.17/outbox.cif.g08.bks.cpg/sg2_189_cif.got.tgz:377473.got - 2010.06.03 11:33:40.
