data_PCOD9070818
_publ_section_title
;
Structure prediction by ZEFSAII (Michael W. Deem and Ramdas Pophale) SiO2 
 PCOD9070818
Probable space group: P -1
;
_chemical_formula_sum "Si O2"
_cell_formula_units_Z 12
_cell_length_a 9.695224
_cell_length_b 5.548959
_cell_length_c 22.292679
_cell_angle_alpha 103.513885
_cell_angle_beta 151.056188
_cell_angle_gamma 68.055873
_cell_volume 526.588862
_symmetry_space_group_name_H-M "P -1"
_symmetry_group_IT_number 2
_symmetry_cell_setting 'triclinic'
loop_
_space_group_symop_operation_xyz
x,y,z
-x,-y,-z
loop_
_atom_site_type_symbol
_atom_site_label
_atom_site_fract_x
_atom_site_fract_y
_atom_site_fract_z
Si Si1 0.835486 0.281448 0.921186
Si Si2 0.768713 0.681892 0.253860
Si Si3 0.835155 0.128258 0.383932
Si Si4 0.331973 0.288562 0.922108
Si Si5 0.669454 0.764432 0.505684
Si Si6 0.281313 0.628305 0.248435
O O1 0.499618 0.417807 0.831540
O O2 0.818136 0.201858 0.840198
O O3 0.000000 0.500000 0.000000
O O4 0.000000 0.000000 0.000000
O O5 0.727329 0.751129 0.172538
O O6 0.114129 0.486642 0.388198
O O7 0.716697 0.935462 0.289992
O O8 0.554698 0.379559 0.312549
O O9 0.084476 0.184518 0.441187
O O10 0.000000 0.000000 0.500000
O O11 0.011880 0.422565 0.842060
O O12 0.500000 0.500000 0.000000
O O13 0.500000 0.000000 0.000000
O O14 0.419809 0.729069 0.363674
O O15 0.500000 0.000000 0.500000
#
# Coordination Sequence:
#
# PCOD9070818 Si02
#       6
#     2   2   2   2   2   2
#     4  12  26  48  80 112 154 207 260 321 385 459
#     4  12  27  50  78 113 158 201 265 327 394 474
#     4  12  25  46  79 116 154 197 259 323 400 469
#     4  12  31  53  79 115 162 214 267 320 392 475
#     4  12  28  48  78 116 155 203 255 328 407 467
#     4  12  26  51  80 116 154 204 264 329 392 469
#
# _framework density 22.788179
#
# number of rings (size 3 to 8) (size 9 to 14) (size 15 to 20)
#    0.000    0.000    3.333    5.500    7.000    2.667 
#    0.000    0.000    0.000    0.000    0.000    0.000 
#    0.000    0.000    0.000    0.000    0.000    0.000 
#
# Total GULP energy -67212.761428 kJ/mol
# GULP energy per Si atom -5601.063452 kJ/mol
# Density = 2.273631 g / cm^3
# Si number density = 22.788179 Si / 1000 Ang^3
#
#
#
# Elastic Constant Matrix: (Units=GPa)
#
#
# Indices 1 2 3 4 5 6 
#
# 1 184.2948 60.0149 90.6758 -5.4726 -13.9526 -7.8184
# 2 60.0149 126.5906 69.9465 4.9100 -16.8397 -6.9151
# 3 90.6758 69.9465 154.1734 2.0067 -23.8198 12.0017
# 4 -5.4726 4.9100 2.0067 17.5385 3.3527 -1.0212
# 5 -13.9526 -16.8397 -23.8198 3.3527 75.9739 1.1509
# 6 -7.8184 -6.9151 12.0017 -1.0212 1.1509 47.7314
#
#
#
# Elastic Compliance Matrix: (Units=1/GPa)
#
#
# Indices 1 2 3 4 5 6 
#
# 1 0.008316 -0.001533 -0.004493 0.003756 -0.000423 0.002360
# 2 -0.001533 0.011356 -0.004236 -0.003229 0.001014 0.002366
# 3 -0.004493 -0.004236 0.011744 -0.002214 0.002082 -0.004400
# 4 0.003756 -0.003229 -0.002214 0.060118 -0.003404 0.002073
# 5 -0.000423 0.001014 0.002082 -0.003404 0.014126 -0.000859
# 6 0.002360 0.002366 -0.004400 0.002073 -0.000859 0.022851
#
#
# Mechanical properties :
#
#
# Convention : Reuss Voigt Hill
#
# Bulk Modulus (GPa) = 91.81652 100.70369 96.26011
# Shear Modulus (GPa) = 32.75121 44.54351 38.64736
#
# Velocity S-wave (km/s) = 3.79516 4.42597 4.12265
# Velocity P-wave (km/s) = 7.71901 8.39083 8.06192
#
# Compressibility (1/GPa) = 0.01089129
#
# Stress axis : x y z
#
# Youngs Moduli (GPa) = 120.25478 88.05847 85.14985
#
# Poissons Ratio (x) = 0.13495 0.38262
# Poissons Ratio (y) = 0.18429 0.36072
# Poissons Ratio (z) = 0.54036 0.37304
#
# Static dielectric constant tensor:
#      x y z
#    x 1.886720 0.111210 -0.137570 
#    y 0.111210 1.822560 0.125110 
#    z -0.137570 0.125110 1.551000 
# 
# From -- ./inp_files/22877.got.cif
#   From: 2010.05.17/outbox.cif.g08.bks.cpg/sg2_12_cif.got.tgz:22877.got - 2010.06.03 11:33:40.
