data_PCOD9070038
_publ_section_title
;
Structure prediction by ZEFSAII (Michael W. Deem and Ramdas Pophale) SiO2 
 PCOD9070038
Probable space group: P -1
;
_chemical_formula_sum "Si O2"
_cell_formula_units_Z 12
_cell_length_a 19.938996
_cell_length_b 14.851737
_cell_length_c 10.030689
_cell_angle_alpha 38.662808
_cell_angle_beta 156.051794
_cell_angle_gamma 152.979621
_cell_volume 538.746661
_symmetry_space_group_name_H-M "P -1"
_symmetry_group_IT_number 2
_symmetry_cell_setting 'triclinic'
loop_
_space_group_symop_operation_xyz
x,y,z
-x,-y,-z
loop_
_atom_site_type_symbol
_atom_site_label
_atom_site_fract_x
_atom_site_fract_y
_atom_site_fract_z
Si Si1 0.999474 0.130185 0.183020
Si Si2 0.458908 0.595679 0.125429
Si Si3 0.791924 0.845115 0.903634
Si Si4 0.592964 0.152236 0.869688
Si Si5 0.611149 0.972205 0.849994
Si Si6 0.119921 0.483377 0.853515
O O1 0.891326 0.934693 0.127477
O O2 0.856250 0.066919 0.129582
O O3 0.272002 0.279756 0.523202
O O4 0.974170 0.258454 0.897360
O O5 0.311691 0.375904 0.051807
O O6 0.355926 0.568326 0.115818
O O7 0.451737 0.737369 0.863246
O O8 0.594494 0.842252 0.518384
O O9 0.000000 0.000000 0.000000
O O10 0.813776 0.373180 0.070279
O O11 0.500000 0.000000 0.000000
O O12 0.500000 0.000000 0.500000
O O13 0.638657 0.078674 0.912078
O O14 0.000000 0.500000 0.500000
#
# Coordination Sequence:
#
# PCOD9070038 Si02
#       6
#     2   2   2   2   2   2
#     4  12  25  47  73 108 155 192 243 314 368 434
#     4  12  26  47  75 108 148 198 251 301 370 447
#     4  12  25  45  78 111 145 193 252 303 367 440
#     4  12  25  47  76 109 144 195 254 296 366 453
#     4  12  27  50  74 108 156 194 243 314 375 436
#     4  12  24  44  76 110 146 193 251 308 363 437
#
# _framework density 22.273918999999999
#
# number of rings (size 3 to 8) (size 9 to 14) (size 15 to 20)
#    0.000    0.000    6.667    4.000    0.000    1.333 
#    0.000    0.000    0.000    0.000    0.000    0.000 
#    0.000    0.000    0.000    0.000    0.000    0.000 
#
# Total GULP energy -67278.620622 kJ/mol
# GULP energy per Si atom -5606.551719 kJ/mol
# Density = 2.222322 g / cm^3
# Si number density = 22.273919 Si / 1000 Ang^3
#
#
#
# Elastic Constant Matrix: (Units=GPa)
#
#
# Indices 1 2 3 4 5 6 
#
# 1 200.3946 77.8785 45.7312 9.6896 7.2997 -19.9864
# 2 77.8785 167.5510 42.5960 -8.1767 -10.1222 -30.5102
# 3 45.7312 42.5960 75.0462 7.5403 1.3146 -11.7559
# 4 9.6896 -8.1767 7.5403 40.0358 2.7739 -6.7069
# 5 7.2997 -10.1222 1.3146 2.7739 35.7994 6.9561
# 6 -19.9864 -30.5102 -11.7559 -6.7069 6.9561 50.4488
#
#
#
# Elastic Compliance Matrix: (Units=1/GPa)
#
#
# Indices 1 2 3 4 5 6 
#
# 1 0.006753 -0.002625 -0.002343 -0.001483 -0.002040 0.000626
# 2 -0.002625 0.009041 -0.003332 0.003599 0.002191 0.003827
# 3 -0.002343 -0.003332 0.017096 -0.003137 -0.000997 0.000761
# 4 -0.001483 0.003599 -0.003137 0.027570 -0.001624 0.004747
# 5 -0.002040 0.002191 -0.000997 -0.001624 0.029920 -0.004057
# 6 0.000626 0.003827 0.000761 0.004747 -0.004057 0.023753
#
#
# Mechanical properties :
#
#
# Convention : Reuss Voigt Hill
#
# Bulk Modulus (GPa) = 61.38655 86.15592 73.77123
# Shear Modulus (GPa) = 36.72109 43.70919 40.21514
#
# Velocity S-wave (km/s) = 4.06472 4.43465 4.25370
# Velocity P-wave (km/s) = 7.04620 8.06136 7.57082
#
# Compressibility (1/GPa) = 0.01629021
#
# Stress axis : x y z
#
# Youngs Moduli (GPa) = 148.07408 110.61286 58.49403
#
# Poissons Ratio (x) = 0.29037 0.13702
# Poissons Ratio (y) = 0.38871 0.19491
# Poissons Ratio (z) = 0.34686 0.36858
#
# Static dielectric constant tensor:
#      x y z
#    x 1.795920 0.001810 0.005130 
#    y 0.001810 1.800530 -0.021740 
#    z 0.005130 -0.021740 1.911520 
# 
# From -- ./inp_files/475245.got.cif
#   From: 2010.05.17/outbox.cif.g08.bks.cpg/sg2_238_cif.got.tgz:475245.got - 2010.06.03 11:33:40.
