data_PCOD9070162
_publ_section_title
;
Structure prediction by ZEFSAII (Michael W. Deem and Ramdas Pophale) SiO2 
 PCOD9070162
Probable space group: P -1
;
_chemical_formula_sum "Si O2"
_cell_formula_units_Z 16
_cell_length_a 8.423787
_cell_length_b 25.252734
_cell_length_c 25.275292
_cell_angle_alpha 168.882960
_cell_angle_beta 140.679118
_cell_angle_gamma 39.452744
_cell_volume 653.152231
_symmetry_space_group_name_H-M "P -1"
_symmetry_group_IT_number 2
_symmetry_cell_setting 'triclinic'
loop_
_space_group_symop_operation_xyz
x,y,z
-x,-y,-z
loop_
_atom_site_type_symbol
_atom_site_label
_atom_site_fract_x
_atom_site_fract_y
_atom_site_fract_z
Si Si1 0.226214 0.603220 0.453846
Si Si2 0.353675 0.084478 0.491611
Si Si3 0.023071 0.616720 0.931773
Si Si4 0.794833 0.927913 0.015702
Si Si5 0.643793 0.539735 0.853927
Si Si6 0.277075 0.016343 0.610176
Si Si7 0.273147 0.964578 0.113551
Si Si8 0.294269 0.496406 0.583270
O O1 0.167538 0.396655 0.282519
O O2 0.522385 0.577698 0.491008
O O3 0.104726 0.480882 0.250550
O O4 0.142082 0.904853 0.750911
O O5 0.500000 0.000000 0.500000
O O6 0.276073 0.409402 0.795290
O O7 0.527447 0.015781 0.418675
O O8 0.105724 0.922454 0.260294
O O9 0.843827 0.556800 0.875307
O O10 0.980021 0.004916 0.092978
O O11 0.500000 0.000000 0.000000
O O12 0.635048 0.225223 0.561402
O O13 0.402957 0.749788 0.979400
O O14 0.730408 0.690392 0.076055
O O15 0.000000 0.000000 0.500000
O O16 0.328166 0.796597 0.908861
O O17 0.363032 0.262783 0.417391
O O18 0.000000 0.500000 0.500000
#
# Coordination Sequence:
#
# PCOD9070162 Si02
#       8
#     2   2   2   2   2   2   2   2
#     4  12  26  44  71 103 142 184 240 289 357 418
#     4  12  27  48  76 106 142 185 235 285 348 423
#     4  12  26  46  71 105 144 186 232 294 351 418
#     4  12  26  46  70 101 143 188 236 298 356 421
#     4  12  26  46  72 104 147 184 233 291 354 417
#     4  12  27  48  75 106 142 186 232 286 350 423
#     4  12  26  44  69 105 142 184 238 291 356 414
#     4  12  24  46  72 101 138 188 241 291 348 422
#
# _framework density 24.496586000000001
#
# number of rings (size 3 to 8) (size 9 to 14) (size 15 to 20)
#    0.000    0.000    1.250    9.000    7.000    0.000 
#    0.000    0.000    0.000    0.000    0.000    0.000 
#    0.000    0.000    0.000    0.000    0.000    0.000 
#
# Total GULP energy -89645.651886 kJ/mol
# GULP energy per Si atom -5602.853243 kJ/mol
# Density = 2.444083 g / cm^3
# Si number density = 24.496586 Si / 1000 Ang^3
#
#
#
# Elastic Constant Matrix: (Units=GPa)
#
#
# Indices 1 2 3 4 5 6 
#
# 1 122.2216 0.6432 15.8520 7.2208 14.2952 2.4469
# 2 0.6432 66.8285 -0.1135 1.3282 -1.7973 6.6327
# 3 15.8520 -0.1135 110.3807 11.4007 0.8167 0.5546
# 4 7.2208 1.3282 11.4007 26.5274 0.9751 1.7639
# 5 14.2952 -1.7973 0.8167 0.9751 39.0689 2.5293
# 6 2.4469 6.6327 0.5546 1.7639 2.5293 27.7855
#
#
#
# Elastic Compliance Matrix: (Units=1/GPa)
#
#
# Indices 1 2 3 4 5 6 
#
# 1 0.008799 -0.000102 -0.001053 -0.001800 -0.003136 -0.000330
# 2 -0.000102 0.015372 0.000101 -0.000575 0.000997 -0.003717
# 3 -0.001053 0.000101 0.009607 -0.003864 0.000279 0.000097
# 4 -0.001800 -0.000575 -0.003864 0.040025 -0.000146 -0.002155
# 5 -0.003136 0.000997 0.000279 -0.000146 0.026943 -0.002411
# 6 -0.000330 -0.003717 0.000097 -0.002155 -0.002411 0.037261
#
#
# Mechanical properties :
#
#
# Convention : Reuss Voigt Hill
#
# Bulk Modulus (GPa) = 31.57565 36.91047 34.24306
# Shear Modulus (GPa) = 33.18478 37.54628 35.36553
#
# Velocity S-wave (km/s) = 3.68458 3.91924 3.80372
# Velocity P-wave (km/s) = 5.56949 5.96497 5.77062
#
# Compressibility (1/GPa) = 0.03166997
#
# Stress axis : x y z
#
# Youngs Moduli (GPa) = 113.65323 65.05345 104.08612
#
# Poissons Ratio (x) = 0.00666 0.10959
# Poissons Ratio (y) = 0.01163 -0.01053
# Poissons Ratio (z) = 0.11967 -0.00658
#
# Static dielectric constant tensor:
#      x y z
#    x 1.863250 0.024120 0.003420 
#    y 0.024120 2.011880 -0.019840 
#    z 0.003420 -0.019840 1.866510 
# 
# From -- ./inp_files/617671.got.cif
#   From: 2010.05.17/outbox.cif.g08.bks.cpg/sg2_309_cif.got.tgz:617671.got - 2010.06.03 11:33:40.
