data_PCOD9070211
_publ_section_title
;
Structure prediction by ZEFSAII (Michael W. Deem and Ramdas Pophale) SiO2 
 PCOD9070211
Probable space group: P -1
;
_chemical_formula_sum "Si O2"
_cell_formula_units_Z 12
_cell_length_a 13.893413
_cell_length_b 8.966980
_cell_length_c 8.984455
_cell_angle_alpha 148.590650
_cell_angle_beta 61.191014
_cell_angle_gamma 107.561589
_cell_volume 496.200017
_symmetry_space_group_name_H-M "P -1"
_symmetry_group_IT_number 2
_symmetry_cell_setting 'triclinic'
loop_
_space_group_symop_operation_xyz
x,y,z
-x,-y,-z
loop_
_atom_site_type_symbol
_atom_site_label
_atom_site_fract_x
_atom_site_fract_y
_atom_site_fract_z
Si Si1 0.568079 0.178517 0.708325
Si Si2 0.110160 0.308542 0.174333
Si Si3 0.822156 0.109533 0.467228
Si Si4 0.103994 0.303839 0.666258
Si Si5 0.570734 0.232488 0.115252
Si Si6 0.817861 0.126011 0.985557
O O1 0.500000 0.000000 0.500000
O O2 0.697849 0.104037 0.496355
O O3 0.500000 0.500000 0.000000
O O4 0.575479 0.207845 0.909574
O O5 0.179574 0.064966 0.029912
O O6 0.000000 0.500000 0.500000
O O7 0.167576 0.554187 0.266298
O O8 0.084746 0.100882 0.885552
O O9 0.831595 0.935702 0.466947
O O10 0.083315 0.088794 0.368464
O O11 0.000000 0.500000 0.000000
O O12 0.164555 0.542183 0.748691
O O13 0.500000 0.500000 0.500000
O O14 0.500000 0.000000 0.000000
O O15 0.697464 0.154069 0.018916
#
# Coordination Sequence:
#
# PCOD9070211 Si02
#       6
#     2   2   2   2   2   2
#     4  12  28  48  75 109 146 196 251 306 374 444
#     4  12  26  46  72 108 147 193 242 300 370 442
#     4  12  26  46  73 104 148 188 246 304 365 439
#     4  12  24  46  75 104 140 191 241 305 369 441
#     4  12  28  48  76 108 148 195 248 310 374 442
#     4  12  26  46  71 106 148 185 247 303 367 443
#
# _framework density 24.183796000000001
#
# number of rings (size 3 to 8) (size 9 to 14) (size 15 to 20)
#    0.000    0.000    1.667    8.000    9.333    0.000 
#    0.000    0.000    0.000    0.000    0.000    0.000 
#    0.000    0.000    0.000    0.000    0.000    0.000 
#
# Total GULP energy -66959.428769 kJ/mol
# GULP energy per Si atom -5579.952397 kJ/mol
# Density = 2.412875 g / cm^3
# Si number density = 24.183796 Si / 1000 Ang^3
#
#
#
# Elastic Constant Matrix: (Units=GPa)
#
#
# Indices 1 2 3 4 5 6 
#
# 1 134.1777 76.2670 38.2399 20.8493 10.4426 -20.8575
# 2 76.2670 159.9299 74.4390 37.0231 -3.6793 -32.9204
# 3 38.2399 74.4390 181.0902 9.0672 29.7313 -3.7526
# 4 20.8493 37.0231 9.0672 64.8272 10.3650 9.1343
# 5 10.4426 -3.6793 29.7313 10.3650 42.3409 1.1474
# 6 -20.8575 -32.9204 -3.7526 9.1343 1.1474 47.7365
#
#
#
# Elastic Compliance Matrix: (Units=1/GPa)
#
#
# Indices 1 2 3 4 5 6 
#
# 1 0.010710 -0.005001 0.000381 -0.000310 -0.003306 0.001399
# 2 -0.005001 0.016101 -0.006384 -0.009576 0.009188 0.010029
# 3 0.000381 -0.006384 0.009074 0.004099 -0.007913 -0.004117
# 4 -0.000310 -0.009576 0.004099 0.023375 -0.009067 -0.010672
# 5 -0.003306 0.009188 -0.007913 -0.009067 0.032866 0.005215
# 6 0.001399 0.010029 -0.004117 -0.010672 0.005215 0.030069
#
#
# Mechanical properties :
#
#
# Convention : Reuss Voigt Hill
#
# Bulk Modulus (GPa) = 72.05192 94.78773 83.41983
# Shear Modulus (GPa) = 33.59586 50.06437 41.83011
#
# Velocity S-wave (km/s) = 3.73123 4.55484 4.16345
# Velocity P-wave (km/s) = 6.95851 8.18180 7.59483
#
# Compressibility (1/GPa) = 0.01387888
#
# Stress axis : x y z
#
# Youngs Moduli (GPa) = 93.37387 62.10602 110.20227
#
# Poissons Ratio (x) = 0.31058 -0.04203
# Poissons Ratio (y) = 0.46695 0.70351
# Poissons Ratio (z) = -0.03561 0.39647
#
# Static dielectric constant tensor:
#      x y z
#    x 1.899600 -0.002220 -0.063450 
#    y -0.002220 1.976330 -0.015150 
#    z -0.063450 -0.015150 1.851140 
# 
# From -- ./inp_files/25373.got.cif
#   From: 2010.05.17/outbox.cif.g08.bks.cpg/sg2_13_cif.got.tgz:25373.got - 2010.06.03 11:33:40.
