data_PCOD9070093
_publ_section_title
;
Structure prediction by ZEFSAII (Michael W. Deem and Ramdas Pophale) SiO2 
 PCOD9070093
Probable space group: P -1
;
_chemical_formula_sum "Si O2"
_cell_formula_units_Z 16
_cell_length_a 12.193059
_cell_length_b 8.608774
_cell_length_c 16.130816
_cell_angle_alpha 38.605144
_cell_angle_beta 137.080613
_cell_angle_gamma 136.240466
_cell_volume 673.121911
_symmetry_space_group_name_H-M "P -1"
_symmetry_group_IT_number 2
_symmetry_cell_setting 'triclinic'
loop_
_space_group_symop_operation_xyz
x,y,z
-x,-y,-z
loop_
_atom_site_type_symbol
_atom_site_label
_atom_site_fract_x
_atom_site_fract_y
_atom_site_fract_z
Si Si1 0.310245 0.977210 0.929929
Si Si2 0.711655 0.762604 0.655339
Si Si3 0.355365 0.374500 0.649370
Si Si4 0.431397 0.067016 0.661847
Si Si5 0.988108 0.454425 0.135257
Si Si6 0.753830 0.992250 0.929891
Si Si7 0.813768 0.484223 0.184485
Si Si8 0.094692 0.665880 0.402492
O O1 0.162788 0.689382 0.953610
O O2 0.271295 0.178392 0.760793
O O3 0.319507 0.058196 0.996355
O O4 0.500000 0.000000 0.000000
O O5 0.550679 0.563113 0.699620
O O6 0.851048 0.635114 0.757678
O O7 0.627461 0.839584 0.494490
O O8 0.810477 0.030028 0.647466
O O9 0.234601 0.544650 0.498201
O O10 0.379484 0.218948 0.645890
O O11 0.333627 0.753934 0.753618
O O12 0.632205 0.107285 0.761598
O O13 0.063257 0.773269 0.053801
O O14 0.900426 0.358296 0.215639
O O15 0.753004 0.709635 0.016351
O O16 0.954503 0.633065 0.268145
O O17 0.000000 0.500000 0.500000
#
# Coordination Sequence:
#
# PCOD9070093 Si02
#       8
#     2   2   2   2   2   2   2   2
#     4  12  24  45  74 104 143 190 240 291 363 431
#     4  12  26  47  74 108 142 190 239 299 359 421
#     4  12  25  47  71 107 142 187 239 294 360 426
#     4  12  25  46  74 103 149 188 239 292 357 433
#     4  12  25  47  74 104 142 189 242 299 357 428
#     4  12  26  47  68 108 144 190 238 296 360 425
#     4  12  26  45  71 104 145 189 238 296 360 429
#     4  12  26  46  70 107 141 187 239 298 357 420
#
# _framework density 23.769839000000001
#
# number of rings (size 3 to 8) (size 9 to 14) (size 15 to 20)
#    0.000    0.000    5.000    4.875    1.750    2.000 
#    0.000    0.000    0.000    0.000    0.000    0.000 
#    0.000    0.000    0.000    0.000    0.000    0.000 
#
# Total GULP energy -89701.144567 kJ/mol
# GULP energy per Si atom -5606.321535 kJ/mol
# Density = 2.371574 g / cm^3
# Si number density = 23.769839 Si / 1000 Ang^3
#
#
#
# Elastic Constant Matrix: (Units=GPa)
#
#
# Indices 1 2 3 4 5 6 
#
# 1 62.8344 7.5826 24.1364 4.8807 12.1853 11.9748
# 2 7.5826 141.6821 26.3702 -6.0065 13.1284 6.6818
# 3 24.1364 26.3702 84.2509 3.1695 12.3228 -4.9537
# 4 4.8807 -6.0065 3.1695 38.8134 -0.9287 -4.6268
# 5 12.1853 13.1284 12.3228 -0.9287 36.9052 5.9046
# 6 11.9748 6.6818 -4.9537 -4.6268 5.9046 36.8698
#
#
#
# Elastic Compliance Matrix: (Units=1/GPa)
#
#
# Indices 1 2 3 4 5 6 
#
# 1 0.020441 0.000561 -0.005771 -0.002972 -0.003935 -0.007259
# 2 0.000561 0.007774 -0.002450 0.001111 -0.001868 -0.001482
# 3 -0.005771 -0.002450 0.015025 -0.000384 -0.003013 0.004771
# 4 -0.002972 0.001111 -0.000384 0.026831 0.000756 0.003958
# 5 -0.003935 -0.001868 -0.003013 0.000756 0.030662 -0.003604
# 6 -0.007259 -0.001482 0.004771 0.003958 -0.003604 0.031463
#
#
# Mechanical properties :
#
#
# Convention : Reuss Voigt Hill
#
# Bulk Modulus (GPa) = 35.81529 44.99395 40.40462
# Shear Modulus (GPa) = 31.88298 37.89624 34.88961
#
# Velocity S-wave (km/s) = 3.66638 3.99720 3.83536
# Velocity P-wave (km/s) = 5.74659 6.34615 6.05380
#
# Compressibility (1/GPa) = 0.02792104
#
# Stress axis : x y z
#
# Youngs Moduli (GPa) = 48.92043 128.63345 66.55543
#
# Poissons Ratio (x) = -0.07218 0.38410
# Poissons Ratio (y) = -0.02745 0.16304
# Poissons Ratio (z) = 0.28233 0.31512
#
# Static dielectric constant tensor:
#      x y z
#    x 1.910050 0.022200 -0.006300 
#    y 0.022200 1.888630 -0.021120 
#    z -0.006300 -0.021120 1.908270 
# 
# From -- ./inp_files/190162.got.cif
#   From: 2010.05.17/outbox.cif.g08.bks.cpg/sg2_96_cif.got.tgz:190162.got - 2010.06.03 11:33:40.
