data_PCOD9070834
_publ_section_title
;
Structure prediction by ZEFSAII (Michael W. Deem and Ramdas Pophale) SiO2 
 PCOD9070834
Probable space group: P -1
;
_chemical_formula_sum "Si O2"
_cell_formula_units_Z 12
_cell_length_a 11.521326
_cell_length_b 15.036883
_cell_length_c 9.177968
_cell_angle_alpha 149.316717
_cell_angle_beta 50.414584
_cell_angle_gamma 141.879657
_cell_volume 496.955751
_symmetry_space_group_name_H-M "P -1"
_symmetry_group_IT_number 2
_symmetry_cell_setting 'triclinic'
loop_
_space_group_symop_operation_xyz
x,y,z
-x,-y,-z
loop_
_atom_site_type_symbol
_atom_site_label
_atom_site_fract_x
_atom_site_fract_y
_atom_site_fract_z
Si Si1 0.174269 0.711808 0.573412
Si Si2 0.055070 0.222375 0.345607
Si Si3 0.080466 0.916589 0.436133
Si Si4 0.318133 0.992267 0.120939
Si Si5 0.521372 0.706061 0.205663
Si Si6 0.525040 0.490568 0.636635
O O1 0.353924 0.713828 0.404383
O O2 0.000000 0.500000 0.500000
O O3 0.097217 0.741591 0.529690
O O4 0.237466 0.912365 0.912361
O O5 0.256852 0.413611 0.384459
O O6 0.065754 0.220926 0.510795
O O7 0.000000 0.000000 0.000000
O O8 0.160390 0.829207 0.136789
O O9 0.268639 0.091945 0.628360
O O10 0.000000 0.000000 0.500000
O O11 0.390327 0.238613 0.438522
O O12 0.500000 0.000000 0.000000
O O13 0.500000 0.500000 0.000000
O O14 0.500029 0.650097 0.972548
O O15 0.500000 0.500000 0.500000
#
# Coordination Sequence:
#
# PCOD9070834 Si02
#       6
#     2   2   2   2   2   2
#     4  12  28  49  79 111 154 199 256 315 380 452
#     4  12  26  47  74 114 150 199 254 310 375 450
#     4  12  26  45  76 108 151 198 252 303 378 443
#     4  12  25  47  72 106 147 197 249 309 372 444
#     4  12  25  48  75 108 151 204 247 307 388 446
#     4  12  26  47  73 108 148 196 248 311 373 446
#
# _framework density 24.147020000000001
#
# number of rings (size 3 to 8) (size 9 to 14) (size 15 to 20)
#    0.000    0.000    5.000    5.000    2.333    2.000 
#    0.000    2.500    0.000    0.000    0.000    0.000 
#    0.000    0.000    0.000    0.000    0.000    0.000 
#
# Total GULP energy -67144.547178 kJ/mol
# GULP energy per Si atom -5595.378932 kJ/mol
# Density = 2.409206 g / cm^3
# Si number density = 24.147020 Si / 1000 Ang^3
#
#
#
# Elastic Constant Matrix: (Units=GPa)
#
#
# Indices 1 2 3 4 5 6 
#
# 1 122.7101 33.7963 34.9328 -8.5054 2.3374 0.7768
# 2 33.7963 120.0575 38.0391 -23.1553 0.8726 8.6598
# 3 34.9328 38.0391 106.5922 -26.5759 16.3085 5.8008
# 4 -8.5054 -23.1553 -26.5759 48.0230 -1.6974 9.4475
# 5 2.3374 0.8726 16.3085 -1.6974 38.5951 -13.3082
# 6 0.7768 8.6598 5.8008 9.4475 -13.3082 52.1053
#
#
#
# Elastic Compliance Matrix: (Units=1/GPa)
#
#
# Indices 1 2 3 4 5 6 
#
# 1 0.009414 -0.002030 -0.002809 -0.001017 0.000940 0.000934
# 2 -0.002030 0.010457 -0.001964 0.004030 0.000141 -0.002184
# 3 -0.002809 -0.001964 0.013992 0.006880 -0.006838 -0.004183
# 4 -0.001017 0.004030 0.006880 0.027727 -0.004321 -0.007552
# 5 0.000940 0.000141 -0.006838 -0.004321 0.031876 0.009649
# 6 0.000934 -0.002184 -0.004183 -0.007552 0.009649 0.023840
#
#
# Mechanical properties :
#
#
# Convention : Reuss Voigt Hill
#
# Bulk Modulus (GPa) = 49.36722 62.54402 55.95562
# Shear Modulus (GPa) = 36.32007 43.91746 40.11877
#
# Velocity S-wave (km/s) = 3.88251 4.26931 4.08050
# Velocity P-wave (km/s) = 6.37082 7.08945 6.73972
#
# Compressibility (1/GPa) = 0.02025636
#
# Stress axis : x y z
#
# Youngs Moduli (GPa) = 106.22743 95.62959 71.46852
#
# Poissons Ratio (x) = 0.19416 0.20073
# Poissons Ratio (y) = 0.21568 0.14038
# Poissons Ratio (z) = 0.29836 0.18784
#
# Static dielectric constant tensor:
#      x y z
#    x 2.004470 0.001930 0.071420 
#    y 0.001930 1.994930 -0.007140 
#    z 0.071420 -0.007140 1.960750 
# 
# From -- ./inp_files/152306.got.cif
#   From: 2010.05.17/outbox.cif.g08.bks.cpg/sg2_77_cif.got.tgz:152306.got - 2010.06.03 11:33:40.
