data_PCOD9070064
_publ_section_title
;
Structure prediction by ZEFSAII (Michael W. Deem and Ramdas Pophale) SiO2 
 PCOD9070064
Probable space group: P -1
;
_chemical_formula_sum "Si O2"
_cell_formula_units_Z 16
_cell_length_a 19.350664
_cell_length_b 18.600010
_cell_length_c 9.018465
_cell_angle_alpha 142.014895
_cell_angle_beta 30.717309
_cell_angle_gamma 152.388679
_cell_volume 763.666963
_symmetry_space_group_name_H-M "P -1"
_symmetry_group_IT_number 2
_symmetry_cell_setting 'triclinic'
loop_
_space_group_symop_operation_xyz
x,y,z
-x,-y,-z
loop_
_atom_site_type_symbol
_atom_site_label
_atom_site_fract_x
_atom_site_fract_y
_atom_site_fract_z
Si Si1 0.767003 0.471125 0.778160
Si Si2 0.494573 0.885933 0.220757
Si Si3 0.332949 0.917204 0.281152
Si Si4 0.553956 0.553050 0.156925
Si Si5 0.066946 0.570385 0.154054
Si Si6 0.809630 0.925359 0.298591
Si Si7 0.902435 0.048081 0.664243
Si Si8 0.204153 0.413848 0.760878
O O1 0.627644 0.289744 0.782361
O O2 0.927283 0.504038 0.440825
O O3 0.677562 0.514974 0.909170
O O4 0.808503 0.566534 0.008080
O O5 0.398118 0.884657 0.251972
O O6 0.500000 0.000000 0.500000
O O7 0.700552 0.960240 0.949740
O O8 0.164792 0.749912 0.255490
O O9 0.276954 0.020225 0.551826
O O10 0.500000 0.000000 0.000000
O O11 0.669434 0.737958 0.258068
O O12 0.386218 0.461743 0.434374
O O13 0.500000 0.500000 0.000000
O O14 0.195965 0.537270 0.904548
O O15 0.000000 0.500000 0.000000
O O16 0.862088 0.993960 0.479767
O O17 0.000000 0.000000 0.000000
O O18 0.034907 0.235673 0.738735
O O19 0.000000 0.000000 0.500000
#
# Coordination Sequence:
#
# PCOD9070064 Si02
#       8
#     2   2   2   2   2   2   2   2
#     4  12  26  48  71 106 142 184 241 292 359 425
#     4  12  28  45  74 107 143 191 233 299 362 421
#     4  12  26  48  72 104 149 186 239 293 358 429
#     4  12  26  46  72 103 142 191 237 291 356 424
#     4  12  26  45  73 105 141 186 234 293 356 425
#     4  12  26  46  72 103 143 188 240 291 355 427
#     4  12  26  46  70 104 140 187 239 293 357 422
#     4  12  24  45  70 100 142 180 237 292 349 422
#
# _framework density 20.951540999999999
#
# number of rings (size 3 to 8) (size 9 to 14) (size 15 to 20)
#    0.000    0.000    2.500    7.500    7.000    0.000 
#    0.000    0.000    0.000    0.000    0.000    0.000 
#    0.000    0.000    0.000    0.000    0.000    0.000 
#
# Total GULP energy -89464.190930 kJ/mol
# GULP energy per Si atom -5591.511933 kJ/mol
# Density = 2.090385 g / cm^3
# Si number density = 20.951541 Si / 1000 Ang^3
#
#
#
# Elastic Constant Matrix: (Units=GPa)
#
#
# Indices 1 2 3 4 5 6 
#
# 1 89.9915 23.4144 -5.8055 23.4418 -1.3795 12.7677
# 2 23.4144 181.7008 35.5401 6.2965 17.4181 4.8833
# 3 -5.8055 35.5401 107.9963 -12.4126 -0.7174 10.0027
# 4 23.4418 6.2965 -12.4126 44.0566 -3.3569 -1.8465
# 5 -1.3795 17.4181 -0.7174 -3.3569 54.4388 17.8155
# 6 12.7677 4.8833 10.0027 -1.8465 17.8155 35.5539
#
#
#
# Elastic Compliance Matrix: (Units=1/GPa)
#
#
# Indices 1 2 3 4 5 6 
#
# 1 0.014661 -0.001980 0.001295 -0.007232 0.002933 -0.007203
# 2 -0.001980 0.006497 -0.002523 -0.000722 -0.002832 0.001910
# 3 0.001295 -0.002523 0.010894 0.002755 0.002570 -0.004328
# 4 -0.007232 -0.000722 0.002755 0.027611 0.000824 0.002942
# 5 0.002933 -0.002832 0.002570 0.000824 0.023773 -0.013257
# 6 -0.007203 0.001910 -0.004328 0.002942 -0.013257 0.038464
#
#
# Mechanical properties :
#
#
# Convention : Reuss Voigt Hill
#
# Bulk Modulus (GPa) = 39.00564 53.99850 46.50207
# Shear Modulus (GPa) = 36.53300 48.57916 42.55608
#
# Velocity S-wave (km/s) = 4.18028 4.82045 4.51174
# Velocity P-wave (km/s) = 6.47744 7.53733 7.02739
#
# Compressibility (1/GPa) = 0.02563732
#
# Stress axis : x y z
#
# Youngs Moduli (GPa) = 68.20612 153.90891 91.79188
#
# Poissons Ratio (x) = 0.30468 -0.11888
# Poissons Ratio (y) = 0.13502 0.23162
# Poissons Ratio (z) = -0.08833 0.38836
#
# Static dielectric constant tensor:
#      x y z
#    x 1.687620 0.006630 0.020660 
#    y 0.006630 1.705740 -0.005230 
#    z 0.020660 -0.005230 1.714050 
# 
# From -- ./inp_files/207408.got.cif
#   From: 2010.05.17/outbox.cif.g08.bks.cpg/sg2_104_cif.got.tgz:207408.got - 2010.06.03 11:33:40.
