data_PCOD9070795
_publ_section_title
;
Structure prediction by ZEFSAII (Michael W. Deem and Ramdas Pophale) SiO2 
 PCOD9070795
Probable space group: P -1
;
_chemical_formula_sum "Si O2"
_cell_formula_units_Z 16
_cell_length_a 9.584648
_cell_length_b 18.695205
_cell_length_c 18.815229
_cell_angle_alpha 27.727739
_cell_angle_beta 143.903625
_cell_angle_gamma 152.911883
_cell_volume 711.118044
_symmetry_space_group_name_H-M "P -1"
_symmetry_group_IT_number 2
_symmetry_cell_setting 'triclinic'
loop_
_space_group_symop_operation_xyz
x,y,z
-x,-y,-z
loop_
_atom_site_type_symbol
_atom_site_label
_atom_site_fract_x
_atom_site_fract_y
_atom_site_fract_z
Si Si1 0.139461 0.424427 0.073541
Si Si2 0.867701 0.031777 0.758709
Si Si3 0.752520 0.291905 0.542334
Si Si4 0.288472 0.914201 0.058625
Si Si5 0.186885 0.295931 0.518485
Si Si6 0.715815 0.965860 0.306999
Si Si7 0.700702 0.478605 0.223219
Si Si8 0.750311 0.359403 0.206722
O O1 0.504463 0.536526 0.125137
O O2 0.084538 0.456351 0.941690
O O3 0.996461 0.198232 0.229886
O O4 0.000000 0.500000 0.000000
O O5 0.884554 0.175924 0.694437
O O6 0.988902 0.150921 0.629952
O O7 0.513982 0.836320 0.774321
O O8 0.084516 0.981787 0.912484
O O9 0.440698 0.151687 0.581445
O O10 0.703208 0.341641 0.400460
O O11 0.000000 0.500000 0.500000
O O12 0.487681 0.976163 0.156630
O O13 0.044142 0.674041 0.173445
O O14 0.500000 0.000000 0.000000
O O15 0.500000 0.500000 0.500000
O O16 0.235468 0.168175 0.600667
O O17 0.993183 0.342656 0.354921
O O18 0.576586 0.371736 0.189721
#
# Coordination Sequence:
#
# PCOD9070795 Si02
#       8
#     2   2   2   2   2   2   2   2
#     4  12  29  49  72 112 152 198 248 305 378 446
#     4  12  26  46  76 106 144 196 247 303 376 442
#     4  12  27  49  71 107 151 194 246 303 373 444
#     4  12  25  46  76 110 144 189 253 306 367 439
#     4  12  26  46  74 113 145 193 251 309 370 443
#     4  12  27  46  75 108 149 198 245 305 376 443
#     4  12  26  49  76 106 151 195 245 313 370 441
#     4  12  26  49  76 109 150 192 251 309 372 443
#
# _framework density 22.499780000000001
#
# number of rings (size 3 to 8) (size 9 to 14) (size 15 to 20)
#    0.000    0.000    5.000    4.500    5.250    2.000 
#    0.000    0.000    0.000    0.000    0.000    0.000 
#    0.000    0.000    0.000    0.000    0.000    0.000 
#
# Total GULP energy -89572.293139 kJ/mol
# GULP energy per Si atom -5598.268321 kJ/mol
# Density = 2.244857 g / cm^3
# Si number density = 22.499780 Si / 1000 Ang^3
#
#
#
# Elastic Constant Matrix: (Units=GPa)
#
#
# Indices 1 2 3 4 5 6 
#
# 1 145.3512 29.4061 53.0260 -19.5576 9.2682 0.5605
# 2 29.4061 78.6155 36.2334 -18.8315 9.9919 12.6853
# 3 53.0260 36.2334 112.4777 -3.9849 -1.2211 13.5308
# 4 -19.5576 -18.8315 -3.9849 49.9680 11.7142 0.0223
# 5 9.2682 9.9919 -1.2211 11.7142 52.9012 -4.8698
# 6 0.5605 12.6853 13.5308 0.0223 -4.8698 30.8351
#
#
#
# Elastic Compliance Matrix: (Units=1/GPa)
#
#
# Indices 1 2 3 4 5 6 
#
# 1 0.009149 -0.000608 -0.004205 0.003537 -0.002223 0.001576
# 2 -0.000608 0.018851 -0.004779 0.007875 -0.005914 -0.006587
# 3 -0.004205 -0.004779 0.012714 -0.002971 0.002299 -0.003171
# 4 0.003537 0.007875 -0.002971 0.026064 -0.008253 -0.003323
# 5 -0.002223 -0.005914 0.002299 -0.008253 0.022757 0.005065
# 6 0.001576 -0.006587 -0.003171 -0.003323 0.005065 0.037306
#
#
# Mechanical properties :
#
#
# Convention : Reuss Voigt Hill
#
# Bulk Modulus (GPa) = 46.44971 63.75282 55.10126
# Shear Modulus (GPa) = 32.63682 41.25944 36.94813
#
# Velocity S-wave (km/s) = 3.81273 4.28690 4.05675
# Velocity P-wave (km/s) = 6.33023 7.27322 6.81805
#
# Compressibility (1/GPa) = 0.02152866
#
# Stress axis : x y z
#
# Youngs Moduli (GPa) = 109.30503 53.04758 78.65426
#
# Poissons Ratio (x) = 0.03227 0.33078
# Poissons Ratio (y) = 0.06650 0.37586
# Poissons Ratio (z) = 0.45968 0.25350
#
# Static dielectric constant tensor:
#      x y z
#    x 1.862260 -0.017290 0.019720 
#    y -0.017290 1.905880 -0.033210 
#    z 0.019720 -0.033210 1.822170 
# 
# From -- ./inp_files/279205.got.cif
#   From: 2010.05.17/outbox.cif.g08.bks.cpg/sg2_140_cif.got.tgz:279205.got - 2010.06.03 11:33:40.
