data_PCOD9070890
_publ_section_title
;
Structure prediction by ZEFSAII (Michael W. Deem and Ramdas Pophale) SiO2 
 PCOD9070890
Probable space group: P -1
;
_chemical_formula_sum "Si O2"
_cell_formula_units_Z 16
_cell_length_a 8.925614
_cell_length_b 9.231617
_cell_length_c 11.458802
_cell_angle_alpha 98.938483
_cell_angle_beta 50.066412
_cell_angle_gamma 95.165322
_cell_volume 715.136328
_symmetry_space_group_name_H-M "P -1"
_symmetry_group_IT_number 2
_symmetry_cell_setting 'triclinic'
loop_
_space_group_symop_operation_xyz
x,y,z
-x,-y,-z
loop_
_atom_site_type_symbol
_atom_site_label
_atom_site_fract_x
_atom_site_fract_y
_atom_site_fract_z
Si Si1 0.199641 0.135141 0.977670
Si Si2 0.455451 0.968837 0.651133
Si Si3 0.760375 0.146010 0.911272
Si Si4 0.827929 0.115024 0.601890
Si Si5 0.107652 0.649178 0.942482
Si Si6 0.505843 0.625330 0.615651
Si Si7 0.410592 0.339676 0.051079
Si Si8 0.113510 0.353074 0.406045
O O1 0.267049 0.046208 0.816686
O O2 0.356792 0.258526 0.948016
O O3 0.003224 0.233124 0.072101
O O4 0.211419 0.011149 0.058910
O O5 0.454094 0.793345 0.630030
O O6 0.500000 0.000000 0.500000
O O7 0.635220 0.039417 0.640627
O O8 0.797135 0.151444 0.757038
O O9 0.892599 0.260477 0.926289
O O10 0.546302 0.221635 0.038431
O O11 0.934297 0.241005 0.492506
O O12 0.000000 0.000000 0.500000
O O13 0.323750 0.597557 0.789080
O O14 0.000000 0.500000 0.000000
O O15 0.500000 0.500000 0.500000
O O16 0.712110 0.643716 0.583336
O O17 0.219136 0.351314 0.228095
O O18 0.500000 0.500000 0.000000
O O19 0.000000 0.500000 0.500000
#
# Coordination Sequence:
#
# PCOD9070890 Si02
#       8
#     2   2   2   2   2   2   2   2
#     4  12  27  47  80 115 147 208 262 321 391 461
#     4  12  29  50  79 114 160 202 258 328 397 472
#     4  12  25  50  77 106 159 197 269 323 376 468
#     4  12  27  47  77 113 147 205 255 315 392 455
#     4  12  29  48  78 113 158 204 261 322 391 470
#     4  12  30  52  73 110 159 203 254 323 400 462
#     4  12  25  47  77 110 154 203 257 323 387 455
#     4  12  28  48  75 112 156 201 259 318 388 467
#
# _framework density 22.373358
#
# number of rings (size 3 to 8) (size 9 to 14) (size 15 to 20)
#    0.000    0.000    5.000    3.000    8.750    0.000 
#    0.000    0.000    0.000    0.000    0.000    0.000 
#    0.000    0.000    0.000    0.000    0.000    0.000 
#
# Total GULP energy -89299.145133 kJ/mol
# GULP energy per Si atom -5581.196571 kJ/mol
# Density = 2.232244 g / cm^3
# Si number density = 22.373358 Si / 1000 Ang^3
#
#
#
# Elastic Constant Matrix: (Units=GPa)
#
#
# Indices 1 2 3 4 5 6 
#
# 1 63.3331 6.8371 3.6463 14.6916 6.3320 13.8707
# 2 6.8371 146.3300 38.6385 6.9184 3.4840 25.6475
# 3 3.6463 38.6385 121.5161 6.1427 8.2212 4.2008
# 4 14.6916 6.9184 6.1427 44.1531 -0.5020 -6.4207
# 5 6.3320 3.4840 8.2212 -0.5020 40.6101 14.3324
# 6 13.8707 25.6475 4.2008 -6.4207 14.3324 47.1469
#
#
#
# Elastic Compliance Matrix: (Units=1/GPa)
#
#
# Indices 1 2 3 4 5 6 
#
# 1 0.018986 0.000698 -0.000137 -0.007397 -0.000703 -0.006747
# 2 0.000698 0.008457 -0.002531 -0.001960 0.001528 -0.005312
# 3 -0.000137 -0.002531 0.009171 -0.000694 -0.002022 0.001120
# 4 -0.007397 -0.001960 -0.000694 0.026544 -0.000730 0.007141
# 5 -0.000703 0.001528 -0.002022 -0.000730 0.028223 -0.009124
# 6 -0.006747 -0.005312 0.001120 0.007141 -0.009124 0.029731
#
#
# Mechanical properties :
#
#
# Convention : Reuss Voigt Hill
#
# Bulk Modulus (GPa) = 30.60459 47.71367 39.15913
# Shear Modulus (GPa) = 36.78025 45.18585 40.98305
#
# Velocity S-wave (km/s) = 4.05894 4.49890 4.28457
# Velocity P-wave (km/s) = 5.97289 6.95408 6.48208
#
# Compressibility (1/GPa) = 0.03267484
#
# Stress axis : x y z
#
# Youngs Moduli (GPa) = 52.67087 118.24809 109.03576
#
# Poissons Ratio (x) = -0.08254 0.01494
# Poissons Ratio (y) = -0.03677 0.27593
# Poissons Ratio (z) = 0.00721 0.29924
#
# Static dielectric constant tensor:
#      x y z
#    x 1.873690 0.032210 -0.071990 
#    y 0.032210 1.688390 0.058810 
#    z -0.071990 0.058810 1.761640 
# 
# From -- ./inp_files/207766.got.cif
#   From: 2010.05.17/outbox.cif.g08.bks.cpg/sg2_104_cif.got.tgz:207766.got - 2010.06.03 11:33:40.
