data_PCOD9070045
_publ_section_title
;
Structure prediction by ZEFSAII (Michael W. Deem and Ramdas Pophale) SiO2 
 PCOD9070045
Probable space group: P -1
;
_chemical_formula_sum "Si O2"
_cell_formula_units_Z 16
_cell_length_a 5.173670
_cell_length_b 11.862487
_cell_length_c 20.928510
_cell_angle_alpha 148.770382
_cell_angle_beta 107.833672
_cell_angle_gamma 71.837918
_cell_volume 630.703074
_symmetry_space_group_name_H-M "P -1"
_symmetry_group_IT_number 2
_symmetry_cell_setting 'triclinic'
loop_
_space_group_symop_operation_xyz
x,y,z
-x,-y,-z
loop_
_atom_site_type_symbol
_atom_site_label
_atom_site_fract_x
_atom_site_fract_y
_atom_site_fract_z
Si Si1 0.723884 0.636013 0.755199
Si Si2 0.777916 0.955325 0.805013
Si Si3 0.185079 0.288147 0.026767
Si Si4 0.873070 0.695273 0.254966
Si Si5 0.893976 0.736994 0.578764
Si Si6 0.739559 0.185343 0.477810
Si Si7 0.691529 0.689981 0.094058
Si Si8 0.689290 0.328016 0.146474
O O1 0.703423 0.747038 0.737984
O O2 0.795292 0.376943 0.624179
O O3 0.451696 0.665029 0.791141
O O4 0.989968 0.737539 0.852619
O O5 0.914182 0.892354 0.716679
O O6 0.500042 0.095436 0.835003
O O7 0.972471 0.110657 0.931425
O O8 0.489415 0.193203 0.023828
O O9 0.124067 0.505228 0.171117
O O10 0.153398 0.359967 0.985291
O O11 0.805565 0.729898 0.191526
O O12 0.682898 0.557025 0.217392
O O13 0.835999 0.944773 0.395979
O O14 0.580611 0.773040 0.546596
O O15 0.000000 0.500000 0.500000
O O16 0.083056 0.784057 0.556868
O O17 0.500000 0.500000 0.000000
#
# Coordination Sequence:
#
# PCOD9070045 Si02
#       8
#     2   2   2   2   2   2   2   2
#     4  12  30  52  75 111 153 210 265 306 376 457
#     4  12  28  46  80 117 154 200 249 322 389 465
#     4  12  26  48  76 113 156 199 253 321 384 451
#     4  12  26  49  77 118 152 201 255 322 387 457
#     4  12  26  48  78 120 156 197 248 315 400 460
#     4  12  28  47  82 112 158 199 255 327 381 452
#     4  12  24  44  77 117 154 189 249 317 398 454
#     4  12  28  53  75 108 157 209 263 311 369 458
#
# _framework density 25.368514999999999
#
# number of rings (size 3 to 8) (size 9 to 14) (size 15 to 20)
#    0.000    0.000    6.250    2.250    5.250    2.000 
#    0.000    0.000    0.000    0.000    0.000    0.000 
#    0.000    0.000    0.000    0.000    0.000    0.000 
#
# Total GULP energy -89495.483157 kJ/mol
# GULP energy per Si atom -5593.467697 kJ/mol
# Density = 2.531077 g / cm^3
# Si number density = 25.368515 Si / 1000 Ang^3
#
#
#
# Elastic Constant Matrix: (Units=GPa)
#
#
# Indices 1 2 3 4 5 6 
#
# 1 155.0492 30.8462 20.8563 -0.1289 -2.5008 19.8418
# 2 30.8462 88.9414 9.7679 5.4485 -5.9284 21.9494
# 3 20.8563 9.7679 92.7241 5.4658 -6.6629 -1.8493
# 4 -0.1289 5.4485 5.4658 41.9532 3.8953 -0.0699
# 5 -2.5008 -5.9284 -6.6629 3.8953 26.5520 -9.5731
# 6 19.8418 21.9494 -1.8493 -0.0699 -9.5731 55.1877
#
#
#
# Elastic Compliance Matrix: (Units=1/GPa)
#
#
# Indices 1 2 3 4 5 6 
#
# 1 0.007299 -0.001946 -0.001582 0.000568 -0.000974 -0.002072
# 2 -0.001946 0.013288 -0.000858 -0.001742 0.001237 -0.004402
# 3 -0.001582 -0.000858 0.011624 -0.001731 0.003518 0.001908
# 4 0.000568 -0.001742 -0.001731 0.024708 -0.004510 -0.000321
# 5 -0.000974 0.001237 0.003518 -0.004510 0.042007 0.007257
# 6 -0.002072 -0.004402 0.001908 -0.000321 0.007257 0.021938
#
#
# Mechanical properties :
#
#
# Convention : Reuss Voigt Hill
#
# Bulk Modulus (GPa) = 42.66441 51.07283 46.86862
# Shear Modulus (GPa) = 36.37698 43.08819 39.73258
#
# Velocity S-wave (km/s) = 3.79085 4.12575 3.96184
# Velocity P-wave (km/s) = 6.00126 6.54765 6.28040
#
# Compressibility (1/GPa) = 0.02343874
#
# Stress axis : x y z
#
# Youngs Moduli (GPa) = 136.99776 75.25552 86.03087
#
# Poissons Ratio (x) = 0.14647 0.13607
# Poissons Ratio (y) = 0.26665 0.07383
# Poissons Ratio (z) = 0.21668 0.06459
#
# Static dielectric constant tensor:
#      x y z
#    x 2.035190 -0.053560 -0.035020 
#    y -0.053560 2.049010 -0.095800 
#    z -0.035020 -0.095800 2.222600 
# 
# From -- ./inp_files/583376.got.cif
#   From: 2010.05.17/outbox.cif.g08.bks.cpg/sg2_292_cif.got.tgz:583376.got - 2010.06.03 11:33:40.
