data_PCOD9070494
_publ_section_title
;
Structure prediction by ZEFSAII (Michael W. Deem and Ramdas Pophale) SiO2 
 PCOD9070494
Probable space group: P -1
;
_chemical_formula_sum "Si O2"
_cell_formula_units_Z 14
_cell_length_a 8.780642
_cell_length_b 10.100150
_cell_length_c 10.416139
_cell_angle_alpha 65.942776
_cell_angle_beta 41.560684
_cell_angle_gamma 66.916113
_cell_volume 553.796738
_symmetry_space_group_name_H-M "P -1"
_symmetry_group_IT_number 2
_symmetry_cell_setting 'triclinic'
loop_
_space_group_symop_operation_xyz
x,y,z
-x,-y,-z
loop_
_atom_site_type_symbol
_atom_site_label
_atom_site_fract_x
_atom_site_fract_y
_atom_site_fract_z
Si Si1 0.976490 0.909159 0.681078
Si Si2 0.368422 0.647314 0.921593
Si Si3 0.191722 0.795858 0.233961
Si Si4 0.276811 0.415591 0.657342
Si Si5 0.696182 0.660600 0.043793
Si Si6 0.559868 0.158500 0.434628
Si Si7 0.915421 0.604530 0.630186
O O1 0.234885 0.854400 0.586789
O O2 0.832018 0.771877 0.832552
O O3 0.000000 0.000000 0.500000
O O4 0.850596 0.029069 0.814542
O O5 0.313363 0.502348 0.940790
O O6 0.352725 0.772069 0.776057
O O7 0.220518 0.712434 0.112142
O O8 0.638165 0.615712 0.808029
O O9 0.430210 0.738715 0.180238
O O10 0.986501 0.752557 0.468766
O O11 0.500000 0.500000 0.500000
O O12 0.211402 0.361856 0.860454
O O13 0.351069 0.274503 0.576622
O O14 0.081616 0.529598 0.667231
O O15 0.500000 0.000000 0.500000
O O16 0.000000 0.500000 0.500000
#
# Coordination Sequence:
#
# PCOD9070494 Si02
#       7
#     2   2   2   2   2   2   2
#     4  12  32  53  81 115 160 219 266 335 416 468
#     4  12  28  52  82 121 161 212 275 328 394 490
#     4  12  27  49  81 117 160 213 269 327 397 490
#     4  12  24  51  79 121 162 202 270 333 398 474
#     4  12  27  52  78 118 161 207 272 338 395 480
#     4  12  28  51  78 116 165 210 266 329 399 486
#     4  12  24  48  85 117 159 215 261 331 405 476
#
# _framework density 25.280031999999999
#
# number of rings (size 3 to 8) (size 9 to 14) (size 15 to 20)
#    0.000    0.000    5.714    2.571    6.000    2.286 
#    5.143    0.000    0.000    0.000    0.000    0.000 
#    0.000    0.000    0.000    0.000    0.000    0.000 
#
# Total GULP energy -78502.272598 kJ/mol
# GULP energy per Si atom -5607.305186 kJ/mol
# Density = 2.522249 g / cm^3
# Si number density = 25.280032 Si / 1000 Ang^3
#
#
#
# Elastic Constant Matrix: (Units=GPa)
#
#
# Indices 1 2 3 4 5 6 
#
# 1 114.3871 27.6989 47.4749 -10.1284 -0.7329 0.0838
# 2 27.6989 215.7326 52.0469 -3.0819 -14.8526 19.1995
# 3 47.4749 52.0469 190.8629 -18.4381 13.8901 7.8948
# 4 -10.1284 -3.0819 -18.4381 49.6151 -4.1562 -9.0843
# 5 -0.7329 -14.8526 13.8901 -4.1562 55.9398 -10.4375
# 6 0.0838 19.1995 7.8948 -9.0843 -10.4375 41.9705
#
#
#
# Elastic Compliance Matrix: (Units=1/GPa)
#
#
# Indices 1 2 3 4 5 6 
#
# 1 0.009997 -0.000777 -0.002247 0.001462 0.000830 0.001281
# 2 -0.000777 0.005313 -0.001325 -0.000572 0.001318 -0.001976
# 3 -0.002247 -0.001325 0.006489 0.001559 -0.002021 -0.000775
# 4 0.001462 -0.000572 0.001559 0.022142 0.002111 0.005283
# 5 0.000830 0.001318 -0.002021 0.002111 0.019861 0.005171
# 6 0.001281 -0.001976 -0.000775 0.005283 0.005171 0.027303
#
#
# Mechanical properties :
#
#
# Convention : Reuss Voigt Hill
#
# Bulk Modulus (GPa) = 76.33059 86.15821 81.24440
# Shear Modulus (GPa) = 47.99832 55.75589 51.87710
#
# Velocity S-wave (km/s) = 4.36209 4.70140 4.53492
# Velocity P-wave (km/s) = 7.45856 7.97662 7.72193
#
# Compressibility (1/GPa) = 0.01310091
#
# Stress axis : x y z
#
# Youngs Moduli (GPa) = 100.03198 188.20721 154.09847
#
# Poissons Ratio (x) = 0.14633 0.34622
# Poissons Ratio (y) = 0.07777 0.20418
# Poissons Ratio (z) = 0.22475 0.24938
#
# Static dielectric constant tensor:
#      x y z
#    x 2.008710 0.094980 0.006600 
#    y 0.094980 2.054580 0.010970 
#    z 0.006600 0.010970 2.087930 
# 
# From -- ./inp_files/376089.got.cif
#   From: 2010.05.17/outbox.cif.g08.bks.cpg/sg2_189_cif.got.tgz:376089.got - 2010.06.03 11:33:40.
