data_PCOD9070642
_publ_section_title
;
Structure prediction by ZEFSAII (Michael W. Deem and Ramdas Pophale) SiO2 
 PCOD9070642
Probable space group: P -1
;
_chemical_formula_sum "Si O2"
_cell_formula_units_Z 10
_cell_length_a 5.388779
_cell_length_b 12.215552
_cell_length_c 18.707234
_cell_angle_alpha 156.053779
_cell_angle_beta 46.990216
_cell_angle_gamma 131.446670
_cell_volume 362.393620
_symmetry_space_group_name_H-M "P -1"
_symmetry_group_IT_number 2
_symmetry_cell_setting 'triclinic'
loop_
_space_group_symop_operation_xyz
x,y,z
-x,-y,-z
loop_
_atom_site_type_symbol
_atom_site_label
_atom_site_fract_x
_atom_site_fract_y
_atom_site_fract_z
Si Si1 0.103337 0.390102 0.517104
Si Si2 0.185298 0.835061 0.421913
Si Si3 0.464016 0.375589 0.999567
Si Si4 0.930247 0.126601 0.876166
Si Si5 0.183512 0.063010 0.078683
O O1 0.500000 0.500000 0.500000
O O2 0.079726 0.261491 0.523117
O O3 0.853454 0.622810 0.707434
O O4 0.986302 0.162158 0.345371
O O5 0.500000 0.000000 0.500000
O O6 0.310662 0.587165 0.208131
O O7 0.000000 0.000000 0.500000
O O8 0.731620 0.232278 0.908758
O O9 0.254742 0.392698 0.967645
O O10 0.138228 0.106423 0.907680
O O11 0.595806 0.067077 0.967259
O O12 0.000000 0.000000 0.000000
#
# Coordination Sequence:
#
# PCOD9070642 Si02
#       5
#     2   2   2   2   2
#     4  12  27  49  78 115 158 206 261 326 395 470
#     4  12  27  49  76 111 153 205 261 322 390 470
#     4  12  25  46  73 106 148 201 256 315 384 464
#     4  12  25  44  70 105 146 194 250 315 382 453
#     4  12  26  46  72 105 148 198 254 318 385 457
#
# _framework density 27.594304999999999
#
# number of rings (size 3 to 8) (size 9 to 14) (size 15 to 20)
#    0.000    0.000    0.000   10.800    0.000    6.400 
#    0.000    0.000    0.000    0.000    0.000    0.000 
#    0.000    0.000    0.000    0.000    0.000    0.000 
#
# Total GULP energy -56032.434634 kJ/mol
# GULP energy per Si atom -5603.243463 kJ/mol
# Density = 2.753150 g / cm^3
# Si number density = 27.594305 Si / 1000 Ang^3
#
#
#
# Elastic Constant Matrix: (Units=GPa)
#
#
# Indices 1 2 3 4 5 6 
#
# 1 295.4472 125.4869 112.9914 14.5103 24.1672 18.8262
# 2 125.4869 257.1933 53.3420 -17.5341 25.8515 -35.4887
# 3 112.9914 53.3420 293.9621 7.5259 24.8099 3.4215
# 4 14.5103 -17.5341 7.5259 48.6432 -5.6808 15.1453
# 5 24.1672 25.8515 24.8099 -5.6808 58.3089 -3.7377
# 6 18.8262 -35.4887 3.4215 15.1453 -3.7377 112.6815
#
#
#
# Elastic Compliance Matrix: (Units=1/GPa)
#
#
# Indices 1 2 3 4 5 6 
#
# 1 0.005238 -0.002507 -0.001433 -0.001896 -0.000724 -0.001390
# 2 -0.002507 0.005632 -0.000039 0.002068 -0.001120 0.001879
# 3 -0.001433 -0.000039 0.004065 -0.000386 -0.001149 0.000118
# 4 -0.001896 0.002068 -0.000386 0.022804 0.002126 -0.002015
# 5 -0.000724 -0.001120 -0.001149 0.002126 0.018651 0.000136
# 6 -0.001390 0.001879 0.000118 -0.002015 0.000136 0.009970
#
#
# Mechanical properties :
#
#
# Convention : Reuss Voigt Hill
#
# Bulk Modulus (GPa) = 143.29663 158.91593 151.10628
# Shear Modulus (GPa) = 65.23615 80.91220 73.07418
#
# Velocity S-wave (km/s) = 4.86749 5.42086 5.15161
# Velocity P-wave (km/s) = 9.14508 9.84358 9.50075
#
# Compressibility (1/GPa) = 0.00697853
#
# Stress axis : x y z
#
# Youngs Moduli (GPa) = 190.89596 177.55165 246.00226
#
# Poissons Ratio (x) = 0.44514 0.35246
# Poissons Ratio (y) = 0.47860 0.00951
# Poissons Ratio (z) = 0.27351 0.00687
#
# Static dielectric constant tensor:
#      x y z
#    x 2.107400 -0.113520 -0.173530 
#    y -0.113520 2.481870 0.289160 
#    z -0.173530 0.289160 2.433630 
# 
# From -- ./inp_files/542001.got.cif
#   From: 2010.05.17/outbox.cif.g08.bks.cpg/sg2_272_cif.got.tgz:542001.got - 2010.06.03 11:33:40.
