data_PCOD9070621
_publ_section_title
;
Structure prediction by ZEFSAII (Michael W. Deem and Ramdas Pophale) SiO2 
 PCOD9070621
Probable space group: P -1
;
_chemical_formula_sum "Si O2"
_cell_formula_units_Z 14
_cell_length_a 9.600063
_cell_length_b 21.753155
_cell_length_c 6.791604
_cell_angle_alpha 128.810743
_cell_angle_beta 51.698091
_cell_angle_gamma 144.543415
_cell_volume 622.074852
_symmetry_space_group_name_H-M "P -1"
_symmetry_group_IT_number 2
_symmetry_cell_setting 'triclinic'
loop_
_space_group_symop_operation_xyz
x,y,z
-x,-y,-z
loop_
_atom_site_type_symbol
_atom_site_label
_atom_site_fract_x
_atom_site_fract_y
_atom_site_fract_z
Si Si1 0.932585 0.756524 0.262698
Si Si2 0.457317 0.542676 0.436001
Si Si3 0.745425 0.095181 0.349802
Si Si4 0.059148 0.098706 0.764617
Si Si5 0.402085 0.779570 0.360400
Si Si6 0.953687 0.356559 0.274622
Si Si7 0.825292 0.398731 0.095266
O O1 0.692723 0.627954 0.262430
O O2 0.895567 0.817980 0.269175
O O3 0.046879 0.821421 0.499003
O O4 0.100036 0.745177 0.978144
O O5 0.500000 0.500000 0.500000
O O6 0.403496 0.614820 0.697494
O O7 0.208860 0.436493 0.332532
O O8 0.662769 0.148961 0.417689
O O9 0.500000 0.000000 0.500000
O O10 0.855808 0.066912 0.038034
O O11 0.313888 0.156317 0.767531
O O12 0.000000 0.000000 0.500000
O O13 0.270148 0.694033 0.484121
O O14 0.264901 0.708449 0.142195
O O15 0.960595 0.420740 0.221813
O O16 0.000000 0.500000 0.000000
#
# Coordination Sequence:
#
# PCOD9070621 Si02
#       7
#     2   2   2   2   2   2   2
#     4  12  26  47  75 107 153 197 251 313 380 450
#     4  12  26  44  73 112 157 197 254 309 374 456
#     4  12  28  52  79 107 150 197 254 325 386 455
#     4  12  30  49  78 116 146 197 262 319 390 458
#     4  12  26  48  77 106 152 196 252 311 379 452
#     4  12  25  46  73 108 149 206 245 300 379 453
#     4  12  25  43  70 104 148 199 250 297 369 452
#
# _framework density 22.505330000000001
#
# number of rings (size 3 to 8) (size 9 to 14) (size 15 to 20)
#    0.000    0.000    4.286    5.143    6.000    4.571 
#    0.000    0.000    0.000    0.000    0.000    0.000 
#    0.000    0.000    0.000    0.000    0.000    0.000 
#
# Total GULP energy -78307.065178 kJ/mol
# GULP energy per Si atom -5593.361798 kJ/mol
# Density = 2.245411 g / cm^3
# Si number density = 22.505330 Si / 1000 Ang^3
#
#
#
# Elastic Constant Matrix: (Units=GPa)
#
#
# Indices 1 2 3 4 5 6 
#
# 1 131.5405 44.7740 53.2961 -12.7739 6.2957 -5.0922
# 2 44.7740 90.1166 47.1173 -9.3472 7.3934 -1.6496
# 3 53.2961 47.1173 144.0685 -6.3866 -15.5449 -9.1422
# 4 -12.7739 -9.3472 -6.3866 36.3655 -5.5746 -1.8942
# 5 6.2957 7.3934 -15.5449 -5.5746 35.1018 -5.0874
# 6 -5.0922 -1.6496 -9.1422 -1.8942 -5.0874 28.6050
#
#
#
# Elastic Compliance Matrix: (Units=1/GPa)
#
#
# Indices 1 2 3 4 5 6 
#
# 1 0.010129 -0.003191 -0.002800 0.001965 -0.002000 0.000498
# 2 -0.003191 0.015501 -0.004463 0.001256 -0.004739 -0.001860
# 3 -0.002800 -0.004463 0.010455 0.000946 0.006781 0.003854
# 4 0.001965 0.001256 0.000946 0.029635 0.005027 0.003581
# 5 -0.002000 -0.004739 0.006781 0.005027 0.034815 0.008063
# 6 0.000498 -0.001860 0.003854 0.003581 0.008063 0.037843
#
#
# Mechanical properties :
#
#
# Convention : Reuss Voigt Hill
#
# Bulk Modulus (GPa) = 65.89447 72.90004 69.39725
# Shear Modulus (GPa) = 30.42382 34.71701 32.57041
#
# Velocity S-wave (km/s) = 3.68074 3.93187 3.80838
# Velocity P-wave (km/s) = 6.88526 7.28529 7.08810
#
# Compressibility (1/GPa) = 0.01517578
#
# Stress axis : x y z
#
# Youngs Moduli (GPa) = 98.72637 64.51395 95.65049
#
# Poissons Ratio (x) = 0.20588 0.26787
# Poissons Ratio (y) = 0.31506 0.42684
# Poissons Ratio (z) = 0.27648 0.28789
#
# Static dielectric constant tensor:
#      x y z
#    x 1.813390 -0.039410 0.025460 
#    y -0.039410 1.806740 0.066270 
#    z 0.025460 0.066270 1.761070 
# 
# From -- ./inp_files/47542.got.cif
#   From: 2010.05.17/outbox.cif.g08.bks.cpg/sg2_24_cif.got.tgz:47542.got - 2010.06.03 11:33:40.
