data_PCOD9070255
_publ_section_title
;
Structure prediction by ZEFSAII (Michael W. Deem and Ramdas Pophale) SiO2 
 PCOD9070255
Probable space group: P -1
;
_chemical_formula_sum "Si O2"
_cell_formula_units_Z 11
_cell_length_a 9.342227
_cell_length_b 9.308931
_cell_length_c 11.703060
_cell_angle_alpha 132.069225
_cell_angle_beta 126.737157
_cell_angle_gamma 38.924234
_cell_volume 468.198801
_symmetry_space_group_name_H-M "P -1"
_symmetry_group_IT_number 2
_symmetry_cell_setting 'triclinic'
loop_
_space_group_symop_operation_xyz
x,y,z
-x,-y,-z
loop_
_atom_site_type_symbol
_atom_site_label
_atom_site_fract_x
_atom_site_fract_y
_atom_site_fract_z
Si Si1 0.491362 0.021201 0.274071
Si Si2 0.736367 0.452513 0.102393
Si Si3 0.813344 0.110251 0.568903
Si Si4 0.500000 0.000000 0.000000
Si Si5 0.005752 0.725002 0.102081
Si Si6 0.943355 0.752060 0.651398
O O1 0.589729 0.158628 0.437581
O O2 0.422863 0.067006 0.133604
O O3 0.283770 0.103146 0.301331
O O4 0.683624 0.719247 0.216964
O O5 0.853721 0.319376 0.206347
O O6 0.500000 0.500000 0.000000
O O7 0.897645 0.296368 0.988213
O O8 0.809495 0.318293 0.741815
O O9 0.903086 0.913694 0.610005
O O10 0.000000 0.000000 0.500000
O O11 0.740439 0.961275 0.122788
O O12 0.000000 0.500000 0.000000
O O13 0.000000 0.500000 0.500000
#
# Coordination Sequence:
#
# PCOD9070255 Si02
#       6
#     2   2   2   1   2   2
#     4  12  26  50  73 110 152 194 253 305 366 458
#     4  12  27  45  75 109 147 198 247 306 373 439
#     4  12  26  47  76 109 147 195 251 304 368 446
#     4  12  24  46  78 106 144 198 246 300 372 434
#     4  12  26  48  73 107 153 193 248 309 371 440
#     4  12  28  48  76 109 150 198 244 310 376 439
#
# _framework density 23.494294
#
# number of rings (size 3 to 8) (size 9 to 14) (size 15 to 20)
#    0.000    0.000    7.273    1.636    5.091    1.455 
#    0.000    1.818    0.000    0.000    0.000    0.000 
#    0.000    0.000    0.000    0.000    0.000    0.000 
#
# Total GULP energy -61361.539014 kJ/mol
# GULP energy per Si atom -5578.321729 kJ/mol
# Density = 2.344082 g / cm^3
# Si number density = 23.494294 Si / 1000 Ang^3
#
#
#
# Elastic Constant Matrix: (Units=GPa)
#
#
# Indices 1 2 3 4 5 6 
#
# 1 171.3016 24.0232 39.9903 -18.5406 -21.5808 -5.8932
# 2 24.0232 28.8958 20.0856 -7.2156 -7.8909 1.2219
# 3 39.9903 20.0856 152.7660 -28.6248 2.5887 15.4455
# 4 -18.5406 -7.2156 -28.6248 45.8926 0.1446 2.2403
# 5 -21.5808 -7.8909 2.5887 0.1446 60.7704 -5.7928
# 6 -5.8932 1.2219 15.4455 2.2403 -5.7928 42.6944
#
#
#
# Elastic Compliance Matrix: (Units=1/GPa)
#
#
# Indices 1 2 3 4 5 6 
#
# 1 0.007227 -0.004229 -0.001307 0.001344 0.002244 0.001825
# 2 -0.004229 0.042759 -0.004150 0.002405 0.004235 0.000142
# 3 -0.001307 -0.004150 0.008658 0.004404 -0.001731 -0.003660
# 4 0.001344 0.002405 0.004404 0.025593 0.000276 -0.002782
# 5 0.002244 0.004235 -0.001731 0.000276 0.018187 0.003268
# 6 0.001825 0.000142 -0.003660 -0.002782 0.003268 0.025584
#
#
# Mechanical properties :
#
#
# Convention : Reuss Voigt Hill
#
# Bulk Modulus (GPa) = 25.46318 57.90684 41.68501
# Shear Modulus (GPa) = 31.15867 47.79576 39.47721
#
# Velocity S-wave (km/s) = 3.64569 4.51528 4.10358
# Velocity P-wave (km/s) = 5.34630 7.20308 6.34300
#
# Compressibility (1/GPa) = 0.03927240
#
# Stress axis : x y z
#
# Youngs Moduli (GPa) = 138.37819 23.38695 115.49667
#
# Poissons Ratio (x) = 0.09890 0.15090
# Poissons Ratio (y) = 0.58517 0.47935
# Poissons Ratio (z) = 0.18080 0.09706
#
# Static dielectric constant tensor:
#      x y z
#    x 1.856260 -0.032970 0.064020 
#    y -0.032970 1.998100 0.012760 
#    z 0.064020 0.012760 1.959620 
# 
# From -- ./inp_files/17148.got.cif
#   From: 2010.05.17/outbox.cif.g08.bks.cpg/sg2_9_cif.got.tgz:17148.got - 2010.06.03 11:33:40.
