data_PCOD9070169
_publ_section_title
;
Structure prediction by ZEFSAII (Michael W. Deem and Ramdas Pophale) SiO2 
 PCOD9070169
Probable space group: P -1
;
_chemical_formula_sum "Si O2"
_cell_formula_units_Z 16
_cell_length_a 8.733701
_cell_length_b 9.322288
_cell_length_c 11.940625
_cell_angle_alpha 99.146003
_cell_angle_beta 105.446580
_cell_angle_gamma 47.070599
_cell_volume 685.766837
_symmetry_space_group_name_H-M "P -1"
_symmetry_group_IT_number 2
_symmetry_cell_setting 'triclinic'
loop_
_space_group_symop_operation_xyz
x,y,z
-x,-y,-z
loop_
_atom_site_type_symbol
_atom_site_label
_atom_site_fract_x
_atom_site_fract_y
_atom_site_fract_z
Si Si1 0.883992 0.755480 0.157597
Si Si2 0.285309 0.206676 0.526125
Si Si3 0.671192 0.170409 0.266512
Si Si4 0.094584 0.786186 0.523774
Si Si5 0.365526 0.583598 0.872722
Si Si6 0.069515 0.123281 0.059788
Si Si7 0.539367 0.785941 0.203922
Si Si8 0.257953 0.455156 0.361431
O O1 0.694226 0.754254 0.132789
O O2 0.089452 0.566826 0.240501
O O3 0.807330 0.945159 0.237571
O O4 0.922860 0.787015 0.042403
O O5 0.352060 0.223496 0.662684
O O6 0.211484 0.372564 0.442863
O O7 0.099847 0.203144 0.498961
O O8 0.500000 0.000000 0.500000
O O9 0.793481 0.239929 0.342170
O O10 0.586128 0.286521 0.149395
O O11 0.483883 0.266229 0.331021
O O12 0.248675 0.618765 0.440523
O O13 0.000000 0.000000 0.500000
O O14 0.456616 0.389379 0.801649
O O15 0.117851 0.711264 0.872827
O O16 0.500000 0.500000 0.000000
O O17 0.298806 0.982326 0.149702
O O18 0.000000 0.000000 0.000000
#
# Coordination Sequence:
#
# PCOD9070169 Si02
#       8
#     2   2   2   2   2   2   2   2
#     4  12  26  49  74 112 150 194 251 308 374 449
#     4  12  28  49  77 113 156 201 249 301 378 453
#     4  12  26  45  74 105 150 197 248 306 371 439
#     4  12  24  46  72 109 149 194 251 301 364 442
#     4  12  26  47  76 110 141 190 255 311 371 438
#     4  12  26  49  80 107 144 195 250 314 374 439
#     4  12  27  48  76 108 152 193 247 309 375 445
#     4  12  26  47  73 108 157 195 250 304 374 439
#
# _framework density 23.331544999999998
#
# number of rings (size 3 to 8) (size 9 to 14) (size 15 to 20)
#    0.000    0.000    5.000    4.125    3.500    2.500 
#    0.000    0.000    0.000    0.000    0.000    0.000 
#    0.000    0.000    0.000    0.000    0.000    0.000 
#
# Total GULP energy -89532.004815 kJ/mol
# GULP energy per Si atom -5595.750301 kJ/mol
# Density = 2.327844 g / cm^3
# Si number density = 23.331545 Si / 1000 Ang^3
#
#
#
# Elastic Constant Matrix: (Units=GPa)
#
#
# Indices 1 2 3 4 5 6 
#
# 1 98.8543 22.0809 37.5566 -15.1354 -4.6688 -5.0552
# 2 22.0809 87.5829 18.2379 -19.2361 -11.2647 0.0188
# 3 37.5566 18.2379 77.3909 -31.8858 -14.6290 4.9532
# 4 -15.1354 -19.2361 -31.8858 41.7047 1.5362 -9.1311
# 5 -4.6688 -11.2647 -14.6290 1.5362 49.4257 -2.8497
# 6 -5.0552 0.0188 4.9532 -9.1311 -2.8497 39.9708
#
#
#
# Elastic Compliance Matrix: (Units=1/GPa)
#
#
# Indices 1 2 3 4 5 6 
#
# 1 0.013006 -0.002228 -0.006403 -0.000681 -0.001026 0.002211
# 2 -0.002228 0.013564 0.001012 0.006386 0.003055 0.001263
# 3 -0.006403 0.001012 0.023498 0.015963 0.006105 0.000360
# 4 -0.000681 0.006386 0.015963 0.040333 0.005296 0.007524
# 5 -0.001026 0.003055 0.006105 0.005296 0.022586 0.001932
# 6 0.002211 0.001263 0.000360 0.007524 0.001932 0.027109
#
#
# Mechanical properties :
#
#
# Convention : Reuss Voigt Hill
#
# Bulk Modulus (GPa) = 28.70946 46.61989 37.66467
# Shear Modulus (GPa) = 29.95037 38.61708 34.28372
#
# Velocity S-wave (km/s) = 3.58674 4.07276 3.83745
# Velocity P-wave (km/s) = 5.42998 6.49164 5.98440
#
# Compressibility (1/GPa) = 0.03483173
#
# Stress axis : x y z
#
# Youngs Moduli (GPa) = 76.88537 73.72592 42.55725
#
# Poissons Ratio (x) = 0.16424 0.27248
# Poissons Ratio (y) = 0.17128 -0.04308
# Poissons Ratio (z) = 0.49226 -0.07463
#
# Static dielectric constant tensor:
#      x y z
#    x 1.879290 -0.003120 0.007030 
#    y -0.003120 1.897890 -0.096730 
#    z 0.007030 -0.096730 2.164500 
# 
# From -- ./inp_files/382377.got.cif
#   From: 2010.05.17/outbox.cif.g08.bks.cpg/sg2_192_cif.got.tgz:382377.got - 2010.06.03 11:33:40.
