data_PCOD9070249
_publ_section_title
;
Structure prediction by ZEFSAII (Michael W. Deem and Ramdas Pophale) SiO2 
 PCOD9070249
Probable space group: P -1
;
_chemical_formula_sum "Si O2"
_cell_formula_units_Z 15
_cell_length_a 11.877264
_cell_length_b 9.037929
_cell_length_c 11.119095
_cell_angle_alpha 112.976026
_cell_angle_beta 102.233863
_cell_angle_gamma 37.714100
_cell_volume 662.198248
_symmetry_space_group_name_H-M "P -1"
_symmetry_group_IT_number 2
_symmetry_cell_setting 'triclinic'
loop_
_space_group_symop_operation_xyz
x,y,z
-x,-y,-z
loop_
_atom_site_type_symbol
_atom_site_label
_atom_site_fract_x
_atom_site_fract_y
_atom_site_fract_z
Si Si1 0.913721 0.194974 0.651064
Si Si2 0.082350 0.553083 0.819838
Si Si3 0.765669 0.703226 0.711567
Si Si4 0.702277 0.855234 0.479767
Si Si5 0.243179 0.859741 0.811328
Si Si6 0.427705 0.642805 0.399965
Si Si7 0.000000 0.000000 0.000000
Si Si8 0.605832 0.945019 0.124436
O O1 0.859674 0.427759 0.663673
O O2 0.725183 0.307733 0.676992
O O3 0.000000 0.000000 0.500000
O O4 0.059652 0.048398 0.745335
O O5 0.184142 0.358622 0.666518
O O6 0.209238 0.359993 0.900231
O O7 0.877179 0.699985 0.823112
O O8 0.073790 0.752796 0.873230
O O9 0.793115 0.736121 0.593608
O O10 0.548738 0.917454 0.763342
O O11 0.500000 0.000000 0.500000
O O12 0.666829 0.081168 0.515607
O O13 0.392018 0.562284 0.709122
O O14 0.337022 0.930963 0.832489
O O15 0.167921 0.918061 0.945809
O O16 0.500000 0.500000 0.500000
O O17 0.500000 0.000000 0.000000
#
# Coordination Sequence:
#
# PCOD9070249 Si02
#       8
#     2   2   2   2   2   2   1   2
#     4  12  25  42  80 115 151 193 250 313 400 462
#     4  12  27  52  74 111 155 199 260 317 382 467
#     4  12  26  47  77 115 150 201 250 317 401 455
#     4  12  25  46  79 115 158 197 251 324 397 460
#     4  12  27  51  74 113 157 198 259 321 379 471
#     4  12  24  46  77 118 157 194 248 319 391 458
#     4  12  32  48  76 104 154 210 254 314 378 454
#     4  12  27  51  79 105 147 212 261 316 378 460
#
# _framework density 22.651827000000001
#
# number of rings (size 3 to 8) (size 9 to 14) (size 15 to 20)
#    0.000    0.000    5.333    4.400    5.600    1.067 
#    0.000    2.000    0.000    0.000    0.000    0.000 
#    0.000    0.000    0.000    0.000    0.000    0.000 
#
# Total GULP energy -83774.904413 kJ/mol
# GULP energy per Si atom -5584.993628 kJ/mol
# Density = 2.260027 g / cm^3
# Si number density = 22.651827 Si / 1000 Ang^3
#
#
#
# Elastic Constant Matrix: (Units=GPa)
#
#
# Indices 1 2 3 4 5 6 
#
# 1 141.9941 48.9289 39.3668 10.2960 18.5025 -6.8935
# 2 48.9289 101.6151 41.1992 12.9512 26.0326 -0.4182
# 3 39.3668 41.1992 94.3641 18.0848 5.8911 5.7684
# 4 10.2960 12.9512 18.0848 30.9693 -3.7836 14.9363
# 5 18.5025 26.0326 5.8911 -3.7836 59.0412 9.3311
# 6 -6.8935 -0.4182 5.7684 14.9363 9.3311 48.3662
#
#
#
# Elastic Compliance Matrix: (Units=1/GPa)
#
#
# Indices 1 2 3 4 5 6 
#
# 1 0.009134 -0.002694 -0.002271 -0.002066 -0.001987 0.002571
# 2 -0.002694 0.015144 -0.004297 -0.005159 -0.006217 0.003052
# 3 -0.002271 -0.004297 0.014455 -0.005511 0.000899 -0.000557
# 4 -0.002066 -0.005159 -0.005511 0.047166 0.009022 -0.015988
# 5 -0.001987 -0.006217 0.000899 0.009022 0.021970 -0.007469
# 6 0.002571 0.003052 -0.000557 -0.015988 -0.007469 0.027513
#
#
# Mechanical properties :
#
#
# Convention : Reuss Voigt Hill
#
# Bulk Modulus (GPa) = 49.48881 66.32922 57.90901
# Shear Modulus (GPa) = 31.12490 41.57390 36.34940
#
# Velocity S-wave (km/s) = 3.71085 4.28874 4.01022
# Velocity P-wave (km/s) = 6.34473 7.33962 6.86023
#
# Compressibility (1/GPa) = 0.02020659
#
# Stress axis : x y z
#
# Youngs Moduli (GPa) = 109.47853 66.03433 69.18025
#
# Poissons Ratio (x) = 0.17793 0.15713
# Poissons Ratio (y) = 0.29499 0.29729
# Poissons Ratio (z) = 0.24867 0.28377
#
# Static dielectric constant tensor:
#      x y z
#    x 1.882570 -0.030850 -0.031430 
#    y -0.030850 1.785470 -0.010390 
#    z -0.031430 -0.010390 1.867680 
# 
# From -- ./inp_files/418187.got.cif
#   From: 2010.05.17/outbox.cif.g08.bks.cpg/sg2_210_cif.got.tgz:418187.got - 2010.06.03 11:33:40.
