data_PCOD9070958
_publ_section_title
;
Structure prediction by ZEFSAII (Michael W. Deem and Ramdas Pophale) SiO2 
 PCOD9070958
Probable space group: P -1
;
_chemical_formula_sum "Si O2"
_cell_formula_units_Z 16
_cell_length_a 14.047301
_cell_length_b 8.744346
_cell_length_c 5.577846
_cell_angle_alpha 102.296220
_cell_angle_beta 95.656700
_cell_angle_gamma 73.796892
_cell_volume 642.283557
_symmetry_space_group_name_H-M "P -1"
_symmetry_group_IT_number 2
_symmetry_cell_setting 'triclinic'
loop_
_space_group_symop_operation_xyz
x,y,z
-x,-y,-z
loop_
_atom_site_type_symbol
_atom_site_label
_atom_site_fract_x
_atom_site_fract_y
_atom_site_fract_z
Si Si1 0.893271 0.973211 0.407179
Si Si2 0.705030 0.178510 0.663920
Si Si3 0.842742 0.257618 0.112389
Si Si4 0.587493 0.402230 0.324263
Si Si5 0.581720 0.082630 0.944172
Si Si6 0.751263 0.766218 0.842758
Si Si7 0.275177 0.403106 0.715314
Si Si8 0.038490 0.309306 0.972413
O O1 0.914712 0.785524 0.285716
O O2 0.798809 0.029981 0.573749
O O3 0.859418 0.097681 0.220436
O O4 0.000000 0.000000 0.500000
O O5 0.676428 0.306440 0.487348
O O6 0.750385 0.260976 0.917467
O O7 0.605133 0.126520 0.690511
O O8 0.815409 0.433896 0.290197
O O9 0.945104 0.243912 0.995975
O O10 0.500000 0.500000 0.500000
O O11 0.563168 0.255852 0.125298
O O12 0.625696 0.534198 0.230955
O O13 0.500000 0.000000 0.000000
O O14 0.686465 0.946274 0.960912
O O15 0.716469 0.707398 0.559893
O O16 0.738508 0.664974 0.046386
O O17 0.869196 0.740689 0.841849
O O18 0.000000 0.500000 0.000000
#
# Coordination Sequence:
#
# PCOD9070958 Si02
#       8
#     2   2   2   2   2   2   2   2
#     4  12  27  45  79 107 155 215 271 320 390 489
#     4  12  25  50  81 110 160 202 275 325 402 480
#     4  12  25  48  74 112 155 212 268 324 393 476
#     4  12  28  50  84 113 148 213 270 336 400 491
#     4  12  30  52  79 114 155 205 265 341 413 483
#     4  12  30  51  77 118 168 211 260 339 405 474
#     4  12  27  51  81 112 162 212 271 326 403 480
#     4  12  27  45  71 116 160 206 261 327 394 464
#
# _framework density 24.911114999999999
#
# number of rings (size 3 to 8) (size 9 to 14) (size 15 to 20)
#    0.000    0.000    5.000    3.375    8.750    1.500 
#    0.000    0.000    0.000    0.000    0.000    0.000 
#    0.000    0.000    0.000    0.000    0.000    0.000 
#
# Total GULP energy -89473.892902 kJ/mol
# GULP energy per Si atom -5592.118306 kJ/mol
# Density = 2.485442 g / cm^3
# Si number density = 24.911115 Si / 1000 Ang^3
#
#
#
# Elastic Constant Matrix: (Units=GPa)
#
#
# Indices 1 2 3 4 5 6 
#
# 1 105.7741 16.4668 26.8748 14.3572 -30.6478 7.8786
# 2 16.4668 110.4992 36.7636 28.4856 -5.5375 -17.0740
# 3 26.8748 36.7636 96.7456 20.6409 -17.5135 7.2782
# 4 14.3572 28.4856 20.6409 63.5974 -4.4542 -11.7669
# 5 -30.6478 -5.5375 -17.5135 -4.4542 46.0257 4.4185
# 6 7.8786 -17.0740 7.2782 -11.7669 4.4185 50.0113
#
#
#
# Elastic Compliance Matrix: (Units=1/GPa)
#
#
# Indices 1 2 3 4 5 6 
#
# 1 0.012783 -0.001187 -0.000903 -0.002140 0.008156 -0.003512
# 2 -0.001187 0.011998 -0.004202 -0.003059 -0.001657 0.004321
# 3 -0.000903 -0.004202 0.013926 -0.002944 0.004329 -0.004394
# 4 -0.002140 -0.003059 -0.002944 0.019239 -0.001471 0.004378
# 5 0.008156 -0.001657 0.004329 -0.001471 0.028981 -0.005387
# 6 -0.003512 0.004321 -0.004394 0.004378 -0.005387 0.024170
#
#
# Mechanical properties :
#
#
# Convention : Reuss Voigt Hill
#
# Bulk Modulus (GPa) = 38.27867 52.58103 45.42985
# Shear Modulus (GPa) = 37.76750 47.45447 42.61098
#
# Velocity S-wave (km/s) = 3.89792 4.36931 4.14033
# Velocity P-wave (km/s) = 5.97142 6.82699 6.41349
#
# Compressibility (1/GPa) = 0.02612421
#
# Stress axis : x y z
#
# Youngs Moduli (GPa) = 78.22590 83.34779 71.80657
#
# Poissons Ratio (x) = 0.09893 0.06484
# Poissons Ratio (y) = 0.09285 0.30173
# Poissons Ratio (z) = 0.07063 0.35022
#
# Static dielectric constant tensor:
#      x y z
#    x 2.015500 0.043160 -0.004950 
#    y 0.043160 2.003530 0.026020 
#    z -0.004950 0.026020 2.066140 
# 
# From -- ./inp_files/90735.got.cif
#   From: 2010.05.17/outbox.cif.g08.bks.cpg/sg2_46_cif.got.tgz:90735.got - 2010.06.03 11:33:40.
