data_PCOD9070425
_publ_section_title
;
Structure prediction by ZEFSAII (Michael W. Deem and Ramdas Pophale) SiO2 
 PCOD9070425
Probable space group: P -1
;
_chemical_formula_sum "Si O2"
_cell_formula_units_Z 16
_cell_length_a 9.945989
_cell_length_b 15.733535
_cell_length_c 8.982822
_cell_angle_alpha 123.538790
_cell_angle_beta 61.104110
_cell_angle_gamma 144.971413
_cell_volume 671.116559
_symmetry_space_group_name_H-M "P -1"
_symmetry_group_IT_number 2
_symmetry_cell_setting 'triclinic'
loop_
_space_group_symop_operation_xyz
x,y,z
-x,-y,-z
loop_
_atom_site_type_symbol
_atom_site_label
_atom_site_fract_x
_atom_site_fract_y
_atom_site_fract_z
Si Si1 0.650510 0.161996 0.822408
Si Si2 0.097547 0.744467 0.921485
Si Si3 0.737056 0.866065 0.949513
Si Si4 0.943968 0.432826 0.713334
Si Si5 0.308046 0.352127 0.062557
Si Si6 0.612153 0.478658 0.538574
Si Si7 0.574586 0.142217 0.407847
Si Si8 0.753202 0.861401 0.578275
O O1 0.854947 0.337897 0.821598
O O2 0.596838 0.036935 0.627444
O O3 0.737084 0.166169 0.938709
O O4 0.419897 0.114582 0.917666
O O5 0.244966 0.817182 0.763308
O O6 0.971413 0.568957 0.826212
O O7 0.926632 0.755533 0.013266
O O8 0.622366 0.719578 0.971095
O O9 0.751645 0.855115 0.753359
O O10 0.000000 0.000000 0.000000
O O11 0.734796 0.288585 0.575804
O O12 0.195833 0.506303 0.610692
O O13 0.263697 0.398582 0.277128
O O14 0.500000 0.500000 0.000000
O O15 0.500000 0.500000 0.500000
O O16 0.384693 0.308833 0.562539
O O17 0.413704 0.134419 0.388410
O O18 0.000000 0.000000 0.500000
#
# Coordination Sequence:
#
# PCOD9070425 Si02
#       8
#     2   2   2   2   2   2   2   2
#     4  12  28  45  77 108 148 192 249 304 370 435
#     4  12  24  48  74 103 144 193 245 303 362 436
#     4  12  28  49  69 108 155 191 241 306 365 438
#     4  12  26  48  77 108 144 194 248 305 369 439
#     4  12  28  45  76 107 147 194 244 300 373 435
#     4  12  26  48  74 105 147 190 246 305 362 436
#     4  12  25  47  73 106 148 192 245 302 366 432
#     4  12  29  48  76 108 150 196 243 303 373 438
#
# _framework density 23.840865999999998
#
# number of rings (size 3 to 8) (size 9 to 14) (size 15 to 20)
#    0.000    0.000    5.000    3.750    8.750    0.000 
#    0.000    0.000    0.000    0.000    0.000    0.000 
#    0.000    0.000    0.000    0.000    0.000    0.000 
#
# Total GULP energy -89539.112480 kJ/mol
# GULP energy per Si atom -5596.194530 kJ/mol
# Density = 2.378660 g / cm^3
# Si number density = 23.840866 Si / 1000 Ang^3
#
#
#
# Elastic Constant Matrix: (Units=GPa)
#
#
# Indices 1 2 3 4 5 6 
#
# 1 163.7609 32.8368 32.3783 6.3025 15.2031 3.0628
# 2 32.8368 118.7842 1.8957 6.0326 -2.4417 -15.1554
# 3 32.3783 1.8957 48.4883 12.1719 18.0793 -2.5866
# 4 6.3025 6.0326 12.1719 44.0761 3.8114 -3.2077
# 5 15.2031 -2.4417 18.0793 3.8114 24.7898 2.3161
# 6 3.0628 -15.1554 -2.5866 -3.2077 2.3161 50.8162
#
#
#
# Elastic Compliance Matrix: (Units=1/GPa)
#
#
# Indices 1 2 3 4 5 6 
#
# 1 0.007617 -0.002250 -0.004656 0.000539 -0.001462 -0.001267
# 2 -0.002250 0.009481 0.001032 -0.001179 0.001474 0.002874
# 3 -0.004656 0.001032 0.033135 -0.006655 -0.020445 0.002787
# 4 0.000539 -0.001179 -0.006655 0.024622 0.000546 0.000806
# 5 -0.001462 0.001474 -0.020445 0.000546 0.056493 -0.003053
# 6 -0.001267 0.002874 0.002787 0.000806 -0.003053 0.020944
#
#
# Mechanical properties :
#
#
# Convention : Reuss Voigt Hill
#
# Bulk Modulus (GPa) = 25.98531 51.69499 38.84015
# Shear Modulus (GPa) = 28.26946 41.53126 34.90036
#
# Velocity S-wave (km/s) = 3.44722 4.17828 3.83023
# Velocity P-wave (km/s) = 5.17374 6.70878 5.99063
#
# Compressibility (1/GPa) = 0.03848328
#
# Stress axis : x y z
#
# Youngs Moduli (GPa) = 131.28646 105.47247 30.17971
#
# Poissons Ratio (x) = 0.23735 0.14052
# Poissons Ratio (y) = 0.29544 -0.03113
# Poissons Ratio (z) = 0.61128 -0.10880
#
# Static dielectric constant tensor:
#      x y z
#    x 1.913820 0.021580 -0.008720 
#    y 0.021580 2.027760 -0.020020 
#    z -0.008720 -0.020020 1.947710 
# 
# From -- ./inp_files/208241.got.cif
#   From: 2010.05.17/outbox.cif.g08.bks.cpg/sg2_105_cif.got.tgz:208241.got - 2010.06.03 11:33:40.
