data_PCOD9070908
_publ_section_title
;
Structure prediction by ZEFSAII (Michael W. Deem and Ramdas Pophale) SiO2 
 PCOD9070908
Probable space group: P -1
;
_chemical_formula_sum "Si O2"
_cell_formula_units_Z 16
_cell_length_a 5.508387
_cell_length_b 23.127012
_cell_length_c 11.843370
_cell_angle_alpha 148.526820
_cell_angle_beta 59.686560
_cell_angle_gamma 109.582338
_cell_volume 664.641783
_symmetry_space_group_name_H-M "P -1"
_symmetry_group_IT_number 2
_symmetry_cell_setting 'triclinic'
loop_
_space_group_symop_operation_xyz
x,y,z
-x,-y,-z
loop_
_atom_site_type_symbol
_atom_site_label
_atom_site_fract_x
_atom_site_fract_y
_atom_site_fract_z
Si Si1 0.356188 0.131991 0.256578
Si Si2 0.827584 0.224974 0.169218
Si Si3 0.604682 0.930192 0.247243
Si Si4 0.787962 0.412765 0.656335
Si Si5 0.249088 0.550459 0.870255
Si Si6 0.334596 0.147065 0.551527
Si Si7 0.264812 0.736255 0.000859
Si Si8 0.219367 0.719235 0.345730
O O1 0.539436 0.199790 0.249796
O O2 0.349802 0.162863 0.441235
O O3 0.022698 0.176666 0.377248
O O4 0.500000 0.000000 0.000000
O O5 0.938208 0.308020 0.368423
O O6 0.783335 0.279375 0.146527
O O7 0.054495 0.105976 0.905755
O O8 0.495398 0.814521 0.085085
O O9 0.500000 0.000000 0.500000
O O10 0.458725 0.015158 0.326445
O O11 0.528562 0.479678 0.751199
O O12 0.667494 0.361375 0.710159
O O13 0.020223 0.481682 0.761619
O O14 0.337942 0.621698 0.864057
O O15 0.106394 0.640265 0.149499
O O16 0.544626 0.225271 0.679213
O O17 0.027297 0.189616 0.751610
#
# Coordination Sequence:
#
# PCOD9070908 Si02
#       8
#     2   2   2   2   2   2   2   2
#     4  12  27  45  78 118 160 205 252 327 401 470
#     4  12  29  49  75 117 164 202 260 331 399 470
#     4  12  27  46  79 112 158 210 258 315 398 484
#     4  12  29  50  81 118 157 210 267 345 400 451
#     4  12  28  51  83 113 154 217 274 327 397 473
#     4  12  25  47  79 116 153 206 261 313 398 482
#     4  12  28  49  79 113 159 208 268 323 388 484
#     4  12  26  50  80 116 160 202 268 326 396 483
#
# _framework density 24.073118999999998
#
# number of rings (size 3 to 8) (size 9 to 14) (size 15 to 20)
#    0.000    0.000    3.750    4.875    8.750    2.000 
#    0.000    0.000    0.000    0.000    0.000    0.000 
#    0.000    0.000    0.000    0.000    0.000    0.000 
#
# Total GULP energy -89671.422331 kJ/mol
# GULP energy per Si atom -5604.463896 kJ/mol
# Density = 2.401833 g / cm^3
# Si number density = 24.073119 Si / 1000 Ang^3
#
#
#
# Elastic Constant Matrix: (Units=GPa)
#
#
# Indices 1 2 3 4 5 6 
#
# 1 89.9558 41.6198 17.8999 4.1519 -9.4542 -8.9504
# 2 41.6198 157.5291 16.9606 -0.2159 -8.0150 -20.6839
# 3 17.8999 16.9606 89.2327 -10.3494 4.1922 -12.6151
# 4 4.1519 -0.2159 -10.3494 47.0133 -3.2834 -0.7698
# 5 -9.4542 -8.0150 4.1922 -3.2834 46.9564 4.4654
# 6 -8.9504 -20.6839 -12.6151 -0.7698 4.4654 44.0537
#
#
#
# Elastic Compliance Matrix: (Units=1/GPa)
#
#
# Indices 1 2 3 4 5 6 
#
# 1 0.013363 -0.003126 -0.002324 -0.001545 0.002225 0.000329
# 2 -0.003126 0.007607 -0.000413 0.000298 0.000463 0.002776
# 3 -0.002324 -0.000413 0.012621 0.002911 -0.001764 0.003178
# 4 -0.001545 0.000298 0.002911 0.022130 0.000937 0.000951
# 5 0.002225 0.000463 -0.001764 0.000937 0.022244 -0.002074
# 6 0.000329 0.002776 0.003178 0.000951 -0.002074 0.025207
#
#
# Mechanical properties :
#
#
# Convention : Reuss Voigt Hill
#
# Bulk Modulus (GPa) = 45.73572 54.40869 50.07221
# Shear Modulus (GPa) = 40.92111 44.95385 42.93748
#
# Velocity S-wave (km/s) = 4.12742 4.32602 4.22788
# Velocity P-wave (km/s) = 6.46173 6.89950 6.68420
#
# Compressibility (1/GPa) = 0.02186475
#
# Stress axis : x y z
#
# Youngs Moduli (GPa) = 74.83225 131.45837 79.23294
#
# Poissons Ratio (x) = 0.41095 0.18411
# Poissons Ratio (y) = 0.23393 0.03276
# Poissons Ratio (z) = 0.17388 0.05436
#
# Static dielectric constant tensor:
#      x y z
#    x 2.014600 -0.039370 0.001550 
#    y -0.039370 1.887690 0.017350 
#    z 0.001550 0.017350 1.928570 
# 
# From -- ./inp_files/371080.got.cif
#   From: 2010.05.17/outbox.cif.g08.bks.cpg/sg2_186_cif.got.tgz:371080.got - 2010.06.03 11:33:40.
