data_PCOD9070713
_publ_section_title
;
Structure prediction by ZEFSAII (Michael W. Deem and Ramdas Pophale) SiO2 
 PCOD9070713
Probable space group: P -1
;
_chemical_formula_sum "Si O2"
_cell_formula_units_Z 15
_cell_length_a 15.270705
_cell_length_b 5.281439
_cell_length_c 12.271608
_cell_angle_alpha 114.240296
_cell_angle_beta 131.995328
_cell_angle_gamma 54.280843
_cell_volume 596.866108
_symmetry_space_group_name_H-M "P -1"
_symmetry_group_IT_number 2
_symmetry_cell_setting 'triclinic'
loop_
_space_group_symop_operation_xyz
x,y,z
-x,-y,-z
loop_
_atom_site_type_symbol
_atom_site_label
_atom_site_fract_x
_atom_site_fract_y
_atom_site_fract_z
Si Si1 0.891877 0.694863 0.533615
Si Si2 0.629835 0.693445 0.019038
Si Si3 0.310547 0.647699 0.545435
Si Si4 0.260998 0.639187 0.740161
Si Si5 0.903364 0.723419 0.201573
Si Si6 0.000000 0.500000 0.000000
Si Si7 0.282842 0.156324 0.295577
Si Si8 0.412964 0.430656 0.286427
O O1 0.772464 0.630357 0.379625
O O2 0.000000 0.500000 0.500000
O O3 0.968563 0.542484 0.680792
O O4 0.829220 0.065041 0.551472
O O5 0.608806 0.605074 0.865318
O O6 0.655034 0.452371 0.096254
O O7 0.769612 0.708646 0.127104
O O8 0.500000 0.000000 0.000000
O O9 0.326220 0.689562 0.694593
O O10 0.303094 0.337498 0.447168
O O11 0.434942 0.646473 0.588038
O O12 0.125923 0.941121 0.714048
O O13 0.920208 0.686810 0.079883
O O14 0.136318 0.320691 0.152936
O O15 0.373386 0.209661 0.287562
O O16 0.323154 0.800552 0.295803
#
# Coordination Sequence:
#
# PCOD9070713 Si02
#       8
#     2   2   2   2   2   1   2   2
#     4  12  25  45  74 115 152 198 263 334 404 479
#     4  12  27  48  80 112 157 208 268 335 403 478
#     4  12  29  49  81 113 156 212 268 335 409 479
#     4  12  25  46  76 111 153 204 264 333 406 480
#     4  12  26  49  73 114 156 205 264 330 405 485
#     4  12  28  50  80 112 162 212 268 330 406 482
#     4  12  30  53  83 116 164 214 274 330 405 490
#     4  12  29  55  79 118 165 213 275 332 401 490
#
# _framework density 25.131263000000001
#
# number of rings (size 3 to 8) (size 9 to 14) (size 15 to 20)
#    0.000    0.000    4.000    4.400    9.333    2.667 
#    0.000    0.000    0.000    0.000    0.000    0.000 
#    0.000    0.000    0.000    0.000    0.000    0.000 
#
# Total GULP energy -83776.112195 kJ/mol
# GULP energy per Si atom -5585.074146 kJ/mol
# Density = 2.507406 g / cm^3
# Si number density = 25.131263 Si / 1000 Ang^3
#
#
#
# Elastic Constant Matrix: (Units=GPa)
#
#
# Indices 1 2 3 4 5 6 
#
# 1 91.1850 3.2708 27.1871 -4.0623 -20.5773 -26.7462
# 2 3.2708 66.9155 6.2506 6.6824 -9.5752 -10.1406
# 3 27.1871 6.2506 120.3646 6.5136 -38.3070 -7.5413
# 4 -4.0623 6.6824 6.5136 40.2733 -16.0100 -3.6996
# 5 -20.5773 -9.5752 -38.3070 -16.0100 63.2628 2.7090
# 6 -26.7462 -10.1406 -7.5413 -3.6996 2.7090 35.2100
#
#
#
# Elastic Compliance Matrix: (Units=1/GPa)
#
#
# Indices 1 2 3 4 5 6 
#
# 1 0.016576 0.001551 -0.001578 0.004987 0.005384 0.012810
# 2 0.001551 0.016162 -0.000008 -0.001044 0.002444 0.005533
# 3 -0.001578 -0.000008 0.010590 0.000582 0.006017 0.000665
# 4 0.004987 -0.001044 0.000582 0.029559 0.009039 0.006023
# 5 0.005384 0.002444 0.006017 0.009039 0.023636 0.005214
# 6 0.012810 0.005533 0.000665 0.006023 0.005214 0.040099
#
#
# Mechanical properties :
#
#
# Convention : Reuss Voigt Hill
#
# Bulk Modulus (GPa) = 23.11806 39.09802 31.10804
# Shear Modulus (GPa) = 33.08773 43.86634 38.47704
#
# Velocity S-wave (km/s) = 3.63243 4.18244 3.91710
# Velocity P-wave (km/s) = 5.17799 6.23819 5.73265
#
# Compressibility (1/GPa) = 0.04325622
#
# Stress axis : x y z
#
# Youngs Moduli (GPa) = 60.32696 61.87449 94.42813
#
# Poissons Ratio (x) = -0.09596 0.14904
# Poissons Ratio (y) = -0.09356 0.00080
# Poissons Ratio (z) = 0.09522 0.00053
#
# Static dielectric constant tensor:
#      x y z
#    x 2.076930 0.070690 0.030110 
#    y 0.070690 1.986310 0.031600 
#    z 0.030110 0.031600 1.941080 
# 
# From -- ./inp_files/68912.got.cif
#   From: 2010.05.17/outbox.cif.g08.bks.cpg/sg2_35_cif.got.tgz:68912.got - 2010.06.03 11:33:40.
