data_PCOD9070652
_publ_section_title
;
Structure prediction by ZEFSAII (Michael W. Deem and Ramdas Pophale) SiO2 
 PCOD9070652
Probable space group: P -1
;
_chemical_formula_sum "Si O2"
_cell_formula_units_Z 12
_cell_length_a 8.854556
_cell_length_b 14.343120
_cell_length_c 18.693890
_cell_angle_alpha 158.289883
_cell_angle_beta 35.089576
_cell_angle_gamma 136.502680
_cell_volume 498.045720
_symmetry_space_group_name_H-M "P -1"
_symmetry_group_IT_number 2
_symmetry_cell_setting 'triclinic'
loop_
_space_group_symop_operation_xyz
x,y,z
-x,-y,-z
loop_
_atom_site_type_symbol
_atom_site_label
_atom_site_fract_x
_atom_site_fract_y
_atom_site_fract_z
Si Si1 0.707277 0.562798 0.860947
Si Si2 0.185560 0.017114 0.625252
Si Si3 0.931387 0.724632 0.744302
Si Si4 0.824605 0.125264 0.722285
Si Si5 0.488599 0.337274 0.461467
Si Si6 0.091734 0.787674 0.981518
O O1 0.827480 0.266668 0.600564
O O2 0.754411 0.653358 0.826656
O O3 0.869197 0.695474 0.951138
O O4 0.392815 0.636620 0.048924
O O5 0.026462 0.194181 0.752860
O O6 0.500000 0.000000 0.500000
O O7 0.039890 0.091563 0.809210
O O8 0.214246 0.752830 0.690163
O O9 0.000000 0.500000 0.500000
O O10 0.806254 0.983938 0.938299
O O11 0.655988 0.909322 0.661775
O O12 0.000000 0.000000 0.500000
O O13 0.500000 0.500000 0.500000
O O14 0.321704 0.544075 0.727149
#
# Coordination Sequence:
#
# PCOD9070652 Si02
#       6
#     2   2   2   2   2   2
#     4  12  25  50  74 103 153 190 237 305 363 429
#     4  12  29  47  72 109 142 194 248 293 364 435
#     4  12  25  44  73 113 145 188 244 297 362 430
#     4  12  28  48  76 107 145 195 243 298 370 432
#     4  12  25  47  76 107 147 194 243 295 368 432
#     4  12  25  45  75 103 147 189 239 301 358 430
#
# _framework density 24.094173999999999
#
# number of rings (size 3 to 8) (size 9 to 14) (size 15 to 20)
#    0.000    0.000    6.667    2.500    4.667    2.667 
#    0.000    0.000    0.000    0.000    0.000    0.000 
#    0.000    0.000    0.000    0.000    0.000    0.000 
#
# Total GULP energy -67278.708053 kJ/mol
# GULP energy per Si atom -5606.559004 kJ/mol
# Density = 2.403933 g / cm^3
# Si number density = 24.094174 Si / 1000 Ang^3
#
#
#
# Elastic Constant Matrix: (Units=GPa)
#
#
# Indices 1 2 3 4 5 6 
#
# 1 40.4943 4.5272 7.5331 -5.9864 20.0524 -3.2823
# 2 4.5272 45.5170 -2.3099 -8.5930 3.5797 -5.9525
# 3 7.5331 -2.3099 141.5115 -9.0736 -4.8027 -4.6016
# 4 -5.9864 -8.5930 -9.0736 49.3252 0.2109 2.6846
# 5 20.0524 3.5797 -4.8027 0.2109 41.7338 -7.7211
# 6 -3.2823 -5.9525 -4.6016 2.6846 -7.7211 24.9105
#
#
#
# Elastic Compliance Matrix: (Units=1/GPa)
#
#
# Indices 1 2 3 4 5 6 
#
# 1 0.034015 -0.001752 -0.002244 0.003589 -0.016831 -0.001955
# 2 -0.001752 0.023583 0.000882 0.003780 -0.000153 0.005113
# 3 -0.002244 0.000882 0.007407 0.001134 0.002190 0.001840
# 4 0.003589 0.003780 0.001134 0.021666 -0.002298 -0.001461
# 5 -0.016831 -0.000153 0.002190 -0.002298 0.033977 0.008929
# 6 -0.001955 0.005113 0.001840 -0.001461 0.008929 0.044373
#
#
# Mechanical properties :
#
#
# Convention : Reuss Voigt Hill
#
# Bulk Modulus (GPa) = 17.01329 27.44705 22.23017
# Shear Modulus (GPa) = 26.19974 37.71205 31.95590
#
# Velocity S-wave (km/s) = 3.30114 3.96055 3.64578
# Velocity P-wave (km/s) = 4.64828 5.68602 5.19314
#
# Compressibility (1/GPa) = 0.05877760
#
# Stress axis : x y z
#
# Youngs Moduli (GPa) = 29.39883 42.40325 135.00231
#
# Poissons Ratio (x) = 0.07427 0.30294
# Poissons Ratio (y) = 0.05149 -0.11902
# Poissons Ratio (z) = 0.06597 -0.03738
#
# Static dielectric constant tensor:
#      x y z
#    x 1.916420 0.018200 -0.010430 
#    y 0.018200 1.946490 0.024040 
#    z -0.010430 0.024040 1.901000 
# 
# From -- ./inp_files/138283.got.cif
#   From: 2010.05.17/outbox.cif.g08.bks.cpg/sg2_70_cif.got.tgz:138283.got - 2010.06.03 11:33:40.
