data_PCOD9070851
_publ_section_title
;
Structure prediction by ZEFSAII (Michael W. Deem and Ramdas Pophale) SiO2 
 PCOD9070851
Probable space group: P -1
;
_chemical_formula_sum "Si O2"
_cell_formula_units_Z 13
_cell_length_a 14.282683
_cell_length_b 14.866878
_cell_length_c 4.962087
_cell_angle_alpha 85.676626
_cell_angle_beta 89.612347
_cell_angle_gamma 151.443575
_cell_volume 496.312458
_symmetry_space_group_name_H-M "P -1"
_symmetry_group_IT_number 2
_symmetry_cell_setting 'triclinic'
loop_
_space_group_symop_operation_xyz
x,y,z
-x,-y,-z
loop_
_atom_site_type_symbol
_atom_site_label
_atom_site_fract_x
_atom_site_fract_y
_atom_site_fract_z
Si Si1 0.734160 0.409918 0.680713
Si Si2 0.258365 0.386761 0.499828
Si Si3 0.782831 0.818773 0.161665
Si Si4 0.989485 0.587916 0.120449
Si Si5 0.335017 0.014533 0.010957
Si Si6 0.500000 0.500000 0.000000
Si Si7 0.800624 0.993310 0.494656
O O1 0.662590 0.445124 0.552518
O O2 0.870676 0.484448 0.426764
O O3 0.553354 0.195414 0.837277
O O4 0.865556 0.540881 0.914191
O O5 0.321388 0.370293 0.741542
O O6 0.320440 0.385576 0.237811
O O7 0.021271 0.190447 0.568890
O O8 0.616701 0.702996 0.981186
O O9 0.782150 0.875622 0.416244
O O10 0.000000 0.000000 0.000000
O O11 0.000000 0.500000 0.000000
O O12 0.206196 0.815290 0.103251
O O13 0.214835 0.968927 0.799621
O O14 0.336758 0.070382 0.278572
#
# Coordination Sequence:
#
# PCOD9070851 Si02
#       7
#     2   2   2   2   2   1   2
#     4  12  28  48  81 113 156 204 252 309 387 463
#     4  12  26  45  71 103 153 202 257 314 374 436
#     4  12  27  46  67 102 145 206 255 319 365 437
#     4  12  27  52  83 119 154 192 250 321 387 469
#     4  12  26  50  78 112 151 203 247 319 380 459
#     4  12  28  42  68 104 146 194 268 306 364 440
#     4  12  25  47  74 102 155 201 260 309 381 434
#
# _framework density 26.193176999999999
#
# number of rings (size 3 to 8) (size 9 to 14) (size 15 to 20)
#    0.000    0.000    4.615    4.154    6.462    1.231 
#    0.000    0.000    0.000    0.000    0.000    0.000 
#    0.000    0.000    0.000    0.000    0.000    0.000 
#
# Total GULP energy -72666.293678 kJ/mol
# GULP energy per Si atom -5589.714898 kJ/mol
# Density = 2.613356 g / cm^3
# Si number density = 26.193177 Si / 1000 Ang^3
#
#
#
# Elastic Constant Matrix: (Units=GPa)
#
#
# Indices 1 2 3 4 5 6 
#
# 1 64.7590 26.0419 34.1806 -12.4135 -9.2644 -20.2149
# 2 26.0419 209.2382 67.0248 -26.1155 -28.2755 -15.4330
# 3 34.1806 67.0248 220.6261 -9.6520 -37.0688 -18.2189
# 4 -12.4135 -26.1155 -9.6520 48.9733 14.7765 -1.2284
# 5 -9.2644 -28.2755 -37.0688 14.7765 34.9577 12.6915
# 6 -20.2149 -15.4330 -18.2189 -1.2284 12.6915 41.9896
#
#
#
# Elastic Compliance Matrix: (Units=1/GPa)
#
#
# Indices 1 2 3 4 5 6 
#
# 1 0.020768 -0.000849 -0.002546 0.005740 -0.003915 0.009933
# 2 -0.000849 0.005847 -0.001131 0.002027 0.002216 0.000639
# 3 -0.002546 -0.001131 0.006128 -0.001876 0.006012 -0.000854
# 4 0.005740 0.002027 -0.001876 0.026612 -0.012736 0.007322
# 5 -0.003915 0.002216 0.006012 -0.012736 0.045712 -0.012651
# 6 0.009933 0.000639 -0.000854 0.007322 -0.012651 0.032499
#
#
# Mechanical properties :
#
#
# Convention : Reuss Voigt Hill
#
# Bulk Modulus (GPa) = 42.21095 83.23532 62.72314
# Shear Modulus (GPa) = 32.35931 49.67586 41.01758
#
# Velocity S-wave (km/s) = 3.51865 4.35963 3.96152
# Velocity P-wave (km/s) = 5.71473 7.56229 6.70248
#
# Compressibility (1/GPa) = 0.02369053
#
# Stress axis : x y z
#
# Youngs Moduli (GPa) = 48.15117 171.03385 163.18564
#
# Poissons Ratio (x) = 0.14526 0.41546
# Poissons Ratio (y) = 0.04089 0.18454
# Poissons Ratio (z) = 0.12259 0.19341
#
# Static dielectric constant tensor:
#      x y z
#    x 2.170600 0.011100 0.135350 
#    y 0.011100 2.209150 -0.025060 
#    z 0.135350 -0.025060 2.053580 
# 
# From -- ./inp_files/98108.got.cif
#   From: 2010.05.17/outbox.cif.g08.bks.cpg/sg2_50_cif.got.tgz:98108.got - 2010.06.03 11:33:40.
