data_PCOD9070160
_publ_section_title
;
Structure prediction by ZEFSAII (Michael W. Deem and Ramdas Pophale) SiO2 
 PCOD9070160
Probable space group: P -1
;
_chemical_formula_sum "Si O2"
_cell_formula_units_Z 16
_cell_length_a 19.035559
_cell_length_b 8.951294
_cell_length_c 12.178060
_cell_angle_alpha 32.227861
_cell_angle_beta 140.053915
_cell_angle_gamma 132.750909
_cell_volume 707.728190
_symmetry_space_group_name_H-M "P -1"
_symmetry_group_IT_number 2
_symmetry_cell_setting 'triclinic'
loop_
_space_group_symop_operation_xyz
x,y,z
-x,-y,-z
loop_
_atom_site_type_symbol
_atom_site_label
_atom_site_fract_x
_atom_site_fract_y
_atom_site_fract_z
Si Si1 0.620381 0.914537 0.210218
Si Si2 0.742515 0.501401 0.505117
Si Si3 0.894443 0.670966 0.780761
Si Si4 0.601322 0.866234 0.475315
Si Si5 0.096207 0.658100 0.589127
Si Si6 0.411792 0.980049 0.307736
Si Si7 0.701996 0.479288 0.231074
Si Si8 0.224194 0.541284 0.012142
O O1 0.708947 0.163148 0.121581
O O2 0.635152 0.660217 0.304497
O O3 0.628170 0.840778 0.394230
O O4 0.500000 0.000000 0.000000
O O5 0.831842 0.637620 0.610764
O O6 0.768144 0.542323 0.383769
O O7 0.702105 0.185984 0.686144
O O8 0.914415 0.004748 0.625984
O O9 0.820004 0.512240 0.884757
O O10 0.000000 0.500000 0.000000
O O11 0.473313 0.817254 0.385781
O O12 0.627591 0.190359 0.336979
O O13 0.684677 0.682794 0.754113
O O14 0.210160 0.593167 0.708708
O O15 0.115853 0.528008 0.813751
O O16 0.000000 0.500000 0.500000
O O17 0.500000 0.000000 0.500000
O O18 0.374382 0.278094 0.040411
#
# Coordination Sequence:
#
# PCOD9070160 Si02
#       8
#     2   2   2   2   2   2   2   2
#     4  12  26  43  74 108 150 198 243 297 372 444
#     4  12  27  46  69 112 150 190 251 306 367 440
#     4  12  30  52  77 110 145 195 255 314 378 438
#     4  12  24  46  71 106 152 194 245 297 365 451
#     4  12  29  51  79 109 141 198 249 312 381 441
#     4  12  27  41  72 111 148 201 241 296 373 435
#     4  12  26  46  71 107 153 188 250 305 361 449
#     4  12  24  50  77 102 152 186 244 305 368 437
#
# _framework density 22.607548999999999
#
# number of rings (size 3 to 8) (size 9 to 14) (size 15 to 20)
#    0.000    0.000    6.250    2.625    8.750    2.000 
#    0.000    0.000    0.000    0.000    0.000    0.000 
#    0.000    0.000    0.000    0.000    0.000    0.000 
#
# Total GULP energy -89476.451639 kJ/mol
# GULP energy per Si atom -5592.278227 kJ/mol
# Density = 2.255609 g / cm^3
# Si number density = 22.607549 Si / 1000 Ang^3
#
#
#
# Elastic Constant Matrix: (Units=GPa)
#
#
# Indices 1 2 3 4 5 6 
#
# 1 82.9566 5.3275 37.4421 -4.4713 8.4375 -16.0865
# 2 5.3275 95.0624 36.9866 2.7338 -14.9508 -2.8786
# 3 37.4421 36.9866 148.5604 -8.2084 6.0880 -2.8817
# 4 -4.4713 2.7338 -8.2084 37.7591 -4.5059 0.4925
# 5 8.4375 -14.9508 6.0880 -4.5059 41.9650 7.4178
# 6 -16.0865 -2.8786 -2.8817 0.4925 7.4178 35.5826
#
#
#
# Elastic Compliance Matrix: (Units=1/GPa)
#
#
# Indices 1 2 3 4 5 6 
#
# 1 0.015562 0.000152 -0.003630 0.000487 -0.003829 0.007545
# 2 0.000152 0.012648 -0.003450 -0.001061 0.004896 -0.000193
# 3 -0.003630 -0.003450 0.008630 0.001539 -0.001419 -0.000947
# 4 0.000487 -0.001061 0.001539 0.027239 0.002332 -0.000604
# 5 -0.003829 0.004896 -0.001419 0.002332 0.028097 -0.007340
# 6 0.007545 -0.000193 -0.000947 -0.000604 -0.007340 0.032961
#
#
# Mechanical properties :
#
#
# Convention : Reuss Voigt Hill
#
# Bulk Modulus (GPa) = 43.50811 54.01024 48.75917
# Shear Modulus (GPa) = 34.09378 39.51620 36.80499
#
# Velocity S-wave (km/s) = 3.88760 4.18535 4.03922
# Velocity P-wave (km/s) = 6.27997 6.87738 6.58545
#
# Compressibility (1/GPa) = 0.02298422
#
# Stress axis : x y z
#
# Youngs Moduli (GPa) = 64.25944 79.06368 115.87548
#
# Poissons Ratio (x) = -0.01205 0.42061
# Poissons Ratio (y) = -0.00979 0.39981
# Poissons Ratio (z) = 0.23325 0.27280
#
# Static dielectric constant tensor:
#      x y z
#    x 1.837390 0.201640 -0.104180 
#    y 0.201640 1.318070 0.241710 
#    z -0.104180 0.241710 1.754250 
# 
# From -- ./inp_files/85118.got.cif
#   From: 2010.05.17/outbox.cif.g08.bks.cpg/sg2_43_cif.got.tgz:85118.got - 2010.06.03 11:33:40.
