data_PCOD9070310
_publ_section_title
;
Structure prediction by ZEFSAII (Michael W. Deem and Ramdas Pophale) SiO2 
 PCOD9070310
Probable space group: P -1
;
_chemical_formula_sum "Si O2"
_cell_formula_units_Z 14
_cell_length_a 9.333212
_cell_length_b 12.443025
_cell_length_c 19.388016
_cell_angle_alpha 24.866161
_cell_angle_beta 38.787551
_cell_angle_gamma 47.740155
_cell_volume 587.932070
_symmetry_space_group_name_H-M "P -1"
_symmetry_group_IT_number 2
_symmetry_cell_setting 'triclinic'
loop_
_space_group_symop_operation_xyz
x,y,z
-x,-y,-z
loop_
_atom_site_type_symbol
_atom_site_label
_atom_site_fract_x
_atom_site_fract_y
_atom_site_fract_z
Si Si1 0.230196 0.489889 0.615861
Si Si2 0.259909 0.609548 0.318191
Si Si3 0.936553 0.616300 0.884505
Si Si4 0.361653 0.737577 0.562292
Si Si5 0.670059 0.058732 0.779772
Si Si6 0.207184 0.813806 0.071823
Si Si7 0.648449 0.269235 0.089099
O O1 0.500000 0.500000 0.500000
O O2 0.214167 0.591479 0.640157
O O3 0.181838 0.714675 0.450258
O O4 0.070560 0.236921 0.795189
O O5 0.447700 0.435479 0.378895
O O6 0.290075 0.883117 0.188608
O O7 0.276646 0.643280 0.210003
O O8 0.000000 0.500000 0.500000
O O9 0.166974 0.767410 0.675181
O O10 0.747370 0.803736 0.865776
O O11 0.835465 0.379245 0.011618
O O12 0.000000 0.500000 0.000000
O O13 0.497596 0.004909 0.325705
O O14 0.394902 0.060728 0.871285
O O15 0.252730 0.747725 0.014587
O O16 0.500000 0.500000 0.000000
#
# Coordination Sequence:
#
# PCOD9070310 Si02
#       7
#     2   2   2   2   2   2   2
#     4  12  24  47  73 114 148 194 258 309 381 450
#     4  12  27  51  76 111 154 202 255 314 391 445
#     4  12  29  49  77 115 154 198 258 315 380 457
#     4  12  27  49  80 112 154 198 256 326 372 457
#     4  12  26  48  77 112 153 201 252 311 389 451
#     4  12  25  47  78 106 156 200 250 318 376 455
#     4  12  27  48  77 114 150 202 257 303 392 452
#
# _framework density 23.812276000000001
#
# number of rings (size 3 to 8) (size 9 to 14) (size 15 to 20)
#    0.000    0.000    7.143    1.286    4.000    2.286 
#    5.143    0.000    0.000    0.000    0.000    0.000 
#    0.000    0.000    0.000    0.000    0.000    0.000 
#
# Total GULP energy -78178.783834 kJ/mol
# GULP energy per Si atom -5584.198845 kJ/mol
# Density = 2.375808 g / cm^3
# Si number density = 23.812276 Si / 1000 Ang^3
#
#
#
# Elastic Constant Matrix: (Units=GPa)
#
#
# Indices 1 2 3 4 5 6 
#
# 1 161.0582 38.2945 68.2173 9.1319 -2.8693 29.6610
# 2 38.2945 85.0322 53.7351 7.1649 7.5199 13.7147
# 3 68.2173 53.7351 146.6982 14.6541 1.3682 11.3271
# 4 9.1319 7.1649 14.6541 37.2070 5.3445 0.9428
# 5 -2.8693 7.5199 1.3682 5.3445 57.4591 5.2317
# 6 29.6610 13.7147 11.3271 0.9428 5.2317 40.7055
#
#
#
# Elastic Compliance Matrix: (Units=1/GPa)
#
#
# Indices 1 2 3 4 5 6 
#
# 1 0.008903 -0.001143 -0.003248 -0.000726 0.001225 -0.005339
# 2 -0.001143 0.016169 -0.005096 -0.000502 -0.001735 -0.002962
# 3 -0.003248 -0.005096 0.010334 -0.002375 0.000369 0.001216
# 4 -0.000726 -0.000502 -0.002375 0.028442 -0.002654 0.001042
# 5 0.001225 -0.001735 0.000369 -0.002654 0.018175 -0.002685
# 6 -0.005339 -0.002962 0.001216 0.001042 -0.002685 0.029438
#
#
# Mechanical properties :
#
#
# Convention : Reuss Voigt Hill
#
# Bulk Modulus (GPa) = 60.85914 79.25360 70.05637
# Shear Modulus (GPa) = 36.78899 42.57710 39.68305
#
# Velocity S-wave (km/s) = 3.93486 4.23310 4.08670
# Velocity P-wave (km/s) = 6.80129 7.56618 7.19391
#
# Compressibility (1/GPa) = 0.01643138
#
# Stress axis : x y z
#
# Youngs Moduli (GPa) = 112.32730 61.84708 96.77092
#
# Poissons Ratio (x) = 0.07069 0.31430
# Poissons Ratio (y) = 0.12838 0.49316
# Poissons Ratio (z) = 0.36482 0.31518
#
# Static dielectric constant tensor:
#      x y z
#    x 1.960770 -0.029600 0.008560 
#    y -0.029600 2.082120 0.085650 
#    z 0.008560 0.085650 2.024700 
# 
# From -- ./inp_files/559479.got.cif
#   From: 2010.05.17/outbox.cif.g08.bks.cpg/sg2_280_cif.got.tgz:559479.got - 2010.06.03 11:33:40.
