data_PCOD9070639
_publ_section_title
;
Structure prediction by ZEFSAII (Michael W. Deem and Ramdas Pophale) SiO2 
 PCOD9070639
Probable space group: P -1
;
_chemical_formula_sum "Si O2"
_cell_formula_units_Z 12
_cell_length_a 14.148187
_cell_length_b 5.182449
_cell_length_c 7.086078
_cell_angle_alpha 73.231884
_cell_angle_beta 102.924603
_cell_angle_gamma 76.006219
_cell_volume 458.002988
_symmetry_space_group_name_H-M "P -1"
_symmetry_group_IT_number 2
_symmetry_cell_setting 'triclinic'
loop_
_space_group_symop_operation_xyz
x,y,z
-x,-y,-z
loop_
_atom_site_type_symbol
_atom_site_label
_atom_site_fract_x
_atom_site_fract_y
_atom_site_fract_z
Si Si1 0.736463 0.613180 0.819905
Si Si2 0.134286 0.982363 0.145632
Si Si3 0.402735 0.436514 0.885919
Si Si4 0.556193 0.737080 0.447784
Si Si5 0.188019 0.821313 0.617616
Si Si6 0.088415 0.349230 0.717970
O O1 0.825709 0.315571 0.882937
O O2 0.671960 0.643845 0.593147
O O3 0.776611 0.873308 0.824756
O O4 0.657917 0.617335 0.950244
O O5 0.122189 0.925046 0.373399
O O6 0.056812 0.216533 0.922627
O O7 0.441481 0.207367 0.784896
O O8 0.311768 0.691595 0.686058
O O9 0.500000 0.500000 0.000000
O O10 0.500000 0.500000 0.500000
O O11 0.500000 0.000000 0.500000
O O12 0.146973 0.574654 0.732226
O O13 0.000000 0.500000 0.500000
O O14 0.163168 0.082349 0.694512
#
# Coordination Sequence:
#
# PCOD9070639 Si02
#       6
#     2   2   2   2   2   2
#     4  12  25  44  70 101 151 198 244 303 368 436
#     4  12  25  47  76 107 150 192 242 311 378 446
#     4  12  26  46  73 109 150 203 251 303 369 444
#     4  12  27  43  65 103 144 195 258 306 355 434
#     4  12  27  48  76 109 150 195 246 305 377 447
#     4  12  27  50  79 111 146 190 248 314 381 450
#
# _framework density 26.200704000000002
#
# number of rings (size 3 to 8) (size 9 to 14) (size 15 to 20)
#    0.000    0.000    6.667    2.500    0.000    3.333 
#    0.000    0.000    0.000    0.000    0.000    0.000 
#    0.000    0.000    0.000    0.000    0.000    0.000 
#
# Total GULP energy -67247.188041 kJ/mol
# GULP energy per Si atom -5603.932337 kJ/mol
# Density = 2.614107 g / cm^3
# Si number density = 26.200704 Si / 1000 Ang^3
#
#
#
# Elastic Constant Matrix: (Units=GPa)
#
#
# Indices 1 2 3 4 5 6 
#
# 1 79.5484 44.2320 20.0690 5.8819 4.1581 2.5941
# 2 44.2320 138.0242 32.2237 26.4689 -7.2415 0.5729
# 3 20.0690 32.2237 201.0928 4.2801 -5.4427 -8.8790
# 4 5.8819 26.4689 4.2801 62.6604 -3.9418 -4.6184
# 5 4.1581 -7.2415 -5.4427 -3.9418 64.6377 -3.4974
# 6 2.5941 0.5729 -8.8790 -4.6184 -3.4974 25.6169
#
#
#
# Elastic Compliance Matrix: (Units=1/GPa)
#
#
# Indices 1 2 3 4 5 6 
#
# 1 0.015692 -0.004984 -0.000910 0.000442 -0.001723 -0.001948
# 2 -0.004984 0.009822 -0.000995 -0.003586 0.001088 -0.000558
# 3 -0.000910 -0.000995 0.005323 0.000330 0.000528 0.002091
# 4 0.000442 -0.003586 0.000330 0.017719 0.000866 0.003462
# 5 -0.001723 0.001088 0.000528 0.000866 0.015945 0.002666
# 6 -0.001948 -0.000558 0.002091 0.003462 0.002666 0.040959
#
#
# Mechanical properties :
#
#
# Convention : Reuss Voigt Hill
#
# Bulk Modulus (GPa) = 58.61800 67.96834 63.29317
# Shear Modulus (GPa) = 40.02426 52.05904 46.04165
#
# Velocity S-wave (km/s) = 3.91270 4.46234 4.19653
# Velocity P-wave (km/s) = 6.54473 7.24898 6.90584
#
# Compressibility (1/GPa) = 0.01705961
#
# Stress axis : x y z
#
# Youngs Moduli (GPa) = 63.72503 101.81633 187.87446
#
# Poissons Ratio (x) = 0.50742 0.17089
# Poissons Ratio (y) = 0.31758 0.18700
# Poissons Ratio (z) = 0.05796 0.10134
#
# Static dielectric constant tensor:
#      x y z
#    x 2.059290 -0.039930 0.014270 
#    y -0.039930 2.030540 -0.110260 
#    z 0.014270 -0.110260 2.144770 
# 
# From -- ./inp_files/229164.got.cif
#   From: 2010.05.17/outbox.cif.g08.bks.cpg/sg2_115_cif.got.tgz:229164.got - 2010.06.03 11:33:40.
