data_PCOD9070149
_publ_section_title
;
Structure prediction by ZEFSAII (Michael W. Deem and Ramdas Pophale) SiO2 
 PCOD9070149
Probable space group: P -1
;
_chemical_formula_sum "Si O2"
_cell_formula_units_Z 13
_cell_length_a 10.643821
_cell_length_b 13.464958
_cell_length_c 5.697815
_cell_angle_alpha 90.313083
_cell_angle_beta 71.120722
_cell_angle_gamma 43.063272
_cell_volume 489.218813
_symmetry_space_group_name_H-M "P -1"
_symmetry_group_IT_number 2
_symmetry_cell_setting 'triclinic'
loop_
_space_group_symop_operation_xyz
x,y,z
-x,-y,-z
loop_
_atom_site_type_symbol
_atom_site_label
_atom_site_fract_x
_atom_site_fract_y
_atom_site_fract_z
Si Si1 0.567072 0.099189 0.007392
Si Si2 0.775301 0.678655 0.184609
Si Si3 0.270220 0.587595 0.118842
Si Si4 0.250242 0.854092 0.800933
Si Si5 0.350450 0.450396 0.561555
Si Si6 0.918081 0.937335 0.475338
Si Si7 0.500000 0.000000 0.500000
O O1 0.628740 0.175760 0.048978
O O2 0.528315 0.042171 0.231044
O O3 0.370564 0.226920 0.956776
O O4 0.790275 0.947047 0.740921
O O5 0.677979 0.651136 0.410540
O O6 0.736123 0.808532 0.323882
O O7 0.000000 0.500000 0.000000
O O8 0.245990 0.545138 0.383192
O O9 0.103491 0.772061 0.238801
O O10 0.500000 0.500000 0.000000
O O11 0.265416 0.538408 0.865137
O O12 0.392788 0.682608 0.610936
O O13 0.260355 0.935914 0.603819
O O14 0.000000 0.000000 0.000000
O O15 0.000000 0.000000 0.500000
#
# Coordination Sequence:
#
# PCOD9070149 Si02
#       7
#     2   2   2   2   2   2   1
#     4  12  26  52  82 123 166 218 292 355 427 523
#     4  12  30  53  84 112 166 221 291 366 425 500
#     4  12  29  47  79 123 171 216 276 342 427 526
#     4  12  24  45  84 116 163 221 268 339 431 518
#     4  12  27  54  75 120 168 218 280 351 425 514
#     4  12  26  46  82 118 167 223 269 344 427 518
#     4  12  28  54  84 122 162 222 298 354 440 502
#
# _framework density 26.572977000000002
#
# number of rings (size 3 to 8) (size 9 to 14) (size 15 to 20)
#    0.000    0.000    4.615    3.692    4.308    1.846 
#    0.000    0.000    0.000    0.000    0.000    0.000 
#    0.000    0.000    0.000    0.000    0.000    0.000 
#
# Total GULP energy -72388.021807 kJ/mol
# GULP energy per Si atom -5568.309370 kJ/mol
# Density = 2.651250 g / cm^3
# Si number density = 26.572977 Si / 1000 Ang^3
#
#
#
# Elastic Constant Matrix: (Units=GPa)
#
#
# Indices 1 2 3 4 5 6 
#
# 1 70.0907 28.2499 35.2665 9.2854 7.6979 -7.1189
# 2 28.2499 182.6987 77.6655 25.6231 -3.2191 9.4209
# 3 35.2665 77.6655 193.7187 22.9183 -9.1354 -1.5685
# 4 9.2854 25.6231 22.9183 90.7696 2.6309 -9.8000
# 5 7.6979 -3.2191 -9.1354 2.6309 47.6064 4.5010
# 6 -7.1189 9.4209 -1.5685 -9.8000 4.5010 30.7472
#
#
#
# Elastic Compliance Matrix: (Units=1/GPa)
#
#
# Indices 1 2 3 4 5 6 
#
# 1 0.017242 -0.001937 -0.002513 0.000075 -0.003883 0.005050
# 2 -0.001937 0.007178 -0.002324 -0.001630 0.000764 -0.003398
# 3 -0.002513 -0.002324 0.006725 -0.000834 0.001588 -0.000025
# 4 0.000075 -0.001630 -0.000834 0.012214 -0.001389 0.004571
# 5 -0.003883 0.000764 0.001588 -0.001389 0.022520 -0.004792
# 6 0.005050 -0.003398 -0.000025 0.004571 -0.004792 0.036890
#
#
# Mechanical properties :
#
#
# Convention : Reuss Voigt Hill
#
# Bulk Modulus (GPa) = 56.83016 80.98577 68.90796
# Shear Modulus (GPa) = 40.92236 54.17972 47.55104
#
# Velocity S-wave (km/s) = 3.92854 4.52032 4.23478
# Velocity P-wave (km/s) = 6.48157 7.60180 7.06392
#
# Compressibility (1/GPa) = 0.01759629
#
# Stress axis : x y z
#
# Youngs Moduli (GPa) = 57.99812 139.31054 148.70587
#
# Poissons Ratio (x) = 0.26984 0.37377
# Poissons Ratio (y) = 0.11234 0.34557
# Poissons Ratio (z) = 0.14578 0.32374
#
# Static dielectric constant tensor:
#      x y z
#    x 2.070650 0.129970 -0.048370 
#    y 0.129970 2.029060 0.085460 
#    z -0.048370 0.085460 2.206500 
# 
# From -- ./inp_files/76053.got.cif
#   From: 2010.05.17/outbox.cif.g08.bks.cpg/sg2_39_cif.got.tgz:76053.got - 2010.06.03 11:33:40.
