data_PCOD9070553
_publ_section_title
;
Structure prediction by ZEFSAII (Michael W. Deem and Ramdas Pophale) SiO2 
 PCOD9070553
Probable space group: P -1
;
_chemical_formula_sum "Si O2"
_cell_formula_units_Z 15
_cell_length_a 5.674781
_cell_length_b 14.582141
_cell_length_c 12.383144
_cell_angle_alpha 130.014600
_cell_angle_beta 71.858413
_cell_angle_gamma 128.773624
_cell_volume 604.660870
_symmetry_space_group_name_H-M "P -1"
_symmetry_group_IT_number 2
_symmetry_cell_setting 'triclinic'
loop_
_space_group_symop_operation_xyz
x,y,z
-x,-y,-z
loop_
_atom_site_type_symbol
_atom_site_label
_atom_site_fract_x
_atom_site_fract_y
_atom_site_fract_z
Si Si1 0.639346 0.788875 0.079830
Si Si2 0.181114 0.856076 0.898698
Si Si3 0.491957 0.622669 0.263881
Si Si4 0.853638 0.380322 0.153904
Si Si5 0.672522 0.585011 0.429926
Si Si6 0.641450 0.930196 0.497121
Si Si7 0.197449 0.903894 0.684869
Si Si8 0.500000 0.500000 0.000000
O O1 0.750951 0.942878 0.235736
O O2 0.365564 0.732624 0.991488
O O3 0.539041 0.651668 0.064084
O O4 0.918487 0.826554 0.992948
O O5 0.184952 0.715086 0.809116
O O6 0.116843 0.874005 0.799388
O O7 0.500000 0.000000 0.000000
O O8 0.468878 0.586512 0.365859
O O9 0.493476 0.763033 0.358341
O O10 0.204055 0.476298 0.132612
O O11 0.734465 0.609605 0.158422
O O12 0.790636 0.495978 0.290824
O O13 0.500000 0.500000 0.500000
O O14 0.938559 0.756394 0.546793
O O15 0.517017 0.927792 0.632242
O O16 0.500000 0.000000 0.500000
O O17 0.000000 0.000000 0.500000
#
# Coordination Sequence:
#
# PCOD9070553 Si02
#       8
#     2   2   2   2   2   2   2   1
#     4  12  27  51  76 122 161 217 276 342 422 503
#     4  12  27  47  80 121 163 209 278 345 420 512
#     4  12  27  49  76 115 154 218 274 340 411 500
#     4  12  24  50  75 112 163 201 279 332 418 494
#     4  12  27  48  80 118 171 214 272 348 434 512
#     4  12  29  53  78 116 167 218 287 344 426 509
#     4  12  27  50  83 121 161 221 271 357 430 502
#     4  12  26  50  78 104 164 212 272 332 404 498
#
# _framework density 24.807293999999999
#
# number of rings (size 3 to 8) (size 9 to 14) (size 15 to 20)
#    0.000    0.000    5.333    3.600    3.733    4.800 
#    0.000    0.000    0.000    0.000    0.000    0.000 
#    0.000    0.000    0.000    0.000    0.000    0.000 
#
# Total GULP energy -83814.639894 kJ/mol
# GULP energy per Si atom -5587.642660 kJ/mol
# Density = 2.475083 g / cm^3
# Si number density = 24.807294 Si / 1000 Ang^3
#
#
#
# Elastic Constant Matrix: (Units=GPa)
#
#
# Indices 1 2 3 4 5 6 
#
# 1 93.4163 62.5298 34.0863 20.6263 -3.9056 -9.8623
# 2 62.5298 170.1706 56.9472 17.0676 -6.3502 -30.4660
# 3 34.0863 56.9472 133.1755 19.0164 -21.2472 -23.6946
# 4 20.6263 17.0676 19.0164 59.0397 -7.1809 -4.7794
# 5 -3.9056 -6.3502 -21.2472 -7.1809 45.9375 10.6103
# 6 -9.8623 -30.4660 -23.6946 -4.7794 10.6103 54.6620
#
#
#
# Elastic Compliance Matrix: (Units=1/GPa)
#
#
# Indices 1 2 3 4 5 6 
#
# 1 0.015206 -0.004897 -0.001518 -0.003531 -0.000438 -0.000868
# 2 -0.004897 0.008958 -0.002123 -0.000037 -0.000944 0.003369
# 3 -0.001518 -0.002123 0.009932 -0.001467 0.003469 0.002047
# 4 -0.003531 -0.000037 -0.001467 0.018893 0.001975 -0.000025
# 5 -0.000438 -0.000944 0.003469 0.001975 0.024359 -0.003657
# 6 -0.000868 0.003369 0.002047 -0.000025 -0.003657 0.021610
#
#
# Mechanical properties :
#
#
# Convention : Reuss Voigt Hill
#
# Bulk Modulus (GPa) = 58.75235 78.20988 68.48112
# Shear Modulus (GPa) = 41.08157 48.14111 44.61134
#
# Velocity S-wave (km/s) = 4.07385 4.41001 4.24526
# Velocity P-wave (km/s) = 6.77224 7.58461 7.18991
#
# Compressibility (1/GPa) = 0.01702059
#
# Stress axis : x y z
#
# Youngs Moduli (GPa) = 65.76137 111.63156 100.68035
#
# Poissons Ratio (x) = 0.54668 0.15283
# Poissons Ratio (y) = 0.32204 0.21375
# Poissons Ratio (z) = 0.09982 0.23700
#
# Static dielectric constant tensor:
#      x y z
#    x 2.189270 0.253540 -0.152060 
#    y 0.253540 2.308970 -0.309490 
#    z -0.152060 -0.309490 2.236120 
# 
# From -- ./inp_files/368043.got.cif
#   From: 2010.05.17/outbox.cif.g08.bks.cpg/sg2_185_cif.got.tgz:368043.got - 2010.06.03 11:33:40.
