data_PCOD9070670
_publ_section_title
;
Structure prediction by ZEFSAII (Michael W. Deem and Ramdas Pophale) SiO2 
 PCOD9070670
Probable space group: P -1
;
_chemical_formula_sum "Si O2"
_cell_formula_units_Z 14
_cell_length_a 11.560054
_cell_length_b 5.622168
_cell_length_c 12.569144
_cell_angle_alpha 67.123004
_cell_angle_beta 44.443891
_cell_angle_gamma 72.821756
_cell_volume 526.809104
_symmetry_space_group_name_H-M "P -1"
_symmetry_group_IT_number 2
_symmetry_cell_setting 'triclinic'
loop_
_space_group_symop_operation_xyz
x,y,z
-x,-y,-z
loop_
_atom_site_type_symbol
_atom_site_label
_atom_site_fract_x
_atom_site_fract_y
_atom_site_fract_z
Si Si1 0.105087 0.502960 0.277842
Si Si2 0.501814 0.224018 0.371980
Si Si3 0.611414 0.218002 0.841894
Si Si4 0.227355 0.041918 0.423403
Si Si5 0.102348 0.247705 0.928795
Si Si6 0.216121 0.514094 0.597922
Si Si7 0.284879 0.452224 0.946028
O O1 0.240488 0.694323 0.198053
O O2 0.121167 0.260740 0.391162
O O3 0.915980 0.603617 0.378122
O O4 0.160852 0.460609 0.125395
O O5 0.379167 0.143040 0.373379
O O6 0.404631 0.467641 0.447808
O O7 0.679983 0.302804 0.197027
O O8 0.500000 0.000000 0.500000
O O9 0.467573 0.428801 0.879658
O O10 0.695626 0.120680 0.696701
O O11 0.500000 0.000000 0.000000
O O12 0.156702 0.814538 0.583526
O O13 0.192612 0.361441 0.747798
O O14 0.234464 0.214874 0.943948
O O15 0.000000 0.500000 0.000000
O O16 0.000000 0.000000 0.000000
#
# Coordination Sequence:
#
# PCOD9070670 Si02
#       7
#     2   2   2   2   2   2   2
#     4  12  26  49  80 113 160 204 268 328 410 486
#     4  12  29  49  78 112 161 211 268 331 406 484
#     4  12  25  44  78 116 153 208 263 329 403 483
#     4  12  25  47  75 114 157 202 268 324 413 476
#     4  12  31  54  82 120 160 218 276 340 407 488
#     4  12  29  49  77 115 160 208 268 334 411 477
#     4  12  25  51  76 114 155 209 269 330 400 486
#
# _framework density 26.575088999999998
#
# number of rings (size 3 to 8) (size 9 to 14) (size 15 to 20)
#    0.000    0.000    5.714    2.571    8.000    4.571 
#    0.000    0.000    0.000    0.000    0.000    0.000 
#    0.000    0.000    0.000    0.000    0.000    0.000 
#
# Total GULP energy -78335.896166 kJ/mol
# GULP energy per Si atom -5595.421155 kJ/mol
# Density = 2.651460 g / cm^3
# Si number density = 26.575089 Si / 1000 Ang^3
#
#
#
# Elastic Constant Matrix: (Units=GPa)
#
#
# Indices 1 2 3 4 5 6 
#
# 1 149.8555 37.7945 39.2210 -7.5842 0.4665 22.7731
# 2 37.7945 83.1693 51.1481 -22.9550 7.0690 9.8687
# 3 39.2210 51.1481 160.3905 -24.6382 12.7332 12.1696
# 4 -7.5842 -22.9550 -24.6382 50.0167 -4.8697 -5.2865
# 5 0.4665 7.0690 12.7332 -4.8697 53.6154 -2.4939
# 6 22.7731 9.8687 12.1696 -5.2865 -2.4939 50.8054
#
#
#
# Elastic Compliance Matrix: (Units=1/GPa)
#
#
# Indices 1 2 3 4 5 6 
#
# 1 0.008076 -0.003016 -0.000960 -0.000904 0.000339 -0.002882
# 2 -0.003016 0.017429 -0.003863 0.005492 -0.000883 -0.000580
# 3 -0.000960 -0.003863 0.008143 0.001902 -0.001273 -0.000634
# 4 -0.000904 0.005492 0.001902 0.023561 0.001037 0.001385
# 5 0.000339 -0.000883 -0.001273 0.001037 0.019225 0.001376
# 6 -0.002882 -0.000580 -0.000634 0.001385 0.001376 0.021451
#
#
# Mechanical properties :
#
#
# Convention : Reuss Voigt Hill
#
# Bulk Modulus (GPa) = 55.64832 72.19361 63.92097
# Shear Modulus (GPa) = 41.82214 48.57094 45.19654
#
# Velocity S-wave (km/s) = 3.97134 4.27978 4.12844
# Velocity P-wave (km/s) = 6.48183 7.18658 6.84329
#
# Compressibility (1/GPa) = 0.01796999
#
# Stress axis : x y z
#
# Youngs Moduli (GPa) = 123.82119 57.37402 122.80756
#
# Poissons Ratio (x) = 0.17303 0.11793
# Poissons Ratio (y) = 0.37343 0.47441
# Poissons Ratio (z) = 0.11891 0.22164
#
# Static dielectric constant tensor:
#      x y z
#    x 2.196400 -0.065640 0.063840 
#    y -0.065640 2.324000 -0.128560 
#    z 0.063840 -0.128560 2.091990 
# 
# From -- ./inp_files/333489.got.cif
#   From: 2010.05.17/outbox.cif.g08.bks.cpg/sg2_167_cif.got.tgz:333489.got - 2010.06.03 11:33:40.
