data_PCOD9070562
_publ_section_title
;
Structure prediction by ZEFSAII (Michael W. Deem and Ramdas Pophale) SiO2 
 PCOD9070562
Probable space group: P -1
;
_chemical_formula_sum "Si O2"
_cell_formula_units_Z 13
_cell_length_a 17.514180
_cell_length_b 9.550256
_cell_length_c 5.128417
_cell_angle_alpha 131.163803
_cell_angle_beta 66.342184
_cell_angle_gamma 135.020861
_cell_volume 453.123076
_symmetry_space_group_name_H-M "P -1"
_symmetry_group_IT_number 2
_symmetry_cell_setting 'triclinic'
loop_
_space_group_symop_operation_xyz
x,y,z
-x,-y,-z
loop_
_atom_site_type_symbol
_atom_site_label
_atom_site_fract_x
_atom_site_fract_y
_atom_site_fract_z
Si Si1 0.051881 0.230380 0.032383
Si Si2 0.520531 0.250115 0.246347
Si Si3 0.232886 0.618322 0.578222
Si Si4 0.000000 0.500000 0.500000
Si Si5 0.765038 0.698285 0.476759
Si Si6 0.796668 0.106301 0.640805
Si Si7 0.392072 0.118453 0.758075
O O1 0.118501 0.489835 0.425779
O O2 0.975970 0.273378 0.062065
O O3 0.136070 0.256883 0.757801
O O4 0.000000 0.000000 0.000000
O O5 0.644811 0.463532 0.269924
O O6 0.487168 0.271758 0.604561
O O7 0.444926 0.231968 0.105291
O O8 0.500000 0.000000 0.000000
O O9 0.228609 0.392928 0.362077
O O10 0.336665 0.834843 0.540456
O O11 0.231281 0.736388 0.988281
O O12 0.085350 0.716084 0.425970
O O13 0.773562 0.922854 0.668733
O O14 0.710616 0.938685 0.319733
#
# Coordination Sequence:
#
# PCOD9070562 Si02
#       7
#     2   2   2   1   2   2   2
#     4  12  27  50  76 116 155 209 271 331 407 490
#     4  12  25  46  83 117 162 221 264 339 401 476
#     4  12  25  50  78 111 164 203 274 336 396 489
#     4  12  24  50  80 104 166 202 264 336 414 456
#     4  12  28  48  80 121 158 208 281 327 406 489
#     4  12  27  51  78 121 157 218 266 341 399 488
#     4  12  25  50  79 114 164 217 269 319 417 472
#
# _framework density 28.689772999999999
#
# number of rings (size 3 to 8) (size 9 to 14) (size 15 to 20)
#    0.000    0.000    7.692    1.385    2.154    4.923 
#    0.000    0.000    0.000    0.000    0.000    0.000 
#    0.000    0.000    0.000    0.000    0.000    0.000 
#
# Total GULP energy -72700.342841 kJ/mol
# GULP energy per Si atom -5592.334065 kJ/mol
# Density = 2.862447 g / cm^3
# Si number density = 28.689773 Si / 1000 Ang^3
#
#
#
# Elastic Constant Matrix: (Units=GPa)
#
#
# Indices 1 2 3 4 5 6 
#
# 1 104.4388 33.8373 44.1867 10.2299 20.6158 -20.9868
# 2 33.8373 176.4780 15.2407 8.9074 1.6273 -29.9374
# 3 44.1867 15.2407 77.6065 -20.1729 7.2517 -9.5520
# 4 10.2299 8.9074 -20.1729 49.7732 -4.7689 -8.4656
# 5 20.6158 1.6273 7.2517 -4.7689 60.1383 9.1915
# 6 -20.9868 -29.9374 -9.5520 -8.4656 9.1915 54.3548
#
#
#
# Elastic Compliance Matrix: (Units=1/GPa)
#
#
# Indices 1 2 3 4 5 6 
#
# 1 0.016973 -0.001287 -0.010307 -0.007327 -0.005711 0.003858
# 2 -0.001287 0.006470 -0.000291 -0.000525 -0.000194 0.002966
# 3 -0.010307 -0.000291 0.021751 0.011342 0.001639 0.001172
# 4 -0.007327 -0.000525 0.011342 0.027007 0.002904 0.002590
# 5 -0.005711 -0.000194 0.001639 0.002904 0.019365 -0.004846
# 6 0.003858 0.002966 0.001172 0.002590 -0.004846 0.022950
#
#
# Mechanical properties :
#
#
# Convention : Reuss Voigt Hill
#
# Bulk Modulus (GPa) = 46.67928 60.56141 53.62035
# Shear Modulus (GPa) = 34.38154 50.53717 42.45936
#
# Velocity S-wave (km/s) = 3.46553 4.20158 3.85118
# Velocity P-wave (km/s) = 5.68497 6.68525 6.20530
#
# Compressibility (1/GPa) = 0.02142278
#
# Stress axis : x y z
#
# Youngs Moduli (GPa) = 58.91634 154.56272 45.97569
#
# Poissons Ratio (x) = 0.19898 0.47388
# Poissons Ratio (y) = 0.07585 0.01338
# Poissons Ratio (z) = 0.60726 0.04497
#
# Static dielectric constant tensor:
#      x y z
#    x 4.552300 0.184720 -0.347180 
#    y 0.184720 2.099710 -0.007580 
#    z -0.347180 -0.007580 2.357340 
# 
# From -- ./inp_files/117358.got.cif
#   From: 2010.05.17/outbox.cif.g08.bks.cpg/sg2_59_cif.got.tgz:117358.got - 2010.06.03 11:33:40.
