data_PCOD9070977
_publ_section_title
;
Structure prediction by ZEFSAII (Michael W. Deem and Ramdas Pophale) SiO2 
 PCOD9070977
Probable space group: P -1
;
_chemical_formula_sum "Si O2"
_cell_formula_units_Z 16
_cell_length_a 11.932214
_cell_length_b 9.306207
_cell_length_c 16.453134
_cell_angle_alpha 62.085804
_cell_angle_beta 30.140488
_cell_angle_gamma 52.384190
_cell_volume 718.449940
_symmetry_space_group_name_H-M "P -1"
_symmetry_group_IT_number 2
_symmetry_cell_setting 'triclinic'
loop_
_space_group_symop_operation_xyz
x,y,z
-x,-y,-z
loop_
_atom_site_type_symbol
_atom_site_label
_atom_site_fract_x
_atom_site_fract_y
_atom_site_fract_z
Si Si1 0.979597 0.815354 0.559076
Si Si2 0.535935 0.033342 0.061867
Si Si3 0.909620 0.714927 0.020570
Si Si4 0.125331 0.240770 0.787805
Si Si5 0.252972 0.690604 0.106703
Si Si6 0.355937 0.829691 0.700876
Si Si7 0.653976 0.524575 0.471890
Si Si8 0.110411 0.303509 0.522637
O O1 0.729289 0.852681 0.756314
O O2 0.935768 0.802281 0.494279
O O3 0.217224 0.641566 0.499456
O O4 0.000000 0.000000 0.500000
O O5 0.705139 0.839387 0.050436
O O6 0.687691 0.149048 0.944532
O O7 0.500000 0.000000 0.000000
O O8 0.788822 0.774190 0.169767
O O9 0.000000 0.500000 0.000000
O O10 0.134562 0.773379 0.870530
O O11 0.131552 0.425703 0.706623
O O12 0.844473 0.277904 0.933439
O O13 0.267189 0.046828 0.702857
O O14 0.043609 0.691014 0.300789
O O15 0.500000 0.500000 0.000000
O O16 0.465270 0.719450 0.578505
O O17 0.599900 0.754877 0.625115
O O18 0.500000 0.500000 0.500000
O O19 0.000000 0.500000 0.500000
#
# Coordination Sequence:
#
# PCOD9070977 Si02
#       8
#     2   2   2   2   2   2   2   2
#     4  12  29  50  77 112 154 206 256 316 388 460
#     4  12  29  51  75 113 155 203 257 313 391 458
#     4  12  30  49  78 112 157 203 252 321 386 465
#     4  12  26  49  76 112 150 203 256 317 384 454
#     4  12  27  46  78 110 151 201 254 319 377 458
#     4  12  26  47  78 109 147 200 259 311 382 451
#     4  12  28  47  76 112 154 201 255 320 382 455
#     4  12  25  48  76 110 150 196 259 313 380 453
#
# _framework density 22.270168000000002
#
# number of rings (size 3 to 8) (size 9 to 14) (size 15 to 20)
#    0.000    0.000    3.750    4.500   14.000    0.000 
#    0.000    0.000    0.000    0.000    0.000    0.000 
#    0.000    0.000    0.000    0.000    0.000    0.000 
#
# Total GULP energy -89330.702665 kJ/mol
# GULP energy per Si atom -5583.168917 kJ/mol
# Density = 2.221948 g / cm^3
# Si number density = 22.270168 Si / 1000 Ang^3
#
#
#
# Elastic Constant Matrix: (Units=GPa)
#
#
# Indices 1 2 3 4 5 6 
#
# 1 198.8165 66.3374 15.1740 8.3163 -4.6843 11.2953
# 2 66.3374 150.3222 13.0924 4.7685 -11.1592 5.4018
# 3 15.1740 13.0924 53.2656 -3.4081 -3.6737 -5.4070
# 4 8.3163 4.7685 -3.4081 41.9452 1.2273 -9.7852
# 5 -4.6843 -11.1592 -3.6737 1.2273 32.9234 0.2180
# 6 11.2953 5.4018 -5.4070 -9.7852 0.2180 48.5015
#
#
#
# Elastic Compliance Matrix: (Units=1/GPa)
#
#
# Indices 1 2 3 4 5 6 
#
# 1 0.006110 -0.002479 -0.001387 -0.001411 -0.000062 -0.001586
# 2 -0.002479 0.008068 -0.001230 -0.000736 0.002276 -0.000617
# 3 -0.001387 -0.001230 0.020081 0.002760 0.001502 0.003249
# 4 -0.001411 -0.000736 0.002760 0.025847 -0.001145 0.005938
# 5 -0.000062 0.002276 0.001502 -0.001145 0.031349 -0.000443
# 6 -0.001586 -0.000617 0.003249 0.005938 -0.000443 0.022618
#
#
# Mechanical properties :
#
#
# Convention : Reuss Voigt Hill
#
# Bulk Modulus (GPa) = 41.54761 65.73466 53.64113
# Shear Modulus (GPa) = 37.79654 45.19404 41.49529
#
# Velocity S-wave (km/s) = 4.12416 4.50972 4.32124
# Velocity P-wave (km/s) = 6.43233 7.52979 7.00260
#
# Compressibility (1/GPa) = 0.02406877
#
# Stress axis : x y z
#
# Youngs Moduli (GPa) = 163.65949 123.94983 49.79774
#
# Poissons Ratio (x) = 0.30722 0.06907
# Poissons Ratio (y) = 0.40564 0.06124
# Poissons Ratio (z) = 0.22699 0.15242
#
# Static dielectric constant tensor:
#      x y z
#    x 1.485430 -0.113620 0.023430 
#    y -0.113620 1.778300 -0.013240 
#    z 0.023430 -0.013240 1.951600 
# 
# From -- ./inp_files/566620.got.cif
#   From: 2010.05.17/outbox.cif.g08.bks.cpg/sg2_284_cif.got.tgz:566620.got - 2010.06.03 11:33:40.
