data_PCOD9070786
_publ_section_title
;
Structure prediction by ZEFSAII (Michael W. Deem and Ramdas Pophale) SiO2 
 PCOD9070786
Probable space group: P -1
;
_chemical_formula_sum "Si O2"
_cell_formula_units_Z 16
_cell_length_a 12.162910
_cell_length_b 17.063053
_cell_length_c 8.803676
_cell_angle_alpha 31.850055
_cell_angle_beta 49.210976
_cell_angle_gamma 52.492994
_cell_volume 723.291470
_symmetry_space_group_name_H-M "P -1"
_symmetry_group_IT_number 2
_symmetry_cell_setting 'triclinic'
loop_
_space_group_symop_operation_xyz
x,y,z
-x,-y,-z
loop_
_atom_site_type_symbol
_atom_site_label
_atom_site_fract_x
_atom_site_fract_y
_atom_site_fract_z
Si Si1 0.940779 0.859992 0.361217
Si Si2 0.362230 0.093490 0.881909
Si Si3 0.397834 0.145704 0.409227
Si Si4 0.894059 0.106646 0.529639
Si Si5 0.525046 0.451064 0.729187
Si Si6 0.768744 0.578120 0.444624
Si Si7 0.271314 0.578540 0.940975
Si Si8 0.024158 0.458936 0.220266
O O1 0.764579 0.862002 0.502920
O O2 0.009676 0.850177 0.484780
O O3 0.001752 0.711345 0.457628
O O4 0.000000 0.000000 0.000000
O O5 0.395844 0.140900 0.602278
O O6 0.299532 0.248010 0.770141
O O7 0.500000 0.000000 0.000000
O O8 0.234379 0.989139 0.149842
O O9 0.500000 0.000000 0.500000
O O10 0.477163 0.288266 0.058902
O O11 0.809978 0.253795 0.280692
O O12 0.000000 0.000000 0.500000
O O13 0.500000 0.500000 0.500000
O O14 0.690272 0.477049 0.566358
O O15 0.435266 0.558433 0.760772
O O16 0.932308 0.562569 0.256531
O O17 0.749618 0.495776 0.756378
O O18 0.191938 0.475344 0.069604
O O19 0.000000 0.500000 0.000000
#
# Coordination Sequence:
#
# PCOD9070786 Si02
#       8
#     2   2   2   2   2   2   2   2
#     4  12  27  50  74 107 154 191 250 311 375 453
#     4  12  28  51  75 112 155 199 250 314 379 453
#     4  12  30  49  76 112 150 200 254 308 381 456
#     4  12  29  45  77 111 150 197 248 309 387 445
#     4  12  28  47  76 106 148 201 257 306 373 443
#     4  12  28  47  77 106 150 199 250 311 378 449
#     4  12  25  49  73 106 151 195 254 309 374 451
#     4  12  25  46  75 107 145 192 249 307 372 444
#
# _framework density 22.121095
#
# number of rings (size 3 to 8) (size 9 to 14) (size 15 to 20)
#    0.000    0.000    5.000    3.000   10.500    0.000 
#    0.000    0.000    0.000    0.000    0.000    0.000 
#    0.000    0.000    0.000    0.000    0.000    0.000 
#
# Total GULP energy -89480.590323 kJ/mol
# GULP energy per Si atom -5592.536895 kJ/mol
# Density = 2.207075 g / cm^3
# Si number density = 22.121095 Si / 1000 Ang^3
#
#
#
# Elastic Constant Matrix: (Units=GPa)
#
#
# Indices 1 2 3 4 5 6 
#
# 1 104.4365 -9.3565 10.8442 -9.5220 -3.7422 -3.4721
# 2 -9.3565 124.0923 22.7417 -28.8123 0.5088 -13.8947
# 3 10.8442 22.7417 137.4099 -26.8289 -1.4780 0.2608
# 4 -9.5220 -28.8123 -26.8289 45.6109 7.2168 2.2020
# 5 -3.7422 0.5088 -1.4780 7.2168 44.6774 1.6774
# 6 -3.4721 -13.8947 0.2608 2.2020 1.6774 29.8260
#
#
#
# Elastic Compliance Matrix: (Units=1/GPa)
#
#
# Indices 1 2 3 4 5 6 
#
# 1 0.010100 0.001688 -0.000545 0.002722 0.000303 0.001749
# 2 0.001688 0.010323 -0.000596 0.006493 -0.001217 0.004600
# 3 -0.000545 -0.000596 0.008293 0.004496 -0.000464 -0.000719
# 4 0.002722 0.006493 0.004496 0.029898 -0.004578 0.001353
# 5 0.000303 -0.001217 -0.000464 -0.004578 0.023202 -0.001495
# 6 0.001749 0.004600 -0.000719 0.001353 -0.001495 0.035865
#
#
# Mechanical properties :
#
#
# Convention : Reuss Voigt Hill
#
# Bulk Modulus (GPa) = 33.54502 46.04418 39.79460
# Shear Modulus (GPa) = 39.51825 46.80348 43.16086
#
# Velocity S-wave (km/s) = 4.23123 4.60476 4.42194
# Velocity P-wave (km/s) = 6.25046 7.00939 6.64077
#
# Compressibility (1/GPa) = 0.02981068
#
# Stress axis : x y z
#
# Youngs Moduli (GPa) = 99.00797 96.87448 120.57838
#
# Poissons Ratio (x) = -0.16352 0.06573
# Poissons Ratio (y) = -0.16712 0.07182
# Poissons Ratio (z) = 0.05397 0.05770
#
# Static dielectric constant tensor:
#      x y z
#    x 1.777270 -0.001010 -0.019570 
#    y -0.001010 1.800720 -0.010150 
#    z -0.019570 -0.010150 1.825430 
# 
# From -- ./inp_files/278640.got.cif
#   From: 2010.05.17/outbox.cif.g08.bks.cpg/sg2_140_cif.got.tgz:278640.got - 2010.06.03 11:33:40.
