data_PCOD9070221
_publ_section_title
;
Structure prediction by ZEFSAII (Michael W. Deem and Ramdas Pophale) SiO2 
 PCOD9070221
Probable space group: P -1
;
_chemical_formula_sum "Si O2"
_cell_formula_units_Z 15
_cell_length_a 12.550234
_cell_length_b 9.065245
_cell_length_c 18.700528
_cell_angle_alpha 151.274887
_cell_angle_beta 45.912019
_cell_angle_gamma 133.630972
_cell_volume 714.525406
_symmetry_space_group_name_H-M "P -1"
_symmetry_group_IT_number 2
_symmetry_cell_setting 'triclinic'
loop_
_space_group_symop_operation_xyz
x,y,z
-x,-y,-z
loop_
_atom_site_type_symbol
_atom_site_label
_atom_site_fract_x
_atom_site_fract_y
_atom_site_fract_z
Si Si1 0.930735 0.408164 0.721596
Si Si2 0.500000 0.500000 0.500000
Si Si3 0.588139 0.260750 0.016717
Si Si4 0.275953 0.137692 0.333724
Si Si5 0.221597 0.588275 0.760414
Si Si6 0.139322 0.333374 0.847492
Si Si7 0.364840 0.319549 0.036888
Si Si8 0.077616 0.589086 0.577759
O O1 0.783373 0.554033 0.854897
O O2 0.070784 0.580233 0.779698
O O3 0.980290 0.447396 0.632526
O O4 0.865131 0.065242 0.640946
O O5 0.414498 0.274923 0.379554
O O6 0.335398 0.454123 0.600075
O O7 0.671146 0.090308 0.845611
O O8 0.716427 0.502046 0.102199
O O9 0.451466 0.395143 0.103864
O O10 0.500000 0.000000 0.000000
O O11 0.223633 0.433517 0.448332
O O12 0.177021 0.391848 0.770684
O O13 0.306202 0.944606 0.894374
O O14 0.104872 0.966612 0.728311
O O15 0.000000 0.500000 0.000000
O O16 0.500000 0.500000 0.000000
O O17 0.000000 0.500000 0.500000
#
# Coordination Sequence:
#
# PCOD9070221 Si02
#       8
#     2   1   2   2   2   2   2   2
#     4  12  26  46  76 103 148 192 251 308 362 451
#     4  12  24  46  76 100 152 190 246 294 380 440
#     4  12  25  49  75 107 154 196 243 311 372 437
#     4  12  26  50  74 107 151 197 243 310 373 445
#     4  12  25  48  73 109 148 195 248 306 378 439
#     4  12  27  49  78 109 150 196 251 310 371 447
#     4  12  25  44  74 110 142 194 251 301 368 441
#     4  12  28  45  74 112 143 193 247 302 378 439
#
# _framework density 20.992956
#
# number of rings (size 3 to 8) (size 9 to 14) (size 15 to 20)
#    0.000    0.000    5.333    4.000    5.600    1.067 
#    0.000    2.667    0.000    0.000    0.000    0.000 
#    0.000    0.000    0.000    0.000    0.000    0.000 
#
# Total GULP energy -83596.781065 kJ/mol
# GULP energy per Si atom -5573.118738 kJ/mol
# Density = 2.094517 g / cm^3
# Si number density = 20.992956 Si / 1000 Ang^3
#
#
#
# Elastic Constant Matrix: (Units=GPa)
#
#
# Indices 1 2 3 4 5 6 
#
# 1 151.9738 67.0303 51.5888 -7.1548 17.7602 14.7310
# 2 67.0303 129.4276 50.9010 -3.5493 -5.0430 -5.0956
# 3 51.5888 50.9010 98.0739 -5.6860 -7.8809 -3.5341
# 4 -7.1548 -3.5493 -5.6860 42.9250 2.9622 0.0461
# 5 17.7602 -5.0430 -7.8809 2.9622 44.4020 4.3778
# 6 14.7310 -5.0956 -3.5341 0.0461 4.3778 43.1553
#
#
#
# Elastic Compliance Matrix: (Units=1/GPa)
#
#
# Indices 1 2 3 4 5 6 
#
# 1 0.010953 -0.004450 -0.003946 0.001303 -0.005274 -0.004054
# 2 -0.004450 0.011541 -0.003403 -0.000398 0.002279 0.002372
# 3 -0.003946 -0.003403 0.014428 0.000726 0.003530 0.001768
# 4 0.001303 -0.000398 0.000726 0.023715 -0.001994 -0.000255
# 5 -0.005274 0.002279 0.003530 -0.001994 0.025674 -0.000244
# 6 -0.004054 0.002372 0.001768 -0.000255 -0.000244 0.025006
#
#
# Mechanical properties :
#
#
# Convention : Reuss Voigt Hill
#
# Bulk Modulus (GPa) = 75.06054 79.83507 77.44780
# Shear Modulus (GPa) = 35.87926 40.09348 37.98637
#
# Velocity S-wave (km/s) = 4.13862 4.37493 4.25842
# Velocity P-wave (km/s) = 7.65966 7.97697 7.81992
#
# Compressibility (1/GPa) = 0.01332258
#
# Stress axis : x y z
#
# Youngs Moduli (GPa) = 91.29858 86.64985 69.30923
#
# Poissons Ratio (x) = 0.38559 0.27352
# Poissons Ratio (y) = 0.40627 0.23589
# Poissons Ratio (z) = 0.36029 0.29490
#
# Static dielectric constant tensor:
#      x y z
#    x 1.688690 0.010230 -0.035150 
#    y 0.010230 1.715000 -0.001210 
#    z -0.035150 -0.001210 1.777400 
# 
# From -- ./inp_files/491988.got.cif
#   From: 2010.05.17/outbox.cif.g08.bks.cpg/sg2_246_cif.got.tgz:491988.got - 2010.06.03 11:33:40.
