data_PCOD9070456
_publ_section_title
;
Structure prediction by ZEFSAII (Michael W. Deem and Ramdas Pophale) SiO2 
 PCOD9070456
Probable space group: P -1
;
_chemical_formula_sum "Si O2"
_cell_formula_units_Z 15
_cell_length_a 15.614985
_cell_length_b 8.912288
_cell_length_c 14.932903
_cell_angle_alpha 90.032928
_cell_angle_beta 18.817757
_cell_angle_gamma 91.260571
_cell_volume 668.838602
_symmetry_space_group_name_H-M "P -1"
_symmetry_group_IT_number 2
_symmetry_cell_setting 'triclinic'
loop_
_space_group_symop_operation_xyz
x,y,z
-x,-y,-z
loop_
_atom_site_type_symbol
_atom_site_label
_atom_site_fract_x
_atom_site_fract_y
_atom_site_fract_z
Si Si1 0.051530 0.468600 0.052156
Si Si2 0.876561 0.856746 0.947414
Si Si3 0.500000 0.000000 0.000000
Si Si4 0.729093 0.742465 0.898682
Si Si5 0.886340 0.286496 0.640108
Si Si6 0.592456 0.970863 0.510125
Si Si7 0.420655 0.359471 0.402852
Si Si8 0.423789 0.424193 0.200462
O O1 0.820680 0.535366 0.340075
O O2 0.096285 0.295875 0.024708
O O3 0.320317 0.555535 0.814940
O O4 0.000000 0.500000 0.000000
O O5 0.619402 0.946336 0.221490
O O6 0.855753 0.808794 0.864613
O O7 0.124175 0.959020 0.738594
O O8 0.768907 0.113429 0.765484
O O9 0.583987 0.868407 0.986325
O O10 0.973910 0.695596 0.594663
O O11 0.520055 0.598793 0.124288
O O12 0.130869 0.357585 0.459773
O O13 0.633843 0.376767 0.917868
O O14 0.500000 0.000000 0.500000
O O15 0.606296 0.796250 0.517975
O O16 0.461862 0.338388 0.256382
#
# Coordination Sequence:
#
# PCOD9070456 Si02
#       8
#     2   2   1   2   2   2   2   2
#     4  12  24  48  76 108 147 195 249 314 384 450
#     4  12  28  45  80 109 150 199 247 323 372 455
#     4  12  30  48  76 110 152 194 256 314 382 450
#     4  12  29  50  75 112 152 197 268 306 389 445
#     4  12  28  49  75 107 147 205 241 319 366 454
#     4  12  27  49  74 112 155 199 246 309 396 463
#     4  12  26  46  74 113 147 194 256 311 367 470
#     4  12  28  48  78 105 151 199 259 304 378 441
#
# _framework density 22.426935
#
# number of rings (size 3 to 8) (size 9 to 14) (size 15 to 20)
#    0.000    0.000    2.667    6.000    7.467    0.000 
#    0.000    0.000    0.000    0.000    0.000    0.000 
#    0.000    0.000    0.000    0.000    0.000    0.000 
#
# Total GULP energy -83666.431974 kJ/mol
# GULP energy per Si atom -5577.762132 kJ/mol
# Density = 2.237589 g / cm^3
# Si number density = 22.426935 Si / 1000 Ang^3
#
#
#
# Elastic Constant Matrix: (Units=GPa)
#
#
# Indices 1 2 3 4 5 6 
#
# 1 110.7657 -21.0587 -3.2713 -22.9877 -13.0486 16.9146
# 2 -21.0587 146.1951 -1.6041 -58.7248 -12.3897 -5.4310
# 3 -3.2713 -1.6041 135.2883 -17.2508 -42.0124 22.7944
# 4 -22.9877 -58.7248 -17.2508 58.5396 18.5900 -12.1199
# 5 -13.0486 -12.3897 -42.0124 18.5900 48.9513 -13.6541
# 6 16.9146 -5.4310 22.7944 -12.1199 -13.6541 49.1456
#
#
#
# Elastic Compliance Matrix: (Units=1/GPa)
#
#
# Indices 1 2 3 4 5 6 
#
# 1 0.013534 0.006992 0.003164 0.011951 0.003125 -0.001537
# 2 0.006992 0.016187 0.002889 0.019975 0.001824 0.003475
# 3 0.003164 0.002889 0.011225 0.004088 0.008965 -0.002477
# 4 0.011951 0.019975 0.004088 0.045535 -0.003762 0.006382
# 5 0.003125 0.001824 0.008965 -0.003762 0.031635 0.002829
# 6 -0.001537 0.003475 -0.002477 0.006382 0.002829 0.024770
#
#
# Mechanical properties :
#
#
# Convention : Reuss Voigt Hill
#
# Bulk Modulus (GPa) = 14.91752 37.82009 26.36881
# Shear Modulus (GPa) = 35.93498 59.20617 47.57058
#
# Velocity S-wave (km/s) = 4.00723 5.14363 4.61058
# Velocity P-wave (km/s) = 5.29874 7.22331 6.33454
#
# Compressibility (1/GPa) = 0.06703525
#
# Stress axis : x y z
#
# Youngs Moduli (GPa) = 73.88804 61.77942 89.08745
#
# Poissons Ratio (x) = -0.43199 -0.28183
# Poissons Ratio (y) = -0.51666 -0.25736
# Poissons Ratio (z) = -0.23375 -0.17847
#
# Static dielectric constant tensor:
#      x y z
#    x 1.842490 0.019340 0.022270 
#    y 0.019340 1.813500 0.021640 
#    z 0.022270 0.021640 1.824070 
# 
# From -- ./inp_files/528552.got.cif
#   From: 2010.05.17/outbox.cif.g08.bks.cpg/sg2_265_cif.got.tgz:528552.got - 2010.06.03 11:33:40.
