data_PCOD9070563
_publ_section_title
;
Structure prediction by ZEFSAII (Michael W. Deem and Ramdas Pophale) SiO2 
 PCOD9070563
Probable space group: P -1
;
_chemical_formula_sum "Si O2"
_cell_formula_units_Z 15
_cell_length_a 11.822915
_cell_length_b 12.445528
_cell_length_c 7.824080
_cell_angle_alpha 138.971141
_cell_angle_beta 59.889360
_cell_angle_gamma 128.129645
_cell_volume 593.030316
_symmetry_space_group_name_H-M "P -1"
_symmetry_group_IT_number 2
_symmetry_cell_setting 'triclinic'
loop_
_space_group_symop_operation_xyz
x,y,z
-x,-y,-z
loop_
_atom_site_type_symbol
_atom_site_label
_atom_site_fract_x
_atom_site_fract_y
_atom_site_fract_z
Si Si1 0.000000 0.000000 0.000000
Si Si2 0.333820 0.697939 0.627703
Si Si3 0.415989 0.365910 0.750560
Si Si4 0.712287 0.958713 0.019646
Si Si5 0.167006 0.045883 0.445340
Si Si6 0.892154 0.319656 0.766502
Si Si7 0.934535 0.634617 0.645845
Si Si8 0.608156 0.322813 0.044070
O O1 0.976199 0.823610 0.929996
O O2 0.174752 0.067204 0.971931
O O3 0.491152 0.745601 0.495175
O O4 0.276040 0.839287 0.772176
O O5 0.231338 0.495226 0.406086
O O6 0.343550 0.692869 0.818716
O O7 0.254879 0.215073 0.702383
O O8 0.500000 0.500000 0.000000
O O9 0.414123 0.497714 0.758057
O O10 0.547674 0.839950 0.058902
O O11 0.750569 0.905416 0.740201
O O12 0.163794 0.860879 0.297621
O O13 0.000000 0.000000 0.500000
O O14 0.745854 0.337037 0.843012
O O15 0.989144 0.293816 0.510778
O O16 0.000000 0.500000 0.000000
O O17 0.000000 0.500000 0.500000
#
# Coordination Sequence:
#
# PCOD9070563 Si02
#       8
#     1   2   2   2   2   2   2   2
#     4  12  28  46  76 116 154 210 260 312 404 472
#     4  12  24  50  80 108 150 208 259 319 399 466
#     4  12  30  48  72 117 160 204 259 329 395 475
#     4  12  25  49  78 112 150 209 262 323 393 473
#     4  12  26  46  78 110 156 199 265 324 386 472
#     4  12  25  47  77 117 148 199 265 324 391 465
#     4  12  27  49  77 112 162 205 252 326 394 468
#     4  12  25  47  81 109 150 199 265 316 391 466
#
# _framework density 25.293817000000001
#
# number of rings (size 3 to 8) (size 9 to 14) (size 15 to 20)
#    0.000    0.000    5.333    4.000    3.733    4.267 
#    0.000    2.000    0.000    0.000    0.000    0.000 
#    0.000    0.000    0.000    0.000    0.000    0.000 
#
# Total GULP energy -83765.715624 kJ/mol
# GULP energy per Si atom -5584.381042 kJ/mol
# Density = 2.523625 g / cm^3
# Si number density = 25.293817 Si / 1000 Ang^3
#
#
#
# Elastic Constant Matrix: (Units=GPa)
#
#
# Indices 1 2 3 4 5 6 
#
# 1 150.2263 46.2620 26.0765 25.3635 -17.3768 20.6757
# 2 46.2620 112.8247 36.7714 23.0262 6.6123 23.7766
# 3 26.0765 36.7714 56.3773 16.6182 4.3613 6.4146
# 4 25.3635 23.0262 16.6182 65.2160 6.6759 -7.0526
# 5 -17.3768 6.6123 4.3613 6.6759 44.5057 14.7603
# 6 20.6757 23.7766 6.4146 -7.0526 14.7603 63.7886
#
#
#
# Elastic Compliance Matrix: (Units=1/GPa)
#
#
# Indices 1 2 3 4 5 6 
#
# 1 0.009450 -0.002037 -0.002044 -0.003467 0.005996 -0.003869
# 2 -0.002037 0.013130 -0.006398 -0.002570 -0.000486 -0.003762
# 3 -0.002044 -0.006398 0.023711 -0.002688 -0.002046 0.000839
# 4 -0.003467 -0.002570 -0.002688 0.019469 -0.005549 0.005789
# 5 0.005996 -0.000486 -0.002046 -0.005549 0.028849 -0.008845
# 6 -0.003869 -0.003762 0.000839 0.005789 -0.008845 0.020935
#
#
# Mechanical properties :
#
#
# Convention : Reuss Voigt Hill
#
# Bulk Modulus (GPa) = 39.47466 59.73867 49.60667
# Shear Modulus (GPa) = 34.49542 48.72329 41.60935
#
# Velocity S-wave (km/s) = 3.69696 4.39372 4.06031
# Velocity P-wave (km/s) = 5.81925 7.02914 6.45261
#
# Compressibility (1/GPa) = 0.02533270
#
# Stress axis : x y z
#
# Youngs Moduli (GPa) = 105.81757 76.16307 42.17404
#
# Poissons Ratio (x) = 0.15516 0.08620
# Poissons Ratio (y) = 0.21557 0.26984
# Poissons Ratio (z) = 0.21628 0.48731
#
# Static dielectric constant tensor:
#      x y z
#    x 2.205180 -0.054950 -0.391700 
#    y -0.054950 1.950730 0.030980 
#    z -0.391700 0.030980 2.795800 
# 
# From -- ./inp_files/263732.got.cif
#   From: 2010.05.17/outbox.cif.g08.bks.cpg/sg2_132_cif.got.tgz:263732.got - 2010.06.03 11:33:40.
