data_PCOD9070060
_publ_section_title
;
Structure prediction by ZEFSAII (Michael W. Deem and Ramdas Pophale) SiO2 
 PCOD9070060
Probable space group: P -1
;
_chemical_formula_sum "Si O2"
_cell_formula_units_Z 16
_cell_length_a 26.738991
_cell_length_b 11.490701
_cell_length_c 26.137269
_cell_angle_alpha 29.714060
_cell_angle_beta 10.882358
_cell_angle_gamma 30.165226
_cell_volume 745.620015
_symmetry_space_group_name_H-M "P -1"
_symmetry_group_IT_number 2
_symmetry_cell_setting 'triclinic'
loop_
_space_group_symop_operation_xyz
x,y,z
-x,-y,-z
loop_
_atom_site_type_symbol
_atom_site_label
_atom_site_fract_x
_atom_site_fract_y
_atom_site_fract_z
Si Si1 0.170939 0.244586 0.421913
Si Si2 0.398901 0.548145 0.876253
Si Si3 0.220322 0.907163 0.592899
Si Si4 0.704537 0.572846 0.083767
Si Si5 0.290597 0.885013 0.129786
Si Si6 0.206865 0.491178 0.684294
Si Si7 0.925642 0.269561 0.489601
Si Si8 0.300915 0.054204 0.830234
O O1 0.000000 0.500000 0.500000
O O2 0.960293 0.091632 0.665537
O O3 0.249232 0.127914 0.442275
O O4 0.439534 0.235516 0.122125
O O5 0.186521 0.403084 0.173725
O O6 0.300155 0.575593 0.906619
O O7 0.691701 0.400533 0.639542
O O8 0.409678 0.797360 0.797381
O O9 0.174455 0.687699 0.686587
O O10 0.482846 0.856481 0.382960
O O11 0.967503 0.964298 0.861550
O O12 0.466161 0.531412 0.376433
O O13 0.967445 0.517839 0.874395
O O14 0.667750 0.848879 0.998455
O O15 0.200447 0.740361 0.323591
O O16 0.239496 0.239250 0.775548
O O17 0.000000 0.000000 0.500000
#
# Coordination Sequence:
#
# PCOD9070060 Si02
#       8
#     2   2   2   2   2   2   2   2
#     4  12  27  43  69 103 140 184 226 286 357 407
#     4  12  28  46  69 109 143 184 233 291 353 418
#     4  12  24  47  72 100 142 183 236 286 349 426
#     4  12  24  45  74 101 138 179 239 290 342 418
#     4  12  24  45  68 100 139 183 230 283 345 420
#     4  12  25  47  75 102 131 187 240 293 351 413
#     4  12  26  44  72 100 142 187 232 276 344 427
#     4  12  28  46  71 103 143 183 229 297 357 408
#
# _framework density 21.458652000000001
#
# number of rings (size 3 to 8) (size 9 to 14) (size 15 to 20)
#    0.000    0.000    3.750    6.000    7.000    1.000 
#    0.000    0.000    0.000    0.000    0.000    0.000 
#    0.000    0.000    0.000    0.000    0.000    0.000 
#
# Total GULP energy -89658.377959 kJ/mol
# GULP energy per Si atom -5603.648622 kJ/mol
# Density = 2.140981 g / cm^3
# Si number density = 21.458652 Si / 1000 Ang^3
#
#
#
# Elastic Constant Matrix: (Units=GPa)
#
#
# Indices 1 2 3 4 5 6 
#
# 1 48.6276 -2.8895 3.7743 -9.7490 7.6378 -20.1633
# 2 -2.8895 77.9326 -2.7280 -7.3419 6.3222 -15.7007
# 3 3.7743 -2.7280 36.6075 34.4297 -33.2917 16.8499
# 4 -9.7490 -7.3419 34.4297 12.5265 16.2555 -24.7570
# 5 7.6378 6.3222 -33.2917 16.2555 4.8760 29.8557
# 6 -20.1633 -15.7007 16.8499 -24.7570 29.8557 1.7488
#
#
#
# Elastic Compliance Matrix: (Units=1/GPa)
#
#
# Indices 1 2 3 4 5 6 
#
# 1 0.019553 0.000655 0.006308 -0.004063 0.006442 0.003053
# 2 0.000655 0.013107 0.004374 -0.002234 0.002858 0.002683
# 3 0.006308 0.004374 0.016268 -0.000179 -0.003725 0.016306
# 4 -0.004063 -0.002234 -0.000179 0.024338 0.017229 -0.014753
# 5 0.006442 0.002858 -0.003725 0.017229 0.021410 0.014210
# 6 0.003053 0.002683 0.016306 -0.014753 0.014210 0.022545
#
#
# Mechanical properties :
#
#
# Convention : Reuss Voigt Hill
#
# Bulk Modulus (GPa) = 13.96608 17.72014 15.84311
# Shear Modulus (GPa) = 42.22415 14.83098 28.52756
#
# Velocity S-wave (km/s) = 4.44069 2.63181 3.65008
# Velocity P-wave (km/s) = 5.72847 4.18461 5.01629
#
# Compressibility (1/GPa) = 0.07160207
#
# Stress axis : x y z
#
# Youngs Moduli (GPa) = 51.14266 76.29304 61.47076
#
# Poissons Ratio (x) = -0.05000 -0.38774
# Poissons Ratio (y) = -0.03352 -0.26886
# Poissons Ratio (z) = -0.32259 -0.33369
#
# Static dielectric constant tensor:
#      x y z
#    x 1.776610 0.016150 0.013400 
#    y 0.016150 1.780410 0.014870 
#    z 0.013400 0.014870 1.868240 
# 
# From -- ./inp_files/477189.got.cif
#   From: 2010.05.17/outbox.cif.g08.bks.cpg/sg2_239_cif.got.tgz:477189.got - 2010.06.03 11:33:40.
