data_PCOD9070146
_publ_section_title
;
Structure prediction by ZEFSAII (Michael W. Deem and Ramdas Pophale) SiO2 
 PCOD9070146
Probable space group: P -1
;
_chemical_formula_sum "Si O2"
_cell_formula_units_Z 12
_cell_length_a 5.279892
_cell_length_b 21.161328
_cell_length_c 5.135181
_cell_angle_alpha 68.885982
_cell_angle_beta 88.484001
_cell_angle_gamma 89.374856
_cell_volume 535.044861
_symmetry_space_group_name_H-M "P -1"
_symmetry_group_IT_number 2
_symmetry_cell_setting 'triclinic'
loop_
_space_group_symop_operation_xyz
x,y,z
-x,-y,-z
loop_
_atom_site_type_symbol
_atom_site_label
_atom_site_fract_x
_atom_site_fract_y
_atom_site_fract_z
Si Si1 0.749152 0.955497 0.613044
Si Si2 0.998648 0.421570 0.535295
Si Si3 0.244448 0.681534 0.975716
Si Si4 0.499065 0.421454 0.198535
Si Si5 0.230019 0.775242 0.335489
Si Si6 0.731972 0.864680 0.248692
O O1 0.758559 0.895339 0.490592
O O2 0.500000 0.000000 0.500000
O O3 0.733912 0.924678 0.947660
O O4 0.000000 0.000000 0.500000
O O5 0.247273 0.406957 0.385883
O O6 0.000000 0.500000 0.500000
O O7 0.746982 0.411895 0.384379
O O8 0.972663 0.370824 0.852383
O O9 0.467565 0.630105 0.963745
O O10 0.194144 0.727902 0.658748
O O11 0.287470 0.730110 0.147435
O O12 0.500000 0.500000 0.000000
O O13 0.468960 0.824249 0.298505
O O14 0.971253 0.817128 0.247699
#
# Coordination Sequence:
#
# PCOD9070146 Si02
#       6
#     2   2   2   2   2   2
#     4  12  24  45  80 114 145 188 237 290 349 414
#     4  12  27  46  73 104 140 182 243 323 387 437
#     4  12  28  49  73 106 140 198 257 294 375 454
#     4  12  27  46  73 104 140 182 243 323 387 437
#     4  12  28  47  72 102 151 202 239 292 351 442
#     4  12  26  49  71 110 154 190 237 290 351 414
#
# _framework density 22.428028000000001
#
# number of rings (size 3 to 8) (size 9 to 14) (size 15 to 20)
#    0.000    0.000    3.333    6.000    2.333    2.667 
#    0.000    0.000    0.000    0.000    0.000    0.000 
#    0.000    0.000    0.000    0.000    0.000    0.000 
#
# Total GULP energy -67286.780937 kJ/mol
# GULP energy per Si atom -5607.231745 kJ/mol
# Density = 2.237698 g / cm^3
# Si number density = 22.428028 Si / 1000 Ang^3
#
#
#
# Elastic Constant Matrix: (Units=GPa)
#
#
# Indices 1 2 3 4 5 6 
#
# 1 177.9572 14.6924 50.7510 -14.9122 -22.5865 -8.6640
# 2 14.6924 69.8495 5.7416 9.4734 -8.4500 -10.0368
# 3 50.7510 5.7416 118.3066 -13.7530 -13.2944 0.4200
# 4 -14.9122 9.4734 -13.7530 55.9757 -0.4623 -8.4859
# 5 -22.5865 -8.4500 -13.2944 -0.4623 38.9648 8.9076
# 6 -8.6640 -10.0368 0.4200 -8.4859 8.9076 28.6822
#
#
#
# Elastic Compliance Matrix: (Units=1/GPa)
#
#
# Indices 1 2 3 4 5 6 
#
# 1 0.006944 -0.000951 -0.002446 0.001653 0.002670 0.001460
# 2 -0.000951 0.015658 -0.000447 -0.002401 0.001763 0.003941
# 3 -0.002446 -0.000447 0.009972 0.001708 0.002186 -0.001215
# 4 0.001653 -0.002401 0.001708 0.019972 -0.000010 0.005546
# 5 0.002670 0.001763 0.002186 -0.000010 0.030164 -0.007980
# 6 0.001460 0.003941 -0.001215 0.005546 -0.007980 0.040822
#
#
# Mechanical properties :
#
#
# Convention : Reuss Voigt Hill
#
# Bulk Modulus (GPa) = 40.18144 56.49813 48.33979
# Shear Modulus (GPa) = 35.83844 44.38643 40.11243
#
# Velocity S-wave (km/s) = 4.00175 4.45349 4.23365
# Velocity P-wave (km/s) = 6.26950 7.18960 6.74525
#
# Compressibility (1/GPa) = 0.02488711
#
# Stress axis : x y z
#
# Youngs Moduli (GPa) = 144.01273 63.86335 100.28195
#
# Poissons Ratio (x) = 0.06073 0.24524
# Poissons Ratio (y) = 0.13695 0.04483
# Poissons Ratio (z) = 0.35219 0.02855
#
# Static dielectric constant tensor:
#      x y z
#    x 1.802920 0.005270 0.028970 
#    y 0.005270 1.819800 0.008370 
#    z 0.028970 0.008370 1.827280 
# 
# From -- ./inp_files/4891.got.cif
#   From: 2010.05.17/outbox.cif.g08.bks.cpg/sg2_3_cif.got.tgz:4891.got - 2010.06.03 11:33:40.
