data_PCOD9070150
_publ_section_title
;
Structure prediction by ZEFSAII (Michael W. Deem and Ramdas Pophale) SiO2 
 PCOD9070150
Probable space group: P -1
;
_chemical_formula_sum "Si O2"
_cell_formula_units_Z 16
_cell_length_a 27.711720
_cell_length_b 8.731921
_cell_length_c 14.883456
_cell_angle_alpha 131.972943
_cell_angle_beta 160.513848
_cell_angle_gamma 39.403413
_cell_volume 731.707562
_symmetry_space_group_name_H-M "P -1"
_symmetry_group_IT_number 2
_symmetry_cell_setting 'triclinic'
loop_
_space_group_symop_operation_xyz
x,y,z
-x,-y,-z
loop_
_atom_site_type_symbol
_atom_site_label
_atom_site_fract_x
_atom_site_fract_y
_atom_site_fract_z
Si Si1 0.079243 0.100016 0.608972
Si Si2 0.743745 0.395643 0.026345
Si Si3 0.810935 0.700343 0.699198
Si Si4 0.430733 0.898458 0.414193
Si Si5 0.507912 0.231916 0.129723
Si Si6 0.804856 0.552368 0.005680
Si Si7 0.882405 0.905211 0.730759
Si Si8 0.673899 0.436481 0.235136
O O1 0.190849 0.202966 0.879388
O O2 0.909909 0.323823 0.349455
O O3 0.195421 0.861917 0.656473
O O4 0.000000 0.000000 0.500000
O O5 0.796377 0.431382 0.035070
O O6 0.698018 0.188438 0.870715
O O7 0.578496 0.648173 0.878801
O O8 0.823389 0.857603 0.703320
O O9 0.752364 0.549323 0.480038
O O10 0.670491 0.891488 0.602703
O O11 0.000000 0.500000 0.000000
O O12 0.500000 0.000000 0.500000
O O13 0.617346 0.645862 0.670392
O O14 0.715967 0.107245 0.456809
O O15 0.389806 0.440972 0.928346
O O16 0.500000 0.000000 0.000000
O O17 0.982532 0.356757 0.186257
O O18 0.000000 0.000000 0.000000
O O19 0.500000 0.500000 0.000000
#
# Coordination Sequence:
#
# PCOD9070150 Si02
#       8
#     2   2   2   2   2   2   2   2
#     4  12  24  46  68 104 142 182 236 287 357 419
#     4  12  26  46  73 104 144 188 234 294 354 424
#     4  12  26  48  72 104 144 185 236 293 355 423
#     4  12  26  47  73 103 143 186 240 293 350 425
#     4  12  26  48  72 104 147 185 238 293 359 425
#     4  12  26  45  72 106 143 187 238 292 356 421
#     4  12  26  46  74 104 143 188 238 293 354 426
#     4  12  28  44  74 105 142 188 236 296 356 423
#
# _framework density 21.86666
#
# number of rings (size 3 to 8) (size 9 to 14) (size 15 to 20)
#    0.000    0.000    2.500    7.500    7.000    0.000 
#    0.000    0.000    0.000    0.000    0.000    0.000 
#    0.000    0.000    0.000    0.000    0.000    0.000 
#
# Total GULP energy -89443.647515 kJ/mol
# GULP energy per Si atom -5590.227970 kJ/mol
# Density = 2.181689 g / cm^3
# Si number density = 21.866660 Si / 1000 Ang^3
#
#
#
# Elastic Constant Matrix: (Units=GPa)
#
#
# Indices 1 2 3 4 5 6 
#
# 1 126.2217 18.8554 8.9804 -3.6597 21.4160 -8.2115
# 2 18.8554 96.7532 17.0488 15.5017 18.3901 -26.3382
# 3 8.9804 17.0488 125.0393 2.9877 -3.6084 -12.5493
# 4 -3.6597 15.5017 2.9877 57.6254 0.8522 9.1157
# 5 21.4160 18.3901 -3.6084 0.8522 41.1231 -9.6347
# 6 -8.2115 -26.3382 -12.5493 9.1157 -9.6347 41.9591
#
#
#
# Elastic Compliance Matrix: (Units=1/GPa)
#
#
# Indices 1 2 3 4 5 6 
#
# 1 0.008864 -0.001036 -0.000676 0.000991 -0.004308 -0.000322
# 2 -0.001036 0.014783 -0.001020 -0.005360 -0.003933 0.009033
# 3 -0.000676 -0.001020 0.008501 -0.000619 0.002128 0.002393
# 4 0.000991 -0.005360 -0.000619 0.020135 -0.000425 -0.007828
# 5 -0.004308 -0.003933 0.002128 -0.000425 0.029497 0.004190
# 6 -0.000322 0.009033 0.002393 -0.007828 0.004190 0.032818
#
#
# Mechanical properties :
#
#
# Convention : Reuss Voigt Hill
#
# Bulk Modulus (GPa) = 37.47509 48.64262 43.05885
# Shear Modulus (GPa) = 38.77272 48.35017 43.56144
#
# Velocity S-wave (km/s) = 4.21544 4.70737 4.46818
# Velocity P-wave (km/s) = 6.39284 7.19995 6.80836
#
# Compressibility (1/GPa) = 0.02668440
#
# Stress axis : x y z
#
# Youngs Moduli (GPa) = 112.81359 67.64751 117.62652
#
# Poissons Ratio (x) = 0.07009 0.07948
# Poissons Ratio (y) = 0.11689 0.11998
# Poissons Ratio (z) = 0.07623 0.06900
#
# Static dielectric constant tensor:
#      x y z
#    x 1.962700 0.068430 -0.203650 
#    y 0.068430 1.816250 -0.041170 
#    z -0.203650 -0.041170 1.873160 
# 
# From -- ./inp_files/543868.got.cif
#   From: 2010.05.17/outbox.cif.g08.bks.cpg/sg2_272_cif.got.tgz:543868.got - 2010.06.03 11:33:40.
