data_PCOD9070489
_publ_section_title
;
Structure prediction by ZEFSAII (Michael W. Deem and Ramdas Pophale) SiO2 
 PCOD9070489
Probable space group: P -1
;
_chemical_formula_sum "Si O2"
_cell_formula_units_Z 13
_cell_length_a 11.706903
_cell_length_b 9.088659
_cell_length_c 21.562552
_cell_angle_alpha 29.277732
_cell_angle_beta 148.208991
_cell_angle_gamma 129.447279
_cell_volume 538.712274
_symmetry_space_group_name_H-M "P -1"
_symmetry_group_IT_number 2
_symmetry_cell_setting 'triclinic'
loop_
_space_group_symop_operation_xyz
x,y,z
-x,-y,-z
loop_
_atom_site_type_symbol
_atom_site_label
_atom_site_fract_x
_atom_site_fract_y
_atom_site_fract_z
Si Si1 0.000000 0.000000 0.000000
Si Si2 0.521321 0.099710 0.667242
Si Si3 0.036154 0.139820 0.624768
Si Si4 0.983675 0.366254 0.737126
Si Si5 0.709036 0.238589 0.233022
Si Si6 0.482601 0.846283 0.615327
Si Si7 0.288006 0.879226 0.956872
O O1 0.241891 0.979736 0.155932
O O2 0.084213 0.114591 0.932902
O O3 0.300357 0.443392 0.455933
O O4 0.411670 0.846616 0.732983
O O5 0.548115 0.045565 0.625903
O O6 0.788028 0.107529 0.517875
O O7 0.000000 0.500000 0.500000
O O8 0.164327 0.060630 0.646757
O O9 0.190141 0.873987 0.844953
O O10 0.103587 0.621572 0.709566
O O11 0.077923 0.163254 0.793013
O O12 0.500000 0.500000 0.000000
O O13 0.500000 0.000000 0.500000
O O14 0.634345 0.458015 0.843776
O O15 0.500000 0.000000 0.000000
#
# Coordination Sequence:
#
# PCOD9070489 Si02
#       7
#     1   2   2   2   2   2   2
#     4  12  30  48  78 112 160 202 274 324 404 474
#     4  12  27  52  80 113 156 215 271 328 404 477
#     4  12  26  48  80 119 160 209 267 332 403 483
#     4  12  27  48  80 114 158 206 267 329 398 476
#     4  12  24  48  81 114 154 204 267 335 390 473
#     4  12  30  51  78 117 168 214 264 331 414 485
#     4  12  27  48  81 120 160 207 268 334 404 478
#
# _framework density 24.131619000000001
#
# number of rings (size 3 to 8) (size 9 to 14) (size 15 to 20)
#    0.000    0.000    4.615    4.615    4.308    1.846 
#    0.000    0.000    0.000    0.000    0.000    0.000 
#    0.000    0.000    0.000    0.000    0.000    0.000 
#
# Total GULP energy -72591.061104 kJ/mol
# GULP energy per Si atom -5583.927777 kJ/mol
# Density = 2.407669 g / cm^3
# Si number density = 24.131619 Si / 1000 Ang^3
#
#
#
# Elastic Constant Matrix: (Units=GPa)
#
#
# Indices 1 2 3 4 5 6 
#
# 1 145.3134 51.5146 53.7043 0.9430 -20.1014 -24.4687
# 2 51.5146 118.9028 53.9396 26.7109 18.9542 -6.4955
# 3 53.7043 53.9396 123.8165 20.4962 -2.4711 -18.2835
# 4 0.9430 26.7109 20.4962 60.4470 -1.0671 0.6388
# 5 -20.1014 18.9542 -2.4711 -1.0671 52.1415 0.6210
# 6 -24.4687 -6.4955 -18.2835 0.6388 0.6210 41.1875
#
#
#
# Elastic Compliance Matrix: (Units=1/GPa)
#
#
# Indices 1 2 3 4 5 6 
#
# 1 0.011166 -0.005190 -0.002258 0.002943 0.006089 0.004676
# 2 -0.005190 0.014608 -0.003730 -0.005219 -0.007568 -0.002241
# 3 -0.002258 -0.003730 0.011547 -0.002249 0.000949 0.003217
# 4 0.002943 -0.005219 -0.002249 0.019630 0.003332 -0.000428
# 5 0.006089 -0.007568 0.000949 0.003332 0.024361 0.002426
# 6 0.004676 -0.002241 0.003217 -0.000428 0.002426 0.028102
#
#
# Mechanical properties :
#
#
# Convention : Reuss Voigt Hill
#
# Bulk Modulus (GPa) = 66.82295 78.48331 72.65313
# Shear Modulus (GPa) = 36.56094 46.01347 41.28721
#
# Velocity S-wave (km/s) = 3.89660 4.37140 4.14081
# Velocity P-wave (km/s) = 6.92790 7.62053 7.28245
#
# Compressibility (1/GPa) = 0.01496492
#
# Stress axis : x y z
#
# Youngs Moduli (GPa) = 89.55407 68.45789 86.60229
#
# Poissons Ratio (x) = 0.35530 0.19551
# Poissons Ratio (y) = 0.46479 0.32307
# Poissons Ratio (z) = 0.20217 0.25538
#
# Static dielectric constant tensor:
#      x y z
#    x 1.340730 -0.204860 -0.004100 
#    y -0.204860 1.840980 -0.101270 
#    z -0.004100 -0.101270 2.006470 
# 
# From -- ./inp_files/577886.got.cif
#   From: 2010.05.17/outbox.cif.g08.bks.cpg/sg2_289_cif.got.tgz:577886.got - 2010.06.03 11:33:40.
