data_PCOD9070182
_publ_section_title
;
Structure prediction by ZEFSAII (Michael W. Deem and Ramdas Pophale) SiO2 
 PCOD9070182
Probable space group: P -1
;
_chemical_formula_sum "Si O2"
_cell_formula_units_Z 16
_cell_length_a 14.742044
_cell_length_b 9.467207
_cell_length_c 9.093118
_cell_angle_alpha 105.160454
_cell_angle_beta 38.769456
_cell_angle_gamma 101.664425
_cell_volume 767.028724
_symmetry_space_group_name_H-M "P -1"
_symmetry_group_IT_number 2
_symmetry_cell_setting 'triclinic'
loop_
_space_group_symop_operation_xyz
x,y,z
-x,-y,-z
loop_
_atom_site_type_symbol
_atom_site_label
_atom_site_fract_x
_atom_site_fract_y
_atom_site_fract_z
Si Si1 0.091565 0.864123 0.899616
Si Si2 0.100026 0.594793 0.287216
Si Si3 0.402084 0.596921 0.759461
Si Si4 0.931753 0.630811 0.215816
Si Si5 0.362041 0.401356 0.298061
Si Si6 0.458158 0.112761 0.954847
Si Si7 0.621437 0.076920 0.264184
Si Si8 0.744970 0.290808 0.606074
O O1 0.233289 0.913114 0.822259
O O2 0.141558 0.757260 0.675173
O O3 0.986637 0.776612 0.113984
O O4 0.000000 0.000000 0.000000
O O5 0.177448 0.707799 0.332725
O O6 0.000000 0.500000 0.500000
O O7 0.986578 0.635901 0.315579
O O8 0.239663 0.544027 0.996147
O O9 0.500000 0.500000 0.500000
O O10 0.486896 0.594323 0.806373
O O11 0.400944 0.758320 0.728788
O O12 0.760764 0.613439 0.427755
O O13 0.000000 0.500000 0.000000
O O14 0.320280 0.547825 0.302517
O O15 0.366206 0.253296 0.159421
O O16 0.612126 0.179505 0.729247
O O17 0.375321 0.026953 0.909728
O O18 0.500000 0.000000 0.000000
O O19 0.500000 0.000000 0.500000
#
# Coordination Sequence:
#
# PCOD9070182 Si02
#       8
#     2   2   2   2   2   2   2   2
#     4  12  28  49  73 106 153 192 244 305 375 443
#     4  12  24  46  73 109 152 189 244 314 374 433
#     4  12  26  45  77 109 145 193 254 303 364 446
#     4  12  25  49  73 105 148 194 245 305 371 445
#     4  12  25  44  76 104 141 193 241 299 365 430
#     4  12  26  46  71 104 148 187 241 300 362 433
#     4  12  26  49  73 106 147 195 246 303 369 442
#     4  12  25  48  73 108 148 187 245 309 357 442
#
# _framework density 20.859712999999999
#
# number of rings (size 3 to 8) (size 9 to 14) (size 15 to 20)
#    0.000    0.000    7.500    1.875    3.500    1.000 
#    2.250    1.250    0.000    0.000    0.000    0.000 
#    0.000    0.000    0.000    0.000    0.000    0.000 
#
# Total GULP energy -89371.349992 kJ/mol
# GULP energy per Si atom -5585.709374 kJ/mol
# Density = 2.081224 g / cm^3
# Si number density = 20.859713 Si / 1000 Ang^3
#
#
#
# Elastic Constant Matrix: (Units=GPa)
#
#
# Indices 1 2 3 4 5 6 
#
# 1 108.4846 37.5681 12.5183 18.5657 10.7665 -8.1913
# 2 37.5681 139.3473 47.4121 -2.5925 3.6728 -25.8479
# 3 12.5183 47.4121 106.0715 -9.5641 4.9076 -12.1546
# 4 18.5657 -2.5925 -9.5641 53.0555 11.4559 1.6700
# 5 10.7665 3.6728 4.9076 11.4559 42.6691 -3.2368
# 6 -8.1913 -25.8479 -12.1546 1.6700 -3.2368 37.8671
#
#
#
# Elastic Compliance Matrix: (Units=1/GPa)
#
#
# Indices 1 2 3 4 5 6 
#
# 1 0.011052 -0.002849 -0.000254 -0.003746 -0.001478 0.000403
# 2 -0.002849 0.010111 -0.003563 0.000580 0.000494 0.005159
# 3 -0.000254 -0.003563 0.011432 0.002265 -0.001480 0.000956
# 4 -0.003746 0.000580 0.002265 0.021774 -0.005294 -0.001100
# 5 -0.001478 0.000494 -0.001480 -0.005294 0.025507 0.001956
# 6 0.000403 0.005159 0.000956 -0.001100 0.001956 0.030539
#
#
# Mechanical properties :
#
#
# Convention : Reuss Voigt Hill
#
# Bulk Modulus (GPa) = 51.91059 60.98892 56.44976
# Shear Modulus (GPa) = 38.41174 43.81198 41.11186
#
# Velocity S-wave (km/s) = 4.29585 4.58789 4.44427
# Velocity P-wave (km/s) = 7.03884 7.57404 7.31134
#
# Compressibility (1/GPa) = 0.01926389
#
# Stress axis : x y z
#
# Youngs Moduli (GPa) = 90.48072 98.89899 87.47100
#
# Poissons Ratio (x) = 0.28178 0.02222
# Poissons Ratio (y) = 0.25779 0.31164
# Poissons Ratio (z) = 0.02298 0.35236
#
# Static dielectric constant tensor:
#      x y z
#    x 1.725920 0.021350 0.031190 
#    y 0.021350 1.659190 -0.109490 
#    z 0.031190 -0.109490 1.699990 
# 
# From -- ./inp_files/205593.got.cif
#   From: 2010.05.17/outbox.cif.g08.bks.cpg/sg2_103_cif.got.tgz:205593.got - 2010.06.03 11:33:40.
