data_PCOD9070097
_publ_section_title
;
Structure prediction by ZEFSAII (Michael W. Deem and Ramdas Pophale) SiO2 
 PCOD9070097
Probable space group: P -1
;
_chemical_formula_sum "Si O2"
_cell_formula_units_Z 13
_cell_length_a 8.759122
_cell_length_b 11.956759
_cell_length_c 8.228410
_cell_angle_alpha 54.050982
_cell_angle_beta 56.017721
_cell_angle_gamma 76.667113
_cell_volume 572.348611
_symmetry_space_group_name_H-M "P -1"
_symmetry_group_IT_number 2
_symmetry_cell_setting 'triclinic'
loop_
_space_group_symop_operation_xyz
x,y,z
-x,-y,-z
loop_
_atom_site_type_symbol
_atom_site_label
_atom_site_fract_x
_atom_site_fract_y
_atom_site_fract_z
Si Si1 0.552838 0.176600 0.133992
Si Si2 0.500000 0.500000 0.500000
Si Si3 0.180669 0.574887 0.237432
Si Si4 0.072352 0.392033 0.927636
Si Si5 0.208299 0.056770 0.875658
Si Si6 0.830840 0.896537 0.766486
Si Si7 0.401481 0.337563 0.375475
O O1 0.355509 0.128745 0.208022
O O2 0.517557 0.256023 0.252531
O O3 0.658103 0.043701 0.195869
O O4 0.687310 0.300826 0.853155
O O5 0.270986 0.451024 0.678766
O O6 0.514185 0.420950 0.382323
O O7 0.300632 0.450006 0.241526
O O8 0.000000 0.500000 0.500000
O O9 0.088372 0.640289 0.083694
O O10 0.102085 0.252306 0.121746
O O11 0.000000 0.500000 0.000000
O O12 0.259451 0.213075 0.646259
O O13 0.223381 0.054539 0.063796
O O14 0.000000 0.000000 0.000000
O O15 0.000000 0.000000 0.500000
#
# Coordination Sequence:
#
# PCOD9070097 Si02
#       7
#     2   1   2   2   2   2   2
#     4  12  27  46  75 112 153 206 256 319 393 468
#     4  12  24  46  78 112 156 198 264 322 392 460
#     4  12  24  45  74 108 151 196 251 316 387 462
#     4  12  26  47  75 111 152 202 259 323 390 466
#     4  12  26  49  76 110 153 204 255 318 392 470
#     4  12  27  51  74 113 155 202 259 320 392 473
#     4  12  25  48  75 111 153 200 258 321 387 469
#
# _framework density 22.713429999999999
#
# number of rings (size 3 to 8) (size 9 to 14) (size 15 to 20)
#    0.000    0.000    3.077    6.923    0.000    3.692 
#    0.000    0.000    0.000    0.000    0.000    0.000 
#    0.000    0.000    0.000    0.000    0.000    0.000 
#
# Total GULP energy -72551.777692 kJ/mol
# GULP energy per Si atom -5580.905976 kJ/mol
# Density = 2.266173 g / cm^3
# Si number density = 22.713430 Si / 1000 Ang^3
#
#
#
# Elastic Constant Matrix: (Units=GPa)
#
#
# Indices 1 2 3 4 5 6 
#
# 1 177.1850 72.8950 54.5259 -10.1852 -36.4262 -1.7322
# 2 72.8950 153.7979 3.9551 9.6532 -4.2899 -15.3268
# 3 54.5259 3.9551 82.4060 -6.1652 -32.1064 -8.3832
# 4 -10.1852 9.6532 -6.1652 43.4727 1.7731 7.2353
# 5 -36.4262 -4.2899 -32.1064 1.7731 37.3856 -3.1193
# 6 -1.7322 -15.3268 -8.3832 7.2353 -3.1193 44.1781
#
#
#
# Elastic Compliance Matrix: (Units=1/GPa)
#
#
# Indices 1 2 3 4 5 6 
#
# 1 0.010382 -0.005086 -0.004591 0.003090 0.005245 -0.002364
# 2 -0.005086 0.009443 0.002632 -0.003549 -0.001103 0.004080
# 3 -0.004591 0.002632 0.021333 -0.000206 0.014647 0.005849
# 4 0.003090 -0.003549 -0.000206 0.025326 0.000789 -0.005241
# 5 0.005245 -0.001103 0.014647 0.000789 0.044744 0.005632
# 6 -0.002364 0.004080 0.005849 -0.005241 0.005632 0.026324
#
#
# Mechanical properties :
#
#
# Convention : Reuss Voigt Hill
#
# Bulk Modulus (GPa) = 36.94432 75.12676 56.03554
# Shear Modulus (GPa) = 31.12070 43.80814 37.46442
#
# Velocity S-wave (km/s) = 3.70556 4.39650 4.06573
# Velocity P-wave (km/s) = 5.88294 7.67594 6.83846
#
# Compressibility (1/GPa) = 0.02706776
#
# Stress axis : x y z
#
# Youngs Moduli (GPa) = 96.32212 105.89354 46.87632
#
# Poissons Ratio (x) = 0.53856 0.21521
# Poissons Ratio (y) = 0.48988 -0.12337
# Poissons Ratio (z) = 0.44221 -0.27868
#
# Static dielectric constant tensor:
#      x y z
#    x 1.872870 -0.001200 -0.003200 
#    y -0.001200 1.818200 0.012100 
#    z -0.003200 0.012100 1.965740 
# 
# From -- ./inp_files/146435.got.cif
#   From: 2010.05.17/outbox.cif.g08.bks.cpg/sg2_74_cif.got.tgz:146435.got - 2010.06.03 11:33:40.
