data_PCOD9070881
_publ_section_title
;
Structure prediction by ZEFSAII (Michael W. Deem and Ramdas Pophale) SiO2 
 PCOD9070881
Probable space group: P -1
;
_chemical_formula_sum "Si O2"
_cell_formula_units_Z 15
_cell_length_a 9.473127
_cell_length_b 18.028291
_cell_length_c 11.924168
_cell_angle_alpha 26.857901
_cell_angle_beta 137.515736
_cell_angle_gamma 130.094836
_cell_volume 620.736282
_symmetry_space_group_name_H-M "P -1"
_symmetry_group_IT_number 2
_symmetry_cell_setting 'triclinic'
loop_
_space_group_symop_operation_xyz
x,y,z
-x,-y,-z
loop_
_atom_site_type_symbol
_atom_site_label
_atom_site_fract_x
_atom_site_fract_y
_atom_site_fract_z
Si Si1 0.014858 0.681846 0.215319
Si Si2 0.125150 0.325904 0.321719
Si Si3 0.737208 0.250948 0.306689
Si Si4 0.780577 0.775349 0.731094
Si Si5 0.573422 0.188491 0.809091
Si Si6 0.796308 0.941265 0.898395
Si Si7 0.500000 0.500000 0.000000
Si Si8 0.377927 0.858550 0.850008
O O1 0.244555 0.754231 0.244155
O O2 0.000000 0.500000 0.500000
O O3 0.915663 0.686728 0.027158
O O4 0.868791 0.795656 0.054981
O O5 0.119772 0.240608 0.311861
O O6 0.368454 0.309731 0.516746
O O7 0.988203 0.243150 0.448379
O O8 0.000000 0.500000 0.000000
O O9 0.644169 0.401883 0.120331
O O10 0.655972 0.251840 0.129957
O O11 0.689978 0.084284 0.566806
O O12 0.743508 0.966868 0.476851
O O13 0.567530 0.677914 0.745563
O O14 0.669918 0.199624 0.975149
O O15 0.500000 0.000000 0.000000
O O16 0.624048 0.888719 0.955416
O O17 0.000000 0.000000 0.000000
#
# Coordination Sequence:
#
# PCOD9070881 Si02
#       8
#     2   2   2   2   2   2   1   2
#     4  12  30  49  77 118 164 203 268 337 399 464
#     4  12  27  47  77 110 155 203 264 317 399 479
#     4  12  25  47  76 112 152 207 264 325 397 475
#     4  12  26  47  79 114 155 209 259 331 398 478
#     4  12  27  50  82 119 157 216 266 330 400 483
#     4  12  26  45  72 111 154 208 264 323 395 479
#     4  12  26  44  80 110 154 200 268 316 402 468
#     4  12  25  48  79 114 155 202 273 328 393 476
#
# _framework density 24.164852
#
# number of rings (size 3 to 8) (size 9 to 14) (size 15 to 20)
#    0.000    0.000    5.333    4.400    3.733    3.200 
#    0.000    2.000    0.000    0.000    0.000    0.000 
#    0.000    0.000    0.000    0.000    0.000    0.000 
#
# Total GULP energy -83773.579082 kJ/mol
# GULP energy per Si atom -5584.905272 kJ/mol
# Density = 2.410985 g / cm^3
# Si number density = 24.164852 Si / 1000 Ang^3
#
#
#
# Elastic Constant Matrix: (Units=GPa)
#
#
# Indices 1 2 3 4 5 6 
#
# 1 155.7456 30.4898 38.7440 -22.3425 9.3216 -9.0258
# 2 30.4898 61.1841 40.8128 -9.3108 -4.4644 -17.2777
# 3 38.7440 40.8128 129.1141 -6.1675 -0.1839 -10.1515
# 4 -22.3425 -9.3108 -6.1675 42.3166 -11.2206 -1.4751
# 5 9.3216 -4.4644 -0.1839 -11.2206 31.9387 -6.3645
# 6 -9.0258 -17.2777 -10.1515 -1.4751 -6.3645 44.9038
#
#
#
# Elastic Compliance Matrix: (Units=1/GPa)
#
#
# Indices 1 2 3 4 5 6 
#
# 1 0.007793 -0.002609 -0.001367 0.002923 -0.001596 0.000124
# 2 -0.002609 0.026127 -0.006435 0.005980 0.008361 0.009455
# 3 -0.001367 -0.006435 0.010095 -0.000925 -0.000892 -0.000625
# 4 0.002923 0.005980 -0.000925 0.029566 0.011414 0.005268
# 5 -0.001596 0.008361 -0.000892 0.011414 0.038653 0.008548
# 6 0.000124 0.009455 -0.000625 0.005268 0.008548 0.027176
#
#
# Mechanical properties :
#
#
# Convention : Reuss Voigt Hill
#
# Bulk Modulus (GPa) = 43.11471 62.90408 53.00940
# Shear Modulus (GPa) = 29.76874 39.56497 34.66685
#
# Velocity S-wave (km/s) = 3.51365 4.05074 3.79172
# Velocity P-wave (km/s) = 5.86018 6.92573 6.41511
#
# Compressibility (1/GPa) = 0.02319394
#
# Stress axis : x y z
#
# Youngs Moduli (GPa) = 128.31345 38.27528 99.06169
#
# Poissons Ratio (x) = 0.09984 0.13542
# Poissons Ratio (y) = 0.33471 0.63744
# Poissons Ratio (z) = 0.17540 0.24629
#
# Static dielectric constant tensor:
#      x y z
#    x 1.985970 0.060160 -0.078410 
#    y 0.060160 2.048180 0.093640 
#    z -0.078410 0.093640 1.965130 
# 
# From -- ./inp_files/402774.got.cif
#   From: 2010.05.17/outbox.cif.g08.bks.cpg/sg2_202_cif.got.tgz:402774.got - 2010.06.03 11:33:40.
