data_PCOD9070891
_publ_section_title
;
Structure prediction by ZEFSAII (Michael W. Deem and Ramdas Pophale) SiO2 
 PCOD9070891
Probable space group: P -1
;
_chemical_formula_sum "Si O2"
_cell_formula_units_Z 12
_cell_length_a 11.824499
_cell_length_b 11.401835
_cell_length_c 4.761471
_cell_angle_alpha 126.366222
_cell_angle_beta 104.294526
_cell_angle_gamma 59.306594
_cell_volume 443.064311
_symmetry_space_group_name_H-M "P -1"
_symmetry_group_IT_number 2
_symmetry_cell_setting 'triclinic'
loop_
_space_group_symop_operation_xyz
x,y,z
-x,-y,-z
loop_
_atom_site_type_symbol
_atom_site_label
_atom_site_fract_x
_atom_site_fract_y
_atom_site_fract_z
Si Si1 0.456892 0.357190 0.743914
Si Si2 0.397934 0.844148 0.955258
Si Si3 0.215375 0.127214 0.900859
Si Si4 0.941050 0.347950 0.241685
Si Si5 0.136603 0.909723 0.128158
Si Si6 0.189553 0.439074 0.003073
O O1 0.488521 0.295492 0.358185
O O2 0.312242 0.421241 0.867055
O O3 0.500000 0.500000 0.000000
O O4 0.546171 0.194312 0.752499
O O5 0.261539 0.832666 0.884931
O O6 0.344131 0.017961 0.011039
O O7 0.226145 0.262655 0.906787
O O8 0.095770 0.223961 0.181777
O O9 0.168678 0.021555 0.521554
O O10 0.140703 0.567041 0.411408
O O11 0.877675 0.234654 0.926142
O O12 0.926925 0.479302 0.181861
O O13 0.000000 0.000000 0.000000
#
# Coordination Sequence:
#
# PCOD9070891 Si02
#       6
#     2   2   2   2   2   2
#     4  12  26  50  74 108 150 203 251 304 370 456
#     4  12  26  46  77 106 150 191 256 309 369 441
#     4  12  28  47  76 118 150 195 254 315 382 439
#     4  12  26  47  76 108 152 199 250 310 372 448
#     4  12  25  47  77 112 150 193 251 313 376 444
#     4  12  29  48  76 108 158 202 248 305 378 446
#
# _framework density 27.084105000000001
#
# number of rings (size 3 to 8) (size 9 to 14) (size 15 to 20)
#    0.000    0.000    3.333    6.000    4.667    1.333 
#    0.000    0.000    0.000    0.000    0.000    0.000 
#    0.000    0.000    0.000    0.000    0.000    0.000 
#
# Total GULP energy -67309.829072 kJ/mol
# GULP energy per Si atom -5609.152423 kJ/mol
# Density = 2.702246 g / cm^3
# Si number density = 27.084105 Si / 1000 Ang^3
#
#
#
# Elastic Constant Matrix: (Units=GPa)
#
#
# Indices 1 2 3 4 5 6 
#
# 1 131.4606 8.6686 29.1987 20.6429 -30.2196 6.3342
# 2 8.6686 131.4320 11.0689 -7.0649 -0.0090 -5.0933
# 3 29.1987 11.0689 134.5811 8.4955 -15.7318 10.4499
# 4 20.6429 -7.0649 8.4955 46.9711 2.2762 3.8764
# 5 -30.2196 -0.0090 -15.7318 2.2762 44.7917 -1.9680
# 6 6.3342 -5.0933 10.4499 3.8764 -1.9680 50.0536
#
#
#
# Elastic Compliance Matrix: (Units=1/GPa)
#
#
# Indices 1 2 3 4 5 6 
#
# 1 0.010206 -0.000861 -0.001016 -0.004714 0.006744 -0.000537
# 2 -0.000861 0.007851 -0.000737 0.001661 -0.000883 0.000898
# 3 -0.001016 -0.000737 0.008150 -0.001122 0.002169 -0.001476
# 4 -0.004714 0.001661 -0.001122 0.024136 -0.004847 -0.001060
# 5 0.006744 -0.000883 0.002169 -0.004847 0.027887 0.000076
# 6 -0.000537 0.000898 -0.001476 -0.001060 0.000076 0.020531
#
#
# Mechanical properties :
#
#
# Convention : Reuss Voigt Hill
#
# Bulk Modulus (GPa) = 47.66466 55.03843 51.35155
# Shear Modulus (GPa) = 45.05190 51.59912 48.32551
#
# Velocity S-wave (km/s) = 4.08291 4.36953 4.22865
# Velocity P-wave (km/s) = 6.31378 6.76923 6.54547
#
# Compressibility (1/GPa) = 0.02097990
#
# Stress axis : x y z
#
# Youngs Moduli (GPa) = 97.98482 127.36565 122.69282
#
# Poissons Ratio (x) = 0.10970 0.12463
# Poissons Ratio (y) = 0.08439 0.09040
# Poissons Ratio (z) = 0.09953 0.09384
#
# Static dielectric constant tensor:
#      x y z
#    x 2.100170 -0.015910 0.036000 
#    y -0.015910 2.214840 0.045270 
#    z 0.036000 0.045270 2.075640 
# 
# From -- ./inp_files/65174.got.cif
#   From: 2010.05.17/outbox.cif.g08.bks.cpg/sg2_33_cif.got.tgz:65174.got - 2010.06.03 11:33:40.
