data_PCOD9070450
_publ_section_title
;
Structure prediction by ZEFSAII (Michael W. Deem and Ramdas Pophale) SiO2 
 PCOD9070450
Probable space group: P -1
;
_chemical_formula_sum "Si O2"
_cell_formula_units_Z 16
_cell_length_a 9.420762
_cell_length_b 15.207180
_cell_length_c 9.547624
_cell_angle_alpha 38.172251
_cell_angle_beta 68.572258
_cell_angle_gamma 82.892694
_cell_volume 754.483156
_symmetry_space_group_name_H-M "P -1"
_symmetry_group_IT_number 2
_symmetry_cell_setting 'triclinic'
loop_
_space_group_symop_operation_xyz
x,y,z
-x,-y,-z
loop_
_atom_site_type_symbol
_atom_site_label
_atom_site_fract_x
_atom_site_fract_y
_atom_site_fract_z
Si Si1 0.390716 0.409509 0.527116
Si Si2 0.102094 0.626083 0.911286
Si Si3 0.410598 0.591041 0.006209
Si Si4 0.972376 0.637202 0.251385
Si Si5 0.863917 0.041043 0.091444
Si Si6 0.367298 0.086189 0.422953
Si Si7 0.360542 0.074968 0.928413
Si Si8 0.851179 0.032875 0.596818
O O1 0.500000 0.500000 0.500000
O O2 0.381767 0.508962 0.269454
O O3 0.207197 0.359285 0.696674
O O4 0.429032 0.254278 0.674304
O O5 0.126473 0.790198 0.633107
O O6 0.265723 0.603698 0.942911
O O7 0.000000 0.500000 0.000000
O O8 0.013921 0.624856 0.091091
O O9 0.500000 0.500000 0.000000
O O10 0.532799 0.748142 0.794709
O O11 0.000000 0.500000 0.500000
O O12 0.075587 0.787706 0.099614
O O13 0.788856 0.956725 0.366535
O O14 0.712100 0.993759 0.105776
O O15 0.000000 0.000000 0.000000
O O16 0.500000 0.000000 0.500000
O O17 0.299129 0.049872 0.339113
O O18 0.500000 0.000000 0.000000
O O19 0.210886 0.028561 0.150060
O O20 0.000000 0.000000 0.500000
#
# Coordination Sequence:
#
# PCOD9070450 Si02
#       8
#     2   2   2   2   2   2   2   2
#     4  12  28  49  75 111 155 197 250 308 383 450
#     4  12  29  50  75 113 152 199 255 312 380 453
#     4  12  28  47  75 111 151 200 248 311 380 449
#     4  12  26  49  76 108 151 201 249 310 381 446
#     4  12  25  48  76 107 149 196 255 309 371 450
#     4  12  24  48  76 104 151 197 253 308 371 449
#     4  12  28  45  75 110 147 195 252 314 373 447
#     4  12  26  47  74 107 149 197 251 310 375 445
#
# _framework density 21.206568999999998
#
# number of rings (size 3 to 8) (size 9 to 14) (size 15 to 20)
#    0.000    0.000    5.000    3.750    8.750    0.000 
#    0.000    0.000    0.000    0.000    0.000    0.000 
#    0.000    0.000    0.000    0.000    0.000    0.000 
#
# Total GULP energy -89342.945275 kJ/mol
# GULP energy per Si atom -5583.934080 kJ/mol
# Density = 2.115830 g / cm^3
# Si number density = 21.206569 Si / 1000 Ang^3
#
#
#
# Elastic Constant Matrix: (Units=GPa)
#
#
# Indices 1 2 3 4 5 6 
#
# 1 101.0658 46.9093 15.5728 -35.6781 3.1529 21.8220
# 2 46.9093 156.4024 63.5353 -35.2061 -6.1760 31.2729
# 3 15.5728 63.5353 121.2604 -27.1458 -2.4978 7.8236
# 4 -35.6781 -35.2061 -27.1458 54.5246 3.7516 -5.5519
# 5 3.1529 -6.1760 -2.4978 3.7516 29.0085 2.8269
# 6 21.8220 31.2729 7.8236 -5.5519 2.8269 63.2716
#
#
#
# Elastic Compliance Matrix: (Units=1/GPa)
#
#
# Indices 1 2 3 4 5 6 
#
# 1 0.014626 -0.002578 0.001526 0.008546 -0.002812 -0.003084
# 2 -0.002578 0.010183 -0.004223 0.002281 0.002132 -0.003517
# 3 0.001526 -0.004223 0.011085 0.003894 -0.000669 0.000562
# 4 0.008546 0.002281 0.003894 0.027378 -0.003454 -0.002000
# 5 -0.002812 0.002132 -0.000669 -0.003454 0.035807 -0.001904
# 6 -0.003084 -0.003517 0.000562 -0.002000 -0.001904 0.018447
#
#
# Mechanical properties :
#
#
# Convention : Reuss Voigt Hill
#
# Bulk Modulus (GPa) = 39.45437 70.08481 54.76959
# Shear Modulus (GPa) = 36.62370 46.20835 41.41602
#
# Velocity S-wave (km/s) = 4.16022 4.67300 4.42405
# Velocity P-wave (km/s) = 6.45924 7.88900 7.20965
#
# Compressibility (1/GPa) = 0.02534574
#
# Stress axis : x y z
#
# Youngs Moduli (GPa) = 68.37127 98.19907 90.21101
#
# Poissons Ratio (x) = 0.25312 -0.13769
# Poissons Ratio (y) = 0.17623 0.38097
# Poissons Ratio (z) = -0.10435 0.41470
#
# Static dielectric constant tensor:
#      x y z
#    x 1.781250 -0.090200 0.042010 
#    y -0.090200 1.763820 0.009670 
#    z 0.042010 0.009670 1.892150 
# 
# From -- ./inp_files/205060.got.cif
#   From: 2010.05.17/outbox.cif.g08.bks.cpg/sg2_103_cif.got.tgz:205060.got - 2010.06.03 11:33:40.
