data_PCOD9070683
_publ_section_title
;
Structure prediction by ZEFSAII (Michael W. Deem and Ramdas Pophale) SiO2 
 PCOD9070683
Probable space group: P -1
;
_chemical_formula_sum "Si O2"
_cell_formula_units_Z 14
_cell_length_a 15.420025
_cell_length_b 21.432905
_cell_length_c 22.128438
_cell_angle_alpha 12.841054
_cell_angle_beta 21.931029
_cell_angle_gamma 21.797985
_cell_volume 580.990170
_symmetry_space_group_name_H-M "P -1"
_symmetry_group_IT_number 2
_symmetry_cell_setting 'triclinic'
loop_
_space_group_symop_operation_xyz
x,y,z
-x,-y,-z
loop_
_atom_site_type_symbol
_atom_site_label
_atom_site_fract_x
_atom_site_fract_y
_atom_site_fract_z
Si Si1 0.538335 0.164247 0.985382
Si Si2 0.911278 0.139607 0.660393
Si Si3 0.064574 0.501828 0.798198
Si Si4 0.761517 0.272096 0.411307
Si Si5 0.244664 0.396349 0.403168
Si Si6 0.491011 0.141135 0.176890
Si Si7 0.318589 0.304604 0.311712
O O1 0.349474 0.494165 0.791085
O O2 0.596465 0.094252 0.084611
O O3 0.751901 0.159122 0.805308
O O4 0.425938 0.906265 0.281512
O O5 0.797557 0.366600 0.466410
O O6 0.144230 0.247488 0.426790
O O7 0.959389 0.812771 0.910329
O O8 0.798061 0.735720 0.757217
O O9 0.189728 0.519177 0.764770
O O10 0.000000 0.000000 0.500000
O O11 0.165827 0.387245 0.393546
O O12 0.000000 0.500000 0.500000
O O13 0.412190 0.124347 0.589073
O O14 0.405158 0.615105 0.092038
O O15 0.500000 0.000000 0.500000
O O16 0.500000 0.500000 0.000000
#
# Coordination Sequence:
#
# PCOD9070683 Si02
#       7
#     2   2   2   2   2   2   2
#     4  12  27  46  75 106 152 189 240 309 364 431
#     4  12  27  46  69 111 145 191 239 301 372 425
#     4  12  26  45  74 102 146 188 245 295 358 443
#     4  12  26  47  75 110 143 190 249 298 365 433
#     4  12  26  44  69 103 141 182 241 300 357 421
#     4  12  25  45  71 102 136 192 241 291 357 425
#     4  12  25  46  72 101 144 191 238 294 359 432
#
# _framework density 24.096793999999999
#
# number of rings (size 3 to 8) (size 9 to 14) (size 15 to 20)
#    0.000    0.000    1.429    9.429    2.000    5.714 
#    0.000    0.000    0.000    0.000    0.000    0.000 
#    0.000    0.000    0.000    0.000    0.000    0.000 
#
# Total GULP energy -78339.760243 kJ/mol
# GULP energy per Si atom -5595.697160 kJ/mol
# Density = 2.404195 g / cm^3
# Si number density = 24.096794 Si / 1000 Ang^3
#
#
#
# Elastic Constant Matrix: (Units=GPa)
#
#
# Indices 1 2 3 4 5 6 
#
# 1 120.6941 9.1536 35.1576 -1.6095 -2.1895 18.9108
# 2 9.1536 63.1873 13.5511 6.0677 -4.4015 17.8307
# 3 35.1576 13.5511 196.7832 -18.7744 11.9253 -5.9694
# 4 -1.6095 6.0677 -18.7744 43.6969 1.5420 8.5503
# 5 -2.1895 -4.4015 11.9253 1.5420 42.8820 0.8298
# 6 18.9108 17.8307 -5.9694 8.5503 0.8298 40.1779
#
#
#
# Elastic Compliance Matrix: (Units=1/GPa)
#
#
# Indices 1 2 3 4 5 6 
#
# 1 0.009651 0.000522 -0.001949 0.000417 0.001173 -0.005177
# 2 0.000522 0.018991 -0.002011 -0.001892 0.002770 -0.008627
# 3 -0.001949 -0.002011 0.005994 0.002421 -0.002103 0.002229
# 4 0.000417 -0.001892 0.002421 0.025104 -0.001666 -0.004305
# 5 0.001173 0.002770 -0.002103 -0.001666 0.024352 -0.002243
# 6 -0.005177 -0.008627 0.002229 -0.004305 -0.002243 0.032448
#
#
# Mechanical properties :
#
#
# Convention : Reuss Voigt Hill
#
# Bulk Modulus (GPa) = 36.02083 55.15435 45.58759
# Shear Modulus (GPa) = 37.68734 46.87152 42.27943
#
# Velocity S-wave (km/s) = 3.95903 4.41515 4.19330
# Velocity P-wave (km/s) = 5.98994 6.99498 6.51188
#
# Compressibility (1/GPa) = 0.02776171
#
# Stress axis : x y z
#
# Youngs Moduli (GPa) = 103.61130 52.65730 166.82164
#
# Poissons Ratio (x) = -0.02751 0.32508
# Poissons Ratio (y) = -0.05412 0.33550
# Poissons Ratio (z) = 0.20190 0.10590
#
# Static dielectric constant tensor:
#      x y z
#    x 1.820920 -0.029580 -0.001430 
#    y -0.029580 1.925130 -0.009580 
#    z -0.001430 -0.009580 1.841570 
# 
# From -- ./inp_files/613330.got.cif
#   From: 2010.05.17/outbox.cif.g08.bks.cpg/sg2_307_cif.got.tgz:613330.got - 2010.06.03 11:33:40.
