data_PCOD9070343
_publ_section_title
;
Structure prediction by ZEFSAII (Michael W. Deem and Ramdas Pophale) SiO2 
 PCOD9070343
Probable space group: P -1
;
_chemical_formula_sum "Si O2"
_cell_formula_units_Z 13
_cell_length_a 12.112950
_cell_length_b 11.320058
_cell_length_c 9.335976
_cell_angle_alpha 117.630439
_cell_angle_beta 41.322018
_cell_angle_gamma 141.567577
_cell_volume 500.640950
_symmetry_space_group_name_H-M "P -1"
_symmetry_group_IT_number 2
_symmetry_cell_setting 'triclinic'
loop_
_space_group_symop_operation_xyz
x,y,z
-x,-y,-z
loop_
_atom_site_type_symbol
_atom_site_label
_atom_site_fract_x
_atom_site_fract_y
_atom_site_fract_z
Si Si1 0.203156 0.322775 0.713617
Si Si2 0.703786 0.370201 0.328342
Si Si3 0.270019 0.094291 0.786882
Si Si4 0.415007 0.097149 0.182453
Si Si5 0.972470 0.306724 0.211265
Si Si6 0.474765 0.640170 0.043133
Si Si7 0.000000 0.000000 0.500000
O O1 0.500000 0.500000 0.500000
O O2 0.115250 0.403634 0.760937
O O3 0.085372 0.129132 0.639437
O O4 0.124517 0.313785 0.945706
O O5 0.462840 0.278627 0.598098
O O6 0.595093 0.245675 0.218272
O O7 0.837369 0.346177 0.287227
O O8 0.399240 0.188408 0.867609
O O9 0.231580 0.921735 0.669817
O O10 0.000000 0.000000 0.000000
O O11 0.122782 0.932581 0.408967
O O12 0.410963 0.227556 0.145642
O O13 0.500000 0.000000 0.000000
O O14 0.178400 0.477695 0.218237
O O15 0.500000 0.500000 0.000000
#
# Coordination Sequence:
#
# PCOD9070343 Si02
#       7
#     2   2   2   2   2   2   1
#     4  12  24  47  75 114 149 204 269 328 394 480
#     4  12  27  49  80 115 160 207 269 339 406 472
#     4  12  27  49  75 111 161 208 261 327 401 487
#     4  12  28  50  80 124 160 207 279 336 402 488
#     4  12  26  50  80 108 164 209 266 339 403 481
#     4  12  27  48  79 116 158 215 268 327 412 487
#     4  12  26  40  80 110 158 206 258 328 406 458
#
# _framework density 25.966714
#
# number of rings (size 3 to 8) (size 9 to 14) (size 15 to 20)
#    0.000    0.000    4.615    4.615    6.462    0.615 
#    0.000    0.000    0.000    0.000    0.000    0.000 
#    0.000    0.000    0.000    0.000    0.000    0.000 
#
# Total GULP energy -72471.444672 kJ/mol
# GULP energy per Si atom -5574.726513 kJ/mol
# Density = 2.590761 g / cm^3
# Si number density = 25.966714 Si / 1000 Ang^3
#
#
#
# Elastic Constant Matrix: (Units=GPa)
#
#
# Indices 1 2 3 4 5 6 
#
# 1 159.4738 46.6666 19.0406 0.8816 -23.1510 9.0849
# 2 46.6666 87.0339 0.2282 14.5256 -4.4361 30.7994
# 3 19.0406 0.2282 87.0012 9.8395 -13.0918 7.1328
# 4 0.8816 14.5256 9.8395 39.7364 -8.0488 7.4250
# 5 -23.1510 -4.4361 -13.0918 -8.0488 58.3199 -1.6543
# 6 9.0849 30.7994 7.1328 7.4250 -1.6543 71.7447
#
#
#
# Elastic Compliance Matrix: (Units=1/GPa)
#
#
# Indices 1 2 3 4 5 6 
#
# 1 0.008322 -0.005126 -0.001747 0.002498 0.002898 0.001129
# 2 -0.005126 0.017429 0.002079 -0.005813 -0.001228 -0.006466
# 3 -0.001747 0.002079 0.012633 -0.003191 0.001816 -0.001555
# 4 0.002498 -0.005813 -0.003191 0.028872 0.003806 -0.000404
# 5 0.002898 -0.001228 0.001816 0.003806 0.019138 0.000027
# 6 0.001129 -0.006466 -0.001555 -0.000404 0.000027 0.016768
#
#
# Mechanical properties :
#
#
# Convention : Reuss Voigt Hill
#
# Bulk Modulus (GPa) = 34.72818 51.70887 43.21852
# Shear Modulus (GPa) = 40.86730 51.79843 46.33286
#
# Velocity S-wave (km/s) = 3.97146 4.47116 4.22870
# Velocity P-wave (km/s) = 5.86798 6.82729 6.36573
#
# Compressibility (1/GPa) = 0.02879506
#
# Stress axis : x y z
#
# Youngs Moduli (GPa) = 120.16560 57.37668 79.16051
#
# Poissons Ratio (x) = 0.29412 0.13827
# Poissons Ratio (y) = 0.61598 -0.16456
# Poissons Ratio (z) = 0.20990 -0.11928
#
# Static dielectric constant tensor:
#      x y z
#    x 2.178950 -0.207800 0.162790 
#    y -0.207800 2.157770 -0.037040 
#    z 0.162790 -0.037040 1.942690 
# 
# From -- ./inp_files/262896.got.cif
#   From: 2010.05.17/outbox.cif.g08.bks.cpg/sg2_132_cif.got.tgz:262896.got - 2010.06.03 11:33:40.
