data_PCOD9070314
_publ_section_title
;
Structure prediction by ZEFSAII (Michael W. Deem and Ramdas Pophale) SiO2 
 PCOD9070314
Probable space group: P -1
;
_chemical_formula_sum "Si O2"
_cell_formula_units_Z 14
_cell_length_a 15.229703
_cell_length_b 5.149640
_cell_length_c 9.436515
_cell_angle_alpha 65.676416
_cell_angle_beta 66.691685
_cell_angle_gamma 75.262458
_cell_volume 615.644133
_symmetry_space_group_name_H-M "P -1"
_symmetry_group_IT_number 2
_symmetry_cell_setting 'triclinic'
loop_
_space_group_symop_operation_xyz
x,y,z
-x,-y,-z
loop_
_atom_site_type_symbol
_atom_site_label
_atom_site_fract_x
_atom_site_fract_y
_atom_site_fract_z
Si Si1 0.447391 0.132238 0.144251
Si Si2 0.353328 0.864301 0.935485
Si Si3 0.922150 0.691407 0.909454
Si Si4 0.278585 0.493197 0.827608
Si Si5 0.294179 0.529969 0.277168
Si Si6 0.603336 0.395180 0.527134
Si Si7 0.077197 0.628190 0.319101
O O1 0.536719 0.273843 0.126344
O O2 0.350062 0.343116 0.159266
O O3 0.419098 0.891806 0.319891
O O4 0.500000 0.000000 0.000000
O O5 0.289166 0.720600 0.894366
O O6 0.352575 0.203773 0.839255
O O7 0.314362 0.832703 0.127239
O O8 0.922326 0.542408 0.789868
O O9 0.935024 0.029233 0.793194
O O10 0.821722 0.639865 0.061247
O O11 0.000000 0.500000 0.000000
O O12 0.310148 0.647768 0.631266
O O13 0.349920 0.447369 0.405228
O O14 0.180629 0.543602 0.347343
O O15 0.500000 0.500000 0.500000
O O16 0.000000 0.500000 0.500000
#
# Coordination Sequence:
#
# PCOD9070314 Si02
#       7
#     2   2   2   2   2   2   2
#     4  12  26  44  74 108 153 204 263 310 381 455
#     4  12  24  47  74 102 150 201 254 300 377 457
#     4  12  27  53  82 115 159 202 257 333 411 463
#     4  12  26  47  74 108 151 199 246 314 384 461
#     4  12  27  46  76 107 153 208 259 312 385 464
#     4  12  28  43  69 110 156 200 260 313 381 448
#     4  12  29  52  84 118 155 204 268 329 392 477
#
# _framework density 22.740409
#
# number of rings (size 3 to 8) (size 9 to 14) (size 15 to 20)
#    0.000    0.000    5.714    3.000    6.000    2.286 
#    0.000    0.000    0.000    0.000    0.000    0.000 
#    0.000    0.000    0.000    0.000    0.000    0.000 
#
# Total GULP energy -78083.430770 kJ/mol
# GULP energy per Si atom -5577.387912 kJ/mol
# Density = 2.268865 g / cm^3
# Si number density = 22.740409 Si / 1000 Ang^3
#
#
#
# Elastic Constant Matrix: (Units=GPa)
#
#
# Indices 1 2 3 4 5 6 
#
# 1 144.0386 55.2899 73.3213 4.2247 -21.3787 -14.4298
# 2 55.2899 104.2306 36.2104 -1.2109 -3.0981 9.2255
# 3 73.3213 36.2104 178.8994 8.2533 -31.0745 -0.2130
# 4 4.2247 -1.2109 8.2533 33.8141 4.9377 -0.2131
# 5 -21.3787 -3.0981 -31.0745 4.9377 57.4509 6.1719
# 6 -14.4298 9.2255 -0.2130 -0.2131 6.1719 35.3402
#
#
#
# Elastic Compliance Matrix: (Units=1/GPa)
#
#
# Indices 1 2 3 4 5 6 
#
# 1 0.011591 -0.005484 -0.003289 -0.001053 0.001701 0.005841
# 2 -0.005484 0.013217 -0.000721 0.001484 -0.001259 -0.005465
# 3 -0.003289 -0.000721 0.007743 -0.001994 0.003279 -0.001693
# 4 -0.001053 0.001484 -0.001994 0.030836 -0.004048 0.000063
# 5 0.001701 -0.001259 0.003279 -0.004048 0.020365 -0.002538
# 6 0.005841 -0.005465 -0.001693 0.000063 -0.002538 0.032541
#
#
# Mechanical properties :
#
#
# Convention : Reuss Voigt Hill
#
# Bulk Modulus (GPa) = 73.73590 84.09019 78.91305
# Shear Modulus (GPa) = 35.76421 42.81085 39.28753
#
# Velocity S-wave (km/s) = 3.97005 4.34359 4.16101
# Velocity P-wave (km/s) = 7.31509 7.88760 7.60673
#
# Compressibility (1/GPa) = 0.01356191
#
# Stress axis : x y z
#
# Youngs Moduli (GPa) = 86.27623 75.65794 129.14433
#
# Poissons Ratio (x) = 0.41493 0.42479
# Poissons Ratio (y) = 0.47316 0.09313
# Poissons Ratio (z) = 0.28379 0.05456
#
# Static dielectric constant tensor:
#      x y z
#    x 1.985620 0.003150 0.065830 
#    y 0.003150 2.060520 -0.101840 
#    z 0.065830 -0.101840 1.925530 
# 
# From -- ./inp_files/288336.got.cif
#   From: 2010.05.17/outbox.cif.g08.bks.cpg/sg2_145_cif.got.tgz:288336.got - 2010.06.03 11:33:40.
