data_PCOD9070934
_publ_section_title
;
Structure prediction by ZEFSAII (Michael W. Deem and Ramdas Pophale) SiO2 
 PCOD9070934
Probable space group: P -1
;
_chemical_formula_sum "Si O2"
_cell_formula_units_Z 16
_cell_length_a 14.476489
_cell_length_b 8.251312
_cell_length_c 8.875924
_cell_angle_alpha 80.472870
_cell_angle_beta 57.628188
_cell_angle_gamma 116.147046
_cell_volume 681.884809
_symmetry_space_group_name_H-M "P -1"
_symmetry_group_IT_number 2
_symmetry_cell_setting 'triclinic'
loop_
_space_group_symop_operation_xyz
x,y,z
-x,-y,-z
loop_
_atom_site_type_symbol
_atom_site_label
_atom_site_fract_x
_atom_site_fract_y
_atom_site_fract_z
Si Si1 0.251439 0.092482 0.856632
Si Si2 0.205910 0.050683 0.252422
Si Si3 0.549531 0.891369 0.873536
Si Si4 0.024467 0.589803 0.127160
Si Si5 0.937561 0.602477 0.613310
Si Si6 0.767053 0.587880 0.316045
Si Si7 0.677201 0.533090 0.732587
Si Si8 0.489419 0.800257 0.582911
O O1 0.182105 0.187871 0.826766
O O2 0.392344 0.186042 0.620993
O O3 0.258626 0.134355 0.023440
O O4 0.157629 0.838332 0.976979
O O5 0.283857 0.964892 0.264862
O O6 0.254546 0.240808 0.290505
O O7 0.040148 0.849691 0.438324
O O8 0.514543 0.833996 0.736308
O O9 0.476606 0.663817 0.048159
O O10 0.500000 0.000000 0.000000
O O11 0.052303 0.449651 0.217577
O O12 0.888054 0.578621 0.271413
O O13 0.000000 0.500000 0.000000
O O14 0.780349 0.490703 0.715363
O O15 0.000000 0.500000 0.500000
O O16 0.678110 0.538930 0.551857
O O17 0.662832 0.412581 0.307312
O O18 0.500000 0.000000 0.500000
#
# Coordination Sequence:
#
# PCOD9070934 Si02
#       8
#     2   2   2   2   2   2   2   2
#     4  12  26  48  71 105 145 186 231 291 353 420
#     4  12  26  46  74 104 142 186 236 289 352 415
#     4  12  27  46  75 106 139 184 237 290 347 421
#     4  12  29  44  74 104 143 186 238 289 355 416
#     4  12  25  48  72 104 141 186 240 292 344 420
#     4  12  26  48  71 105 145 186 231 291 353 420
#     4  12  26  46  74 104 142 186 236 289 352 415
#     4  12  27  46  73 106 143 182 235 288 355 418
#
# _framework density 23.464372999999998
#
# number of rings (size 3 to 8) (size 9 to 14) (size 15 to 20)
#    0.000    0.000    2.500    6.750   10.500    0.000 
#    0.000    0.000    0.000    0.000    0.000    0.000 
#    0.000    0.000    0.000    0.000    0.000    0.000 
#
# Total GULP energy -89439.248586 kJ/mol
# GULP energy per Si atom -5589.953037 kJ/mol
# Density = 2.341097 g / cm^3
# Si number density = 23.464373 Si / 1000 Ang^3
#
#
#
# Elastic Constant Matrix: (Units=GPa)
#
#
# Indices 1 2 3 4 5 6 
#
# 1 104.8811 5.0947 31.7842 10.3710 11.8948 6.0121
# 2 5.0947 88.7577 24.2790 8.6833 4.7729 -2.4548
# 3 31.7842 24.2790 86.3004 0.1896 25.3767 13.7618
# 4 10.3710 8.6833 0.1896 30.9537 17.7167 7.3506
# 5 11.8948 4.7729 25.3767 17.7167 54.7439 7.4754
# 6 6.0121 -2.4548 13.7618 7.3506 7.4754 43.1622
#
#
#
# Elastic Compliance Matrix: (Units=1/GPa)
#
#
# Indices 1 2 3 4 5 6 
#
# 1 0.011286 0.001141 -0.004945 -0.004950 0.001247 0.000696
# 2 0.001141 0.013231 -0.005404 -0.006330 0.002753 0.002918
# 3 -0.004945 -0.005404 0.018584 0.009810 -0.009483 -0.005572
# 4 -0.004950 -0.006330 0.009810 0.047387 -0.017178 -0.007893
# 5 0.001247 0.002753 -0.009483 -0.017178 0.027553 0.001160
# 6 0.000696 0.002918 -0.005572 -0.007893 0.001160 0.026157
#
#
# Mechanical properties :
#
#
# Convention : Reuss Voigt Hill
#
# Bulk Modulus (GPa) = 40.50681 44.69501 42.60091
# Shear Modulus (GPa) = 29.26707 40.35740 34.81224
#
# Velocity S-wave (km/s) = 3.53554 4.15172 3.85596
# Velocity P-wave (km/s) = 5.82815 6.48627 6.16600
#
# Compressibility (1/GPa) = 0.02468721
#
# Stress axis : x y z
#
# Youngs Moduli (GPa) = 88.60740 75.57949 53.80917
#
# Poissons Ratio (x) = -0.08625 0.26606
# Poissons Ratio (y) = -0.10112 0.29076
# Poissons Ratio (z) = 0.43812 0.40840
#
# Static dielectric constant tensor:
#      x y z
#    x 1.803280 -0.019690 -0.044930 
#    y -0.019690 1.868170 0.073680 
#    z -0.044930 0.073680 1.887320 
# 
# From -- ./inp_files/298182.got.cif
#   From: 2010.05.17/outbox.cif.g08.bks.cpg/sg2_150_cif.got.tgz:298182.got - 2010.06.03 11:33:40.
