data_PCOD9070475
_publ_section_title
;
Structure prediction by ZEFSAII (Michael W. Deem and Ramdas Pophale) SiO2 
 PCOD9070475
Probable space group: P -1
;
_chemical_formula_sum "Si O2"
_cell_formula_units_Z 14
_cell_length_a 10.387952
_cell_length_b 11.603997
_cell_length_c 7.194425
_cell_angle_alpha 136.860187
_cell_angle_beta 111.989668
_cell_angle_gamma 51.319382
_cell_volume 457.475418
_symmetry_space_group_name_H-M "P -1"
_symmetry_group_IT_number 2
_symmetry_cell_setting 'triclinic'
loop_
_space_group_symop_operation_xyz
x,y,z
-x,-y,-z
loop_
_atom_site_type_symbol
_atom_site_label
_atom_site_fract_x
_atom_site_fract_y
_atom_site_fract_z
Si Si1 0.231818 0.991389 0.810372
Si Si2 0.639064 0.609697 0.816243
Si Si3 0.172724 0.276949 0.432862
Si Si4 0.500000 0.000000 0.500000
Si Si5 0.387992 0.693091 0.042359
Si Si6 0.500000 0.000000 0.000000
Si Si7 0.057229 0.611060 0.023745
Si Si8 0.861191 0.260622 0.281827
O O1 0.268072 0.140280 0.137725
O O2 0.087082 0.151994 0.786416
O O3 0.427436 0.860766 0.719160
O O4 0.167657 0.874446 0.750093
O O5 0.745448 0.492974 0.556791
O O6 0.583130 0.844201 0.058238
O O7 0.472180 0.628459 0.806472
O O8 0.769739 0.458635 0.869186
O O9 0.326587 0.197211 0.557827
O O10 0.070268 0.515559 0.713513
O O11 0.046877 0.208523 0.327548
O O12 0.597477 0.123081 0.683407
O O13 0.500000 0.500000 0.000000
O O14 0.201471 0.755573 0.974143
O O15 0.000000 0.500000 0.000000
#
# Coordination Sequence:
#
# PCOD9070475 Si02
#       8
#     2   2   2   1   2   1   2   2
#     4  12  27  46  78 112 150 212 259 329 405 469
#     4  12  26  51  76 115 156 213 264 326 402 482
#     4  12  26  49  79 109 158 201 267 331 397 481
#     4  12  26  50  78 118 152 206 266 326 404 474
#     4  12  29  50  79 120 161 204 268 338 399 479
#     4  12  24  48  78 108 160 206 270 320 404 482
#     4  12  25  48  72 109 148 199 264 319 390 477
#     4  12  27  51  76 115 162 207 266 331 403 483
#
# _framework density 30.602736
#
# number of rings (size 3 to 8) (size 9 to 14) (size 15 to 20)
#    0.000    0.000    7.143    1.286    2.000    4.000 
#    2.571    0.000    0.000    0.000    0.000    0.000 
#    0.000    0.000    0.000    0.000    0.000    0.000 
#
# Total GULP energy -78123.174184 kJ/mol
# GULP energy per Si atom -5580.226727 kJ/mol
# Density = 3.053308 g / cm^3
# Si number density = 30.602736 Si / 1000 Ang^3
#
#
#
# Elastic Constant Matrix: (Units=GPa)
#
#
# Indices 1 2 3 4 5 6 
#
# 1 169.7123 41.2746 18.6183 -3.5364 38.6262 -19.7217
# 2 41.2746 172.1078 12.2336 13.7552 23.2122 -9.8737
# 3 18.6183 12.2336 124.3059 3.3301 8.3899 -8.5168
# 4 -3.5364 13.7552 3.3301 65.4023 -2.2778 5.5633
# 5 38.6262 23.2122 8.3899 -2.2778 70.6239 -7.6193
# 6 -19.7217 -9.8737 -8.5168 5.5633 -7.6193 66.4892
#
#
#
# Elastic Compliance Matrix: (Units=1/GPa)
#
#
# Indices 1 2 3 4 5 6 
#
# 1 0.007178 -0.001183 -0.000648 0.000431 -0.003289 0.001457
# 2 -0.001183 0.006458 -0.000285 -0.001503 -0.001433 0.000533
# 3 -0.000648 -0.000285 0.008270 -0.000481 -0.000462 0.000812
# 4 0.000431 -0.001503 -0.000481 0.015797 0.000674 -0.001401
# 5 -0.003289 -0.001433 -0.000462 0.000674 0.016570 0.000595
# 6 0.001457 0.000533 0.000812 -0.001401 0.000595 0.015841
#
#
# Mechanical properties :
#
#
# Convention : Reuss Voigt Hill
#
# Bulk Modulus (GPa) = 56.58109 67.81988 62.20049
# Shear Modulus (GPa) = 62.31574 66.76971 64.54272
#
# Velocity S-wave (km/s) = 4.51741 4.67606 4.59742
# Velocity P-wave (km/s) = 6.76302 7.16684 6.96785
#
# Compressibility (1/GPa) = 0.01767375
#
# Stress axis : x y z
#
# Youngs Moduli (GPa) = 139.31478 154.84319 120.92566
#
# Poissons Ratio (x) = 0.18312 0.07841
# Poissons Ratio (y) = 0.16475 0.03446
# Poissons Ratio (z) = 0.09034 0.04412
#
# Static dielectric constant tensor:
#      x y z
#    x 3.246750 -0.562840 -0.171300 
#    y -0.562840 2.436290 0.324710 
#    z -0.171300 0.324710 2.225870 
# 
# From -- ./inp_files/263796.got.cif
#   From: 2010.05.17/outbox.cif.g08.bks.cpg/sg2_132_cif.got.tgz:263796.got - 2010.06.03 11:33:40.
