data_PCOD9070156
_publ_section_title
;
Structure prediction by ZEFSAII (Michael W. Deem and Ramdas Pophale) SiO2 
 PCOD9070156
Probable space group: P -1
;
_chemical_formula_sum "Si O2"
_cell_formula_units_Z 14
_cell_length_a 12.593324
_cell_length_b 8.790529
_cell_length_c 15.350525
_cell_angle_alpha 58.515485
_cell_angle_beta 152.308341
_cell_angle_gamma 115.911919
_cell_volume 672.052538
_symmetry_space_group_name_H-M "P -1"
_symmetry_group_IT_number 2
_symmetry_cell_setting 'triclinic'
loop_
_space_group_symop_operation_xyz
x,y,z
-x,-y,-z
loop_
_atom_site_type_symbol
_atom_site_label
_atom_site_fract_x
_atom_site_fract_y
_atom_site_fract_z
Si Si1 0.141725 0.161293 0.019984
Si Si2 0.396815 0.870022 0.728035
Si Si3 0.758327 0.440217 0.585687
Si Si4 0.355780 0.190790 0.348128
Si Si5 0.104671 0.201972 0.336410
Si Si6 0.251561 0.511186 0.641126
Si Si7 0.401390 0.815224 0.953128
O O1 0.972443 0.304753 0.806436
O O2 0.344580 0.093542 0.122748
O O3 0.252136 0.240363 0.163757
O O4 0.000000 0.000000 0.000000
O O5 0.339984 0.696593 0.683688
O O6 0.370293 0.828002 0.822753
O O7 0.229168 0.035797 0.527652
O O8 0.529913 0.334528 0.463460
O O9 0.782991 0.618174 0.605489
O O10 0.763813 0.490456 0.473373
O O11 0.160159 0.174028 0.283156
O O12 0.500000 0.000000 0.500000
O O13 0.838694 0.212255 0.165503
O O14 0.000000 0.500000 0.500000
O O15 0.419478 0.348415 0.844844
O O16 0.500000 0.000000 0.000000
#
# Coordination Sequence:
#
# PCOD9070156 Si02
#       7
#     2   2   2   2   2   2   2
#     4  12  25  43  76 104 137 186 239 286 346 422
#     4  12  24  46  71 101 142 186 239 283 347 428
#     4  12  25  46  69 108 141 180 236 294 356 407
#     4  12  24  48  71 105 139 187 240 284 351 423
#     4  12  26  45  70 102 149 183 228 301 353 413
#     4  12  24  46  74 100 141 187 238 288 341 427
#     4  12  27  45  69 109 143 186 234 292 360 408
#
# _framework density 20.831704999999999
#
# number of rings (size 3 to 8) (size 9 to 14) (size 15 to 20)
#    0.000    0.000    4.286    5.571    2.000    0.571 
#    2.571    0.000    0.000    0.000    0.000    0.000 
#    0.000    0.000    0.000    0.000    0.000    0.000 
#
# Total GULP energy -78434.301515 kJ/mol
# GULP energy per Si atom -5602.450108 kJ/mol
# Density = 2.078429 g / cm^3
# Si number density = 20.831705 Si / 1000 Ang^3
#
#
#
# Elastic Constant Matrix: (Units=GPa)
#
#
# Indices 1 2 3 4 5 6 
#
# 1 155.9386 -0.3160 30.3922 11.4163 22.7300 18.6740
# 2 -0.3160 112.0528 9.3735 1.4449 32.0282 2.6533
# 3 30.3922 9.3735 121.5801 -14.2194 23.3981 13.6503
# 4 11.4163 1.4449 -14.2194 41.2874 0.0147 1.3000
# 5 22.7300 32.0282 23.3981 0.0147 39.3444 7.6641
# 6 18.6740 2.6533 13.6503 1.3000 7.6641 35.7655
#
#
#
# Elastic Compliance Matrix: (Units=1/GPa)
#
#
# Indices 1 2 3 4 5 6 
#
# 1 0.007812 0.001506 -0.001199 -0.002540 -0.004504 -0.002676
# 2 0.001506 0.012072 0.000730 -0.000598 -0.011222 0.000466
# 3 -0.001199 0.000730 0.010252 0.003911 -0.005554 -0.002293
# 4 -0.002540 -0.000598 0.003911 0.026323 -0.000179 -0.001041
# 5 -0.004504 -0.011222 -0.005554 -0.000179 0.041139 -0.003505
# 6 -0.002676 0.000466 -0.002293 -0.001041 -0.003505 0.030987
#
#
# Mechanical properties :
#
#
# Convention : Reuss Voigt Hill
#
# Bulk Modulus (GPa) = 31.04568 52.05231 41.54899
# Shear Modulus (GPa) = 36.43047 46.62092 41.52569
#
# Velocity S-wave (km/s) = 4.18640 4.73586 4.46958
# Velocity P-wave (km/s) = 6.18897 7.41254 6.82822
#
# Compressibility (1/GPa) = 0.03221060
#
# Stress axis : x y z
#
# Youngs Moduli (GPa) = 128.00209 82.83835 97.54142
#
# Poissons Ratio (x) = -0.12474 0.11694
# Poissons Ratio (y) = -0.19275 -0.07123
# Poissons Ratio (z) = 0.15345 -0.06049
#
# Static dielectric constant tensor:
#      x y z
#    x 1.730770 0.010020 0.006770 
#    y 0.010020 1.759190 0.037420 
#    z 0.006770 0.037420 1.715040 
# 
# From -- ./inp_files/186306.got.cif
#   From: 2010.05.17/outbox.cif.g08.bks.cpg/sg2_94_cif.got.tgz:186306.got - 2010.06.03 11:33:40.
