data_PCOD9070071
_publ_section_title
;
Structure prediction by ZEFSAII (Michael W. Deem and Ramdas Pophale) SiO2 
 PCOD9070071
Probable space group: P -1
;
_chemical_formula_sum "Si O2"
_cell_formula_units_Z 16
_cell_length_a 18.744316
_cell_length_b 9.443463
_cell_length_c 13.634201
_cell_angle_alpha 132.364251
_cell_angle_beta 27.024026
_cell_angle_gamma 134.338063
_cell_volume 774.477269
_symmetry_space_group_name_H-M "P -1"
_symmetry_group_IT_number 2
_symmetry_cell_setting 'triclinic'
loop_
_space_group_symop_operation_xyz
x,y,z
-x,-y,-z
loop_
_atom_site_type_symbol
_atom_site_label
_atom_site_fract_x
_atom_site_fract_y
_atom_site_fract_z
Si Si1 0.457313 0.280145 0.404885
Si Si2 0.879423 0.279516 0.527419
Si Si3 0.645715 0.645071 0.648313
Si Si4 0.514208 0.292437 0.927091
Si Si5 0.347788 0.800057 0.581656
Si Si6 0.965157 0.965054 0.412509
Si Si7 0.147893 0.953545 0.737529
Si Si8 0.699122 0.076899 0.093177
O O1 0.500000 0.500000 0.500000
O O2 0.421152 0.286993 0.337757
O O3 0.621361 0.213383 0.184593
O O4 0.299197 0.135267 0.590408
O O5 0.696197 0.289437 0.732551
O O6 0.930486 0.181674 0.322235
O O7 0.000000 0.500000 0.500000
O O8 0.890541 0.130696 0.532843
O O9 0.605150 0.404516 0.586854
O O10 0.840052 0.745342 0.450508
O O11 0.586683 0.735066 0.860007
O O12 0.440510 0.133699 0.856683
O O13 0.500000 0.500000 0.000000
O O14 0.232615 0.834701 0.652605
O O15 0.270743 0.808351 0.786817
O O16 0.500000 0.000000 0.500000
O O17 0.000000 0.000000 0.500000
O O18 0.135681 0.971432 0.157854
O O19 0.000000 0.000000 0.000000
#
# Coordination Sequence:
#
# PCOD9070071 Si02
#       8
#     2   2   2   2   2   2   2   2
#     4  12  25  48  72 109 141 191 243 301 361 433
#     4  12  27  48  70 106 146 185 242 293 354 432
#     4  12  26  45  74 105 144 185 241 293 363 426
#     4  12  25  46  76 105 143 191 237 294 363 429
#     4  12  24  45  71 104 138 186 239 291 353 434
#     4  12  27  45  70 107 143 186 238 297 360 420
#     4  12  26  47  71 102 146 187 239 294 362 431
#     4  12  24  45  74  97 145 184 239 294 356 422
#
# _framework density 20.659096000000002
#
# number of rings (size 3 to 8) (size 9 to 14) (size 15 to 20)
#    0.000    0.000    6.250    3.000    3.500    4.500 
#    0.000    0.000    0.000    0.000    0.000    0.000 
#    0.000    0.000    0.000    0.000    0.000    0.000 
#
# Total GULP energy -89372.342207 kJ/mol
# GULP energy per Si atom -5585.771388 kJ/mol
# Density = 2.061207 g / cm^3
# Si number density = 20.659096 Si / 1000 Ang^3
#
#
#
# Elastic Constant Matrix: (Units=GPa)
#
#
# Indices 1 2 3 4 5 6 
#
# 1 131.4267 29.8393 24.4351 -1.4118 14.3369 -18.3848
# 2 29.8393 99.9761 13.4074 10.7218 -6.7030 7.9536
# 3 24.4351 13.4074 81.5387 0.2314 -10.7521 -8.2302
# 4 -1.4118 10.7218 0.2314 31.0995 4.7369 -1.2014
# 5 14.3369 -6.7030 -10.7521 4.7369 43.9921 5.5106
# 6 -18.3848 7.9536 -8.2302 -1.2014 5.5106 44.2584
#
#
#
# Elastic Compliance Matrix: (Units=1/GPa)
#
#
# Indices 1 2 3 4 5 6 
#
# 1 0.010354 -0.003830 -0.002686 0.002864 -0.005582 0.005262
# 2 -0.003830 0.012463 -0.000814 -0.005267 0.004096 -0.004635
# 3 -0.002686 -0.000814 0.013849 -0.000520 0.004056 0.001087
# 4 0.002864 -0.005267 -0.000520 0.035182 -0.006122 0.003757
# 5 -0.005582 0.004096 0.004056 -0.006122 0.027564 -0.005899
# 6 0.005262 -0.004635 0.001087 0.003757 -0.005899 0.026652
#
#
# Mechanical properties :
#
#
# Convention : Reuss Voigt Hill
#
# Bulk Modulus (GPa) = 45.44433 49.81167 47.62800
# Shear Modulus (GPa) = 33.77028 40.22063 36.99546
#
# Velocity S-wave (km/s) = 4.04746 4.41713 4.23633
# Velocity P-wave (km/s) = 6.62477 7.08366 6.85806
#
# Compressibility (1/GPa) = 0.02200495
#
# Stress axis : x y z
#
# Youngs Moduli (GPa) = 96.58535 80.23770 72.20777
#
# Poissons Ratio (x) = 0.30731 0.19395
# Poissons Ratio (y) = 0.36992 0.05880
# Poissons Ratio (z) = 0.25942 0.06534
#
# Static dielectric constant tensor:
#      x y z
#    x 1.729170 0.069070 0.065000 
#    y 0.069070 1.378320 -0.194560 
#    z 0.065000 -0.194560 1.707250 
# 
# From -- ./inp_files/282650.got.cif
#   From: 2010.05.17/outbox.cif.g08.bks.cpg/sg2_142_cif.got.tgz:282650.got - 2010.06.03 11:33:40.
