data_PCOD9070120
_publ_section_title
;
Structure prediction by ZEFSAII (Michael W. Deem and Ramdas Pophale) SiO2 
 PCOD9070120
Probable space group: P -1
;
_chemical_formula_sum "Si O2"
_cell_formula_units_Z 12
_cell_length_a 13.890517
_cell_length_b 11.428814
_cell_length_c 9.295342
_cell_angle_alpha 109.280252
_cell_angle_beta 111.116935
_cell_angle_gamma 21.264128
_cell_volume 499.167031
_symmetry_space_group_name_H-M "P -1"
_symmetry_group_IT_number 2
_symmetry_cell_setting 'triclinic'
loop_
_space_group_symop_operation_xyz
x,y,z
-x,-y,-z
loop_
_atom_site_type_symbol
_atom_site_label
_atom_site_fract_x
_atom_site_fract_y
_atom_site_fract_z
Si Si1 0.719711 0.584246 0.112118
Si Si2 0.696738 0.834029 0.417708
Si Si3 0.880414 0.770190 0.048292
Si Si4 0.632825 0.432423 0.171913
Si Si5 0.531639 0.300599 0.512225
Si Si6 0.061196 0.078694 0.659036
O O1 0.680643 0.755999 0.246170
O O2 0.741301 0.441339 0.169493
O O3 0.979307 0.314176 0.043207
O O4 0.442121 0.872357 0.991810
O O5 0.000000 0.500000 0.500000
O O6 0.500000 0.000000 0.500000
O O7 0.615492 0.064983 0.443516
O O8 0.964478 0.753188 0.226591
O O9 0.000000 0.500000 0.000000
O O10 0.435617 0.688626 0.302064
O O11 0.853762 0.101175 0.234012
O O12 0.500000 0.500000 0.000000
O O13 0.216902 0.651208 0.450086
O O14 0.706585 0.177156 0.438709
#
# Coordination Sequence:
#
# PCOD9070120 Si02
#       6
#     2   2   2   2   2   2
#     4  12  26  46  76 112 149 197 255 310 376 446
#     4  12  24  45  76 110 150 194 247 313 382 443
#     4  12  25  47  76 109 153 196 249 313 381 448
#     4  12  28  51  78 112 155 204 256 312 376 455
#     4  12  27  51  76 110 151 196 256 312 376 448
#     4  12  27  50  76 110 151 203 250 310 374 449
#
# _framework density 24.040050000000001
#
# number of rings (size 3 to 8) (size 9 to 14) (size 15 to 20)
#    0.000    0.000    3.333    6.500    0.000    2.000 
#    0.000    0.000    0.000    0.000    0.000    0.000 
#    0.000    0.000    0.000    0.000    0.000    0.000 
#
# Total GULP energy -67337.229242 kJ/mol
# GULP energy per Si atom -5611.435770 kJ/mol
# Density = 2.398533 g / cm^3
# Si number density = 24.040050 Si / 1000 Ang^3
#
#
#
# Elastic Constant Matrix: (Units=GPa)
#
#
# Indices 1 2 3 4 5 6 
#
# 1 127.9004 48.3888 52.6523 -1.4916 5.7174 18.6908
# 2 48.3888 107.4067 28.2564 -15.7927 4.1735 -3.7285
# 3 52.6523 28.2564 169.9610 17.0221 23.4643 -5.5773
# 4 -1.4916 -15.7927 17.0221 47.2030 5.8395 6.5258
# 5 5.7174 4.1735 23.4643 5.8395 49.2435 3.5117
# 6 18.6908 -3.7285 -5.5773 6.5258 3.5117 52.9147
#
#
#
# Elastic Compliance Matrix: (Units=1/GPa)
#
#
# Indices 1 2 3 4 5 6 
#
# 1 0.011473 -0.004458 -0.003141 0.000569 0.000819 -0.004822
# 2 -0.004458 0.012256 -0.000909 0.004115 -0.000710 0.001882
# 3 -0.003141 -0.000909 0.007835 -0.003188 -0.003090 0.002470
# 4 0.000569 0.004115 -0.003188 0.024358 -0.001560 -0.003148
# 5 0.000819 -0.000710 -0.003090 -0.001560 0.022068 -0.001937
# 6 -0.004822 0.001882 0.002470 -0.003148 -0.001937 0.021511
#
#
# Mechanical properties :
#
#
# Convention : Reuss Voigt Hill
#
# Bulk Modulus (GPa) = 68.74098 73.76258 71.25178
# Shear Modulus (GPa) = 41.19765 48.27027 44.73396
#
# Velocity S-wave (km/s) = 4.14419 4.48583 4.31839
# Velocity P-wave (km/s) = 7.18022 7.58815 7.38700
#
# Compressibility (1/GPa) = 0.01454736
#
# Stress axis : x y z
#
# Youngs Moduli (GPa) = 87.15988 81.59347 127.63485
#
# Poissons Ratio (x) = 0.36374 0.40096
# Poissons Ratio (y) = 0.38855 0.11600
# Poissons Ratio (z) = 0.27381 0.07416
#
# Static dielectric constant tensor:
#      x y z
#    x 1.943460 0.058370 0.066190 
#    y 0.058370 1.899170 0.032300 
#    z 0.066190 0.032300 1.965830 
# 
# From -- ./inp_files/67484.got.cif
#   From: 2010.05.17/outbox.cif.g08.bks.cpg/sg2_34_cif.got.tgz:67484.got - 2010.06.03 11:33:40.
