data_PCOD9070283
_publ_section_title
;
Structure prediction by ZEFSAII (Michael W. Deem and Ramdas Pophale) SiO2 
 PCOD9070283
Probable space group: P -1
;
_chemical_formula_sum "Si O2"
_cell_formula_units_Z 12
_cell_length_a 8.442443
_cell_length_b 15.695298
_cell_length_c 9.089083
_cell_angle_alpha 143.233892
_cell_angle_beta 82.553970
_cell_angle_gamma 68.857376
_cell_volume 444.930761
_symmetry_space_group_name_H-M "P -1"
_symmetry_group_IT_number 2
_symmetry_cell_setting 'triclinic'
loop_
_space_group_symop_operation_xyz
x,y,z
-x,-y,-z
loop_
_atom_site_type_symbol
_atom_site_label
_atom_site_fract_x
_atom_site_fract_y
_atom_site_fract_z
Si Si1 0.734833 0.265286 0.550527
Si Si2 0.485956 0.154797 0.312578
Si Si3 0.844550 0.403420 0.216857
Si Si4 0.814343 0.105168 0.806781
Si Si5 0.242937 0.491036 0.324327
Si Si6 0.263476 0.224423 0.745267
O O1 0.682165 0.134702 0.339614
O O2 0.750277 0.357204 0.535900
O O3 0.500000 0.500000 0.000000
O O4 0.005619 0.087137 0.356381
O O5 0.368804 0.345262 0.472427
O O6 0.326384 0.215184 0.558430
O O7 0.500000 0.000000 0.000000
O O8 0.937780 0.391614 0.348863
O O9 0.754220 0.310489 0.136642
O O10 0.044441 0.264978 0.867140
O O11 0.532908 0.243446 0.994090
O O12 0.000000 0.000000 0.500000
O O13 0.167422 0.435618 0.128419
O O14 0.500000 0.000000 0.500000
#
# Coordination Sequence:
#
# PCOD9070283 Si02
#       6
#     2   2   2   2   2   2
#     4  12  24  49  82 119 153 208 263 321 395 460
#     4  12  26  49  80 116 157 202 261 325 392 470
#     4  12  27  49  72 112 159 206 257 322 393 461
#     4  12  24  46  81 113 154 207 261 325 388 463
#     4  12  26  50  79 114 160 199 266 326 382 472
#     4  12  26  50  77 109 156 208 259 321 392 468
#
# _framework density 26.970490000000002
#
# number of rings (size 3 to 8) (size 9 to 14) (size 15 to 20)
#    0.000    0.000    5.000    4.500    0.000    2.000 
#    9.000    0.000    0.000    0.000    0.000    0.000 
#    0.000    0.000    0.000    0.000    0.000    0.000 
#
# Total GULP energy -67147.528500 kJ/mol
# GULP energy per Si atom -5595.627375 kJ/mol
# Density = 2.690910 g / cm^3
# Si number density = 26.970490 Si / 1000 Ang^3
#
#
#
# Elastic Constant Matrix: (Units=GPa)
#
#
# Indices 1 2 3 4 5 6 
#
# 1 128.2544 25.6396 33.5230 -2.4285 29.1799 -4.5957
# 2 25.6396 194.3605 60.3727 -19.4055 -0.4208 2.9453
# 3 33.5230 60.3727 99.9848 -3.3860 12.4197 -0.1802
# 4 -2.4285 -19.4055 -3.3860 73.2969 -7.3525 -7.7642
# 5 29.1799 -0.4208 12.4197 -7.3525 45.5389 -1.7121
# 6 -4.5957 2.9453 -0.1802 -7.7642 -1.7121 35.4719
#
#
#
# Elastic Compliance Matrix: (Units=1/GPa)
#
#
# Indices 1 2 3 4 5 6 
#
# 1 0.009839 -0.000691 -0.002180 -0.000434 -0.005751 0.000948
# 2 -0.000691 0.006642 -0.003951 0.001718 0.001852 -0.000196
# 3 -0.002180 -0.003951 0.013393 -0.000760 -0.002421 -0.000170
# 4 -0.000434 0.001718 -0.000760 0.014683 0.002991 0.003155
# 5 -0.005751 0.001852 -0.002421 0.002991 0.026844 0.001039
# 6 0.000948 -0.000196 -0.000170 0.003155 0.001039 0.029070
#
#
# Mechanical properties :
#
#
# Convention : Reuss Voigt Hill
#
# Bulk Modulus (GPa) = 61.61622 73.51893 67.56758
# Shear Modulus (GPa) = 41.83206 51.06582 46.44894
#
# Velocity S-wave (km/s) = 3.94259 4.35604 4.15446
# Velocity P-wave (km/s) = 6.60460 7.25385 6.93682
#
# Compressibility (1/GPa) = 0.01622949
#
# Stress axis : x y z
#
# Youngs Moduli (GPa) = 101.63439 150.55630 74.66577
#
# Poissons Ratio (x) = 0.10401 0.16280
# Poissons Ratio (y) = 0.07021 0.29501
# Poissons Ratio (z) = 0.22160 0.59487
#
# Static dielectric constant tensor:
#      x y z
#    x 2.231940 -0.092410 0.113190 
#    y -0.092410 2.037020 -0.086180 
#    z 0.113190 -0.086180 2.491240 
# 
# From -- ./inp_files/209238.got.cif
#   From: 2010.05.17/outbox.cif.g08.bks.cpg/sg2_105_cif.got.tgz:209238.got - 2010.06.03 11:33:40.
