data_PCOD9070267
_publ_section_title
;
Structure prediction by ZEFSAII (Michael W. Deem and Ramdas Pophale) SiO2 
 PCOD9070267
Probable space group: P -1
;
_chemical_formula_sum "Si O2"
_cell_formula_units_Z 12
_cell_length_a 9.552172
_cell_length_b 15.533482
_cell_length_c 5.567380
_cell_angle_alpha 104.359043
_cell_angle_beta 99.089013
_cell_angle_gamma 34.063674
_cell_volume 446.525146
_symmetry_space_group_name_H-M "P -1"
_symmetry_group_IT_number 2
_symmetry_cell_setting 'triclinic'
loop_
_space_group_symop_operation_xyz
x,y,z
-x,-y,-z
loop_
_atom_site_type_symbol
_atom_site_label
_atom_site_fract_x
_atom_site_fract_y
_atom_site_fract_z
Si Si1 0.196465 0.817112 0.432927
Si Si2 0.862594 0.341643 0.569335
Si Si3 0.494029 0.357279 0.023412
Si Si4 0.013115 0.578132 0.734745
Si Si5 0.352255 0.057615 0.751932
Si Si6 0.541110 0.182489 0.228669
O O1 0.132129 0.767308 0.551397
O O2 0.446826 0.742689 0.527847
O O3 0.297841 0.715088 0.152688
O O4 0.000000 0.000000 0.500000
O O5 0.609354 0.514738 0.731596
O O6 0.938325 0.359504 0.369895
O O7 0.084700 0.239602 0.754905
O O8 0.627478 0.196461 0.037462
O O9 0.230702 0.461086 0.908140
O O10 0.726906 0.718936 0.843363
O O11 0.000000 0.500000 0.500000
O O12 0.500000 0.000000 0.500000
O O13 0.306698 0.976150 0.723918
O O14 0.500000 0.000000 0.000000
#
# Coordination Sequence:
#
# PCOD9070267 Si02
#       6
#     2   2   2   2   2   2
#     4  12  28  51  72 109 161 206 262 328 410 486
#     4  12  27  48  78 114 153 208 264 333 398 484
#     4  12  27  47  79 110 151 202 273 325 404 475
#     4  12  24  46  79 111 152 193 262 330 396 468
#     4  12  28  48  81 122 163 212 272 339 406 479
#     4  12  26  48  78 112 154 209 259 330 401 483
#
# _framework density 26.874188
#
# number of rings (size 3 to 8) (size 9 to 14) (size 15 to 20)
#    0.000    0.000    6.667    2.000    4.667    4.667 
#    0.000    0.000    0.000    0.000    0.000    0.000 
#    0.000    0.000    0.000    0.000    0.000    0.000 
#
# Total GULP energy -66988.991008 kJ/mol
# GULP energy per Si atom -5582.415917 kJ/mol
# Density = 2.681302 g / cm^3
# Si number density = 26.874188 Si / 1000 Ang^3
#
#
#
# Elastic Constant Matrix: (Units=GPa)
#
#
# Indices 1 2 3 4 5 6 
#
# 1 142.4235 41.4048 24.3481 4.3597 -1.1058 41.1473
# 2 41.4048 148.7710 28.4862 -17.9993 -11.2077 23.4790
# 3 24.3481 28.4862 66.4973 -15.1504 3.2953 8.3368
# 4 4.3597 -17.9993 -15.1504 38.9061 4.9422 -4.7881
# 5 -1.1058 -11.2077 3.2953 4.9422 50.2850 -8.0027
# 6 41.1473 23.4790 8.3368 -4.7881 -8.0027 60.4454
#
#
#
# Elastic Compliance Matrix: (Units=1/GPa)
#
#
# Indices 1 2 3 4 5 6 
#
# 1 0.009873 -0.001728 -0.002940 -0.003719 -0.000567 -0.006014
# 2 -0.001728 0.008281 -0.002177 0.002829 0.001462 -0.001322
# 3 -0.002940 -0.002177 0.018688 0.006964 -0.002378 0.000506
# 4 -0.003719 0.002829 0.006964 0.030778 -0.002523 0.002576
# 5 -0.000567 0.001462 -0.002378 -0.002523 0.021039 0.002732
# 6 -0.006014 -0.001322 0.000506 0.002576 0.002732 0.021647
#
#
# Mechanical properties :
#
#
# Convention : Reuss Voigt Hill
#
# Bulk Modulus (GPa) = 43.19275 60.68556 51.93915
# Shear Modulus (GPa) = 37.96140 47.49083 42.72612
#
# Velocity S-wave (km/s) = 3.76248 4.20831 3.99163
# Velocity P-wave (km/s) = 5.91457 6.80026 6.37282
#
# Compressibility (1/GPa) = 0.02315203
#
# Stress axis : x y z
#
# Youngs Moduli (GPa) = 101.28328 120.76486 53.50979
#
# Poissons Ratio (x) = 0.20874 0.15731
# Poissons Ratio (y) = 0.17507 0.11647
# Poissons Ratio (z) = 0.29776 0.26286
#
# Static dielectric constant tensor:
#      x y z
#    x 1.701690 -0.068350 -0.547970 
#    y -0.068350 2.192880 -0.116120 
#    z -0.547970 -0.116120 1.388860 
# 
# From -- ./inp_files/39395.got.cif
#   From: 2010.05.17/outbox.cif.g08.bks.cpg/sg2_20_cif.got.tgz:39395.got - 2010.06.03 11:33:40.
