data_PCOD9070115
_publ_section_title
;
Structure prediction by ZEFSAII (Michael W. Deem and Ramdas Pophale) SiO2 
 PCOD9070115
Probable space group: P -1
;
_chemical_formula_sum "Si O2"
_cell_formula_units_Z 16
_cell_length_a 10.328674
_cell_length_b 9.119865
_cell_length_c 9.475591
_cell_angle_alpha 50.674506
_cell_angle_beta 77.475932
_cell_angle_gamma 84.746238
_cell_volume 672.777053
_symmetry_space_group_name_H-M "P -1"
_symmetry_group_IT_number 2
_symmetry_cell_setting 'triclinic'
loop_
_space_group_symop_operation_xyz
x,y,z
-x,-y,-z
loop_
_atom_site_type_symbol
_atom_site_label
_atom_site_fract_x
_atom_site_fract_y
_atom_site_fract_z
Si Si1 0.692655 0.218529 0.978221
Si Si2 0.423272 0.388646 0.959517
Si Si3 0.812364 0.864414 0.678788
Si Si4 0.934468 0.487472 0.869889
Si Si5 0.892905 0.589566 0.370351
Si Si6 0.754821 0.189695 0.663251
Si Si7 0.281187 0.121472 0.611142
Si Si8 0.543627 0.355639 0.456497
O O1 0.545078 0.275523 0.939294
O O2 0.791274 0.381064 0.929736
O O3 0.752026 0.162409 0.847627
O O4 0.683513 0.050197 0.194284
O O5 0.381500 0.529465 0.759226
O O6 0.500000 0.500000 0.000000
O O7 0.303214 0.254936 0.132075
O O8 0.915387 0.708842 0.708227
O O9 0.763646 0.941784 0.494460
O O10 0.849980 0.043800 0.658909
O O11 0.035688 0.380111 0.813402
O O12 0.000000 0.500000 0.000000
O O13 0.787881 0.411808 0.490473
O O14 0.829555 0.765530 0.349580
O O15 0.000000 0.500000 0.500000
O O16 0.614717 0.180293 0.618883
O O17 0.407597 0.268195 0.473204
O O18 0.500000 0.500000 0.500000
#
# Coordination Sequence:
#
# PCOD9070115 Si02
#       8
#     2   2   2   2   2   2   2   2
#     4  12  27  49  71 107 144 187 234 293 357 423
#     4  12  24  45  78 101 147 186 229 295 357 418
#     4  12  28  47  72 110 142 182 238 295 355 420
#     4  12  29  49  73 103 141 189 244 289 350 418
#     4  12  25  51  73  95 144 193 233 293 349 412
#     4  12  28  45  75 108 143 183 239 293 355 422
#     4  12  27  47  74 105 144 187 235 291 356 423
#     4  12  24  45  76 106 139 189 234 284 361 424
#
# _framework density 23.782022000000001
#
# number of rings (size 3 to 8) (size 9 to 14) (size 15 to 20)
#    0.000    0.000    7.500    0.750    8.750    4.000 
#    0.000    0.000    0.000    0.000    0.000    0.000 
#    0.000    0.000    0.000    0.000    0.000    0.000 
#
# Total GULP energy -89498.757123 kJ/mol
# GULP energy per Si atom -5593.672320 kJ/mol
# Density = 2.372789 g / cm^3
# Si number density = 23.782022 Si / 1000 Ang^3
#
#
#
# Elastic Constant Matrix: (Units=GPa)
#
#
# Indices 1 2 3 4 5 6 
#
# 1 50.4374 -0.4390 14.8695 11.6306 0.4886 0.4360
# 2 -0.4390 107.9029 21.8344 14.4546 -1.1331 0.8526
# 3 14.8695 21.8344 136.4301 17.0871 12.4617 10.5421
# 4 11.6306 14.4546 17.0871 35.1462 0.1677 8.8402
# 5 0.4886 -1.1331 12.4617 0.1677 39.7234 9.6072
# 6 0.4360 0.8526 10.5421 8.8402 9.6072 17.4295
#
#
#
# Elastic Compliance Matrix: (Units=1/GPa)
#
#
# Indices 1 2 3 4 5 6 
#
# 1 0.022318 0.001562 -0.001960 -0.008400 -0.000857 0.005284
# 2 0.001562 0.010168 -0.001426 -0.004670 0.000099 0.002640
# 3 -0.001960 -0.001426 0.008438 -0.002153 -0.001977 -0.002804
# 4 -0.008400 -0.004670 -0.002153 0.039568 0.005667 -0.021452
# 5 -0.000857 0.000099 -0.001977 0.005667 0.030213 -0.018316
# 6 0.005284 0.002640 -0.002804 -0.021452 -0.018316 0.079784
#
#
# Mechanical properties :
#
#
# Convention : Reuss Voigt Hill
#
# Bulk Modulus (GPa) = 26.82689 40.81113 33.81901
# Shear Modulus (GPa) = 24.20561 35.69353 29.94957
#
# Velocity S-wave (km/s) = 3.19378 3.87830 3.55256
# Velocity P-wave (km/s) = 4.99050 6.10350 5.57484
#
# Compressibility (1/GPa) = 0.03727603
#
# Stress axis : x y z
#
# Youngs Moduli (GPa) = 44.80764 98.34559 118.50570
#
# Poissons Ratio (x) = -0.15361 0.23231
# Poissons Ratio (y) = -0.06999 0.16896
# Poissons Ratio (z) = 0.08784 0.14021
#
# Static dielectric constant tensor:
#      x y z
#    x 3.497050 0.128160 -0.001580 
#    y 0.128160 1.942650 0.010640 
#    z -0.001580 0.010640 1.856870 
# 
# From -- ./inp_files/226084.got.cif
#   From: 2010.05.17/outbox.cif.g08.bks.cpg/sg2_114_cif.got.tgz:226084.got - 2010.06.03 11:33:40.
