data_PCOD9070618
_publ_section_title
;
Structure prediction by ZEFSAII (Michael W. Deem and Ramdas Pophale) SiO2 
 PCOD9070618
Probable space group: P -1
;
_chemical_formula_sum "Si O2"
_cell_formula_units_Z 14
_cell_length_a 9.439862
_cell_length_b 11.710302
_cell_length_c 14.424588
_cell_angle_alpha 126.027210
_cell_angle_beta 151.532712
_cell_angle_gamma 61.927995
_cell_volume 610.199362
_symmetry_space_group_name_H-M "P -1"
_symmetry_group_IT_number 2
_symmetry_cell_setting 'triclinic'
loop_
_space_group_symop_operation_xyz
x,y,z
-x,-y,-z
loop_
_atom_site_type_symbol
_atom_site_label
_atom_site_fract_x
_atom_site_fract_y
_atom_site_fract_z
Si Si1 0.888636 0.297498 0.615963
Si Si2 0.049511 0.611476 0.810843
Si Si3 0.716391 0.694997 0.841894
Si Si4 0.443466 0.616705 0.351767
Si Si5 0.257917 0.003262 0.941397
Si Si6 0.633150 0.872716 0.463046
Si Si7 0.421925 0.148759 0.796147
O O1 0.078203 0.448089 0.771190
O O2 0.612390 0.285079 0.378641
O O3 0.742933 0.316254 0.641716
O O4 0.106345 0.177194 0.672792
O O5 0.918455 0.674223 0.859005
O O6 0.778593 0.613927 0.583304
O O7 0.347261 0.706888 0.997484
O O8 0.687196 0.548679 0.813339
O O9 0.831914 0.838259 0.029287
O O10 0.472124 0.719752 0.329899
O O11 0.976605 0.890365 0.701836
O O12 0.410660 0.964669 0.106489
O O13 0.500000 0.000000 0.000000
O O14 0.618446 0.890072 0.353078
O O15 0.500000 0.000000 0.500000
#
# Coordination Sequence:
#
# PCOD9070618 Si02
#       7
#     2   2   2   2   2   2   2
#     4   9  20  39  71 101 134 177 227 275 342 401
#     4   9  18  41  70 100 131 179 226 280 333 398
#     4   9  20  42  72  95 135 182 227 274 337 397
#     4   9  20  45  71 100 131 178 230 280 328 406
#     4  12  28  47  67 103 141 180 224 283 344 397
#     4  12  28  45  71 104 136 180 233 274 335 412
#     4  12  25  43  70 101 142 177 220 284 344 398
#
# _framework density 22.94332
#
# number of rings (size 3 to 8) (size 9 to 14) (size 15 to 20)
#    0.000    1.714    1.429    3.857    6.000    2.286 
#    5.143    4.286    0.000    0.000    0.000    0.000 
#    0.000    0.000    0.000    0.000    0.000    0.000 
#
# Total GULP energy -78396.816355 kJ/mol
# GULP energy per Si atom -5599.772597 kJ/mol
# Density = 2.289110 g / cm^3
# Si number density = 22.943320 Si / 1000 Ang^3
#
#
#
# Elastic Constant Matrix: (Units=GPa)
#
#
# Indices 1 2 3 4 5 6 
#
# 1 72.1345 48.7723 24.8312 -6.7201 -2.8347 21.1514
# 2 48.7723 96.2355 50.2983 -6.9146 -1.7923 17.8974
# 3 24.8312 50.2983 81.3211 -10.1443 3.6461 8.8746
# 4 -6.7201 -6.9146 -10.1443 39.4788 1.3878 9.2002
# 5 -2.8347 -1.7923 3.6461 1.3878 38.2833 -3.0980
# 6 21.1514 17.8974 8.8746 9.2002 -3.0980 28.8064
#
#
#
# Elastic Compliance Matrix: (Units=1/GPa)
#
#
# Indices 1 2 3 4 5 6 
#
# 1 0.025199 -0.010119 0.000910 0.006124 -0.000087 -0.014461
# 2 -0.010119 0.021102 -0.009715 0.000050 0.000952 -0.002602
# 3 0.000910 -0.009715 0.018825 0.003825 -0.002474 -0.001920
# 4 0.006124 0.000050 0.003825 0.031153 -0.002325 -0.015906
# 5 -0.000087 0.000952 -0.002474 -0.002325 0.026791 0.003859
# 6 -0.014461 -0.002602 -0.001920 -0.015906 0.003859 0.053036
#
#
# Mechanical properties :
#
#
# Convention : Reuss Voigt Hill
#
# Bulk Modulus (GPa) = 36.65713 55.27719 45.96716
# Shear Modulus (GPa) = 22.41696 29.69964 26.05830
#
# Velocity S-wave (km/s) = 3.12918 3.60179 3.37377
# Velocity P-wave (km/s) = 5.39144 6.43758 5.93760
#
# Compressibility (1/GPa) = 0.02727983
#
# Stress axis : x y z
#
# Youngs Moduli (GPa) = 39.68459 47.38907 53.12005
#
# Poissons Ratio (x) = 0.47951 -0.04835
# Poissons Ratio (y) = 0.40155 0.51604
# Poissons Ratio (z) = -0.03612 0.46037
#
# Static dielectric constant tensor:
#      x y z
#    x 1.804220 -0.010110 0.049940 
#    y -0.010110 1.865370 -0.041060 
#    z 0.049940 -0.041060 1.968470 
# 
# From -- ./inp_files/172603.got.cif
#   From: 2010.05.17/outbox.cif.g08.bks.cpg/sg2_87_cif.got.tgz:172603.got - 2010.06.03 11:33:40.
