data_PCOD9070537
_publ_section_title
;
Structure prediction by ZEFSAII (Michael W. Deem and Ramdas Pophale) SiO2 
 PCOD9070537
Probable space group: P -1
;
_chemical_formula_sum "Si O2"
_cell_formula_units_Z 12
_cell_length_a 14.161177
_cell_length_b 4.748309
_cell_length_c 7.385312
_cell_angle_alpha 66.431758
_cell_angle_beta 79.978718
_cell_angle_gamma 82.220082
_cell_volume 447.039500
_symmetry_space_group_name_H-M "P -1"
_symmetry_group_IT_number 2
_symmetry_cell_setting 'triclinic'
loop_
_space_group_symop_operation_xyz
x,y,z
-x,-y,-z
loop_
_atom_site_type_symbol
_atom_site_label
_atom_site_fract_x
_atom_site_fract_y
_atom_site_fract_z
Si Si1 0.946041 0.829626 0.907823
Si Si2 0.769826 0.478510 0.960312
Si Si3 0.221573 0.096033 0.628069
Si Si4 0.852726 0.276037 0.586612
Si Si5 0.414699 0.424682 0.414944
Si Si6 0.582910 0.907916 0.855136
O O1 0.945260 0.061967 0.676824
O O2 0.000000 0.500000 0.000000
O O3 0.000000 0.000000 0.000000
O O4 0.854778 0.607621 0.402082
O O5 0.805969 0.389481 0.768005
O O6 0.625399 0.234343 0.719318
O O7 0.778761 0.172964 0.156336
O O8 0.663481 0.647433 0.955517
O O9 0.200485 0.932764 0.485992
O O10 0.162727 0.272063 0.044507
O O11 0.500000 0.500000 0.500000
O O12 0.325919 0.239935 0.561082
O O13 0.457312 0.230457 0.280235
O O14 0.500000 0.000000 0.000000
#
# Coordination Sequence:
#
# PCOD9070537 Si02
#       6
#     2   2   2   2   2   2
#     4  12  24  49  86 121 161 209 257 332 407 477
#     4  12  29  53  87 114 163 215 271 325 412 479
#     4  12  28  50  85 114 155 217 272 322 413 473
#     4  12  25  52  81 115 163 206 263 333 393 483
#     4  12  27  53  74 113 161 207 274 350 396 475
#     4  12  29  53  79 114 162 217 272 340 405 479
#
# _framework density 26.843266
#
# number of rings (size 3 to 8) (size 9 to 14) (size 15 to 20)
#    0.000    0.000    5.000    3.000    2.333    5.333 
#    6.000    5.000    0.000    0.000    0.000    0.000 
#    0.000    0.000    0.000    0.000    0.000    0.000 
#
# Total GULP energy -67225.087423 kJ/mol
# GULP energy per Si atom -5602.090619 kJ/mol
# Density = 2.678217 g / cm^3
# Si number density = 26.843266 Si / 1000 Ang^3
#
#
#
# Elastic Constant Matrix: (Units=GPa)
#
#
# Indices 1 2 3 4 5 6 
#
# 1 139.4342 46.5304 76.6672 11.3675 33.4024 33.4890
# 2 46.5304 237.4018 78.5597 -6.9882 7.2673 27.7470
# 3 76.6672 78.5597 167.0559 4.4139 23.2816 16.6035
# 4 11.3675 -6.9882 4.4139 70.5058 9.7471 10.2597
# 5 33.4024 7.2673 23.2816 9.7471 38.9118 7.1814
# 6 33.4890 27.7470 16.6035 10.2597 7.1814 61.1612
#
#
#
# Elastic Compliance Matrix: (Units=1/GPa)
#
#
# Indices 1 2 3 4 5 6 
#
# 1 0.012370 -0.000320 -0.004050 -0.000092 -0.007252 -0.004662
# 2 -0.000320 0.005240 -0.002267 0.000872 0.000770 -0.001823
# 3 -0.004050 -0.002267 0.009048 -0.000050 -0.001685 0.000996
# 4 -0.000092 0.000872 -0.000050 0.015115 -0.003385 -0.002470
# 5 -0.007252 0.000770 -0.001685 -0.003385 0.033505 0.000713
# 6 -0.004662 -0.001823 0.000996 -0.002470 0.000713 0.019790
#
#
# Mechanical properties :
#
#
# Convention : Reuss Voigt Hill
#
# Bulk Modulus (GPa) = 74.71281 105.26740 89.99011
# Shear Modulus (GPa) = 44.32516 56.92474 50.62495
#
# Velocity S-wave (km/s) = 4.06798 4.61003 4.34746
# Velocity P-wave (km/s) = 7.06810 8.22418 7.66796
#
# Compressibility (1/GPa) = 0.01338459
#
# Stress axis : x y z
#
# Youngs Moduli (GPa) = 80.84102 190.83109 110.52574
#
# Poissons Ratio (x) = 0.06110 0.44763
# Poissons Ratio (y) = 0.02588 0.25051
# Poissons Ratio (z) = 0.32740 0.43252
#
# Static dielectric constant tensor:
#      x y z
#    x 2.141510 -0.078260 -0.065680 
#    y -0.078260 2.099650 -0.059920 
#    z -0.065680 -0.059920 2.192960 
# 
# From -- ./inp_files/114827.got.cif
#   From: 2010.05.17/outbox.cif.g08.bks.cpg/sg2_58_cif.got.tgz:114827.got - 2010.06.03 11:33:40.
