data_PCOD9070018
_publ_section_title
;
Structure prediction by ZEFSAII (Michael W. Deem and Ramdas Pophale) SiO2 
 PCOD9070018
Probable space group: P -1
;
_chemical_formula_sum "Si O2"
_cell_formula_units_Z 14
_cell_length_a 11.891621
_cell_length_b 9.937632
_cell_length_c 14.863896
_cell_angle_alpha 120.953518
_cell_angle_beta 153.055266
_cell_angle_gamma 50.602498
_cell_volume 608.394772
_symmetry_space_group_name_H-M "P -1"
_symmetry_group_IT_number 2
_symmetry_cell_setting 'triclinic'
loop_
_space_group_symop_operation_xyz
x,y,z
-x,-y,-z
loop_
_atom_site_type_symbol
_atom_site_label
_atom_site_fract_x
_atom_site_fract_y
_atom_site_fract_z
Si Si1 0.951044 0.029023 0.368331
Si Si2 0.481188 0.971461 0.239278
Si Si3 0.372560 0.654842 0.034421
Si Si4 0.746783 0.854250 0.684250
Si Si5 0.500278 0.584204 0.432863
Si Si6 0.120986 0.213102 0.908227
Si Si7 0.464342 0.401716 0.175211
O O1 0.694994 0.220008 0.235812
O O2 0.236517 0.019725 0.531173
O O3 0.889469 0.885086 0.223996
O O4 0.000000 0.000000 0.500000
O O5 0.268595 0.059716 0.199737
O O6 0.532150 0.773568 0.192523
O O7 0.355342 0.080620 0.096509
O O8 0.048219 0.785845 0.831069
O O9 0.500000 0.500000 0.000000
O O10 0.391753 0.561889 0.111548
O O11 0.681174 0.688817 0.594100
O O12 0.500000 0.000000 0.500000
O O13 0.500000 0.500000 0.500000
O O14 0.583914 0.439125 0.365322
O O15 0.176168 0.718369 0.232420
O O16 0.198054 0.370225 0.996143
#
# Coordination Sequence:
#
# PCOD9070018 Si02
#       7
#     2   2   2   2   2   2   2
#     4  12  26  45  75 110 142 192 240 295 359 435
#     4  12  26  49  76 103 144 196 248 286 362 443
#     4  12  29  46  72 108 147 190 239 306 368 419
#     4  12  26  49  74 104 146 196 247 292 356 446
#     4  12  24  44  74 108 141 183 241 301 365 422
#     4  12  24  48  75 104 142 190 242 294 358 440
#     4  12  26  44  71 107 152 181 236 308 364 418
#
# _framework density 23.011375000000001
#
# number of rings (size 3 to 8) (size 9 to 14) (size 15 to 20)
#    0.000    0.000    2.857    7.286    6.000    0.571 
#    0.000    0.000    0.000    0.000    0.000    0.000 
#    0.000    0.000    0.000    0.000    0.000    0.000 
#
# Total GULP energy -78520.807584 kJ/mol
# GULP energy per Si atom -5608.629113 kJ/mol
# Density = 2.295900 g / cm^3
# Si number density = 23.011375 Si / 1000 Ang^3
#
#
#
# Elastic Constant Matrix: (Units=GPa)
#
#
# Indices 1 2 3 4 5 6 
#
# 1 72.3224 10.3984 11.5480 6.6495 -17.8681 -6.2703
# 2 10.3984 79.4445 8.8598 20.3128 -17.9245 2.1571
# 3 11.5480 8.8598 69.9071 2.0777 -8.5681 3.8983
# 4 6.6495 20.3128 2.0777 48.1383 -6.9676 -0.8905
# 5 -17.8681 -17.9245 -8.5681 -6.9676 41.8800 -5.5366
# 6 -6.2703 2.1571 3.8983 -0.8905 -5.5366 52.7899
#
#
#
# Elastic Compliance Matrix: (Units=1/GPa)
#
#
# Indices 1 2 3 4 5 6 
#
# 1 0.016129 -0.000215 -0.001953 -0.001050 0.006577 0.002741
# 2 -0.000215 0.015383 -0.001089 -0.005647 0.005315 -0.000112
# 3 -0.001953 -0.001089 0.015024 0.000303 0.001678 -0.001116
# 4 -0.001050 -0.005647 0.000303 0.023471 0.001182 0.000603
# 5 0.006577 0.005315 0.001678 0.001182 0.029975 0.003604
# 6 0.002741 -0.000112 -0.001116 0.000603 0.003604 0.019744
#
#
# Mechanical properties :
#
#
# Convention : Reuss Voigt Hill
#
# Bulk Modulus (GPa) = 24.98537 31.47626 28.23082
# Shear Modulus (GPa) = 35.82197 41.28617 38.55407
#
# Velocity S-wave (km/s) = 3.94979 4.24035 4.09765
# Velocity P-wave (km/s) = 5.62873 6.13860 5.88918
#
# Compressibility (1/GPa) = 0.04002342
#
# Stress axis : x y z
#
# Youngs Moduli (GPa) = 62.00050 65.00638 66.56003
#
# Poissons Ratio (x) = 0.01399 0.12996
# Poissons Ratio (y) = 0.01335 0.07245
# Poissons Ratio (z) = 0.12106 0.07076
#
# Static dielectric constant tensor:
#      x y z
#    x 1.853480 -0.006860 0.015490 
#    y -0.006860 1.831720 -0.034250 
#    z 0.015490 -0.034250 1.842370 
# 
# From -- ./inp_files/68229.got.cif
#   From: 2010.05.17/outbox.cif.g08.bks.cpg/sg2_35_cif.got.tgz:68229.got - 2010.06.03 11:33:40.
