data_PCOD9070363
_publ_section_title
;
Structure prediction by ZEFSAII (Michael W. Deem and Ramdas Pophale) SiO2 
 PCOD9070363
Probable space group: P -1
;
_chemical_formula_sum "Si O2"
_cell_formula_units_Z 16
_cell_length_a 12.779028
_cell_length_b 8.582379
_cell_length_c 6.103925
_cell_angle_alpha 81.280442
_cell_angle_beta 108.305956
_cell_angle_gamma 89.052979
_cell_volume 626.750971
_symmetry_space_group_name_H-M "P -1"
_symmetry_group_IT_number 2
_symmetry_cell_setting 'triclinic'
loop_
_space_group_symop_operation_xyz
x,y,z
-x,-y,-z
loop_
_atom_site_type_symbol
_atom_site_label
_atom_site_fract_x
_atom_site_fract_y
_atom_site_fract_z
Si Si1 0.243421 0.898478 0.655444
Si Si2 0.406755 0.426649 0.602754
Si Si3 0.928914 0.609612 0.598830
Si Si4 0.028708 0.820649 0.977682
Si Si5 0.516324 0.174178 0.070902
Si Si6 0.200466 0.657739 0.351930
Si Si7 0.346640 0.143369 0.332467
Si Si8 0.837366 0.819290 0.165315
O O1 0.352067 0.815179 0.857733
O O2 0.172558 0.770564 0.518639
O O3 0.301196 0.002784 0.480270
O O4 0.169870 0.018092 0.734904
O O5 0.500000 0.500000 0.500000
O O6 0.317569 0.576906 0.517926
O O7 0.352079 0.292621 0.457770
O O8 0.457023 0.325763 0.869361
O O9 0.985137 0.745168 0.742490
O O10 0.872020 0.485132 0.738270
O O11 0.829466 0.688878 0.372101
O O12 0.000000 0.500000 0.500000
O O13 0.947355 0.756428 0.123292
O O14 0.159063 0.777765 0.106951
O O15 0.000000 0.000000 0.000000
O O16 0.464418 0.148030 0.283095
O O17 0.500000 0.000000 0.000000
O O18 0.260074 0.167331 0.073929
#
# Coordination Sequence:
#
# PCOD9070363 Si02
#       8
#     2   2   2   2   2   2   2   2
#     4  12  27  46  78 113 150 207 264 321 398 476
#     4  12  29  48  75 115 155 203 261 330 401 468
#     4  12  27  48  75 110 154 202 259 325 403 462
#     4  12  28  49  76 108 152 205 260 320 396 486
#     4  12  25  48  76 110 154 206 263 323 396 475
#     4  12  27  49  73 110 155 196 259 328 396 463
#     4  12  24  47  77 106 156 201 262 324 394 476
#     4  12  25  46  74 108 150 199 259 317 396 477
#
# _framework density 25.528478
#
# number of rings (size 3 to 8) (size 9 to 14) (size 15 to 20)
#    0.000    0.000    3.750    6.000    5.250    5.000 
#    0.000    0.000    0.000    0.000    0.000    0.000 
#    0.000    0.000    0.000    0.000    0.000    0.000 
#
# Total GULP energy -89227.183978 kJ/mol
# GULP energy per Si atom -5576.698999 kJ/mol
# Density = 2.547037 g / cm^3
# Si number density = 25.528478 Si / 1000 Ang^3
#
#
#
# Elastic Constant Matrix: (Units=GPa)
#
#
# Indices 1 2 3 4 5 6 
#
# 1 86.4894 38.8120 33.9581 -1.6454 -14.3586 -15.0580
# 2 38.8120 128.6035 57.3210 0.5686 5.7757 -7.6718
# 3 33.9581 57.3210 107.3159 -4.4736 10.8389 -15.1804
# 4 -1.6454 0.5686 -4.4736 60.9661 2.6488 6.2642
# 5 -14.3586 5.7757 10.8389 2.6488 51.7039 0.6782
# 6 -15.0580 -7.6718 -15.1804 6.2642 0.6782 47.4947
#
#
#
# Elastic Compliance Matrix: (Units=1/GPa)
#
#
# Indices 1 2 3 4 5 6 
#
# 1 0.015854 -0.003348 -0.003313 -0.000370 0.005446 0.003398
# 2 -0.003348 0.010928 -0.004789 -0.000418 -0.001115 -0.000756
# 3 -0.003313 -0.004789 0.013645 0.000847 -0.003321 0.002473
# 4 -0.000370 -0.000418 0.000847 0.016721 -0.001063 -0.002104
# 5 0.005446 -0.001115 -0.003321 -0.001063 0.021724 0.000315
# 6 0.003398 -0.000756 0.002473 -0.002104 0.000315 0.023074
#
#
# Mechanical properties :
#
#
# Convention : Reuss Voigt Hill
#
# Bulk Modulus (GPa) = 57.05762 64.73233 60.89498
# Shear Modulus (GPa) = 38.25881 44.85414 41.55647
#
# Velocity S-wave (km/s) = 3.87547 4.19623 4.03904
# Velocity P-wave (km/s) = 6.51343 6.99212 6.75702
#
# Compressibility (1/GPa) = 0.01752614
#
# Stress axis : x y z
#
# Youngs Moduli (GPa) = 63.07551 91.51031 73.28547
#
# Poissons Ratio (x) = 0.30639 0.24280
# Poissons Ratio (y) = 0.21119 0.35097
# Poissons Ratio (z) = 0.20898 0.43825
#
# Static dielectric constant tensor:
#      x y z
#    x 2.146360 0.018230 -0.056730 
#    y 0.018230 2.109150 -0.084500 
#    z -0.056730 -0.084500 2.089400 
# 
# From -- ./inp_files/90554.got.cif
#   From: 2010.05.17/outbox.cif.g08.bks.cpg/sg2_46_cif.got.tgz:90554.got - 2010.06.03 11:33:40.
