data_PCOD9070366
_publ_section_title
;
Structure prediction by ZEFSAII (Michael W. Deem and Ramdas Pophale) SiO2 
 PCOD9070366
Probable space group: P -1
;
_chemical_formula_sum "Si O2"
_cell_formula_units_Z 12
_cell_length_a 11.216376
_cell_length_b 8.453068
_cell_length_c 8.580126
_cell_angle_alpha 125.632606
_cell_angle_beta 130.300276
_cell_angle_gamma 84.604839
_cell_volume 448.735745
_symmetry_space_group_name_H-M "P -1"
_symmetry_group_IT_number 2
_symmetry_cell_setting 'triclinic'
loop_
_space_group_symop_operation_xyz
x,y,z
-x,-y,-z
loop_
_atom_site_type_symbol
_atom_site_label
_atom_site_fract_x
_atom_site_fract_y
_atom_site_fract_z
Si Si1 0.532946 0.860677 0.083830
Si Si2 0.085698 0.020122 0.413621
Si Si3 0.847761 0.553696 0.847368
Si Si4 0.511821 0.440598 0.653574
Si Si5 0.670824 0.050782 0.774597
Si Si6 0.056859 0.359479 0.353713
O O1 0.727643 0.982968 0.398639
O O2 0.381849 0.841741 0.062536
O O3 0.524444 0.630910 0.888002
O O4 0.500000 0.000000 0.000000
O O5 0.116621 0.225717 0.448869
O O6 0.000000 0.000000 0.500000
O O7 0.927319 0.812746 0.081532
O O8 0.699767 0.441207 0.791337
O O9 0.816571 0.506609 0.607816
O O10 0.000000 0.500000 0.000000
O O11 0.500000 0.500000 0.500000
O O12 0.357536 0.198266 0.394846
O O13 0.500000 0.000000 0.500000
O O14 0.877238 0.197438 0.018857
O O15 0.000000 0.500000 0.500000
#
# Coordination Sequence:
#
# PCOD9070366 Si02
#       6
#     2   2   2   2   2   2
#     4  12  26  48  78 113 155 210 267 322 394 478
#     4  12  24  47  77 113 155 202 264 321 398 467
#     4  12  26  49  80 112 154 207 260 327 393 473
#     4  12  26  47  81 109 154 206 263 319 399 464
#     4  12  28  51  77 117 160 201 262 330 397 470
#     4  12  29  51  78 116 160 205 264 331 394 474
#
# _framework density 26.741797999999999
#
# number of rings (size 3 to 8) (size 9 to 14) (size 15 to 20)
#    0.000    0.000    3.333    6.500    4.667    2.000 
#    0.000    0.000    0.000    0.000    0.000    0.000 
#    0.000    0.000    0.000    0.000    0.000    0.000 
#
# Total GULP energy -67074.134411 kJ/mol
# GULP energy per Si atom -5589.511201 kJ/mol
# Density = 2.668093 g / cm^3
# Si number density = 26.741798 Si / 1000 Ang^3
#
#
#
# Elastic Constant Matrix: (Units=GPa)
#
#
# Indices 1 2 3 4 5 6 
#
# 1 188.2871 15.4407 32.7151 9.7571 -16.4717 3.2600
# 2 15.4407 129.0888 22.5728 -20.3815 0.7637 -7.5324
# 3 32.7151 22.5728 129.7344 6.8829 8.4603 -0.0075
# 4 9.7571 -20.3815 6.8829 62.6118 -11.8759 0.4169
# 5 -16.4717 0.7637 8.4603 -11.8759 68.9885 -7.1933
# 6 3.2600 -7.5324 -0.0075 0.4169 -7.1933 35.7456
#
#
#
# Elastic Compliance Matrix: (Units=1/GPa)
#
#
# Indices 1 2 3 4 5 6 
#
# 1 0.005767 -0.000577 -0.001410 -0.000663 0.001405 -0.000357
# 2 -0.000577 0.008715 -0.001589 0.003226 0.000724 0.001997
# 3 -0.001410 -0.001589 0.008533 -0.001552 -0.001688 -0.000526
# 4 -0.000663 0.003226 -0.001552 0.017894 0.003199 0.001175
# 5 0.001405 0.000724 -0.001688 0.003199 0.015913 0.003189
# 6 -0.000357 0.001997 -0.000526 0.001175 0.003189 0.029057
#
#
# Mechanical properties :
#
#
# Convention : Reuss Voigt Hill
#
# Bulk Modulus (GPa) = 63.04515 65.39639 64.22077
# Shear Modulus (GPa) = 50.85531 58.56129 54.70830
#
# Velocity S-wave (km/s) = 4.36560 4.68469 4.52796
# Velocity P-wave (km/s) = 7.00271 7.33278 7.16964
#
# Compressibility (1/GPa) = 0.01586165
#
# Stress axis : x y z
#
# Youngs Moduli (GPa) = 173.40564 114.74469 117.19828
#
# Poissons Ratio (x) = 0.06620 0.16529
# Poissons Ratio (y) = 0.10005 0.18624
# Poissons Ratio (z) = 0.24456 0.18234
#
# Static dielectric constant tensor:
#      x y z
#    x 1.822240 0.193530 -0.180860 
#    y 0.193530 2.144500 0.100300 
#    z -0.180860 0.100300 1.941810 
# 
# From -- ./inp_files/246224.got.cif
#   From: 2010.05.17/outbox.cif.g08.bks.cpg/sg2_124_cif.got.tgz:246224.got - 2010.06.03 11:33:40.
