data_PCOD9070470
_publ_section_title
;
Structure prediction by ZEFSAII (Michael W. Deem and Ramdas Pophale) SiO2 
 PCOD9070470
Probable space group: P -1
;
_chemical_formula_sum "Si O2"
_cell_formula_units_Z 15
_cell_length_a 14.821158
_cell_length_b 8.638292
_cell_length_c 8.978901
_cell_angle_alpha 76.344130
_cell_angle_beta 53.522468
_cell_angle_gamma 43.220927
_cell_volume 591.051963
_symmetry_space_group_name_H-M "P -1"
_symmetry_group_IT_number 2
_symmetry_cell_setting 'triclinic'
loop_
_space_group_symop_operation_xyz
x,y,z
-x,-y,-z
loop_
_atom_site_type_symbol
_atom_site_label
_atom_site_fract_x
_atom_site_fract_y
_atom_site_fract_z
Si Si1 0.373773 0.302346 0.482129
Si Si2 0.442207 0.219400 0.091539
Si Si3 0.682606 0.199959 0.229780
Si Si4 0.000000 0.500000 0.500000
Si Si5 0.808596 0.246539 0.836435
Si Si6 0.119405 0.319259 0.784798
Si Si7 0.186088 0.783618 0.648784
Si Si8 0.246053 0.939086 0.314213
O O1 0.428827 0.203681 0.283016
O O2 0.515826 0.273581 0.408257
O O3 0.300657 0.221711 0.646227
O O4 0.207587 0.594052 0.588166
O O5 0.262579 0.497605 0.166202
O O6 0.587745 0.183005 0.906618
O O7 0.500000 0.000000 0.000000
O O8 0.729777 0.305648 0.253092
O O9 0.835775 0.912363 0.174197
O O10 0.681828 0.270736 0.049625
O O11 0.054214 0.416716 0.655509
O O12 0.120638 0.220980 0.399329
O O13 0.826579 0.132951 0.689980
O O14 0.991293 0.044179 0.779181
O O15 0.000000 0.500000 0.000000
O O16 0.288868 0.814418 0.457919
#
# Coordination Sequence:
#
# PCOD9070470 Si02
#       8
#     2   2   2   1   2   2   2   2
#     4  12  26  51  77 114 160 210 261 331 409 477
#     4  12  28  46  80 117 155 205 270 331 407 479
#     4  12  26  51  74 110 160 207 263 330 405 481
#     4  12  26  48  86 116 158 208 276 322 404 474
#     4  12  26  50  79 111 156 211 266 336 399 481
#     4  12  28  51  80 118 164 212 264 337 401 477
#     4  12  26  46  78 110 152 206 262 324 402 478
#     4  12  24  48  77 110 156 205 261 332 392 482
#
# _framework density 25.378478999999999
#
# number of rings (size 3 to 8) (size 9 to 14) (size 15 to 20)
#    0.000    0.000    4.000    6.000    3.733    0.000 
#    2.400    0.000    0.000    0.000    0.000    0.000 
#    0.000    0.000    0.000    0.000    0.000    0.000 
#
# Total GULP energy -83632.180063 kJ/mol
# GULP energy per Si atom -5575.478671 kJ/mol
# Density = 2.532072 g / cm^3
# Si number density = 25.378479 Si / 1000 Ang^3
#
#
#
# Elastic Constant Matrix: (Units=GPa)
#
#
# Indices 1 2 3 4 5 6 
#
# 1 101.1975 14.9470 37.3737 22.6030 15.4002 -4.7343
# 2 14.9470 112.0547 13.2773 20.1660 38.1893 7.9704
# 3 37.3737 13.2773 122.2767 18.8405 8.6789 4.2652
# 4 22.6030 20.1660 18.8405 43.8492 11.7378 8.6480
# 5 15.4002 38.1893 8.6789 11.7378 48.7677 7.2494
# 6 -4.7343 7.9704 4.2652 8.6480 7.2494 21.8394
#
#
#
# Elastic Compliance Matrix: (Units=1/GPa)
#
#
# Indices 1 2 3 4 5 6 
#
# 1 0.013185 0.000401 -0.003133 -0.006059 -0.003484 0.006879
# 2 0.000401 0.012644 -0.000317 -0.003425 -0.009136 -0.000077
# 3 -0.003133 -0.000317 0.009528 -0.002077 0.000294 -0.001699
# 4 -0.006059 -0.003425 -0.002077 0.030891 -0.000739 -0.011645
# 5 -0.003484 -0.009136 0.000294 -0.000739 0.029944 -0.007126
# 6 0.006879 -0.000077 -0.001699 -0.011645 -0.007126 0.054616
#
#
# Mechanical properties :
#
#
# Convention : Reuss Voigt Hill
#
# Bulk Modulus (GPa) = 34.17590 51.85834 43.01712
# Shear Modulus (GPa) = 30.00160 40.88667 35.44414
#
# Velocity S-wave (km/s) = 3.44200 4.01818 3.74119
# Velocity P-wave (km/s) = 5.41222 6.48120 5.97069
#
# Compressibility (1/GPa) = 0.02926039
#
# Stress axis : x y z
#
# Youngs Moduli (GPa) = 75.84550 79.09199 104.94853
#
# Poissons Ratio (x) = -0.03172 0.32875
# Poissons Ratio (y) = -0.03042 0.03324
# Poissons Ratio (z) = 0.23759 0.02505
#
# Static dielectric constant tensor:
#      x y z
#    x 2.067770 -0.051650 0.024410 
#    y -0.051650 2.030750 0.046230 
#    z 0.024410 0.046230 1.995890 
# 
# From -- ./inp_files/298169.got.cif
#   From: 2010.05.17/outbox.cif.g08.bks.cpg/sg2_150_cif.got.tgz:298169.got - 2010.06.03 11:33:40.
