data_PCOD9070117
_publ_section_title
;
Structure prediction by ZEFSAII (Michael W. Deem and Ramdas Pophale) SiO2 
 PCOD9070117
Probable space group: P -1
;
_chemical_formula_sum "Si O2"
_cell_formula_units_Z 16
_cell_length_a 8.668481
_cell_length_b 9.928138
_cell_length_c 15.454216
_cell_angle_alpha 37.005625
_cell_angle_beta 117.307189
_cell_angle_gamma 113.501206
_cell_volume 710.010785
_symmetry_space_group_name_H-M "P -1"
_symmetry_group_IT_number 2
_symmetry_cell_setting 'triclinic'
loop_
_space_group_symop_operation_xyz
x,y,z
-x,-y,-z
loop_
_atom_site_type_symbol
_atom_site_label
_atom_site_fract_x
_atom_site_fract_y
_atom_site_fract_z
Si Si1 0.289139 0.466413 0.703908
Si Si2 0.695950 0.871287 0.256977
Si Si3 0.937770 0.296753 0.149648
Si Si4 0.863978 0.805379 0.594801
Si Si5 0.676118 0.532106 0.086223
Si Si6 0.115526 0.508218 0.389344
Si Si7 0.519704 0.107815 0.542448
Si Si8 0.665115 0.023050 0.796474
O O1 0.328385 0.227313 0.795526
O O2 0.344940 0.516678 0.791819
O O3 0.386711 0.649875 0.573762
O O4 0.082593 0.488651 0.632357
O O5 0.782331 0.674107 0.436015
O O6 0.511733 0.927601 0.222607
O O7 0.829206 0.089929 0.183105
O O8 0.812777 0.385195 0.147629
O O9 0.106536 0.217726 0.283973
O O10 0.000000 0.500000 0.000000
O O11 0.892725 0.580935 0.665205
O O12 0.674612 0.869882 0.487022
O O13 0.000000 0.000000 0.500000
O O14 0.500000 0.500000 0.000000
O O15 0.738300 0.795495 0.966067
O O16 0.209842 0.753573 0.286724
O O17 0.617346 0.978530 0.706743
O O18 0.500000 0.000000 0.500000
#
# Coordination Sequence:
#
# PCOD9070117 Si02
#       8
#     2   2   2   2   2   2   2   2
#     4  12  28  45  74 109 146 190 240 297 368 426
#     4  12  25  49  74 110 147 186 241 308 360 422
#     4  12  29  47  76 105 146 193 244 293 365 432
#     4  12  24  46  75 103 144 192 243 299 356 427
#     4  12  28  52  70 103 150 195 236 296 362 436
#     4  12  24  45  76 107 144 185 244 301 356 422
#     4  12  26  41  74 109 139 190 251 296 356 427
#     4  12  26  46  74 103 150 191 236 301 363 426
#
# _framework density 22.534869
#
# number of rings (size 3 to 8) (size 9 to 14) (size 15 to 20)
#    0.000    0.000    6.250    3.000    5.250    2.000 
#    0.000    0.000    0.000    0.000    0.000    0.000 
#    0.000    0.000    0.000    0.000    0.000    0.000 
#
# Total GULP energy -89580.335689 kJ/mol
# GULP energy per Si atom -5598.770981 kJ/mol
# Density = 2.248358 g / cm^3
# Si number density = 22.534869 Si / 1000 Ang^3
#
#
#
# Elastic Constant Matrix: (Units=GPa)
#
#
# Indices 1 2 3 4 5 6 
#
# 1 62.6341 23.7835 -2.4800 -8.5857 -8.0091 8.9945
# 2 23.7835 119.2654 2.4428 -11.7901 -12.0659 -6.5517
# 3 -2.4800 2.4428 77.5541 -11.8653 -23.1215 13.5324
# 4 -8.5857 -11.7901 -11.8653 47.0996 1.7114 -10.3182
# 5 -8.0091 -12.0659 -23.1215 1.7114 31.3984 -8.0872
# 6 8.9945 -6.5517 13.5324 -10.3182 -8.0872 46.3129
#
#
#
# Elastic Compliance Matrix: (Units=1/GPa)
#
#
# Indices 1 2 3 4 5 6 
#
# 1 0.018808 -0.003295 0.003135 0.002417 0.004764 -0.003664
# 2 -0.003295 0.009870 0.000653 0.002572 0.004100 0.003134
# 3 0.003135 0.000653 0.018082 0.004253 0.013491 -0.002497
# 4 0.002417 0.002572 0.004253 0.024286 0.004669 0.004878
# 5 0.004764 0.004100 0.013491 0.004669 0.045531 0.004704
# 6 -0.003664 0.003134 -0.002497 0.004878 0.004704 0.025385
#
#
# Mechanical properties :
#
#
# Convention : Reuss Voigt Hill
#
# Bulk Modulus (GPa) = 20.94479 34.10514 27.52496
# Shear Modulus (GPa) = 31.86886 40.67601 36.27244
#
# Velocity S-wave (km/s) = 3.76467 4.25317 4.01635
# Velocity P-wave (km/s) = 5.31145 6.26789 5.80939
#
# Compressibility (1/GPa) = 0.04774457
#
# Stress axis : x y z
#
# Youngs Moduli (GPa) = 53.16920 101.32089 55.30229
#
# Poissons Ratio (x) = 0.33387 -0.17336
# Poissons Ratio (y) = 0.17520 -0.03609
# Poissons Ratio (z) = -0.16667 -0.06613
#
# Static dielectric constant tensor:
#      x y z
#    x 1.833260 -0.048580 -0.054510 
#    y -0.048580 1.865480 0.017670 
#    z -0.054510 0.017670 1.808780 
# 
# From -- ./inp_files/208314.got.cif
#   From: 2010.05.17/outbox.cif.g08.bks.cpg/sg2_105_cif.got.tgz:208314.got - 2010.06.03 11:33:40.
