data_PCOD9070428
_publ_section_title
;
Structure prediction by ZEFSAII (Michael W. Deem and Ramdas Pophale) SiO2 
 PCOD9070428
Probable space group: P -1
;
_chemical_formula_sum "Si O2"
_cell_formula_units_Z 13
_cell_length_a 10.122745
_cell_length_b 12.222405
_cell_length_c 12.487001
_cell_angle_alpha 59.968987
_cell_angle_beta 143.338335
_cell_angle_gamma 91.582595
_cell_volume 551.565661
_symmetry_space_group_name_H-M "P -1"
_symmetry_group_IT_number 2
_symmetry_cell_setting 'triclinic'
loop_
_space_group_symop_operation_xyz
x,y,z
-x,-y,-z
loop_
_atom_site_type_symbol
_atom_site_label
_atom_site_fract_x
_atom_site_fract_y
_atom_site_fract_z
Si Si1 0.062298 0.491643 0.259116
Si Si2 0.760000 0.157105 0.853388
Si Si3 0.906253 0.295800 0.202357
Si Si4 0.000000 0.000000 0.500000
Si Si5 0.169438 0.211216 0.183061
Si Si6 0.816161 0.939419 0.191394
Si Si7 0.187176 0.540485 0.550483
O O1 0.400242 0.332779 0.496349
O O2 0.147979 0.532311 0.402440
O O3 0.917147 0.413581 0.227747
O O4 0.821268 0.667392 0.941282
O O5 0.909244 0.226620 0.953677
O O6 0.735262 0.070452 0.979255
O O7 0.000000 0.000000 0.000000
O O8 0.101024 0.098863 0.472380
O O9 0.049521 0.281359 0.190457
O O10 0.550621 0.389714 0.903399
O O11 0.024102 0.046100 0.616842
O O12 0.500000 0.000000 0.500000
O O13 0.039305 0.735661 0.391238
O O14 0.500000 0.000000 0.000000
O O15 0.000000 0.500000 0.500000
#
# Coordination Sequence:
#
# PCOD9070428 Si02
#       7
#     2   2   2   1   2   2   2
#     4  12  27  50  78 110 159 204 257 324 394 464
#     4  12  25  48  79 115 155 210 260 326 399 467
#     4  12  27  46  76 110 154 197 261 319 386 464
#     4  12  24  48  74 104 154 194 254 316 388 450
#     4  12  27  47  74 112 155 201 261 320 390 469
#     4  12  27  47  77 109 154 202 265 321 395 472
#     4  12  27  48  75 114 151 205 259 321 390 471
#
# _framework density 23.569269999999999
#
# number of rings (size 3 to 8) (size 9 to 14) (size 15 to 20)
#    0.000    0.000    3.077    6.462    4.308    6.154 
#    0.000    0.000    0.000    0.000    0.000    0.000 
#    0.000    0.000    0.000    0.000    0.000    0.000 
#
# Total GULP energy -72621.601052 kJ/mol
# GULP energy per Si atom -5586.277004 kJ/mol
# Density = 2.351563 g / cm^3
# Si number density = 23.569270 Si / 1000 Ang^3
#
#
#
# Elastic Constant Matrix: (Units=GPa)
#
#
# Indices 1 2 3 4 5 6 
#
# 1 77.5509 30.1020 1.2786 3.4324 -1.1068 0.3184
# 2 30.1020 161.7720 30.9453 4.5536 -6.0498 8.0771
# 3 1.2786 30.9453 48.5898 8.7107 20.0581 -12.2577
# 4 3.4324 4.5536 8.7107 34.3466 4.3971 1.6928
# 5 -1.1068 -6.0498 20.0581 4.3971 31.4773 -2.4600
# 6 0.3184 8.0771 -12.2577 1.6928 -2.4600 48.3590
#
#
#
# Elastic Compliance Matrix: (Units=1/GPa)
#
#
# Indices 1 2 3 4 5 6 
#
# 1 0.014165 -0.003297 0.003037 -0.001583 -0.001757 0.001193
# 2 -0.003297 0.009137 -0.009932 0.000849 0.007564 -0.003667
# 3 0.003037 -0.009932 0.041843 -0.006735 -0.026655 0.011125
# 4 -0.001583 0.000849 -0.006735 0.031034 -0.000165 -0.002933
# 5 -0.001757 0.007564 -0.026655 -0.000165 0.049742 -0.005472
# 6 0.001193 -0.003667 0.011125 -0.002933 -0.005472 0.023927
#
#
# Mechanical properties :
#
#
# Convention : Reuss Voigt Hill
#
# Bulk Modulus (GPa) = 22.34113 45.84051 34.09082
# Shear Modulus (GPa) = 24.37205 37.87571 31.12388
#
# Velocity S-wave (km/s) = 3.21917 4.01308 3.63785
# Velocity P-wave (km/s) = 4.82876 6.40036 5.66928
#
# Compressibility (1/GPa) = 0.04476050
#
# Stress axis : x y z
#
# Youngs Moduli (GPa) = 70.59815 109.44441 23.89873
#
# Poissons Ratio (x) = 0.36089 -0.07259
# Poissons Ratio (y) = 0.23279 0.23736
# Poissons Ratio (z) = -0.21443 1.08701
#
# Static dielectric constant tensor:
#      x y z
#    x 1.853300 -0.018990 -0.018790 
#    y -0.018990 1.902050 -0.012680 
#    z -0.018790 -0.012680 1.936710 
# 
# From -- ./inp_files/183713.got.cif
#   From: 2010.05.17/outbox.cif.g08.bks.cpg/sg2_92_cif.got.tgz:183713.got - 2010.06.03 11:33:40.
