data_PCOD9070571
_publ_section_title
;
Structure prediction by ZEFSAII (Michael W. Deem and Ramdas Pophale) SiO2 
 PCOD9070571
Probable space group: P -1
;
_chemical_formula_sum "Si O2"
_cell_formula_units_Z 12
_cell_length_a 11.548993
_cell_length_b 13.657617
_cell_length_c 6.936724
_cell_angle_alpha 84.405850
_cell_angle_beta 62.305490
_cell_angle_gamma 33.813299
_cell_volume 436.919573
_symmetry_space_group_name_H-M "P -1"
_symmetry_group_IT_number 2
_symmetry_cell_setting 'triclinic'
loop_
_space_group_symop_operation_xyz
x,y,z
-x,-y,-z
loop_
_atom_site_type_symbol
_atom_site_label
_atom_site_fract_x
_atom_site_fract_y
_atom_site_fract_z
Si Si1 0.300788 0.784402 0.922716
Si Si2 0.246163 0.418438 0.677614
Si Si3 0.284534 0.086984 0.945333
Si Si4 0.900142 0.659904 0.418428
Si Si5 0.921552 0.257319 0.828265
Si Si6 0.683181 0.102187 0.734051
O O1 0.540860 0.680403 0.632192
O O2 0.336938 0.641184 0.926198
O O3 0.256062 0.857112 0.158112
O O4 0.000000 0.000000 0.000000
O O5 0.953492 0.676941 0.844602
O O6 0.179151 0.348419 0.709663
O O7 0.417883 0.311699 0.764474
O O8 0.402344 0.089295 0.332973
O O9 0.362831 0.960065 0.079770
O O10 0.127925 0.136705 0.877860
O O11 0.000000 0.500000 0.500000
O O12 0.116688 0.605742 0.244435
O O13 0.081039 0.091296 0.566543
#
# Coordination Sequence:
#
# PCOD9070571 Si02
#       6
#     2   2   2   2   2   2
#     4  12  24  54  84 123 168 213 281 341 407 497
#     4  12  29  52  87 119 168 221 271 344 412 487
#     4  12  28  52  82 127 162 210 286 334 410 504
#     4  12  28  58  83 121 170 216 275 347 411 489
#     4  12  27  50  85 121 166 214 276 340 410 488
#     4  12  24  50  89 117 164 224 268 347 412 481
#
# _framework density 27.465009999999999
#
# number of rings (size 3 to 8) (size 9 to 14) (size 15 to 20)
#    0.000    0.000    6.667    2.000    2.333    5.333 
#    0.000    5.833    0.000    0.000    0.000    0.000 
#    0.000    0.000    0.000    0.000    0.000    0.000 
#
# Total GULP energy -67325.179637 kJ/mol
# GULP energy per Si atom -5610.431636 kJ/mol
# Density = 2.740250 g / cm^3
# Si number density = 27.465010 Si / 1000 Ang^3
#
#
#
# Elastic Constant Matrix: (Units=GPa)
#
#
# Indices 1 2 3 4 5 6 
#
# 1 204.4283 49.0389 75.7951 -7.2711 13.8717 30.8218
# 2 49.0389 164.3546 45.6190 -9.9744 7.6148 7.9129
# 3 75.7951 45.6190 142.9566 4.7414 15.3142 9.4130
# 4 -7.2711 -9.9744 4.7414 68.1598 -3.3161 12.1887
# 5 13.8717 7.6148 15.3142 -3.3161 59.9944 -25.1848
# 6 30.8218 7.9129 9.4130 12.1887 -25.1848 48.6108
#
#
#
# Elastic Compliance Matrix: (Units=1/GPa)
#
#
# Indices 1 2 3 4 5 6 
#
# 1 0.007411 -0.000827 -0.002960 0.001818 -0.003348 -0.006182
# 2 -0.000827 0.006941 -0.001700 0.001172 -0.000550 -0.000855
# 3 -0.002960 -0.001700 0.009336 -0.001261 -0.001629 -0.000182
# 4 0.001818 0.001172 -0.001261 0.016130 -0.001936 -0.006147
# 5 -0.003348 -0.000550 -0.001629 -0.001936 0.024390 0.015649
# 6 -0.006182 -0.000855 -0.000182 -0.006147 0.015649 0.034314
#
#
# Mechanical properties :
#
#
# Convention : Reuss Voigt Hill
#
# Bulk Modulus (GPa) = 78.65827 94.73838 86.69832
# Shear Modulus (GPa) = 43.96230 58.10543 51.03386
#
# Velocity S-wave (km/s) = 4.00517 4.60457 4.31529
# Velocity P-wave (km/s) = 7.07744 7.92708 7.51428
#
# Compressibility (1/GPa) = 0.01271322
#
# Stress axis : x y z
#
# Youngs Moduli (GPa) = 134.92701 144.07646 107.11779
#
# Poissons Ratio (x) = 0.11909 0.31711
# Poissons Ratio (y) = 0.11153 0.18212
# Poissons Ratio (z) = 0.39944 0.24496
#
# Static dielectric constant tensor:
#      x y z
#    x 2.169660 -0.001310 0.023090 
#    y -0.001310 2.167340 -0.066620 
#    z 0.023090 -0.066620 2.185720 
# 
# From -- ./inp_files/73146.got.cif
#   From: 2010.05.17/outbox.cif.g08.bks.cpg/sg2_37_cif.got.tgz:73146.got - 2010.06.03 11:33:40.
