data_PCOD9070460
_publ_section_title
;
Structure prediction by ZEFSAII (Michael W. Deem and Ramdas Pophale) SiO2 
 PCOD9070460
Probable space group: P -1
;
_chemical_formula_sum "Si O2"
_cell_formula_units_Z 16
_cell_length_a 12.025414
_cell_length_b 9.398308
_cell_length_c 18.690298
_cell_angle_alpha 86.158202
_cell_angle_beta 138.424289
_cell_angle_gamma 127.433377
_cell_volume 753.825485
_symmetry_space_group_name_H-M "P -1"
_symmetry_group_IT_number 2
_symmetry_cell_setting 'triclinic'
loop_
_space_group_symop_operation_xyz
x,y,z
-x,-y,-z
loop_
_atom_site_type_symbol
_atom_site_label
_atom_site_fract_x
_atom_site_fract_y
_atom_site_fract_z
Si Si1 0.410725 0.775693 0.980992
Si Si2 0.174478 0.178077 0.859783
Si Si3 0.066159 0.924280 0.093733
Si Si4 0.262131 0.746640 0.566551
Si Si5 0.751219 0.927064 0.418942
Si Si6 0.581741 0.709377 0.496611
Si Si7 0.252141 0.596143 0.072174
Si Si8 0.791839 0.314608 0.620713
O O1 0.119954 0.504527 0.804966
O O2 0.707647 0.894893 0.099776
O O3 0.312676 0.696595 0.019008
O O4 0.500000 0.000000 0.000000
O O5 0.029410 0.091908 0.872037
O O6 0.500000 0.500000 0.000000
O O7 0.894926 0.000452 0.674214
O O8 0.406259 0.088912 0.257082
O O9 0.841522 0.634425 0.974418
O O10 0.000000 0.000000 0.000000
O O11 0.188785 0.642888 0.454924
O O12 0.000000 0.500000 0.500000
O O13 0.222528 0.891705 0.542582
O O14 0.619520 0.741065 0.428415
O O15 0.547973 0.816015 0.256182
O O16 0.000000 0.000000 0.500000
O O17 0.500000 0.500000 0.500000
O O18 0.299770 0.610531 0.383302
O O19 0.000000 0.500000 0.000000
O O20 0.500000 0.000000 0.500000
#
# Coordination Sequence:
#
# PCOD9070460 Si02
#       8
#     2   2   2   2   2   2   2   2
#     4  12  28  45  74 111 148 196 247 313 375 444
#     4  12  26  48  75 106 149 192 260 305 364 449
#     4  12  29  49  77 109 148 201 250 312 377 445
#     4  12  29  49  75 110 150 195 254 312 373 448
#     4  12  29  45  75 108 154 198 241 309 379 448
#     4  12  27  47  73 108 150 199 251 305 371 447
#     4  12  26  48  72 105 157 196 247 300 382 448
#     4  12  24  48  77 102 145 198 252 303 375 437
#
# _framework density 21.225072999999998
#
# number of rings (size 3 to 8) (size 9 to 14) (size 15 to 20)
#    0.000    0.000    5.000    3.750   10.500    0.000 
#    0.000    0.000    0.000    0.000    0.000    0.000 
#    0.000    0.000    0.000    0.000    0.000    0.000 
#
# Total GULP energy -89345.795924 kJ/mol
# GULP energy per Si atom -5584.112245 kJ/mol
# Density = 2.117676 g / cm^3
# Si number density = 21.225073 Si / 1000 Ang^3
#
#
#
# Elastic Constant Matrix: (Units=GPa)
#
#
# Indices 1 2 3 4 5 6 
#
# 1 120.0957 29.4370 -17.7419 -11.2538 20.6936 2.0895
# 2 29.4370 135.9316 -15.9336 -9.4812 0.3153 9.8102
# 3 -17.7419 -15.9336 54.6552 -5.8013 6.2178 -0.9536
# 4 -11.2538 -9.4812 -5.8013 29.6266 -3.6176 2.4852
# 5 20.6936 0.3153 6.2178 -3.6176 50.0455 -12.0190
# 6 2.0895 9.8102 -0.9536 2.4852 -12.0190 36.6898
#
#
#
# Elastic Compliance Matrix: (Units=1/GPa)
#
#
# Indices 1 2 3 4 5 6 
#
# 1 0.010520 -0.001384 0.003962 0.003884 -0.005043 -0.002041
# 2 -0.001384 0.008274 0.002226 0.002737 -0.000110 -0.002297
# 3 0.003962 0.002226 0.021333 0.006037 -0.004372 -0.002108
# 4 0.003884 0.002737 0.006037 0.037520 -0.000503 -0.003502
# 5 -0.005043 -0.000110 -0.004372 -0.000503 0.024564 0.008284
# 6 -0.002041 -0.002297 -0.002108 -0.003502 0.008284 0.030882
#
#
# Mechanical properties :
#
#
# Convention : Reuss Voigt Hill
#
# Bulk Modulus (GPa) = 20.10665 33.57840 26.84253
# Shear Modulus (GPa) = 35.69826 44.26712 39.98269
#
# Velocity S-wave (km/s) = 4.10554 4.57180 4.34493
# Velocity P-wave (km/s) = 5.65398 6.61233 6.15185
#
# Compressibility (1/GPa) = 0.04973479
#
# Stress axis : x y z
#
# Youngs Moduli (GPa) = 95.06100 120.85737 46.87575
#
# Poissons Ratio (x) = 0.16724 -0.18571
# Poissons Ratio (y) = 0.13154 -0.10435
# Poissons Ratio (z) = -0.37661 -0.26903
#
# Static dielectric constant tensor:
#      x y z
#    x 1.898350 -0.059940 0.015080 
#    y -0.059940 1.757050 0.027090 
#    z 0.015080 0.027090 1.733220 
# 
# From -- ./inp_files/566749.got.cif
#   From: 2010.05.17/outbox.cif.g08.bks.cpg/sg2_284_cif.got.tgz:566749.got - 2010.06.03 11:33:40.
