data_PCOD9070869
_publ_section_title
;
Structure prediction by ZEFSAII (Michael W. Deem and Ramdas Pophale) SiO2 
 PCOD9070869
Probable space group: P -1
;
_chemical_formula_sum "Si O2"
_cell_formula_units_Z 16
_cell_length_a 8.570706
_cell_length_b 21.332862
_cell_length_c 5.578019
_cell_angle_alpha 61.273713
_cell_angle_beta 78.774905
_cell_angle_gamma 49.177135
_cell_volume 665.716933
_symmetry_space_group_name_H-M "P -1"
_symmetry_group_IT_number 2
_symmetry_cell_setting 'triclinic'
loop_
_space_group_symop_operation_xyz
x,y,z
-x,-y,-z
loop_
_atom_site_type_symbol
_atom_site_label
_atom_site_fract_x
_atom_site_fract_y
_atom_site_fract_z
Si Si1 0.052222 0.746910 0.438067
Si Si2 0.083809 0.320123 0.028006
Si Si3 0.211363 0.434891 0.900585
Si Si4 0.074090 0.103541 0.146031
Si Si5 0.390627 0.123489 0.143109
Si Si6 0.261139 0.568177 0.386670
Si Si7 0.654654 0.252914 0.291195
Si Si8 0.389967 0.899881 0.369747
O O1 0.171245 0.665199 0.357463
O O2 0.224039 0.733831 0.579283
O O3 0.909812 0.730223 0.646005
O O4 0.922484 0.850351 0.180294
O O5 0.186689 0.366656 0.902374
O O6 0.210853 0.236192 0.955452
O O7 0.836118 0.400760 0.904956
O O8 0.442929 0.357450 0.089477
O O9 0.192563 0.512012 0.612724
O O10 0.000000 0.500000 0.000000
O O11 0.252914 0.091582 0.273071
O O12 0.838738 0.182886 0.169042
O O13 0.153386 0.000412 0.273321
O O14 0.509500 0.110597 0.378282
O O15 0.519871 0.088450 0.920321
O O16 0.500000 0.500000 0.500000
O O17 0.595273 0.189888 0.507284
#
# Coordination Sequence:
#
# PCOD9070869 Si02
#       8
#     2   2   2   2   2   2   2   2
#     4  12  25  47  75 107 156 201 258 319 393 465
#     4  12  25  48  77 105 155 202 258 327 387 465
#     4  12  27  48  76 108 151 202 263 319 394 460
#     4  12  27  50  79 113 153 206 258 321 394 469
#     4  12  26  50  81 114 154 206 260 323 390 463
#     4  12  27  46  75 111 145 199 262 324 395 467
#     4  12  29  48  75 111 157 205 256 326 393 464
#     4  12  30  50  83 116 159 203 267 324 393 466
#
# _framework density 24.03424
#
# number of rings (size 3 to 8) (size 9 to 14) (size 15 to 20)
#    0.000    0.000    5.000    3.750    7.000    2.500 
#    0.000    0.000    0.000    0.000    0.000    0.000 
#    0.000    0.000    0.000    0.000    0.000    0.000 
#
# Total GULP energy -89368.841323 kJ/mol
# GULP energy per Si atom -5585.552583 kJ/mol
# Density = 2.397954 g / cm^3
# Si number density = 24.034240 Si / 1000 Ang^3
#
#
#
# Elastic Constant Matrix: (Units=GPa)
#
#
# Indices 1 2 3 4 5 6 
#
# 1 60.7522 4.1098 2.8236 -2.4668 0.3768 -3.6319
# 2 4.1098 81.1005 17.4842 -24.9199 8.3616 -14.8480
# 3 2.8236 17.4842 68.9775 -17.4233 2.3402 -11.3502
# 4 -2.4668 -24.9199 -17.4233 44.1486 -2.3394 -7.3969
# 5 0.3768 8.3616 2.3402 -2.3394 37.2398 -3.4783
# 6 -3.6319 -14.8480 -11.3502 -7.3969 -3.4783 44.1668
#
#
#
# Elastic Compliance Matrix: (Units=1/GPa)
#
#
# Indices 1 2 3 4 5 6 
#
# 1 0.016608 -0.000267 -0.000140 0.000963 0.000093 0.001408
# 2 -0.000267 0.017304 -0.000392 0.010686 -0.002506 0.007287
# 3 -0.000140 -0.000392 0.017445 0.007595 -0.000006 0.005611
# 4 0.000963 0.010686 0.007595 0.033638 0.000280 0.011279
# 5 0.000093 -0.002506 -0.000006 0.000280 0.027562 0.001381
# 6 0.001408 0.007287 0.005611 0.011279 0.001381 0.028647
#
#
# Mechanical properties :
#
#
# Convention : Reuss Voigt Hill
#
# Bulk Modulus (GPa) = 20.09756 28.85172 24.47464
# Shear Modulus (GPa) = 31.36982 37.53856 34.45419
#
# Velocity S-wave (km/s) = 3.61669 3.95635 3.79033
# Velocity P-wave (km/s) = 5.08142 5.73592 5.41856
#
# Compressibility (1/GPa) = 0.04975727
#
# Stress axis : x y z
#
# Youngs Moduli (GPa) = 60.21334 57.78852 57.32426
#
# Poissons Ratio (x) = 0.01545 0.00805
# Poissons Ratio (y) = 0.01610 0.02247
# Poissons Ratio (z) = 0.00845 0.02265
#
# Static dielectric constant tensor:
#      x y z
#    x 2.063010 -0.035580 0.082740 
#    y -0.035580 1.921270 0.068460 
#    z 0.082740 0.068460 1.914490 
# 
# From -- ./inp_files/52468.got.cif
#   From: 2010.05.17/outbox.cif.g08.bks.cpg/sg2_27_cif.got.tgz:52468.got - 2010.06.03 11:33:40.
