data_PCOD9070798
_publ_section_title
;
Structure prediction by ZEFSAII (Michael W. Deem and Ramdas Pophale) SiO2 
 PCOD9070798
Probable space group: P -1
;
_chemical_formula_sum "Si O2"
_cell_formula_units_Z 14
_cell_length_a 15.676155
_cell_length_b 9.187507
_cell_length_c 12.434868
_cell_angle_alpha 130.074128
_cell_angle_beta 152.472181
_cell_angle_gamma 62.499631
_cell_volume 602.475685
_symmetry_space_group_name_H-M "P -1"
_symmetry_group_IT_number 2
_symmetry_cell_setting 'triclinic'
loop_
_space_group_symop_operation_xyz
x,y,z
-x,-y,-z
loop_
_atom_site_type_symbol
_atom_site_label
_atom_site_fract_x
_atom_site_fract_y
_atom_site_fract_z
Si Si1 0.200174 0.788865 0.925273
Si Si2 0.138257 0.426612 0.824434
Si Si3 0.444769 0.482532 0.556402
Si Si4 0.452257 0.263577 0.816836
Si Si5 0.225545 0.099186 0.264471
Si Si6 0.892299 0.371488 0.717894
Si Si7 0.896930 0.928769 0.522614
O O1 0.357428 0.803955 0.016165
O O2 0.281609 0.917166 0.184455
O O3 0.135528 0.560222 0.781363
O O4 0.034235 0.873544 0.737814
O O5 0.080909 0.197123 0.615832
O O6 0.991653 0.471645 0.766972
O O7 0.354400 0.485460 0.141739
O O8 0.500000 0.500000 0.500000
O O9 0.291619 0.275937 0.332200
O O10 0.332119 0.642419 0.532293
O O11 0.338430 0.192613 0.543587
O O12 0.320584 0.159906 0.718873
O O13 0.500000 0.500000 0.000000
O O14 0.000000 0.000000 0.000000
O O15 0.935957 0.162340 0.668508
O O16 0.000000 0.500000 0.000000
#
# Coordination Sequence:
#
# PCOD9070798 Si02
#       7
#     2   2   2   2   2   2   2
#     4  12  26  45  79 107 153 190 253 312 375 450
#     4  12  27  48  75 112 152 197 251 313 392 451
#     4  12  27  48  77 108 154 200 256 315 381 455
#     4  12  26  45  73 112 151 192 253 308 381 450
#     4  12  25  46  76 113 149 199 257 316 379 447
#     4  12  28  48  77 106 150 202 256 311 375 464
#     4  12  28  48  73 114 151 201 246 315 388 452
#
# _framework density 23.237454
#
# number of rings (size 3 to 8) (size 9 to 14) (size 15 to 20)
#    0.000    0.000    5.714    3.000    4.000    1.714 
#    0.000    0.000    0.000    0.000    0.000    0.000 
#    0.000    0.000    0.000    0.000    0.000    0.000 
#
# Total GULP energy -78374.269187 kJ/mol
# GULP energy per Si atom -5598.162085 kJ/mol
# Density = 2.318456 g / cm^3
# Si number density = 23.237454 Si / 1000 Ang^3
#
#
#
# Elastic Constant Matrix: (Units=GPa)
#
#
# Indices 1 2 3 4 5 6 
#
# 1 142.9537 19.2932 31.6942 -5.7438 5.8952 -21.9790
# 2 19.2932 108.9874 34.7641 -0.0382 -2.7922 -10.3774
# 3 31.6942 34.7641 75.5199 5.6335 -2.5035 -5.3537
# 4 -5.7438 -0.0382 5.6335 45.3576 -15.8398 0.2305
# 5 5.8952 -2.7922 -2.5035 -15.8398 30.6822 1.2247
# 6 -21.9790 -10.3774 -5.3537 0.2305 1.2247 48.7642
#
#
#
# Elastic Compliance Matrix: (Units=1/GPa)
#
#
# Indices 1 2 3 4 5 6 
#
# 1 0.008378 -0.000135 -0.003332 0.000913 -0.001559 0.003417
# 2 -0.000135 0.010952 -0.004901 0.000959 0.001050 0.001701
# 3 -0.003332 -0.004901 0.017040 -0.002411 0.000367 -0.000672
# 4 0.000913 0.000959 -0.002411 0.027285 0.013806 -0.000125
# 5 -0.001559 0.001050 0.000367 0.013806 0.040205 -0.001514
# 6 0.003417 0.001701 -0.000672 -0.000125 -0.001514 0.022374
#
#
# Mechanical properties :
#
#
# Convention : Reuss Voigt Hill
#
# Bulk Modulus (GPa) = 50.92846 55.44043 53.18445
# Shear Modulus (GPa) = 33.44163 41.07476 37.25819
#
# Velocity S-wave (km/s) = 3.79770 4.20886 4.00855
# Velocity P-wave (km/s) = 6.41826 6.89415 6.66046
#
# Compressibility (1/GPa) = 0.01963539
#
# Stress axis : x y z
#
# Youngs Moduli (GPa) = 119.35405 91.31005 58.68440
#
# Poissons Ratio (x) = 0.01230 0.19553
# Poissons Ratio (y) = 0.01608 0.28761
# Poissons Ratio (z) = 0.39767 0.44751
#
# Static dielectric constant tensor:
#      x y z
#    x 1.896680 -0.021330 0.004850 
#    y -0.021330 1.924920 0.007650 
#    z 0.004850 0.007650 1.905630 
# 
# From -- ./inp_files/448275.got.cif
#   From: 2010.05.17/outbox.cif.g08.bks.cpg/sg2_225_cif.got.tgz:448275.got - 2010.06.03 11:33:40.
