data_PCOD9070296
_publ_section_title
;
Structure prediction by ZEFSAII (Michael W. Deem and Ramdas Pophale) SiO2 
 PCOD9070296
Probable space group: P -1
;
_chemical_formula_sum "Si O2"
_cell_formula_units_Z 14
_cell_length_a 8.457102
_cell_length_b 8.429042
_cell_length_c 10.124414
_cell_angle_alpha 58.310294
_cell_angle_beta 99.021690
_cell_angle_gamma 94.770453
_cell_volume 606.519375
_symmetry_space_group_name_H-M "P -1"
_symmetry_group_IT_number 2
_symmetry_cell_setting 'triclinic'
loop_
_space_group_symop_operation_xyz
x,y,z
-x,-y,-z
loop_
_atom_site_type_symbol
_atom_site_label
_atom_site_fract_x
_atom_site_fract_y
_atom_site_fract_z
Si Si1 0.338258 0.613613 0.909402
Si Si2 0.664807 0.104584 0.748635
Si Si3 0.753071 0.355123 0.403449
Si Si4 0.917590 0.795945 0.562751
Si Si5 0.839693 0.740171 0.878523
Si Si6 0.306828 0.223103 0.707373
Si Si7 0.176828 0.878067 0.973119
O O1 0.324901 0.694485 0.725862
O O2 0.500000 0.500000 0.000000
O O3 0.199349 0.458848 0.977926
O O4 0.303311 0.767801 0.946639
O O5 0.700533 0.212949 0.571591
O O6 0.488345 0.153459 0.753021
O O7 0.787901 0.167713 0.851228
O O8 0.698159 0.886596 0.825566
O O9 0.056655 0.662855 0.583666
O O10 0.701811 0.562448 0.345565
O O11 0.860379 0.730369 0.727526
O O12 0.777258 0.803043 0.434286
O O13 0.000000 0.000000 0.500000
O O14 0.002298 0.822757 0.924349
O O15 0.210972 0.094863 0.854384
#
# Coordination Sequence:
#
# PCOD9070296 Si02
#       7
#     2   2   2   2   2   2   2
#     4  12  27  47  74 105 145 185 236 293 354 421
#     4  12  27  45  74 106 144 186 237 295 355 411
#     4  12  26  47  70 106 142 187 237 291 352 419
#     4  12  24  47  71 108 140 185 238 294 347 423
#     4  12  26  46  74 103 143 189 237 287 358 418
#     4  12  26  45  73 104 148 185 235 294 356 414
#     4  12  25  49  70 105 145 187 240 286 351 430
#
# _framework density 23.082526000000001
#
# number of rings (size 3 to 8) (size 9 to 14) (size 15 to 20)
#    0.000    0.000    4.286    4.714    4.000    1.714 
#    0.000    0.000    0.000    0.000    0.000    0.000 
#    0.000    0.000    0.000    0.000    0.000    0.000 
#
# Total GULP energy -78554.373866 kJ/mol
# GULP energy per Si atom -5611.026705 kJ/mol
# Density = 2.302999 g / cm^3
# Si number density = 23.082526 Si / 1000 Ang^3
#
#
#
# Elastic Constant Matrix: (Units=GPa)
#
#
# Indices 1 2 3 4 5 6 
#
# 1 91.3601 1.6860 5.0861 5.0052 14.5428 -20.0140
# 2 1.6860 68.8706 9.3253 -9.7128 -10.9317 -29.6384
# 3 5.0861 9.3253 147.0891 10.5706 -9.7592 2.9278
# 4 5.0052 -9.7128 10.5706 27.0356 -7.9713 2.6903
# 5 14.5428 -10.9317 -9.7592 -7.9713 27.7881 -4.2247
# 6 -20.0140 -29.6384 2.9278 2.6903 -4.2247 30.9188
#
#
#
# Elastic Compliance Matrix: (Units=1/GPa)
#
#
# Indices 1 2 3 4 5 6 
#
# 1 0.014950 0.003976 -0.001133 -0.003908 -0.005780 0.013146
# 2 0.003976 0.039174 -0.003139 0.017332 0.023606 0.042140
# 3 -0.001133 -0.003139 0.007380 -0.003282 0.000385 -0.004104
# 4 -0.003908 0.017332 -0.003282 0.051090 0.024386 0.013281
# 5 -0.005780 0.023606 0.000385 0.024386 0.059202 0.024818
# 6 0.013146 0.042140 -0.004104 0.013281 0.024818 0.083871
#
#
# Mechanical properties :
#
#
# Convention : Reuss Voigt Hill
#
# Bulk Modulus (GPa) = 16.41753 37.72384 27.07069
# Shear Modulus (GPa) = 18.07913 36.56333 27.32123
#
# Velocity S-wave (km/s) = 2.80168 3.98430 3.44413
# Velocity P-wave (km/s) = 4.19450 6.12737 5.25064
#
# Compressibility (1/GPa) = 0.06091049
#
# Stress axis : x y z
#
# Youngs Moduli (GPa) = 66.89180 25.52731 135.50407
#
# Poissons Ratio (x) = -0.10150 0.15357
# Poissons Ratio (y) = -0.26598 0.42537
# Poissons Ratio (z) = 0.07581 0.08014
#
# Static dielectric constant tensor:
#      x y z
#    x 1.854380 -0.012410 -0.003190 
#    y -0.012410 1.834870 0.003360 
#    z -0.003190 0.003360 1.817660 
# 
# From -- ./inp_files/156967.got.cif
#   From: 2010.05.17/outbox.cif.g08.bks.cpg/sg2_79_cif.got.tgz:156967.got - 2010.06.03 11:33:40.
