data_PCOD9070647
_publ_section_title
;
Structure prediction by ZEFSAII (Michael W. Deem and Ramdas Pophale) SiO2 
 PCOD9070647
Probable space group: P -1
;
_chemical_formula_sum "Si O2"
_cell_formula_units_Z 12
_cell_length_a 19.713524
_cell_length_b 9.312505
_cell_length_c 7.126355
_cell_angle_alpha 114.714303
_cell_angle_beta 39.646300
_cell_angle_gamma 134.298253
_cell_volume 576.556323
_symmetry_space_group_name_H-M "P -1"
_symmetry_group_IT_number 2
_symmetry_cell_setting 'triclinic'
loop_
_space_group_symop_operation_xyz
x,y,z
-x,-y,-z
loop_
_atom_site_type_symbol
_atom_site_label
_atom_site_fract_x
_atom_site_fract_y
_atom_site_fract_z
Si Si1 0.634525 0.546615 0.149674
Si Si2 0.261198 0.563277 0.799613
Si Si3 0.777780 0.138548 0.761237
Si Si4 0.511855 0.323478 0.920783
Si Si5 0.878134 0.008709 0.788875
Si Si6 0.031061 0.682082 0.905555
O O1 0.500000 0.500000 0.500000
O O2 0.718369 0.537568 0.127820
O O3 0.583239 0.381260 0.004379
O O4 0.733009 0.774895 0.976628
O O5 0.261059 0.738653 0.981238
O O6 0.114969 0.398784 0.914018
O O7 0.387894 0.656961 0.437159
O O8 0.865341 0.257406 0.452530
O O9 0.638372 0.904843 0.884854
O O10 0.871979 0.125486 0.694721
O O11 0.500000 0.500000 0.000000
O O12 0.901218 0.123253 0.996010
O O13 0.000000 0.000000 0.500000
O O14 0.000000 0.500000 0.000000
#
# Coordination Sequence:
#
# PCOD9070647 Si02
#       6
#     2   2   2   2   2   2
#     4  12  25  44  72 106 143 183 235 295 349 416
#     4  12  27  46  74 104 147 188 236 294 354 420
#     4  12  27  48  72 106 144 188 239 291 356 425
#     4  12  25  47  74 105 143 187 240 291 354 423
#     4  12  26  44  74 104 141 185 239 291 355 419
#     4  12  28  47  73 105 144 188 240 292 357 423
#
# _framework density 20.813230999999998
#
# number of rings (size 3 to 8) (size 9 to 14) (size 15 to 20)
#    0.000    0.000    5.000    4.000    4.667    2.000 
#    0.000    0.000    0.000    0.000    0.000    0.000 
#    0.000    0.000    0.000    0.000    0.000    0.000 
#
# Total GULP energy -67236.314285 kJ/mol
# GULP energy per Si atom -5603.026190 kJ/mol
# Density = 2.076586 g / cm^3
# Si number density = 20.813231 Si / 1000 Ang^3
#
#
#
# Elastic Constant Matrix: (Units=GPa)
#
#
# Indices 1 2 3 4 5 6 
#
# 1 144.1821 31.7287 46.0522 3.0294 13.3880 5.1850
# 2 31.7287 89.2217 47.3879 -3.4280 2.8224 10.1480
# 3 46.0522 47.3879 170.3276 -1.5834 14.5194 -13.2074
# 4 3.0294 -3.4280 -1.5834 39.3864 -0.2239 1.1264
# 5 13.3880 2.8224 14.5194 -0.2239 33.7996 -0.3914
# 6 5.1850 10.1480 -13.2074 1.1264 -0.3914 40.1843
#
#
#
# Elastic Compliance Matrix: (Units=1/GPa)
#
#
# Indices 1 2 3 4 5 6 
#
# 1 0.008131 -0.001898 -0.001556 -0.000836 -0.002412 -0.001082
# 2 -0.001898 0.014566 -0.004000 0.001396 0.001207 -0.004775
# 3 -0.001556 -0.004000 0.007903 -0.000033 -0.002401 0.003786
# 4 -0.000836 0.001396 -0.000033 0.025604 0.000387 -0.000969
# 5 -0.002412 0.001207 -0.002401 0.000387 0.031469 -0.000487
# 6 -0.001082 -0.004775 0.003786 -0.000969 -0.000487 0.027498
#
#
# Mechanical properties :
#
#
# Convention : Reuss Voigt Hill
#
# Bulk Modulus (GPa) = 63.72790 72.67436 68.20113
# Shear Modulus (GPa) = 36.95296 41.24489 39.09893
#
# Velocity S-wave (km/s) = 4.21819 4.45642 4.33894
# Velocity P-wave (km/s) = 7.37628 7.84046 7.61191
#
# Compressibility (1/GPa) = 0.01569171
#
# Stress axis : x y z
#
# Youngs Moduli (GPa) = 122.98942 68.65415 126.54200
#
# Poissons Ratio (x) = 0.13028 0.19696
# Poissons Ratio (y) = 0.23338 0.50612
# Poissons Ratio (z) = 0.19143 0.27459
#
# Static dielectric constant tensor:
#      x y z
#    x 1.747390 0.003250 0.003180 
#    y 0.003250 1.715030 0.002580 
#    z 0.003180 0.002580 1.699280 
# 
# From -- ./inp_files/342990.got.cif
#   From: 2010.05.17/outbox.cif.g08.bks.cpg/sg2_172_cif.got.tgz:342990.got - 2010.06.03 11:33:40.
