data_PCOD9070145
_publ_section_title
;
Structure prediction by ZEFSAII (Michael W. Deem and Ramdas Pophale) SiO2 
 PCOD9070145
Probable space group: P -1
;
_chemical_formula_sum "Si O2"
_cell_formula_units_Z 12
_cell_length_a 22.663124
_cell_length_b 4.892638
_cell_length_c 5.316863
_cell_angle_alpha 97.630514
_cell_angle_beta 60.964270
_cell_angle_gamma 88.296192
_cell_volume 507.860484
_symmetry_space_group_name_H-M "P -1"
_symmetry_group_IT_number 2
_symmetry_cell_setting 'triclinic'
loop_
_space_group_symop_operation_xyz
x,y,z
-x,-y,-z
loop_
_atom_site_type_symbol
_atom_site_label
_atom_site_fract_x
_atom_site_fract_y
_atom_site_fract_z
Si Si1 0.073659 0.032778 0.463511
Si Si2 0.457595 0.451388 0.831848
Si Si3 0.072256 0.570625 0.756188
Si Si4 0.280363 0.098791 0.704160
Si Si5 0.634494 0.007273 0.975585
Si Si6 0.186927 0.641170 0.891820
O O1 0.070875 0.891395 0.726015
O O2 0.135972 0.847146 0.188612
O O3 0.000000 0.000000 0.500000
O O4 0.083229 0.354743 0.477486
O O5 0.500000 0.500000 0.500000
O O6 0.568490 0.848960 0.142307
O O7 0.391158 0.674372 0.989103
O O8 0.500000 0.500000 0.000000
O O9 0.136299 0.505554 0.793151
O O10 0.000000 0.500000 0.000000
O O11 0.320567 0.019600 0.868549
O O12 0.235499 0.850770 0.696965
O O13 0.234217 0.387865 0.883375
O O14 0.327859 0.124399 0.366386
#
# Coordination Sequence:
#
# PCOD9070145 Si02
#       6
#     2   2   2   2   2   2
#     4  12  26  44  69  98 135 174 239 317 385 435
#     4  12  24  45  80 114 145 188 237 290 349 414
#     4  12  26  44  69  98 135 174 239 317 385 435
#     4  12  28  47  72 102 151 202 239 292 351 442
#     4  12  26  49  71 110 154 190 237 290 351 414
#     4  12  28  45  69 100 134 196 249 292 373 452
#
# _framework density 23.628539
#
# number of rings (size 3 to 8) (size 9 to 14) (size 15 to 20)
#    0.000    0.000    1.667    8.000    9.333    0.000 
#    0.000    0.000    0.000    0.000    0.000    0.000 
#    0.000    0.000    0.000    0.000    0.000    0.000 
#
# Total GULP energy -67203.023616 kJ/mol
# GULP energy per Si atom -5600.251968 kJ/mol
# Density = 2.357476 g / cm^3
# Si number density = 23.628539 Si / 1000 Ang^3
#
#
#
# Elastic Constant Matrix: (Units=GPa)
#
#
# Indices 1 2 3 4 5 6 
#
# 1 98.1074 16.0864 30.5932 -6.0630 5.2578 -12.7539
# 2 16.0864 99.6681 11.2836 6.1679 -1.7296 -6.4456
# 3 30.5932 11.2836 113.9775 2.5343 -0.2035 -16.9350
# 4 -6.0630 6.1679 2.5343 44.9498 3.5904 -4.0634
# 5 5.2578 -1.7296 -0.2035 3.5904 32.7422 -8.8272
# 6 -12.7539 -6.4456 -16.9350 -4.0634 -8.8272 51.0584
#
#
#
# Elastic Compliance Matrix: (Units=1/GPa)
#
#
# Indices 1 2 3 4 5 6 
#
# 1 0.011793 -0.001649 -0.002807 0.002270 -0.001795 0.001677
# 2 -0.001649 0.010528 -0.000434 -0.001664 0.001231 0.000854
# 3 -0.002807 -0.000434 0.009994 -0.000740 0.001306 0.002726
# 4 0.002270 -0.001664 -0.000740 0.023166 -0.002591 0.001507
# 5 -0.001795 0.001231 0.001306 -0.002591 0.032693 0.005586
# 6 0.001677 0.000854 0.002726 0.001507 0.005586 0.022102
#
#
# Mechanical properties :
#
#
# Convention : Reuss Voigt Hill
#
# Bulk Modulus (GPa) = 44.37254 47.51994 45.94624
# Shear Modulus (GPa) = 39.19517 42.66941 40.93229
#
# Velocity S-wave (km/s) = 4.07726 4.25413 4.16664
# Velocity P-wave (km/s) = 6.40199 6.65470 6.52957
#
# Compressibility (1/GPa) = 0.02253646
#
# Stress axis : x y z
#
# Youngs Moduli (GPa) = 84.79606 94.98440 100.06269
#
# Poissons Ratio (x) = 0.15661 0.28084
# Poissons Ratio (y) = 0.13981 0.04339
# Poissons Ratio (z) = 0.23800 0.04119
#
# Static dielectric constant tensor:
#      x y z
#    x 1.835060 -0.011350 0.021960 
#    y -0.011350 1.850990 0.007150 
#    z 0.021960 0.007150 1.995900 
# 
# From -- ./inp_files/125400.got.cif
#   From: 2010.05.17/outbox.cif.g08.bks.cpg/sg2_63_cif.got.tgz:125400.got - 2010.06.03 11:33:40.
