data_PCOD9070076
_publ_section_title
;
Structure prediction by ZEFSAII (Michael W. Deem and Ramdas Pophale) SiO2 
 PCOD9070076
Probable space group: P -1
;
_chemical_formula_sum "Si O2"
_cell_formula_units_Z 16
_cell_length_a 23.599283
_cell_length_b 8.620776
_cell_length_c 9.301887
_cell_angle_alpha 150.328498
_cell_angle_beta 43.342716
_cell_angle_gamma 129.627334
_cell_volume 642.882930
_symmetry_space_group_name_H-M "P -1"
_symmetry_group_IT_number 2
_symmetry_cell_setting 'triclinic'
loop_
_space_group_symop_operation_xyz
x,y,z
-x,-y,-z
loop_
_atom_site_type_symbol
_atom_site_label
_atom_site_fract_x
_atom_site_fract_y
_atom_site_fract_z
Si Si1 0.210771 0.976997 0.713410
Si Si2 0.817072 0.066161 0.742486
Si Si3 0.751767 0.437502 0.422352
Si Si4 0.431350 0.291179 0.042968
Si Si5 0.998501 0.010730 0.337899
Si Si6 0.951696 0.398045 0.356133
Si Si7 0.724536 0.334751 0.893962
Si Si8 0.562711 0.402678 0.429886
O O1 0.222173 0.831164 0.732260
O O2 0.126851 0.836379 0.680862
O O3 0.287554 0.811296 0.356900
O O4 0.222730 0.345297 0.966185
O O5 0.768732 0.060448 0.679028
O O6 0.816118 0.727511 0.543861
O O7 0.909078 0.164813 0.611512
O O8 0.768083 0.294552 0.120493
O O9 0.660646 0.583864 0.727380
O O10 0.439118 0.337074 0.235818
O O11 0.500000 0.500000 0.000000
O O12 0.443451 0.915372 0.715483
O O13 0.000000 0.000000 0.500000
O O14 0.072446 0.253729 0.363677
O O15 0.003285 0.747766 0.990046
O O16 0.000000 0.500000 0.500000
O O17 0.646470 0.401641 0.186021
O O18 0.500000 0.500000 0.500000
#
# Coordination Sequence:
#
# PCOD9070076 Si02
#       8
#     2   2   2   2   2   2   2   2
#     4  12  27  44  73 102 146 193 244 305 368 436
#     4  12  24  45  72 100 141 190 240 308 362 437
#     4  12  24  46  70 104 145 186 246 301 365 440
#     4  12  26  47  74 109 147 188 236 299 372 435
#     4  12  25  45  75 105 142 194 256 311 382 449
#     4  12  26  47  68 108 151 193 252 317 383 450
#     4  12  25  46  69 105 141 192 245 289 369 438
#     4  12  27  48  74 107 150 188 239 297 360 447
#
# _framework density 24.887889000000001
#
# number of rings (size 3 to 8) (size 9 to 14) (size 15 to 20)
#    0.000    0.000    2.500    7.500    3.500    2.000 
#    0.000    0.000    0.000    0.000    0.000    0.000 
#    0.000    0.000    0.000    0.000    0.000    0.000 
#
# Total GULP energy -89244.779362 kJ/mol
# GULP energy per Si atom -5577.798710 kJ/mol
# Density = 2.483124 g / cm^3
# Si number density = 24.887889 Si / 1000 Ang^3
#
#
#
# Elastic Constant Matrix: (Units=GPa)
#
#
# Indices 1 2 3 4 5 6 
#
# 1 119.8891 21.4596 11.7048 -12.9942 0.7653 -23.5300
# 2 21.4596 135.6584 25.3143 -2.0774 -6.6918 -8.9518
# 3 11.7048 25.3143 114.2622 -5.5010 17.3740 -9.8879
# 4 -12.9942 -2.0774 -5.5010 51.4347 -2.9205 0.7223
# 5 0.7653 -6.6918 17.3740 -2.9205 30.1622 -5.8224
# 6 -23.5300 -8.9518 -9.8879 0.7223 -5.8224 25.8438
#
#
#
# Elastic Compliance Matrix: (Units=1/GPa)
#
#
# Indices 1 2 3 4 5 6 
#
# 1 0.010690 -0.000887 -0.000205 0.002607 0.001770 0.009673
# 2 -0.000887 0.008201 -0.002071 0.000052 0.003428 0.002011
# 3 -0.000205 -0.002071 0.010320 0.000603 -0.006018 0.001672
# 4 0.002607 0.000052 0.000603 0.020248 0.002044 0.002517
# 5 0.001770 0.003428 -0.006018 0.002044 0.039329 0.009300
# 6 0.009673 0.002011 0.001672 0.002517 0.009300 0.050862
#
#
# Mechanical properties :
#
#
# Convention : Reuss Voigt Hill
#
# Bulk Modulus (GPa) = 43.69676 54.08524 48.89100
# Shear Modulus (GPa) = 32.55129 42.24355 37.39742
#
# Velocity S-wave (km/s) = 3.62044 4.12436 3.88059
# Velocity P-wave (km/s) = 5.92219 6.66778 6.30601
#
# Compressibility (1/GPa) = 0.02288499
#
# Stress axis : x y z
#
# Youngs Moduli (GPa) = 93.54931 121.93913 96.89651
#
# Poissons Ratio (x) = 0.10819 0.01986
# Poissons Ratio (y) = 0.08300 0.20064
# Poissons Ratio (z) = 0.01917 0.25249
#
# Static dielectric constant tensor:
#      x y z
#    x 1.895460 0.174380 0.096600 
#    y 0.174380 1.834700 -0.140130 
#    z 0.096600 -0.140130 1.927930 
# 
# From -- ./inp_files/352495.got.cif
#   From: 2010.05.17/outbox.cif.g08.bks.cpg/sg2_177_cif.got.tgz:352495.got - 2010.06.03 11:33:40.
