data_PCOD9070517
_publ_section_title
;
Structure prediction by ZEFSAII (Michael W. Deem and Ramdas Pophale) SiO2 
 PCOD9070517
Probable space group: P -1
;
_chemical_formula_sum "Si O2"
_cell_formula_units_Z 14
_cell_length_a 8.589688
_cell_length_b 9.239112
_cell_length_c 9.584329
_cell_angle_alpha 109.626470
_cell_angle_beta 117.154799
_cell_angle_gamma 71.078242
_cell_volume 624.057910
_symmetry_space_group_name_H-M "P -1"
_symmetry_group_IT_number 2
_symmetry_cell_setting 'triclinic'
loop_
_space_group_symop_operation_xyz
x,y,z
-x,-y,-z
loop_
_atom_site_type_symbol
_atom_site_label
_atom_site_fract_x
_atom_site_fract_y
_atom_site_fract_z
Si Si1 0.408761 0.970265 0.305199
Si Si2 0.743188 0.728223 0.826473
Si Si3 0.095178 0.788082 0.135402
Si Si4 0.692228 0.486635 0.507843
Si Si5 0.284966 0.316977 0.688935
Si Si6 0.333998 0.471365 0.017940
Si Si7 0.034530 0.814281 0.442873
O O1 0.215364 0.921374 0.219617
O O2 0.547048 0.821033 0.251196
O O3 0.500000 0.000000 0.500000
O O4 0.384712 0.126332 0.254092
O O5 0.789765 0.588004 0.686219
O O6 0.647688 0.659574 0.895785
O O7 0.919478 0.787772 0.970396
O O8 0.033038 0.785135 0.267633
O O9 0.233292 0.629324 0.099897
O O10 0.500000 0.500000 0.500000
O O11 0.671594 0.573272 0.379735
O O12 0.787892 0.305448 0.474222
O O13 0.218387 0.416312 0.830446
O O14 0.123834 0.237145 0.552997
O O15 0.500000 0.500000 0.000000
O O16 0.000000 0.000000 0.500000
#
# Coordination Sequence:
#
# PCOD9070517 Si02
#       7
#     2   2   2   2   2   2   2
#     4  12  26  48  77 109 155 201 254 317 378 458
#     4  12  26  47  81 108 154 206 252 317 390 447
#     4  12  25  51  74 110 154 199 253 319 388 451
#     4  12  26  49  79 112 150 213 257 306 388 462
#     4  12  25  48  73 112 152 199 262 310 376 465
#     4  12  24  49  76 108 150 202 257 319 376 461
#     4  12  27  47  77 112 157 197 254 320 382 458
#
# _framework density 22.433814999999999
#
# number of rings (size 3 to 8) (size 9 to 14) (size 15 to 20)
#    0.000    0.000    5.714    4.714    2.000    0.571 
#    2.571    0.000    0.000    0.000    0.000    0.000 
#    0.000    0.000    0.000    0.000    0.000    0.000 
#
# Total GULP energy -78268.454426 kJ/mol
# GULP energy per Si atom -5590.603888 kJ/mol
# Density = 2.238275 g / cm^3
# Si number density = 22.433815 Si / 1000 Ang^3
#
#
#
# Elastic Constant Matrix: (Units=GPa)
#
#
# Indices 1 2 3 4 5 6 
#
# 1 120.8112 76.1528 35.8287 -11.6934 4.7379 9.3966
# 2 76.1528 192.2926 67.8865 -21.6107 -6.5562 2.9560
# 3 35.8287 67.8865 108.2631 -8.2053 -15.0483 5.1329
# 4 -11.6934 -21.6107 -8.2053 46.3841 1.3092 -3.6421
# 5 4.7379 -6.5562 -15.0483 1.3092 43.0202 -0.6031
# 6 9.3966 2.9560 5.1329 -3.6421 -0.6031 42.9299
#
#
#
# Elastic Compliance Matrix: (Units=1/GPa)
#
#
# Indices 1 2 3 4 5 6 
#
# 1 0.011589 -0.004036 -0.001497 0.000684 -0.002465 -0.002056
# 2 -0.004036 0.008373 -0.003736 0.002287 0.000357 0.000953
# 3 -0.001497 -0.003736 0.012671 -0.000059 0.004017 -0.000879
# 4 0.000684 0.002287 -0.000059 0.022927 -0.000422 0.001639
# 5 -0.002465 0.000357 0.004017 -0.000422 0.024994 0.000350
# 6 -0.002056 0.000953 -0.000879 0.001639 0.000350 0.023927
#
#
# Mechanical properties :
#
#
# Convention : Reuss Voigt Hill
#
# Bulk Modulus (GPa) = 70.96424 86.78922 78.87673
# Shear Modulus (GPa) = 39.14888 42.56675 40.85781
#
# Velocity S-wave (km/s) = 4.18195 4.36068 4.27225
# Velocity P-wave (km/s) = 7.41752 8.00780 7.71831
#
# Compressibility (1/GPa) = 0.01409161
#
# Stress axis : x y z
#
# Youngs Moduli (GPa) = 86.29235 119.43835 78.92159
#
# Poissons Ratio (x) = 0.48208 0.11818
# Poissons Ratio (y) = 0.34830 0.29489
# Poissons Ratio (z) = 0.12922 0.44627
#
# Static dielectric constant tensor:
#      x y z
#    x 1.827590 0.036880 0.072690 
#    y 0.036880 1.876450 0.071970 
#    z 0.072690 0.071970 1.896230 
# 
# From -- ./inp_files/159255.got.cif
#   From: 2010.05.17/outbox.cif.g08.bks.cpg/sg2_80_cif.got.tgz:159255.got - 2010.06.03 11:33:40.
