data_PCOD9070726
_publ_section_title
;
Structure prediction by ZEFSAII (Michael W. Deem and Ramdas Pophale) SiO2 
 PCOD9070726
Probable space group: P -1
;
_chemical_formula_sum "Si O2"
_cell_formula_units_Z 13
_cell_length_a 8.047059
_cell_length_b 12.379927
_cell_length_c 5.012055
_cell_angle_alpha 87.937721
_cell_angle_beta 73.590201
_cell_angle_gamma 89.326103
_cell_volume 478.660970
_symmetry_space_group_name_H-M "P -1"
_symmetry_group_IT_number 2
_symmetry_cell_setting 'triclinic'
loop_
_space_group_symop_operation_xyz
x,y,z
-x,-y,-z
loop_
_atom_site_type_symbol
_atom_site_label
_atom_site_fract_x
_atom_site_fract_y
_atom_site_fract_z
Si Si1 0.753437 0.744710 0.645931
Si Si2 0.114553 0.472121 0.194582
Si Si3 0.118252 0.791404 0.321204
Si Si4 0.500000 0.500000 0.000000
Si Si5 0.609613 0.908166 0.095115
Si Si6 0.152418 0.933783 0.797455
Si Si7 0.554227 0.308894 0.584958
O O1 0.831035 0.652289 0.804839
O O2 0.567130 0.695192 0.631538
O O3 0.915847 0.759580 0.369156
O O4 0.726445 0.851316 0.822033
O O5 0.000000 0.500000 0.500000
O O6 0.295945 0.531362 0.067734
O O7 0.000000 0.500000 0.000000
O O8 0.115866 0.888579 0.528022
O O9 0.239849 0.706134 0.439899
O O10 0.191406 0.835977 0.001158
O O11 0.486124 0.414452 0.756022
O O12 0.507178 0.806761 0.262648
O O13 0.700796 0.975126 0.280911
O O14 0.500000 0.000000 0.000000
O O15 0.000000 0.000000 0.000000
#
# Coordination Sequence:
#
# PCOD9070726 Si02
#       7
#     2   2   2   1   2   2   2
#     4  12  28  50  80 118 162 214 267 348 408 488
#     4  12  29  54  85 122 161 215 280 350 421 500
#     4  12  28  48  81 119 161 213 276 329 411 496
#     4  12  28  56  84 118 166 220 282 352 428 492
#     4  12  25  47  76 112 166 208 270 328 406 483
#     4  12  25  45  75 114 160 213 263 331 400 485
#     4  12  28  50  79 117 162 216 276 340 415 495
#
# _framework density 27.159098
#
# number of rings (size 3 to 8) (size 9 to 14) (size 15 to 20)
#    0.000    0.000    4.615    4.154    2.154    6.154 
#    0.000    0.000    0.000    0.000    0.000    0.000 
#    0.000    0.000    0.000    0.000    0.000    0.000 
#
# Total GULP energy -72518.555759 kJ/mol
# GULP energy per Si atom -5578.350443 kJ/mol
# Density = 2.709728 g / cm^3
# Si number density = 27.159098 Si / 1000 Ang^3
#
#
#
# Elastic Constant Matrix: (Units=GPa)
#
#
# Indices 1 2 3 4 5 6 
#
# 1 168.6383 29.6665 50.8734 2.9007 -6.7851 -14.9622
# 2 29.6665 118.7937 30.6887 29.8296 25.4839 -26.4142
# 3 50.8734 30.6887 93.8652 8.5412 27.9526 -17.3030
# 4 2.9007 29.8296 8.5412 52.1109 -4.8857 4.9978
# 5 -6.7851 25.4839 27.9526 -4.8857 42.9452 2.2003
# 6 -14.9622 -26.4142 -17.3030 4.9978 2.2003 60.8605
#
#
#
# Elastic Compliance Matrix: (Units=1/GPa)
#
#
# Indices 1 2 3 4 5 6 
#
# 1 0.008690 -0.003572 -0.006724 0.003634 0.008382 -0.001927
# 2 -0.003572 0.016464 0.003580 -0.012014 -0.014482 0.008796
# 3 -0.006724 0.003580 0.020305 -0.007315 -0.017590 0.006910
# 4 0.003634 -0.012014 -0.007315 0.029495 0.016302 -0.009412
# 5 0.008382 -0.014482 -0.017590 0.016302 0.047136 -0.012269
# 6 -0.001927 0.008796 0.006910 -0.009412 -0.012269 0.022956
#
#
# Mechanical properties :
#
#
# Convention : Reuss Voigt Hill
#
# Bulk Modulus (GPa) = 31.22244 67.08380 49.15312
# Shear Modulus (GPa) = 29.55894 49.18788 39.37341
#
# Velocity S-wave (km/s) = 3.30261 4.26032 3.81167
# Velocity P-wave (km/s) = 5.10530 6.99674 6.12448
#
# Compressibility (1/GPa) = 0.03202825
#
# Stress axis : x y z
#
# Youngs Moduli (GPa) = 115.06857 60.73727 49.24929
#
# Poissons Ratio (x) = 0.21696 0.33115
# Poissons Ratio (y) = 0.41104 -0.17634
# Poissons Ratio (z) = 0.77373 -0.21747
#
# Static dielectric constant tensor:
#      x y z
#    x 2.244760 -0.038410 0.025120 
#    y -0.038410 2.065830 -0.086170 
#    z 0.025120 -0.086170 2.163310 
# 
# From -- ./inp_files/24520.got.cif
#   From: 2010.05.17/outbox.cif.g08.bks.cpg/sg2_13_cif.got.tgz:24520.got - 2010.06.03 11:33:40.
