data_PCOD9070534
_publ_section_title
;
Structure prediction by ZEFSAII (Michael W. Deem and Ramdas Pophale) SiO2 
 PCOD9070534
Probable space group: P -1
;
_chemical_formula_sum "Si O2"
_cell_formula_units_Z 13
_cell_length_a 8.906659
_cell_length_b 11.605827
_cell_length_c 9.485047
_cell_angle_alpha 65.799567
_cell_angle_beta 134.622194
_cell_angle_gamma 125.613188
_cell_volume 567.325868
_symmetry_space_group_name_H-M "P -1"
_symmetry_group_IT_number 2
_symmetry_cell_setting 'triclinic'
loop_
_space_group_symop_operation_xyz
x,y,z
-x,-y,-z
loop_
_atom_site_type_symbol
_atom_site_label
_atom_site_fract_x
_atom_site_fract_y
_atom_site_fract_z
Si Si1 0.500000 0.500000 0.000000
Si Si2 0.219520 0.501851 0.226175
Si Si3 0.664775 0.714332 0.250958
Si Si4 0.703301 0.998305 0.036643
Si Si5 0.190320 0.205122 0.401385
Si Si6 0.983131 0.432590 0.674706
Si Si7 0.399577 0.880660 0.374032
O O1 0.641711 0.594903 0.185606
O O2 0.756984 0.512200 0.112084
O O3 0.442139 0.637515 0.246411
O O4 0.250443 0.360583 0.302491
O O5 0.167594 0.517177 0.347060
O O6 0.000000 0.500000 0.000000
O O7 0.858040 0.790458 0.464001
O O8 0.665055 0.838124 0.091915
O O9 0.682456 0.056819 0.842393
O O10 0.500000 0.000000 0.000000
O O11 0.952751 0.097244 0.221962
O O12 0.392654 0.158305 0.519998
O O13 0.826395 0.262383 0.652252
O O14 0.000000 0.500000 0.500000
O O15 0.500000 0.000000 0.500000
#
# Coordination Sequence:
#
# PCOD9070534 Si02
#       7
#     1   2   2   2   2   2   2
#     4  12  30  44  78 118 158 194 270 326 402 450
#     4  12  24  49  81 112 152 204 265 323 390 470
#     4  12  26  48  79 116 155 210 260 328 396 471
#     4  12  27  50  79 113 156 206 267 321 392 483
#     4  12  27  49  82 111 158 210 269 321 398 472
#     4  12  28  49  75 112 156 207 262 328 389 467
#     4  12  31  51  77 119 163 212 264 329 402 473
#
# _framework density 22.914518999999999
#
# number of rings (size 3 to 8) (size 9 to 14) (size 15 to 20)
#    0.000    0.000    4.615    3.692    6.462    0.615 
#    0.000    0.000    0.000    0.000    0.000    0.000 
#    0.000    0.000    0.000    0.000    0.000    0.000 
#
# Total GULP energy -72530.390571 kJ/mol
# GULP energy per Si atom -5579.260813 kJ/mol
# Density = 2.286236 g / cm^3
# Si number density = 22.914519 Si / 1000 Ang^3
#
#
#
# Elastic Constant Matrix: (Units=GPa)
#
#
# Indices 1 2 3 4 5 6 
#
# 1 89.0191 48.0492 52.1329 4.6930 -16.7049 -7.7213
# 2 48.0492 145.4666 68.9465 -18.6068 -7.4581 6.6669
# 3 52.1329 68.9465 151.3269 -14.9232 -12.4871 -3.5726
# 4 4.6930 -18.6068 -14.9232 38.8929 3.9235 -9.9064
# 5 -16.7049 -7.4581 -12.4871 3.9235 55.3843 5.0021
# 6 -7.7213 6.6669 -3.5726 -9.9064 5.0021 44.5983
#
#
#
# Elastic Compliance Matrix: (Units=1/GPa)
#
#
# Indices 1 2 3 4 5 6 
#
# 1 0.017164 -0.004302 -0.004156 -0.005719 0.003924 0.001571
# 2 -0.004302 0.010197 -0.002867 0.003978 -0.000714 -0.001535
# 3 -0.004156 -0.002867 0.009700 0.003124 0.000222 0.001155
# 4 -0.005719 0.003978 0.003124 0.031358 -0.003248 0.005995
# 5 0.003924 -0.000714 0.000222 -0.003248 0.019614 -0.002118
# 6 0.001571 -0.001535 0.001155 0.005995 -0.002118 0.024585
#
#
# Mechanical properties :
#
#
# Convention : Reuss Voigt Hill
#
# Bulk Modulus (GPa) = 69.39193 80.45221 74.92207
# Shear Modulus (GPa) = 35.69622 42.22069 38.95846
#
# Velocity S-wave (km/s) = 3.95118 4.29713 4.12778
# Velocity P-wave (km/s) = 7.15293 7.73346 7.44885
#
# Compressibility (1/GPa) = 0.01441090
#
# Stress axis : x y z
#
# Youngs Moduli (GPa) = 58.26259 98.07139 103.09658
#
# Poissons Ratio (x) = 0.42189 0.42848
# Poissons Ratio (y) = 0.25064 0.29553
# Poissons Ratio (z) = 0.24215 0.28112
#
# Static dielectric constant tensor:
#      x y z
#    x 1.903450 -0.018070 0.021070 
#    y -0.018070 1.876010 0.020210 
#    z 0.021070 0.020210 1.842200 
# 
# From -- ./inp_files/177063.got.cif
#   From: 2010.05.17/outbox.cif.g08.bks.cpg/sg2_89_cif.got.tgz:177063.got - 2010.06.03 11:33:40.
