data_PCOD9070103
_publ_section_title
;
Structure prediction by ZEFSAII (Michael W. Deem and Ramdas Pophale) SiO2 
 PCOD9070103
Probable space group: P -1
;
_chemical_formula_sum "Si O2"
_cell_formula_units_Z 14
_cell_length_a 9.071164
_cell_length_b 18.741699
_cell_length_c 13.082362
_cell_angle_alpha 151.982436
_cell_angle_beta 141.780787
_cell_angle_gamma 47.462601
_cell_volume 645.192066
_symmetry_space_group_name_H-M "P -1"
_symmetry_group_IT_number 2
_symmetry_cell_setting 'triclinic'
loop_
_space_group_symop_operation_xyz
x,y,z
-x,-y,-z
loop_
_atom_site_type_symbol
_atom_site_label
_atom_site_fract_x
_atom_site_fract_y
_atom_site_fract_z
Si Si1 0.219034 0.890075 0.472441
Si Si2 0.378500 0.500671 0.544470
Si Si3 0.150716 0.624820 0.939903
Si Si4 0.182578 0.318384 0.685196
Si Si5 0.817479 0.358695 0.687362
Si Si6 0.407129 0.739625 0.026116
Si Si7 0.733657 0.962780 0.763725
O O1 0.189176 0.777768 0.410056
O O2 0.494370 0.959667 0.700740
O O3 0.183270 0.782396 0.217413
O O4 0.000000 0.000000 0.500000
O O5 0.500000 0.500000 0.500000
O O6 0.554469 0.416197 0.607984
O O7 0.123056 0.417242 0.287110
O O8 0.360147 0.663547 0.794306
O O9 0.235437 0.488248 0.885121
O O10 0.277694 0.642351 0.922471
O O11 0.321636 0.268916 0.800162
O O12 0.250420 0.201253 0.487607
O O13 0.910533 0.310507 0.565579
O O14 0.000000 0.500000 0.000000
O O15 0.318609 0.908260 0.185065
O O16 0.000000 0.000000 0.000000
#
# Coordination Sequence:
#
# PCOD9070103 Si02
#       7
#     2   2   2   2   2   2   2
#     4  12  28  48  75 107 148 191 244 300 367 431
#     4  12  25  44  74 107 143 184 242 302 357 425
#     4  12  26  45  74 108 138 189 245 298 356 435
#     4  12  24  47  75 104 143 187 242 295 362 436
#     4  12  24  45  75 105 142 188 238 301 363 426
#     4  12  26  46  73 100 147 189 239 290 365 428
#     4  12  30  48  71 106 151 194 241 301 361 433
#
# _framework density 21.698964
#
# number of rings (size 3 to 8) (size 9 to 14) (size 15 to 20)
#    0.000    0.000    5.714    3.000    8.000    0.000 
#    0.000    1.429    0.000    0.000    0.000    0.000 
#    0.000    0.000    0.000    0.000    0.000    0.000 
#
# Total GULP energy -78264.188659 kJ/mol
# GULP energy per Si atom -5590.299190 kJ/mol
# Density = 2.164958 g / cm^3
# Si number density = 21.698964 Si / 1000 Ang^3
#
#
#
# Elastic Constant Matrix: (Units=GPa)
#
#
# Indices 1 2 3 4 5 6 
#
# 1 115.3008 24.0624 27.8172 7.9595 1.2911 -7.6484
# 2 24.0624 144.5910 38.1746 3.0933 13.8371 -11.0859
# 3 27.8172 38.1746 88.0257 -5.8669 2.5297 -16.7154
# 4 7.9595 3.0933 -5.8669 28.9865 -9.4822 4.0729
# 5 1.2911 13.8371 2.5297 -9.4822 42.2656 -2.3706
# 6 -7.6484 -11.0859 -16.7154 4.0729 -2.3706 45.7731
#
#
#
# Elastic Compliance Matrix: (Units=1/GPa)
#
#
# Indices 1 2 3 4 5 6 
#
# 1 0.009808 -0.000678 -0.002888 -0.003518 -0.000655 0.000699
# 2 -0.000678 0.008304 -0.003323 -0.002462 -0.003009 0.000748
# 3 -0.002888 -0.003323 0.014661 0.004048 0.001419 0.003780
# 4 -0.003518 -0.002462 0.004048 0.040045 0.009499 -0.002777
# 5 -0.000655 -0.003009 0.001419 0.009499 0.026724 0.000219
# 6 0.000699 0.000748 0.003780 -0.002777 0.000219 0.023783
#
#
# Mechanical properties :
#
#
# Convention : Reuss Voigt Hill
#
# Bulk Modulus (GPa) = 52.64607 58.66952 55.65780
# Shear Modulus (GPa) = 34.85925 40.59592 37.72759
#
# Velocity S-wave (km/s) = 4.01246 4.33005 4.17427
# Velocity P-wave (km/s) = 6.76617 7.21774 6.99560
#
# Compressibility (1/GPa) = 0.01899477
#
# Stress axis : x y z
#
# Youngs Moduli (GPa) = 101.95930 120.42173 68.20934
#
# Poissons Ratio (x) = 0.08166 0.19700
# Poissons Ratio (y) = 0.06914 0.22663
# Poissons Ratio (z) = 0.29448 0.40012
#
# Static dielectric constant tensor:
#      x y z
#    x 1.883560 -0.123970 0.030590 
#    y -0.123970 1.905380 -0.065160 
#    z 0.030590 -0.065160 1.840170 
# 
# From -- ./inp_files/159338.got.cif
#   From: 2010.05.17/outbox.cif.g08.bks.cpg/sg2_80_cif.got.tgz:159338.got - 2010.06.03 11:33:40.
