data_PCOD9070909
_publ_section_title
;
Structure prediction by ZEFSAII (Michael W. Deem and Ramdas Pophale) SiO2 
 PCOD9070909
Probable space group: P -1
;
_chemical_formula_sum "Si O2"
_cell_formula_units_Z 12
_cell_length_a 14.413337
_cell_length_b 8.957597
_cell_length_c 8.494234
_cell_angle_alpha 117.449084
_cell_angle_beta 49.511199
_cell_angle_gamma 143.541468
_cell_volume 491.058810
_symmetry_space_group_name_H-M "P -1"
_symmetry_group_IT_number 2
_symmetry_cell_setting 'triclinic'
loop_
_space_group_symop_operation_xyz
x,y,z
-x,-y,-z
loop_
_atom_site_type_symbol
_atom_site_label
_atom_site_fract_x
_atom_site_fract_y
_atom_site_fract_z
Si Si1 0.362218 0.164941 0.088842
Si Si2 0.872137 0.759866 0.634028
Si Si3 0.090728 0.754981 0.601015
Si Si4 0.435804 0.743832 0.407621
Si Si5 0.124421 0.601254 0.061705
Si Si6 0.509166 0.244241 0.305520
O O1 0.287606 0.270049 0.172125
O O2 0.480514 0.293784 0.184646
O O3 0.197566 0.861380 0.160830
O O4 0.456805 0.191245 0.839443
O O5 0.775275 0.501951 0.530120
O O6 0.996775 0.823952 0.668575
O O7 0.000000 0.000000 0.500000
O O8 0.000000 0.500000 0.500000
O O9 0.014732 0.657229 0.810859
O O10 0.305082 0.964578 0.430707
O O11 0.455656 0.651409 0.501763
O O12 0.500000 0.000000 0.500000
O O13 0.316406 0.698101 0.879544
O O14 0.000000 0.500000 0.000000
#
# Coordination Sequence:
#
# PCOD9070909 Si02
#       6
#     2   2   2   2   2   2
#     4  12  26  51  78 116 162 210 263 346 410 471
#     4  12  27  51  78 116 169 207 263 346 417 468
#     4  12  25  47  80 109 154 217 263 321 405 494
#     4  12  27  47  82 116 155 215 279 326 397 501
#     4  12  27  46  80 117 155 211 276 331 396 491
#     4  12  26  47  79 115 157 210 279 320 406 485
#
# _framework density 24.436989000000001
#
# number of rings (size 3 to 8) (size 9 to 14) (size 15 to 20)
#    0.000    0.000    5.000    4.000    4.667    0.667 
#    0.000    3.333    0.000    0.000    0.000    0.000 
#    0.000    0.000    0.000    0.000    0.000    0.000 
#
# Total GULP energy -66964.690332 kJ/mol
# GULP energy per Si atom -5580.390861 kJ/mol
# Density = 2.438137 g / cm^3
# Si number density = 24.436989 Si / 1000 Ang^3
#
#
#
# Elastic Constant Matrix: (Units=GPa)
#
#
# Indices 1 2 3 4 5 6 
#
# 1 197.9649 19.8957 79.1754 5.1438 11.3519 -4.7208
# 2 19.8957 85.1643 33.5478 -2.2550 -18.1268 -0.4555
# 3 79.1754 33.5478 151.7377 -13.7191 7.5086 -10.2406
# 4 5.1438 -2.2550 -13.7191 27.4479 5.7019 -1.2588
# 5 11.3519 -18.1268 7.5086 5.7019 56.5114 -9.3674
# 6 -4.7208 -0.4555 -10.2406 -1.2588 -9.3674 39.9914
#
#
#
# Elastic Compliance Matrix: (Units=1/GPa)
#
#
# Indices 1 2 3 4 5 6 
#
# 1 0.006659 -0.000352 -0.003657 -0.002972 -0.000734 -0.000420
# 2 -0.000352 0.014228 -0.003330 -0.001510 0.005306 0.000463
# 3 -0.003657 -0.003330 0.009987 0.005893 -0.001954 0.001815
# 4 -0.002972 -0.001510 0.005893 0.040821 -0.004564 0.001357
# 5 -0.000734 0.005306 -0.001954 -0.004564 0.020968 0.004241
# 6 -0.000420 0.000463 0.001815 0.001357 0.004241 0.026462
#
#
# Mechanical properties :
#
#
# Convention : Reuss Voigt Hill
#
# Bulk Modulus (GPa) = 61.74751 77.78943 69.76847
# Shear Modulus (GPa) = 35.91905 44.94000 40.42952
#
# Velocity S-wave (km/s) = 3.83804 4.29303 4.07189
# Velocity P-wave (km/s) = 6.70549 7.51500 7.12176
#
# Compressibility (1/GPa) = 0.01619498
#
# Stress axis : x y z
#
# Youngs Moduli (GPa) = 150.17622 70.28496 100.13162
#
# Poissons Ratio (x) = 0.02475 0.36622
# Poissons Ratio (y) = 0.05289 0.33341
# Poissons Ratio (z) = 0.54925 0.23403
#
# Static dielectric constant tensor:
#      x y z
#    x 2.028270 0.020670 -0.084880 
#    y 0.020670 1.939420 -0.064210 
#    z -0.084880 -0.064210 2.471570 
# 
# From -- ./inp_files/296019.got.cif
#   From: 2010.05.17/outbox.cif.g08.bks.cpg/sg2_149_cif.got.tgz:296019.got - 2010.06.03 11:33:40.
