data_PCOD9070037
_publ_section_title
;
Structure prediction by ZEFSAII (Michael W. Deem and Ramdas Pophale) SiO2 
 PCOD9070037
Probable space group: P -1
;
_chemical_formula_sum "Si O2"
_cell_formula_units_Z 12
_cell_length_a 16.519135
_cell_length_b 5.284938
_cell_length_c 12.210664
_cell_angle_alpha 49.657348
_cell_angle_beta 37.313006
_cell_angle_gamma 47.752323
_cell_volume 463.027011
_symmetry_space_group_name_H-M "P -1"
_symmetry_group_IT_number 2
_symmetry_cell_setting 'triclinic'
loop_
_space_group_symop_operation_xyz
x,y,z
-x,-y,-z
loop_
_atom_site_type_symbol
_atom_site_label
_atom_site_fract_x
_atom_site_fract_y
_atom_site_fract_z
Si Si1 0.665686 0.876248 0.839499
Si Si2 0.743416 0.490289 0.538093
Si Si3 0.560167 0.063347 0.300143
Si Si4 0.987416 0.496831 0.143964
Si Si5 0.270762 0.452261 0.922713
Si Si6 0.105363 0.722694 0.340428
O O1 0.744449 0.494630 0.814586
O O2 0.705803 0.145622 0.641085
O O3 0.722665 0.849982 0.909934
O O4 0.500000 0.000000 0.000000
O O5 0.586372 0.754745 0.661950
O O6 0.826201 0.648360 0.318597
O O7 0.855715 0.329079 0.559101
O O8 0.647524 0.316469 0.171292
O O9 0.500000 0.000000 0.500000
O O10 0.654906 0.733297 0.217677
O O11 0.039058 0.090883 0.245802
O O12 0.000000 0.500000 0.000000
O O13 0.103947 0.648423 0.026377
O O14 0.000000 0.500000 0.500000
#
# Coordination Sequence:
#
# PCOD9070037 Si02
#       6
#     2   2   2   2   2   2
#     4  12  24  44  76 110 146 191 263 321 382 456
#     4  12  26  46  76 109 150 203 256 323 384 464
#     4  12  28  50  77 113 159 205 257 325 399 465
#     4  12  27  49  75 113 156 205 261 324 394 466
#     4  12  26  48  77 111 152 202 261 321 384 468
#     4  12  25  46  77 108 153 207 261 320 388 467
#
# _framework density 25.916415000000001
#
# number of rings (size 3 to 8) (size 9 to 14) (size 15 to 20)
#    0.000    0.000    5.000    5.000    0.000    2.667 
#    0.000    5.000    0.000    0.000    0.000    0.000 
#    0.000    0.000    0.000    0.000    0.000    0.000 
#
# Total GULP energy -67160.069871 kJ/mol
# GULP energy per Si atom -5596.672489 kJ/mol
# Density = 2.585743 g / cm^3
# Si number density = 25.916415 Si / 1000 Ang^3
#
#
#
# Elastic Constant Matrix: (Units=GPa)
#
#
# Indices 1 2 3 4 5 6 
#
# 1 133.2587 19.5198 56.6921 1.4544 -14.3248 -13.0142
# 2 19.5198 86.6032 28.5965 25.3412 -11.6310 -6.4891
# 3 56.6921 28.5965 175.0134 9.5108 -5.3469 5.8133
# 4 1.4544 25.3412 9.5108 46.8384 -4.2080 -0.4548
# 5 -14.3248 -11.6310 -5.3469 -4.2080 57.9352 7.5550
# 6 -13.0142 -6.4891 5.8133 -0.4548 7.5550 48.4858
#
#
#
# Elastic Compliance Matrix: (Units=1/GPa)
#
#
# Indices 1 2 3 4 5 6 
#
# 1 0.009304 -0.001033 -0.002935 0.001031 0.001574 0.002475
# 2 -0.001033 0.014896 -0.001688 -0.007505 0.001830 0.001563
# 3 -0.002935 -0.001688 0.007019 -0.000458 -0.000212 -0.001827
# 4 0.001031 -0.007505 -0.000458 0.025523 0.000629 -0.000531
# 5 0.001574 0.001830 -0.000212 0.000629 0.018325 -0.002157
# 6 0.002475 0.001563 -0.001827 -0.000531 -0.002157 0.022048
#
#
# Mechanical properties :
#
#
# Convention : Reuss Voigt Hill
#
# Bulk Modulus (GPa) = 50.23031 67.16578 58.69804
# Shear Modulus (GPa) = 43.45475 49.98966 46.72221
#
# Velocity S-wave (km/s) = 4.09923 4.39667 4.25055
# Velocity P-wave (km/s) = 6.46751 7.19353 6.84015
#
# Compressibility (1/GPa) = 0.01990830
#
# Stress axis : x y z
#
# Youngs Moduli (GPa) = 107.48139 67.13264 142.46030
#
# Poissons Ratio (x) = 0.06933 0.41816
# Poissons Ratio (y) = 0.11099 0.24041
# Poissons Ratio (z) = 0.31549 0.11329
#
# Static dielectric constant tensor:
#      x y z
#    x 2.071310 -0.028710 0.013600 
#    y -0.028710 2.066180 -0.023420 
#    z 0.013600 -0.023420 2.106490 
# 
# From -- ./inp_files/79494.got.cif
#   From: 2010.05.17/outbox.cif.g08.bks.cpg/sg2_40_cif.got.tgz:79494.got - 2010.06.03 11:33:40.
