data_PCOD9070292
_publ_section_title
;
Structure prediction by ZEFSAII (Michael W. Deem and Ramdas Pophale) SiO2 
 PCOD9070292
Probable space group: P -1
;
_chemical_formula_sum "Si O2"
_cell_formula_units_Z 16
_cell_length_a 16.577053
_cell_length_b 19.837203
_cell_length_c 9.191305
_cell_angle_alpha 33.969468
_cell_angle_beta 147.269660
_cell_angle_gamma 151.996121
_cell_volume 721.286984
_symmetry_space_group_name_H-M "P -1"
_symmetry_group_IT_number 2
_symmetry_cell_setting 'triclinic'
loop_
_space_group_symop_operation_xyz
x,y,z
-x,-y,-z
loop_
_atom_site_type_symbol
_atom_site_label
_atom_site_fract_x
_atom_site_fract_y
_atom_site_fract_z
Si Si1 0.488424 0.740549 0.526460
Si Si2 0.836084 0.073217 0.492388
Si Si3 0.065316 0.827870 0.206319
Si Si4 0.923323 0.382840 0.960589
Si Si5 0.496593 0.364692 0.960517
Si Si6 0.846392 0.402201 0.316261
Si Si7 0.287705 0.290158 0.306735
Si Si8 0.146043 0.108292 0.709371
O O1 0.266965 0.655815 0.327750
O O2 0.524996 0.663752 0.848635
O O3 0.566451 0.727162 0.517932
O O4 0.619724 0.921082 0.439699
O O5 0.918206 0.115846 0.704491
O O6 0.949157 0.042026 0.609298
O O7 0.867862 0.222497 0.213239
O O8 0.137341 0.726777 0.484819
O O9 0.855889 0.728913 0.998144
O O10 0.176843 0.980345 0.003724
O O11 0.089721 0.472720 0.934838
O O12 0.000000 0.500000 0.000000
O O13 0.639861 0.331362 0.185950
O O14 0.594068 0.538916 0.761190
O O15 0.300767 0.252175 0.784306
O O16 0.000000 0.500000 0.500000
O O17 0.172354 0.169272 0.477487
#
# Coordination Sequence:
#
# PCOD9070292 Si02
#       8
#     2   2   2   2   2   2   2   2
#     4  12  26  47  71 105 142 185 230 286 354 418
#     4  12  26  48  72 101 146 185 232 286 347 426
#     4  12  24  47  71 102 142 188 229 285 352 414
#     4  12  27  46  72 106 138 185 232 287 349 409
#     4  12  26  46  71 105 140 187 231 286 354 415
#     4  12  25  47  73 102 141 183 236 290 348 415
#     4  12  26  44  73 107 139 180 239 292 346 410
#     4  12  27  45  73 106 142 183 234 290 349 415
#
# _framework density 22.182572
#
# number of rings (size 3 to 8) (size 9 to 14) (size 15 to 20)
#    0.000    0.000    6.250    3.375    3.500    0.500 
#    2.250    0.000    0.000    0.000    0.000    0.000 
#    0.000    0.000    0.000    0.000    0.000    0.000 
#
# Total GULP energy -89589.702913 kJ/mol
# GULP energy per Si atom -5599.356432 kJ/mol
# Density = 2.213208 g / cm^3
# Si number density = 22.182572 Si / 1000 Ang^3
#
#
#
# Elastic Constant Matrix: (Units=GPa)
#
#
# Indices 1 2 3 4 5 6 
#
# 1 92.3758 9.3775 14.1017 -1.0906 -14.9232 3.7818
# 2 9.3775 106.5218 11.1762 -8.7849 0.8039 -0.0928
# 3 14.1017 11.1762 57.9054 -15.3152 -17.4520 -2.2358
# 4 -1.0906 -8.7849 -15.3152 51.3244 0.0082 -2.6394
# 5 -14.9232 0.8039 -17.4520 0.0082 35.3597 -2.9380
# 6 3.7818 -0.0928 -2.2358 -2.6394 -2.9380 26.0839
#
#
#
# Elastic Compliance Matrix: (Units=1/GPa)
#
#
# Indices 1 2 3 4 5 6 
#
# 1 0.011891 -0.000944 -0.001661 -0.000480 0.004099 -0.001457
# 2 -0.000944 0.009765 -0.001824 0.001105 -0.001525 -0.000045
# 3 -0.001661 -0.001824 0.023382 0.006844 0.011228 0.004196
# 4 -0.000480 0.001105 0.006844 0.021872 0.003416 0.003258
# 5 0.004099 -0.001525 0.011228 0.003416 0.035982 0.004761
# 6 -0.001457 -0.000045 0.004196 0.003258 0.004761 0.039775
#
#
# Mechanical properties :
#
#
# Convention : Reuss Voigt Hill
#
# Bulk Modulus (GPa) = 27.64024 36.23488 31.93756
# Shear Modulus (GPa) = 30.56522 37.36344 33.96433
#
# Velocity S-wave (km/s) = 3.71603 4.10855 3.91721
# Velocity P-wave (km/s) = 5.55870 6.23516 5.90662
#
# Compressibility (1/GPa) = 0.03617913
#
# Stress axis : x y z
#
# Youngs Moduli (GPa) = 84.09730 102.40846 42.76773
#
# Poissons Ratio (x) = 0.09670 0.07106
# Poissons Ratio (y) = 0.07941 0.07799
# Poissons Ratio (z) = 0.13972 0.18676
#
# Static dielectric constant tensor:
#      x y z
#    x 1.840830 -0.028370 -0.027230 
#    y -0.028370 1.793930 -0.009460 
#    z -0.027230 -0.009460 1.816960 
# 
# From -- ./inp_files/317990.got.cif
#   From: 2010.05.17/outbox.cif.g08.bks.cpg/sg2_159_cif.got.tgz:317990.got - 2010.06.03 11:33:40.
