data_PCOD9070252
_publ_section_title
;
Structure prediction by ZEFSAII (Michael W. Deem and Ramdas Pophale) SiO2 
 PCOD9070252
Probable space group: P -1
;
_chemical_formula_sum "Si O2"
_cell_formula_units_Z 16
_cell_length_a 12.659077
_cell_length_b 10.985671
_cell_length_c 11.743480
_cell_angle_alpha 44.615576
_cell_angle_beta 65.697072
_cell_angle_gamma 98.299924
_cell_volume 763.378278
_symmetry_space_group_name_H-M "P -1"
_symmetry_group_IT_number 2
_symmetry_cell_setting 'triclinic'
loop_
_space_group_symop_operation_xyz
x,y,z
-x,-y,-z
loop_
_atom_site_type_symbol
_atom_site_label
_atom_site_fract_x
_atom_site_fract_y
_atom_site_fract_z
Si Si1 0.756401 0.020798 0.644938
Si Si2 0.453474 0.423152 0.442590
Si Si3 0.419146 0.799672 0.866296
Si Si4 0.196950 0.896739 0.867349
Si Si5 0.617552 0.274885 0.805067
Si Si6 0.982968 0.275494 0.165013
Si Si7 0.321572 0.449433 0.937144
Si Si8 0.923203 0.460450 0.438844
O O1 0.886102 0.131567 0.416014
O O2 0.844203 0.212107 0.580073
O O3 0.608086 0.982804 0.687402
O O4 0.698250 0.771578 0.872128
O O5 0.500000 0.500000 0.500000
O O6 0.454967 0.612893 0.259098
O O7 0.286529 0.154659 0.702929
O O8 0.565676 0.426670 0.306131
O O9 0.329876 0.880740 0.807515
O O10 0.347722 0.703230 0.089957
O O11 0.385247 0.619291 0.906142
O O12 0.121709 0.877937 0.794748
O O13 0.054664 0.677744 0.153820
O O14 0.773820 0.427559 0.556903
O O15 0.500000 0.000000 0.000000
O O16 0.152557 0.358008 0.039535
O O17 0.000000 0.500000 0.000000
O O18 0.000000 0.500000 0.500000
#
# Coordination Sequence:
#
# PCOD9070252 Si02
#       8
#     2   2   2   2   2   2   2   2
#     4  12  26  46  77 105 143 195 247 304 358 441
#     4  12  30  48  73 110 145 190 247 304 368 432
#     4  12  24  46  78 105 144 192 250 295 365 434
#     4  12  28  47  72 110 146 192 241 306 369 436
#     4  12  25  49  75 106 145 197 246 298 359 441
#     4  12  26  46  69 110 148 186 235 298 378 422
#     4  12  27  48  75 107 146 192 246 304 361 444
#     4  12  26  44  75 104 149 195 242 294 370 437
#
# _framework density 20.959463
#
# number of rings (size 3 to 8) (size 9 to 14) (size 15 to 20)
#    0.000    0.000    6.250    2.250    7.000    2.500 
#    0.000    0.000    0.000    0.000    0.000    0.000 
#    0.000    0.000    0.000    0.000    0.000    0.000 
#
# Total GULP energy -89461.084597 kJ/mol
# GULP energy per Si atom -5591.317787 kJ/mol
# Density = 2.091176 g / cm^3
# Si number density = 20.959463 Si / 1000 Ang^3
#
#
#
# Elastic Constant Matrix: (Units=GPa)
#
#
# Indices 1 2 3 4 5 6 
#
# 1 109.3535 46.7761 25.2714 -1.2441 -20.0058 4.8369
# 2 46.7761 184.1022 54.7587 -8.9350 -4.1403 29.0548
# 3 25.2714 54.7587 88.1639 -5.6168 -12.2998 -16.4734
# 4 -1.2441 -8.9350 -5.6168 41.2036 1.3446 -8.8798
# 5 -20.0058 -4.1403 -12.2998 1.3446 28.2882 4.3608
# 6 4.8369 29.0548 -16.4734 -8.8798 4.3608 41.6164
#
#
#
# Elastic Compliance Matrix: (Units=1/GPa)
#
#
# Indices 1 2 3 4 5 6 
#
# 1 0.011883 -0.002368 -0.001117 -0.000811 0.007789 -0.001159
# 2 -0.002368 0.009612 -0.007375 -0.000942 -0.001989 -0.009347
# 3 -0.001117 -0.007375 0.019600 0.003779 0.004410 0.013381
# 4 -0.000811 -0.000942 0.003779 0.026338 -0.001558 0.008031
# 5 0.007789 -0.001989 0.004410 -0.001558 0.042961 -0.002605
# 6 -0.001159 -0.009347 0.013381 0.008031 -0.002605 0.037973
#
#
# Mechanical properties :
#
#
# Convention : Reuss Voigt Hill
#
# Bulk Modulus (GPa) = 51.61588 70.58133 61.09861
# Shear Modulus (GPa) = 28.32159 39.20919 33.76539
#
# Velocity S-wave (km/s) = 3.67993 4.32987 4.01806
# Velocity P-wave (km/s) = 6.53727 7.66455 7.12324
#
# Compressibility (1/GPa) = 0.01937388
#
# Stress axis : x y z
#
# Youngs Moduli (GPa) = 84.15605 104.03822 51.02138
#
# Poissons Ratio (x) = 0.24639 0.05698
# Poissons Ratio (y) = 0.19930 0.37629
# Poissons Ratio (z) = 0.09398 0.76730
#
# Static dielectric constant tensor:
#      x y z
#    x 1.567820 -0.033490 -0.110110 
#    y -0.033490 1.831340 0.061760 
#    z -0.110110 0.061760 1.724330 
# 
# From -- ./inp_files/357050.got.cif
#   From: 2010.05.17/outbox.cif.g08.bks.cpg/sg2_179_cif.got.tgz:357050.got - 2010.06.03 11:33:40.
