data_PCOD9070130
_publ_section_title
;
Structure prediction by ZEFSAII (Michael W. Deem and Ramdas Pophale) SiO2 
 PCOD9070130
Probable space group: P -1
;
_chemical_formula_sum "Si O2"
_cell_formula_units_Z 16
_cell_length_a 8.537189
_cell_length_b 14.972685
_cell_length_c 8.348533
_cell_angle_alpha 73.138564
_cell_angle_beta 49.867397
_cell_angle_gamma 102.449120
_cell_volume 652.037219
_symmetry_space_group_name_H-M "P -1"
_symmetry_group_IT_number 2
_symmetry_cell_setting 'triclinic'
loop_
_space_group_symop_operation_xyz
x,y,z
-x,-y,-z
loop_
_atom_site_type_symbol
_atom_site_label
_atom_site_fract_x
_atom_site_fract_y
_atom_site_fract_z
Si Si1 0.802319 0.965822 0.508819
Si Si2 0.381185 0.696304 0.473160
Si Si3 0.075064 0.160382 0.971384
Si Si4 0.548281 0.417548 0.208251
Si Si5 0.245646 0.619269 0.239395
Si Si6 0.877493 0.676344 0.900516
Si Si7 0.277844 0.848048 0.049261
Si Si8 0.880336 0.782508 0.536788
O O1 0.548661 0.936271 0.765911
O O2 0.762351 0.850728 0.531448
O O3 0.000000 0.000000 0.500000
O O4 0.916970 0.059175 0.249825
O O5 0.383426 0.621880 0.655545
O O6 0.363302 0.653517 0.324514
O O7 0.137860 0.695874 0.669450
O O8 0.651097 0.811227 0.245408
O O9 0.109836 0.273005 0.962841
O O10 0.909796 0.138001 0.939132
O O11 0.257601 0.332946 0.413203
O O12 0.653097 0.404103 0.977889
O O13 0.664238 0.547578 0.087915
O O14 0.000000 0.500000 0.500000
O O15 0.240180 0.726978 0.135530
O O16 0.827092 0.747320 0.773662
O O17 0.173405 0.851631 0.288553
#
# Coordination Sequence:
#
# PCOD9070130 Si02
#       8
#     2   2   2   2   2   2   2   2
#     4  12  27  50  76 104 146 189 254 314 368 444
#     4  12  26  47  74 111 152 197 249 308 369 441
#     4  12  28  48  74 110 144 198 252 307 374 440
#     4  12  25  49  74 112 156 195 247 307 368 450
#     4  12  24  45  77 108 156 201 240 306 376 435
#     4  12  26  45  77 107 153 196 245 300 373 451
#     4  12  26  48  74 109 146 193 246 307 378 437
#     4  12  25  48  75 108 144 194 244 306 373 443
#
# _framework density 24.538474000000001
#
# number of rings (size 3 to 8) (size 9 to 14) (size 15 to 20)
#    0.000    0.000    6.250    3.375    1.750    3.500 
#    0.000    0.000    0.000    0.000    0.000    0.000 
#    0.000    0.000    0.000    0.000    0.000    0.000 
#
# Total GULP energy -89488.554165 kJ/mol
# GULP energy per Si atom -5593.034635 kJ/mol
# Density = 2.448262 g / cm^3
# Si number density = 24.538474 Si / 1000 Ang^3
#
#
#
# Elastic Constant Matrix: (Units=GPa)
#
#
# Indices 1 2 3 4 5 6 
#
# 1 93.3382 5.8959 38.2017 -9.9782 5.6803 8.9255
# 2 5.8959 59.8924 24.5048 -5.2908 -5.9571 -3.7068
# 3 38.2017 24.5048 165.4810 -15.6020 -11.6927 -7.2725
# 4 -9.9782 -5.2908 -15.6020 40.9386 -1.8391 0.1383
# 5 5.6803 -5.9571 -11.6927 -1.8391 56.2313 0.4193
# 6 8.9255 -3.7068 -7.2725 0.1383 0.4193 20.2102
#
#
#
# Elastic Compliance Matrix: (Units=1/GPa)
#
#
# Indices 1 2 3 4 5 6 
#
# 1 0.013035 -0.000428 -0.003215 0.001834 -0.001919 -0.006965
# 2 -0.000428 0.018091 -0.002219 0.001448 0.001526 0.002667
# 3 -0.003215 -0.002219 0.007573 0.001880 0.001698 0.003690
# 4 0.001834 0.001448 0.001880 0.025832 0.001204 -0.000070
# 5 -0.001919 0.001526 0.001698 0.001204 0.018522 0.001346
# 6 -0.006965 0.002667 0.003690 -0.000070 0.001346 0.054345
#
#
# Mechanical properties :
#
#
# Convention : Reuss Voigt Hill
#
# Bulk Modulus (GPa) = 37.06823 50.65738 43.86281
# Shear Modulus (GPa) = 31.62295 40.14995 35.88645
#
# Velocity S-wave (km/s) = 3.59375 4.04939 3.82836
# Velocity P-wave (km/s) = 5.68850 6.52321 6.12010
#
# Compressibility (1/GPa) = 0.02697728
#
# Stress axis : x y z
#
# Youngs Moduli (GPa) = 76.71494 55.27535 132.04777
#
# Poissons Ratio (x) = 0.02365 0.42448
# Poissons Ratio (y) = 0.03282 0.29297
# Poissons Ratio (z) = 0.24661 0.12264
#
# Static dielectric constant tensor:
#      x y z
#    x 1.967330 0.030230 -0.022420 
#    y 0.030230 2.005770 0.010970 
#    z -0.022420 0.010970 1.983490 
# 
# From -- ./inp_files/206218.got.cif
#   From: 2010.05.17/outbox.cif.g08.bks.cpg/sg2_104_cif.got.tgz:206218.got - 2010.06.03 11:33:40.
