data_PCOD9070185
_publ_section_title
;
Structure prediction by ZEFSAII (Michael W. Deem and Ramdas Pophale) SiO2 
 PCOD9070185
Probable space group: P -1
;
_chemical_formula_sum "Si O2"
_cell_formula_units_Z 16
_cell_length_a 16.985049
_cell_length_b 11.528159
_cell_length_c 9.212647
_cell_angle_alpha 53.608879
_cell_angle_beta 31.065007
_cell_angle_gamma 51.120162
_cell_volume 717.634849
_symmetry_space_group_name_H-M "P -1"
_symmetry_group_IT_number 2
_symmetry_cell_setting 'triclinic'
loop_
_space_group_symop_operation_xyz
x,y,z
-x,-y,-z
loop_
_atom_site_type_symbol
_atom_site_label
_atom_site_fract_x
_atom_site_fract_y
_atom_site_fract_z
Si Si1 0.219229 0.767699 0.080763
Si Si2 0.806155 0.473919 0.190701
Si Si3 0.146968 0.256719 0.755848
Si Si4 0.343795 0.010276 0.834153
Si Si5 0.333075 0.208791 0.973001
Si Si6 0.875948 0.901810 0.389440
Si Si7 0.321444 0.488717 0.308780
Si Si8 0.672479 0.239977 0.404780
O O1 0.217274 0.612153 0.271265
O O2 0.044381 0.860946 0.235395
O O3 0.326367 0.743541 0.784112
O O4 0.293697 0.858430 0.011043
O O5 0.765914 0.641588 0.066354
O O6 0.736973 0.477562 0.458768
O O7 0.722565 0.375626 0.296468
O O8 0.993315 0.388847 0.948977
O O9 0.203375 0.136956 0.883033
O O10 0.106810 0.174108 0.739436
O O11 0.290143 0.329559 0.442932
O O12 0.366445 0.068015 0.914392
O O13 0.500000 0.000000 0.500000
O O14 0.499854 0.235400 0.731068
O O15 0.238305 0.171046 0.284744
O O16 0.795897 0.079559 0.368551
O O17 0.500000 0.500000 0.000000
#
# Coordination Sequence:
#
# PCOD9070185 Si02
#       8
#     2   2   2   2   2   2   2   2
#     4  12  25  45  72 101 137 182 231 281 347 405
#     4  12  27  47  71 103 142 184 227 287 350 409
#     4  12  25  48  73  95 148 182 230 287 343 412
#     4  12  24  46  73  98 138 188 231 284 343 409
#     4  12  27  45  72 104 138 184 234 280 348 413
#     4  12  27  46  71 106 135 185 233 286 342 407
#     4  12  28  45  71 105 141 182 231 285 347 412
#     4  12  25  48  70 102 143 181 230 287 344 410
#
# _framework density 22.295461
#
# number of rings (size 3 to 8) (size 9 to 14) (size 15 to 20)
#    0.000    0.000    5.000    4.500    7.000    1.500 
#    0.000    0.000    0.000    0.000    0.000    0.000 
#    0.000    0.000    0.000    0.000    0.000    0.000 
#
# Total GULP energy -89696.808802 kJ/mol
# GULP energy per Si atom -5606.050550 kJ/mol
# Density = 2.224472 g / cm^3
# Si number density = 22.295461 Si / 1000 Ang^3
#
#
#
# Elastic Constant Matrix: (Units=GPa)
#
#
# Indices 1 2 3 4 5 6 
#
# 1 51.8479 9.1045 9.6691 3.9119 -7.8218 7.7836
# 2 9.1045 55.0938 13.8387 -2.6254 4.8331 3.2593
# 3 9.6691 13.8387 107.0818 -4.1954 3.2245 4.8378
# 4 3.9119 -2.6254 -4.1954 39.0303 -5.0575 -1.5957
# 5 -7.8218 4.8331 3.2245 -5.0575 35.3068 -10.1543
# 6 7.7836 3.2593 4.8378 -1.5957 -10.1543 35.5764
#
#
#
# Elastic Compliance Matrix: (Units=1/GPa)
#
#
# Indices 1 2 3 4 5 6 
#
# 1 0.021433 -0.003436 -0.001562 -0.002132 0.004174 -0.003066
# 2 -0.003436 0.019693 -0.002009 0.000906 -0.003656 -0.001782
# 3 -0.001562 -0.002009 0.009859 0.000885 -0.001163 -0.001107
# 4 -0.002132 0.000906 0.000885 0.026597 0.003869 0.002560
# 5 0.004174 -0.003656 -0.001163 0.003869 0.033051 0.009187
# 6 -0.003066 -0.001782 -0.001107 0.002560 0.009187 0.031830
#
#
# Mechanical properties :
#
#
# Convention : Reuss Voigt Hill
#
# Bulk Modulus (GPa) = 27.04789 31.02755 29.03772
# Shear Modulus (GPa) = 29.62108 34.07678 31.84893
#
# Velocity S-wave (km/s) = 3.64891 3.91374 3.78364
# Velocity P-wave (km/s) = 5.46906 5.86258 5.66924
#
# Compressibility (1/GPa) = 0.03697147
#
# Stress axis : x y z
#
# Youngs Moduli (GPa) = 46.65781 50.78072 101.43013
#
# Poissons Ratio (x) = 0.17447 0.15843
# Poissons Ratio (y) = 0.16031 0.20373
# Poissons Ratio (z) = 0.07288 0.10200
#
# Static dielectric constant tensor:
#      x y z
#    x 1.801860 -0.013070 -0.027270 
#    y -0.013070 1.804200 0.021030 
#    z -0.027270 0.021030 1.785110 
# 
# From -- ./inp_files/159608.got.cif
#   From: 2010.05.17/outbox.cif.g08.bks.cpg/sg2_80_cif.got.tgz:159608.got - 2010.06.03 11:33:40.
