data_PCOD9070229
_publ_section_title
;
Structure prediction by ZEFSAII (Michael W. Deem and Ramdas Pophale) SiO2 
 PCOD9070229
Probable space group: P -1
;
_chemical_formula_sum "Si O2"
_cell_formula_units_Z 15
_cell_length_a 9.184525
_cell_length_b 9.079377
_cell_length_c 12.871199
_cell_angle_alpha 128.552930
_cell_angle_beta 113.771692
_cell_angle_gamma 49.847441
_cell_volume 641.559321
_symmetry_space_group_name_H-M "P -1"
_symmetry_group_IT_number 2
_symmetry_cell_setting 'triclinic'
loop_
_space_group_symop_operation_xyz
x,y,z
-x,-y,-z
loop_
_atom_site_type_symbol
_atom_site_label
_atom_site_fract_x
_atom_site_fract_y
_atom_site_fract_z
Si Si1 0.468584 0.940400 0.349170
Si Si2 0.129235 0.534242 0.294173
Si Si3 0.954720 0.677693 0.652559
Si Si4 0.468748 0.499842 0.113788
Si Si5 0.690554 0.332180 0.305291
Si Si6 0.304908 0.235484 0.014487
Si Si7 0.226108 0.065109 0.716058
Si Si8 0.500000 0.500000 0.500000
O O1 0.458019 0.720441 0.246635
O O2 0.629499 0.913772 0.305179
O O3 0.500000 0.000000 0.500000
O O4 0.263868 0.128460 0.327540
O O5 0.007207 0.464704 0.295827
O O6 0.199938 0.358737 0.143200
O O7 0.309613 0.508694 0.391489
O O8 0.982204 0.792032 0.329860
O O9 0.000000 0.500000 0.500000
O O10 0.095088 0.754837 0.697584
O O11 0.610764 0.325232 0.167850
O O12 0.316146 0.432672 0.048707
O O13 0.500000 0.500000 0.000000
O O14 0.556061 0.566781 0.429152
O O15 0.682209 0.200101 0.349051
O O16 0.211554 0.161850 0.869547
O O17 0.500000 0.000000 0.000000
#
# Coordination Sequence:
#
# PCOD9070229 Si02
#       8
#     2   2   2   2   2   2   2   1
#     4  12  28  49  80 112 160 212 257 331 399 471
#     4  12  27  47  77 110 153 206 259 326 398 476
#     4  12  26  49  71 112 157 201 262 326 392 470
#     4  12  26  47  80 113 155 210 266 324 401 472
#     4  12  27  46  76 110 153 198 262 318 394 473
#     4  12  24  50  77 107 156 210 264 329 394 472
#     4  12  27  50  75 112 155 209 263 328 393 478
#     4  12  24  46  76 108 150 198 250 320 390 470
#
# _framework density 23.380534999999998
#
# number of rings (size 3 to 8) (size 9 to 14) (size 15 to 20)
#    0.000    0.000    5.333    4.400    3.733    0.533 
#    0.000    1.333    0.000    0.000    0.000    0.000 
#    0.000    0.000    0.000    0.000    0.000    0.000 
#
# Total GULP energy -83539.737087 kJ/mol
# GULP energy per Si atom -5569.315806 kJ/mol
# Density = 2.332732 g / cm^3
# Si number density = 23.380535 Si / 1000 Ang^3
#
#
#
# Elastic Constant Matrix: (Units=GPa)
#
#
# Indices 1 2 3 4 5 6 
#
# 1 95.2712 48.8406 27.8178 -7.6120 -15.3119 -0.5176
# 2 48.8406 124.3481 28.0960 -8.9051 2.3990 7.2495
# 3 27.8178 28.0960 146.2868 -14.8273 -17.3534 8.1952
# 4 -7.6120 -8.9051 -14.8273 40.6031 10.8170 6.5173
# 5 -15.3119 2.3990 -17.3534 10.8170 47.1991 -4.2786
# 6 -0.5176 7.2495 8.1952 6.5173 -4.2786 45.0345
#
#
#
# Elastic Compliance Matrix: (Units=1/GPa)
#
#
# Indices 1 2 3 4 5 6 
#
# 1 0.014503 -0.005652 -0.001260 -0.000563 0.004825 0.001846
# 2 -0.005652 0.010864 -0.001073 0.002228 -0.003497 -0.002273
# 3 -0.001260 -0.001073 0.007797 0.002089 0.001908 -0.001382
# 4 -0.000563 0.002228 0.002089 0.028393 -0.006531 -0.005475
# 5 0.004825 -0.003497 0.001908 -0.006531 0.025458 0.003635
# 6 0.001846 -0.002273 -0.001382 -0.005475 0.003635 0.023981
#
#
# Mechanical properties :
#
#
# Convention : Reuss Voigt Hill
#
# Bulk Modulus (GPa) = 58.16781 63.93500 61.05140
# Shear Modulus (GPa) = 37.67916 43.97745 40.82830
#
# Velocity S-wave (km/s) = 4.01878 4.34169 4.18335
# Velocity P-wave (km/s) = 6.81666 7.24834 7.03581
#
# Compressibility (1/GPa) = 0.01719164
#
# Stress axis : x y z
#
# Youngs Moduli (GPa) = 68.95314 92.04595 128.25057
#
# Poissons Ratio (x) = 0.52029 0.16163
# Poissons Ratio (y) = 0.38976 0.13767
# Poissons Ratio (z) = 0.08690 0.09881
#
# Static dielectric constant tensor:
#      x y z
#    x 1.975100 -0.005140 -0.081960 
#    y -0.005140 2.342310 0.444460 
#    z -0.081960 0.444460 2.480350 
# 
# From -- ./inp_files/383302.got.cif
#   From: 2010.05.17/outbox.cif.g08.bks.cpg/sg2_192_cif.got.tgz:383302.got - 2010.06.03 11:33:40.
