data_PCOD9070466
_publ_section_title
;
Structure prediction by ZEFSAII (Michael W. Deem and Ramdas Pophale) SiO2 
 PCOD9070466
Probable space group: P -1
;
_chemical_formula_sum "Si O2"
_cell_formula_units_Z 16
_cell_length_a 8.987849
_cell_length_b 19.853275
_cell_length_c 15.909091
_cell_angle_alpha 20.468274
_cell_angle_beta 136.377810
_cell_angle_gamma 135.990186
_cell_volume 674.886710
_symmetry_space_group_name_H-M "P -1"
_symmetry_group_IT_number 2
_symmetry_cell_setting 'triclinic'
loop_
_space_group_symop_operation_xyz
x,y,z
-x,-y,-z
loop_
_atom_site_type_symbol
_atom_site_label
_atom_site_fract_x
_atom_site_fract_y
_atom_site_fract_z
Si Si1 0.367743 0.773064 0.964485
Si Si2 0.765102 0.776436 0.997221
Si Si3 0.943102 0.495188 0.099850
Si Si4 0.937104 0.062121 0.591177
Si Si5 0.106491 0.814868 0.229245
Si Si6 0.565376 0.992182 0.132599
Si Si7 0.285533 0.162494 0.395520
Si Si8 0.247778 0.581416 0.705044
O O1 0.578910 0.786118 0.977833
O O2 0.410495 0.802250 0.047215
O O3 0.270835 0.968395 0.671859
O O4 0.199134 0.579280 0.102803
O O5 0.836608 0.973059 0.742561
O O6 0.691277 0.604037 0.102503
O O7 0.971495 0.736591 0.183007
O O8 0.881807 0.275304 0.300172
O O9 0.871540 0.484129 0.180929
O O10 0.827015 0.664140 0.815410
O O11 0.198492 0.074396 0.689980
O O12 0.830444 0.914280 0.648732
O O13 0.361406 0.865284 0.247100
O O14 0.098145 0.675910 0.468420
O O15 0.000000 0.000000 0.000000
O O16 0.500000 0.000000 0.000000
O O17 0.535858 0.263042 0.368200
#
# Coordination Sequence:
#
# PCOD9070466 Si02
#       8
#     2   2   2   2   2   2   2   2
#     4  12  27  48  77 110 154 195 253 314 376 449
#     4  12  26  50  76 111 151 203 250 310 381 444
#     4  12  28  48  73 115 150 202 252 307 379 445
#     4  12  28  49  79 111 154 202 246 311 378 444
#     4  12  24  48  77 108 149 200 249 312 376 444
#     4  12  25  48  79 110 150 194 247 311 377 444
#     4  12  26  51  78 108 157 197 253 312 371 453
#     4  12  27  48  77 110 152 198 259 307 377 452
#
# _framework density 23.707682999999999
#
# number of rings (size 3 to 8) (size 9 to 14) (size 15 to 20)
#    0.000    0.000    6.250    2.625    3.500    1.500 
#    0.000    1.250    0.000    0.000    0.000    0.000 
#    0.000    0.000    0.000    0.000    0.000    0.000 
#
# Total GULP energy -89643.605905 kJ/mol
# GULP energy per Si atom -5602.725369 kJ/mol
# Density = 2.365372 g / cm^3
# Si number density = 23.707683 Si / 1000 Ang^3
#
#
#
# Elastic Constant Matrix: (Units=GPa)
#
#
# Indices 1 2 3 4 5 6 
#
# 1 123.1676 38.0932 25.7061 -5.7159 1.1033 -4.8996
# 2 38.0932 120.8880 38.0923 -3.6863 -4.5251 1.9673
# 3 25.7061 38.0923 108.9805 -20.7747 7.0451 -6.0138
# 4 -5.7159 -3.6863 -20.7747 32.3996 -2.9399 -6.6936
# 5 1.1033 -4.5251 7.0451 -2.9399 32.6106 -0.2957
# 6 -4.8996 1.9673 -6.0138 -6.6936 -0.2957 38.7455
#
#
#
# Elastic Compliance Matrix: (Units=1/GPa)
#
#
# Indices 1 2 3 4 5 6 
#
# 1 0.009229 -0.002601 -0.000995 0.000930 -0.000362 0.001303
# 2 -0.002601 0.010257 -0.003526 -0.001708 0.002104 -0.001676
# 3 -0.000995 -0.003526 0.012490 0.007903 -0.002411 0.003339
# 4 0.000930 -0.001708 0.007903 0.037680 0.001493 0.007952
# 5 -0.000362 0.002104 -0.002411 0.001493 0.031624 -0.000028
# 6 0.001303 -0.001676 0.003339 0.007952 -0.000028 0.027951
#
#
# Mechanical properties :
#
#
# Convention : Reuss Voigt Hill
#
# Bulk Modulus (GPa) = 56.39528 61.86882 59.13205
# Shear Modulus (GPa) = 33.47057 37.49413 35.48235
#
# Velocity S-wave (km/s) = 3.76147 3.98114 3.87287
# Velocity P-wave (km/s) = 6.53485 6.87647 6.70784
#
# Compressibility (1/GPa) = 0.01773198
#
# Stress axis : x y z
#
# Youngs Moduli (GPa) = 108.34903 97.49812 80.06712
#
# Poissons Ratio (x) = 0.25360 0.07968
# Poissons Ratio (y) = 0.28183 0.28228
# Poissons Ratio (z) = 0.10782 0.34373
#
# Static dielectric constant tensor:
#      x y z
#    x 1.887260 -0.003100 0.011510 
#    y -0.003100 1.919010 0.015030 
#    z 0.011510 0.015030 1.890870 
# 
# From -- ./inp_files/562899.got.cif
#   From: 2010.05.17/outbox.cif.g08.bks.cpg/sg2_282_cif.got.tgz:562899.got - 2010.06.03 11:33:40.
