data_PCOD9070544
_publ_section_title
;
Structure prediction by ZEFSAII (Michael W. Deem and Ramdas Pophale) SiO2 
 PCOD9070544
Probable space group: P -1
;
_chemical_formula_sum "Si O2"
_cell_formula_units_Z 15
_cell_length_a 8.887045
_cell_length_b 13.018024
_cell_length_c 9.539236
_cell_angle_alpha 65.364424
_cell_angle_beta 133.235981
_cell_angle_gamma 125.731565
_cell_volume 652.411734
_symmetry_space_group_name_H-M "P -1"
_symmetry_group_IT_number 2
_symmetry_cell_setting 'triclinic'
loop_
_space_group_symop_operation_xyz
x,y,z
-x,-y,-z
loop_
_atom_site_type_symbol
_atom_site_label
_atom_site_fract_x
_atom_site_fract_y
_atom_site_fract_z
Si Si1 0.199029 0.982056 0.056898
Si Si2 0.859457 0.711699 0.614804
Si Si3 0.500000 0.000000 0.500000
Si Si4 0.811999 0.250134 0.961190
Si Si5 0.504525 0.736802 0.592291
Si Si6 0.088876 0.524584 0.291371
Si Si7 0.330948 0.192153 0.794651
Si Si8 0.447490 0.618275 0.916402
O O1 0.412576 0.024483 0.274696
O O2 0.127383 0.838156 0.050523
O O3 0.243690 0.063100 0.897907
O O4 0.000000 0.000000 0.000000
O O5 0.683989 0.722186 0.609148
O O6 0.795399 0.567277 0.616968
O O7 0.854930 0.788136 0.430224
O O8 0.100932 0.760266 0.822693
O O9 0.483510 0.125819 0.479697
O O10 0.923496 0.393137 0.895207
O O11 0.539436 0.204533 0.821036
O O12 0.250172 0.630514 0.443662
O O13 0.546202 0.704319 0.794398
O O14 0.829356 0.435994 0.224767
O O15 0.437677 0.303723 0.914387
O O16 0.500000 0.500000 0.000000
#
# Coordination Sequence:
#
# PCOD9070544 Si02
#       8
#     2   2   1   2   2   2   2   2
#     4  12  28  48  78 106 146 192 249 307 368 437
#     4  12  26  47  76 111 148 193 248 301 372 444
#     4  12  24  50  74 106 148 186 244 304 364 430
#     4  12  26  47  74 108 148 197 245 302 371 435
#     4  12  25  46  78 108 146 199 246 308 369 433
#     4  12  25  46  76 109 150 197 245 307 371 441
#     4  12  27  49  72 108 146 197 240 307 366 444
#     4  12  27  44  71 110 153 190 249 306 366 441
#
# _framework density 22.991614999999999
#
# number of rings (size 3 to 8) (size 9 to 14) (size 15 to 20)
#    0.000    0.000    5.333    4.000    3.733    2.667 
#    0.000    0.000    0.000    0.000    0.000    0.000 
#    0.000    0.000    0.000    0.000    0.000    0.000 
#
# Total GULP energy -83765.460054 kJ/mol
# GULP energy per Si atom -5584.364004 kJ/mol
# Density = 2.293929 g / cm^3
# Si number density = 22.991615 Si / 1000 Ang^3
#
#
#
# Elastic Constant Matrix: (Units=GPa)
#
#
# Indices 1 2 3 4 5 6 
#
# 1 85.3418 34.9677 14.7697 -24.7729 -5.5195 -25.4535
# 2 34.9677 93.1903 27.7109 -34.2994 3.4826 -39.6941
# 3 14.7697 27.7109 160.9689 -24.9317 -9.2712 -11.4975
# 4 -24.7729 -34.2994 -24.9317 52.2729 -0.8568 4.9308
# 5 -5.5195 3.4826 -9.2712 -0.8568 26.4333 -5.1974
# 6 -25.4535 -39.6941 -11.4975 4.9308 -5.1974 40.5985
#
#
#
# Elastic Compliance Matrix: (Units=1/GPa)
#
#
# Indices 1 2 3 4 5 6 
#
# 1 0.017616 0.001311 0.000727 0.008498 0.006460 0.012327
# 2 0.001311 0.026828 -0.000381 0.015690 0.002090 0.025306
# 3 0.000727 -0.000381 0.007058 0.003316 0.003196 0.002089
# 4 0.008498 0.015690 0.003316 0.033403 0.005544 0.018261
# 5 0.006460 0.002090 0.003196 0.005544 0.042519 0.011768
# 6 0.012327 0.025306 0.002089 0.018261 0.011768 0.056983
#
#
# Mechanical properties :
#
#
# Convention : Reuss Voigt Hill
#
# Bulk Modulus (GPa) = 18.24278 54.93306 36.58792
# Shear Modulus (GPa) = 25.07962 41.33112 33.20537
#
# Velocity S-wave (km/s) = 3.30633 4.24448 3.80444
# Velocity P-wave (km/s) = 4.74632 6.92570 5.93687
#
# Compressibility (1/GPa) = 0.05481621
#
# Stress axis : x y z
#
# Youngs Moduli (GPa) = 56.76705 37.27445 141.68048
#
# Poissons Ratio (x) = -0.04886 -0.10297
# Poissons Ratio (y) = -0.07442 0.05392
# Poissons Ratio (z) = -0.04126 0.01419
#
# Static dielectric constant tensor:
#      x y z
#    x 2.446330 0.658420 -1.697700 
#    y 0.658420 2.513650 -1.753950 
#    z -1.697700 -1.753950 6.588360 
# 
# From -- ./inp_files/184647.got.cif
#   From: 2010.05.17/outbox.cif.g08.bks.cpg/sg2_93_cif.got.tgz:184647.got - 2010.06.03 11:33:40.
