data_PCOD9070458
_publ_section_title
;
Structure prediction by ZEFSAII (Michael W. Deem and Ramdas Pophale) SiO2 
 PCOD9070458
Probable space group: P -1
;
_chemical_formula_sum "Si O2"
_cell_formula_units_Z 15
_cell_length_a 11.967284
_cell_length_b 8.842915
_cell_length_c 8.995808
_cell_angle_alpha 95.394228
_cell_angle_beta 51.985247
_cell_angle_gamma 119.320087
_cell_volume 623.374623
_symmetry_space_group_name_H-M "P -1"
_symmetry_group_IT_number 2
_symmetry_cell_setting 'triclinic'
loop_
_space_group_symop_operation_xyz
x,y,z
-x,-y,-z
loop_
_atom_site_type_symbol
_atom_site_label
_atom_site_fract_x
_atom_site_fract_y
_atom_site_fract_z
Si Si1 0.404813 0.577202 0.670555
Si Si2 0.185414 0.695305 0.731871
Si Si3 0.500000 0.000000 0.000000
Si Si4 0.196953 0.901526 0.038444
Si Si5 0.660251 0.515068 0.945571
Si Si6 0.666759 0.995213 0.572072
Si Si7 0.035529 0.090134 0.317065
Si Si8 0.904992 0.426018 0.725052
O O1 0.500000 0.500000 0.500000
O O2 0.244563 0.562233 0.721369
O O3 0.531588 0.794214 0.606891
O O4 0.358617 0.487935 0.862937
O O5 0.006065 0.576882 0.783195
O O6 0.320270 0.842852 0.517903
O O7 0.179910 0.804080 0.887313
O O8 0.389794 0.001952 0.945522
O O9 0.368075 0.003359 0.225854
O O10 0.093920 0.741395 0.228929
O O11 0.122187 0.023998 0.125528
O O12 0.827248 0.694504 0.762392
O O13 0.706006 0.361902 0.868029
O O14 0.500000 0.500000 0.000000
O O15 0.854664 0.037163 0.401779
O O16 0.000000 0.000000 0.500000
O O17 0.000000 0.500000 0.500000
#
# Coordination Sequence:
#
# PCOD9070458 Si02
#       8
#     2   2   1   2   2   2   2   2
#     4  12  30  49  76 116 162 204 258 336 395 474
#     4  12  27  50  78 113 155 209 268 321 406 469
#     4  12  24  48  76 114 150 212 262 316 392 474
#     4  12  27  44  79 108 160 201 258 329 391 475
#     4  12  28  51  77 116 155 203 264 324 396 470
#     4  12  26  51  79 115 157 207 269 318 403 473
#     4  12  26  47  77 118 154 203 261 330 385 470
#     4  12  26  49  77 112 151 211 259 326 394 475
#
# _framework density 24.062577000000001
#
# number of rings (size 3 to 8) (size 9 to 14) (size 15 to 20)
#    0.000    0.000    5.333    3.200    7.467    0.533 
#    0.000    0.000    0.000    0.000    0.000    0.000 
#    0.000    0.000    0.000    0.000    0.000    0.000 
#
# Total GULP energy -83826.394417 kJ/mol
# GULP energy per Si atom -5588.426294 kJ/mol
# Density = 2.400781 g / cm^3
# Si number density = 24.062577 Si / 1000 Ang^3
#
#
#
# Elastic Constant Matrix: (Units=GPa)
#
#
# Indices 1 2 3 4 5 6 
#
# 1 157.4517 20.0024 43.1673 9.6606 -7.8786 10.4405
# 2 20.0024 46.4496 6.4837 10.8014 -1.1361 2.7526
# 3 43.1673 6.4837 112.0484 10.3290 3.3738 -0.0187
# 4 9.6606 10.8014 10.3290 62.7892 -9.2308 -1.5209
# 5 -7.8786 -1.1361 3.3738 -9.2308 47.4396 -4.5476
# 6 10.4405 2.7526 -0.0187 -1.5209 -4.5476 43.6296
#
#
#
# Elastic Compliance Matrix: (Units=1/GPa)
#
#
# Indices 1 2 3 4 5 6 
#
# 1 0.007642 -0.002755 -0.002813 -0.000094 0.001238 -0.001530
# 2 -0.002755 0.023630 0.000065 -0.003785 -0.000732 -0.001040
# 3 -0.002813 0.000065 0.010182 -0.001451 -0.001427 0.000474
# 4 -0.000094 -0.003785 -0.001451 0.017374 0.003496 0.001231
# 5 0.001238 -0.000732 -0.001427 0.003496 0.022259 0.002191
# 6 -0.001530 -0.001040 0.000474 0.001231 0.002191 0.023624
#
#
# Mechanical properties :
#
#
# Convention : Reuss Voigt Hill
#
# Bulk Modulus (GPa) = 32.84534 50.58404 41.71469
# Shear Modulus (GPa) = 39.72463 47.19142 43.45803
#
# Velocity S-wave (km/s) = 4.06752 4.43334 4.25437
# Velocity P-wave (km/s) = 5.97823 6.87558 6.44255
#
# Compressibility (1/GPa) = 0.03044572
#
# Stress axis : x y z
#
# Youngs Moduli (GPa) = 130.86087 42.31934 98.21533
#
# Poissons Ratio (x) = 0.11660 0.27632
# Poissons Ratio (y) = 0.36054 -0.00637
# Poissons Ratio (z) = 0.36817 -0.00274
#
# Static dielectric constant tensor:
#      x y z
#    x 1.980830 0.200390 -0.008410 
#    y 0.200390 2.641450 -0.018940 
#    z -0.008410 -0.018940 1.843640 
# 
# From -- ./inp_files/160254.got.cif
#   From: 2010.05.17/outbox.cif.g08.bks.cpg/sg2_81_cif.got.tgz:160254.got - 2010.06.03 11:33:40.
