data_PCOD9070939
_publ_section_title
;
Structure prediction by ZEFSAII (Michael W. Deem and Ramdas Pophale) SiO2 
 PCOD9070939
Probable space group: P -1
;
_chemical_formula_sum "Si O2"
_cell_formula_units_Z 12
_cell_length_a 15.469975
_cell_length_b 9.828238
_cell_length_c 12.756392
_cell_angle_alpha 140.715773
_cell_angle_beta 153.597597
_cell_angle_gamma 48.088964
_cell_volume 543.865457
_symmetry_space_group_name_H-M "P -1"
_symmetry_group_IT_number 2
_symmetry_cell_setting 'triclinic'
loop_
_space_group_symop_operation_xyz
x,y,z
-x,-y,-z
loop_
_atom_site_type_symbol
_atom_site_label
_atom_site_fract_x
_atom_site_fract_y
_atom_site_fract_z
Si Si1 0.967717 0.766493 0.375960
Si Si2 0.424171 0.535302 0.246773
Si Si3 0.066866 0.756893 0.717283
Si Si4 0.811456 0.384891 0.664770
Si Si5 0.764524 0.079099 0.616698
Si Si6 0.488675 0.695453 0.185061
O O1 0.054831 0.785086 0.597026
O O2 0.101388 0.632698 0.366926
O O3 0.740776 0.666582 0.070529
O O4 0.000000 0.000000 0.500000
O O5 0.606076 0.490844 0.493236
O O6 0.291690 0.713614 0.256422
O O7 0.522620 0.615627 0.291782
O O8 0.000000 0.500000 0.500000
O O9 0.275333 0.772849 0.004253
O O10 0.957822 0.953449 0.763569
O O11 0.761183 0.162117 0.542087
O O12 0.000000 0.500000 0.000000
O O13 0.613193 0.890756 0.382213
O O14 0.500000 0.500000 0.000000
#
# Coordination Sequence:
#
# PCOD9070939 Si02
#       6
#     2   2   2   2   2   2
#     4  12  26  46  73 109 142 191 240 293 360 429
#     4  12  28  48  73 108 145 191 246 294 362 428
#     4  12  25  48  73 105 149 187 240 294 361 428
#     4  12  28  49  73 104 147 188 242 304 357 428
#     4  12  27  46  74 105 144 193 236 300 360 423
#     4  12  26  48  73 106 147 189 240 298 355 431
#
# _framework density 22.064278999999999
#
# number of rings (size 3 to 8) (size 9 to 14) (size 15 to 20)
#    0.000    0.000    6.667    2.000    4.667    1.333 
#    0.000    0.000    0.000    0.000    0.000    0.000 
#    0.000    0.000    0.000    0.000    0.000    0.000 
#
# Total GULP energy -66939.205324 kJ/mol
# GULP energy per Si atom -5578.267110 kJ/mol
# Density = 2.201406 g / cm^3
# Si number density = 22.064279 Si / 1000 Ang^3
#
#
#
# Elastic Constant Matrix: (Units=GPa)
#
#
# Indices 1 2 3 4 5 6 
#
# 1 75.1307 36.4371 10.8731 -0.9102 9.9780 11.9598
# 2 36.4371 163.6368 42.4038 -15.1883 11.1735 1.4990
# 3 10.8731 42.4038 63.9244 -5.6683 14.6530 12.7244
# 4 -0.9102 -15.1883 -5.6683 39.6946 1.8111 9.9093
# 5 9.9780 11.1735 14.6530 1.8111 34.2680 10.1119
# 6 11.9598 1.4990 12.7244 9.9093 10.1119 61.4471
#
#
#
# Elastic Compliance Matrix: (Units=1/GPa)
#
#
# Indices 1 2 3 4 5 6 
#
# 1 0.015701 -0.003494 0.000860 -0.000057 -0.003017 -0.002643
# 2 -0.003494 0.008372 -0.004998 0.002118 -0.000034 0.001175
# 3 0.000860 -0.004998 0.021317 0.002392 -0.006761 -0.003733
# 4 -0.000057 0.002118 0.002392 0.027596 -0.001770 -0.004695
# 5 -0.003017 -0.000034 -0.006761 -0.001770 0.034038 -0.003328
# 6 -0.002643 0.001175 -0.003733 -0.004695 -0.003328 0.018838
#
#
# Mechanical properties :
#
#
# Convention : Reuss Voigt Hill
#
# Bulk Modulus (GPa) = 33.19276 53.56887 43.38082
# Shear Modulus (GPa) = 33.07578 41.28048 37.17813
#
# Velocity S-wave (km/s) = 3.87598 4.33010 4.10932
# Velocity P-wave (km/s) = 5.92514 7.02360 6.49762
#
# Compressibility (1/GPa) = 0.03012705
#
# Stress axis : x y z
#
# Youngs Moduli (GPa) = 63.69021 119.44137 46.91019
#
# Poissons Ratio (x) = 0.41732 -0.04033
# Poissons Ratio (y) = 0.22253 0.23444
# Poissons Ratio (z) = -0.05476 0.59692
#
# Static dielectric constant tensor:
#      x y z
#    x 1.820750 -0.039170 0.006960 
#    y -0.039170 1.807690 0.058230 
#    z 0.006960 0.058230 1.834770 
# 
# From -- ./inp_files/90223.got.cif
#   From: 2010.05.17/outbox.cif.g08.bks.cpg/sg2_46_cif.got.tgz:90223.got - 2010.06.03 11:33:40.
