data_PCOD9070036
_publ_section_title
;
Structure prediction by ZEFSAII (Michael W. Deem and Ramdas Pophale) SiO2 
 PCOD9070036
Probable space group: P -1
;
_chemical_formula_sum "Si O2"
_cell_formula_units_Z 16
_cell_length_a 12.552086
_cell_length_b 15.195671
_cell_length_c 15.593337
_cell_angle_alpha 150.910494
_cell_angle_beta 141.426062
_cell_angle_gamma 59.805299
_cell_volume 724.917428
_symmetry_space_group_name_H-M "P -1"
_symmetry_group_IT_number 2
_symmetry_cell_setting 'triclinic'
loop_
_space_group_symop_operation_xyz
x,y,z
-x,-y,-z
loop_
_atom_site_type_symbol
_atom_site_label
_atom_site_fract_x
_atom_site_fract_y
_atom_site_fract_z
Si Si1 0.597188 0.984991 0.633940
Si Si2 0.922056 0.313121 0.366760
Si Si3 0.994000 0.011234 0.904143
Si Si4 0.915401 0.313650 0.712620
Si Si5 0.503669 0.851929 0.125175
Si Si6 0.282214 0.743481 0.643350
Si Si7 0.627320 0.526344 0.877566
Si Si8 0.569388 0.552729 0.491278
O O1 0.486840 0.727380 0.375667
O O2 0.500000 0.000000 0.500000
O O3 0.838162 0.077619 0.844552
O O4 0.566958 0.118432 0.801026
O O5 0.909057 0.321944 0.468841
O O6 0.000000 0.500000 0.500000
O O7 0.670288 0.159003 0.053930
O O8 0.060365 0.221105 0.360685
O O9 0.229251 0.192025 0.172575
O O10 0.000000 0.000000 0.000000
O O11 0.807034 0.329142 0.571771
O O12 0.734373 0.075662 0.437865
O O13 0.000000 0.500000 0.000000
O O14 0.122097 0.332116 0.827560
O O15 0.524344 0.648220 0.951651
O O16 0.349430 0.596625 0.601798
O O17 0.500000 0.000000 0.000000
O O18 0.594481 0.503475 0.734180
O O19 0.500000 0.500000 0.500000
#
# Coordination Sequence:
#
# PCOD9070036 Si02
#       8
#     2   2   2   2   2   2   2   2
#     4  12  29  47  72 107 153 201 255 312 383 465
#     4  12  24  44  76 108 147 192 256 320 374 444
#     4  12  24  45  74 104 147 201 249 313 385 446
#     4  12  26  46  76 109 159 203 246 317 395 456
#     4  12  25  47  76 106 151 199 249 320 382 446
#     4  12  25  45  73 109 144 194 259 308 369 457
#     4  12  25  48  74 108 151 200 250 316 389 450
#     4  12  25  42  74 109 145 193 259 308 373 459
#
# _framework density 22.071479
#
# number of rings (size 3 to 8) (size 9 to 14) (size 15 to 20)
#    0.000    0.000    6.250    3.375    1.750    2.500 
#    0.000    0.000    0.000    0.000    0.000    0.000 
#    0.000    0.000    0.000    0.000    0.000    0.000 
#
# Total GULP energy -89368.185151 kJ/mol
# GULP energy per Si atom -5585.511572 kJ/mol
# Density = 2.202124 g / cm^3
# Si number density = 22.071479 Si / 1000 Ang^3
#
#
#
# Elastic Constant Matrix: (Units=GPa)
#
#
# Indices 1 2 3 4 5 6 
#
# 1 134.2032 34.4176 23.6602 7.3448 -17.7704 4.5963
# 2 34.4176 115.9522 29.2273 -15.2275 -16.8622 4.3107
# 3 23.6602 29.2273 82.6350 -5.1739 6.7461 6.5860
# 4 7.3448 -15.2275 -5.1739 43.4134 1.1600 -0.0386
# 5 -17.7704 -16.8622 6.7461 1.1600 42.4989 -7.3570
# 6 4.5963 4.3107 6.5860 -0.0386 -7.3570 47.9679
#
#
#
# Elastic Compliance Matrix: (Units=1/GPa)
#
#
# Indices 1 2 3 4 5 6 
#
# 1 0.008944 -0.001903 -0.002343 -0.002552 0.003454 0.000163
# 2 -0.001903 0.011157 -0.003532 0.003704 0.004143 0.000303
# 3 -0.002343 -0.003532 0.014686 0.001043 -0.005132 -0.002261
# 4 -0.002552 0.003704 0.001043 0.024903 -0.000492 -0.000287
# 5 0.003454 0.004143 -0.005132 -0.000492 0.028195 0.004325
# 6 0.000163 0.000303 -0.002261 -0.000287 0.004325 0.021778
#
#
# Mechanical properties :
#
#
# Convention : Reuss Voigt Hill
#
# Bulk Modulus (GPa) = 51.99707 56.37785 54.18746
# Shear Modulus (GPa) = 37.98598 43.14173 40.56386
#
# Velocity S-wave (km/s) = 4.15305 4.42592 4.29165
# Velocity P-wave (km/s) = 6.82691 7.19146 7.01156
#
# Compressibility (1/GPa) = 0.01923185
#
# Stress axis : x y z
#
# Youngs Moduli (GPa) = 111.80718 89.62976 68.09363
#
# Poissons Ratio (x) = 0.17058 0.15951
# Poissons Ratio (y) = 0.21279 0.24048
# Poissons Ratio (z) = 0.26191 0.31654
#
# Static dielectric constant tensor:
#      x y z
#    x 1.659080 -0.047190 -0.124800 
#    y -0.047190 1.750170 0.020140 
#    z -0.124800 0.020140 1.875030 
# 
# From -- ./inp_files/522707.got.cif
#   From: 2010.05.17/outbox.cif.g08.bks.cpg/sg2_262_cif.got.tgz:522707.got - 2010.06.03 11:33:40.
