data_PCOD9070536
_publ_section_title
;
Structure prediction by ZEFSAII (Michael W. Deem and Ramdas Pophale) SiO2 
 PCOD9070536
Probable space group: P -1
;
_chemical_formula_sum "Si O2"
_cell_formula_units_Z 13
_cell_length_a 9.151042
_cell_length_b 21.682010
_cell_length_c 12.327501
_cell_angle_alpha 26.901710
_cell_angle_beta 140.582737
_cell_angle_gamma 148.551289
_cell_volume 576.683578
_symmetry_space_group_name_H-M "P -1"
_symmetry_group_IT_number 2
_symmetry_cell_setting 'triclinic'
loop_
_space_group_symop_operation_xyz
x,y,z
-x,-y,-z
loop_
_atom_site_type_symbol
_atom_site_label
_atom_site_fract_x
_atom_site_fract_y
_atom_site_fract_z
Si Si1 0.980402 0.605192 0.594432
Si Si2 0.289639 0.704170 0.928847
Si Si3 0.749384 0.511745 0.374804
Si Si4 0.526682 0.696101 0.842636
Si Si5 0.836789 0.042558 0.759956
Si Si6 0.854513 0.788265 0.536519
Si Si7 0.000000 0.000000 0.500000
O O1 0.845636 0.595255 0.417461
O O2 0.258869 0.604387 0.752237
O O3 0.092795 0.781422 0.437095
O O4 0.760476 0.445341 0.791523
O O5 0.400867 0.700466 0.880322
O O6 0.999662 0.688670 0.779634
O O7 0.514396 0.887110 0.819022
O O8 0.459517 0.331499 0.500254
O O9 0.000000 0.500000 0.500000
O O10 0.684702 0.609559 0.098748
O O11 0.751178 0.873548 0.641820
O O12 0.961287 0.069129 0.669652
O O13 0.000000 0.000000 0.000000
O O14 0.855786 0.854703 0.550709
#
# Coordination Sequence:
#
# PCOD9070536 Si02
#       7
#     2   2   2   2   2   2   1
#     4  12  26  48  81 116 151 207 266 326 397 465
#     4  12  24  49  83 115 155 204 270 334 385 466
#     4  12  29  49  75 115 161 206 264 324 403 482
#     4  12  25  52  77 110 155 210 265 322 394 477
#     4  12  25  45  77 121 158 198 260 336 394 460
#     4  12  25  50  77 115 156 209 266 325 400 468
#     4  12  28  44  80 108 160 212 252 316 398 484
#
# _framework density 22.542691000000001
#
# number of rings (size 3 to 8) (size 9 to 14) (size 15 to 20)
#    0.000    0.000    4.615    5.538    2.154    3.077 
#    2.769    1.538    0.000    0.000    0.000    0.000 
#    0.000    0.000    0.000    0.000    0.000    0.000 
#
# Total GULP energy -72529.520159 kJ/mol
# GULP energy per Si atom -5579.193858 kJ/mol
# Density = 2.249138 g / cm^3
# Si number density = 22.542691 Si / 1000 Ang^3
#
#
#
# Elastic Constant Matrix: (Units=GPa)
#
#
# Indices 1 2 3 4 5 6 
#
# 1 96.5437 51.4023 30.6791 -0.8262 5.2170 -3.0836
# 2 51.4023 151.8648 44.7889 -14.1768 7.4570 6.8666
# 3 30.6791 44.7889 88.1648 4.0165 0.2765 10.7118
# 4 -0.8262 -14.1768 4.0165 44.8286 15.6049 -1.9675
# 5 5.2170 7.4570 0.2765 15.6049 27.9988 -4.8637
# 6 -3.0836 6.8666 10.7118 -1.9675 -4.8637 49.0640
#
#
#
# Elastic Compliance Matrix: (Units=1/GPa)
#
#
# Indices 1 2 3 4 5 6 
#
# 1 0.013399 -0.003707 -0.002998 -0.000215 -0.001029 0.001905
# 2 -0.003707 0.009678 -0.003709 0.004946 -0.004790 -0.001054
# 3 -0.002998 -0.003709 0.014763 -0.003713 0.002993 -0.002745
# 4 -0.000215 0.004946 -0.003713 0.030571 -0.018364 -0.000489
# 5 -0.001029 -0.004790 0.002993 -0.018364 0.048080 0.003982
# 6 0.001905 -0.001054 -0.002745 -0.000489 0.003982 0.021623
#
#
# Mechanical properties :
#
#
# Convention : Reuss Voigt Hill
#
# Bulk Modulus (GPa) = 58.77891 65.59044 62.18468
# Shear Modulus (GPa) = 30.37456 38.35849 34.36652
#
# Velocity S-wave (km/s) = 3.67471 4.12951 3.90873
# Velocity P-wave (km/s) = 6.64347 7.20392 6.92936
#
# Compressibility (1/GPa) = 0.01701290
#
# Stress axis : x y z
#
# Youngs Moduli (GPa) = 74.63382 103.32969 67.73724
#
# Poissons Ratio (x) = 0.38301 0.20306
# Poissons Ratio (y) = 0.27664 0.25123
# Poissons Ratio (z) = 0.22374 0.38323
#
# Static dielectric constant tensor:
#      x y z
#    x 1.840660 -0.006820 0.040020 
#    y -0.006820 1.874540 -0.027540 
#    z 0.040020 -0.027540 1.863240 
# 
# From -- ./inp_files/308869.got.cif
#   From: 2010.05.17/outbox.cif.g08.bks.cpg/sg2_155_cif.got.tgz:308869.got - 2010.06.03 11:33:40.
