data_PCOD9070572
_publ_section_title
;
Structure prediction by ZEFSAII (Michael W. Deem and Ramdas Pophale) SiO2 
 PCOD9070572
Probable space group: P -1
;
_chemical_formula_sum "Si O2"
_cell_formula_units_Z 16
_cell_length_a 8.609620
_cell_length_b 16.264063
_cell_length_c 14.016269
_cell_angle_alpha 136.466738
_cell_angle_beta 151.124554
_cell_angle_gamma 44.661020
_cell_volume 635.337918
_symmetry_space_group_name_H-M "P -1"
_symmetry_group_IT_number 2
_symmetry_cell_setting 'triclinic'
loop_
_space_group_symop_operation_xyz
x,y,z
-x,-y,-z
loop_
_atom_site_type_symbol
_atom_site_label
_atom_site_fract_x
_atom_site_fract_y
_atom_site_fract_z
Si Si1 0.619504 0.561921 0.860454
Si Si2 0.812527 0.510697 0.118034
Si Si3 0.179961 0.932907 0.446938
Si Si4 0.914544 0.754039 0.907259
Si Si5 0.148160 0.981856 0.169211
Si Si6 0.073154 0.678175 0.537054
Si Si7 0.245584 0.897421 0.767854
Si Si8 0.359478 0.318163 0.502772
O O1 0.430730 0.658405 0.764321
O O2 0.426924 0.452903 0.653781
O O3 0.646150 0.596690 0.013732
O O4 0.000000 0.500000 0.000000
O O5 0.971334 0.366270 0.066395
O O6 0.047671 0.570423 0.360296
O O7 0.500000 0.500000 0.000000
O O8 0.307474 0.788385 0.408416
O O9 0.503686 0.977553 0.619171
O O10 0.000000 0.000000 0.500000
O O11 0.897093 0.974252 0.252384
O O12 0.583695 0.835525 0.845103
O O13 0.830422 0.707193 0.716790
O O14 0.163713 0.843691 0.099110
O O15 0.864735 0.069366 0.154802
O O16 0.000000 0.000000 0.000000
O O17 0.024202 0.798301 0.547350
O O18 0.828722 0.690445 0.506041
#
# Coordination Sequence:
#
# PCOD9070572 Si02
#       8
#     2   2   2   2   2   2   2   2
#     4  12  28  48  74 113 148 199 256 316 386 454
#     4  12  27  46  78 110 146 206 257 310 389 457
#     4  12  26  48  73 109 146 199 252 307 383 452
#     4  12  26  47  73 111 153 199 253 319 379 454
#     4  12  25  48  73 108 148 197 257 305 380 452
#     4  12  26  51  76 109 156 199 258 317 382 457
#     4  12  27  47  75 108 151 203 245 317 381 450
#     4  12  24  51  71 105 158 197 248 325 378 447
#
# _framework density 25.183450000000001
#
# number of rings (size 3 to 8) (size 9 to 14) (size 15 to 20)
#    0.000    0.000    6.250    2.625    5.250    1.000 
#    6.750    0.000    0.000    0.000    0.000    0.000 
#    0.000    0.000    0.000    0.000    0.000    0.000 
#
# Total GULP energy -89410.822190 kJ/mol
# GULP energy per Si atom -5588.176387 kJ/mol
# Density = 2.512613 g / cm^3
# Si number density = 25.183450 Si / 1000 Ang^3
#
#
#
# Elastic Constant Matrix: (Units=GPa)
#
#
# Indices 1 2 3 4 5 6 
#
# 1 97.9781 -4.7412 22.6120 8.2177 -0.7219 -22.5213
# 2 -4.7412 98.9319 9.3905 -4.1543 -7.3029 -8.0686
# 3 22.6120 9.3905 69.3987 7.7198 -16.7815 -8.6827
# 4 8.2177 -4.1543 7.7198 40.1338 5.7097 8.3455
# 5 -0.7219 -7.3029 -16.7815 5.7097 40.0747 -6.0746
# 6 -22.5213 -8.0686 -8.6827 8.3455 -6.0746 40.7053
#
#
#
# Elastic Compliance Matrix: (Units=1/GPa)
#
#
# Indices 1 2 3 4 5 6 
#
# 1 0.013046 0.001449 -0.002793 -0.003764 0.001054 0.007839
# 2 0.001449 0.010670 -0.001092 0.000129 0.001942 0.002947
# 3 -0.002793 -0.001092 0.018884 -0.005465 0.009158 0.004754
# 4 -0.003764 0.000129 -0.005465 0.030134 -0.008238 -0.010630
# 5 0.001054 0.001942 0.009158 -0.008238 0.031752 0.009349
# 6 0.007839 0.002947 0.004754 -0.010630 0.009349 0.034077
#
#
# Mechanical properties :
#
#
# Convention : Reuss Voigt Hill
#
# Bulk Modulus (GPa) = 26.50391 35.64794 31.07592
# Shear Modulus (GPa) = 32.04897 40.11926 36.08411
#
# Velocity S-wave (km/s) = 3.57125 3.99567 3.78941
# Velocity P-wave (km/s) = 5.24903 5.95594 5.61362
#
# Compressibility (1/GPa) = 0.03773028
#
# Stress axis : x y z
#
# Youngs Moduli (GPa) = 76.65003 93.71903 52.95401
#
# Poissons Ratio (x) = -0.13583 0.14788
# Poissons Ratio (y) = -0.11109 0.05783
# Poissons Ratio (z) = 0.21405 0.10235
#
# Static dielectric constant tensor:
#      x y z
#    x 2.048910 -0.029580 0.014620 
#    y -0.029580 1.925900 -0.004720 
#    z 0.014620 -0.004720 2.021360 
# 
# From -- ./inp_files/507310.got.cif
#   From: 2010.05.17/outbox.cif.g08.bks.cpg/sg2_254_cif.got.tgz:507310.got - 2010.06.03 11:33:40.
