data_PCOD9070469
_publ_section_title
;
Structure prediction by ZEFSAII (Michael W. Deem and Ramdas Pophale) SiO2 
 PCOD9070469
Probable space group: P -1
;
_chemical_formula_sum "Si O2"
_cell_formula_units_Z 16
_cell_length_a 26.731436
_cell_length_b 11.769618
_cell_length_c 5.678604
_cell_angle_alpha 47.968623
_cell_angle_beta 57.301897
_cell_angle_gamma 30.205403
_cell_volume 664.099976
_symmetry_space_group_name_H-M "P -1"
_symmetry_group_IT_number 2
_symmetry_cell_setting 'triclinic'
loop_
_space_group_symop_operation_xyz
x,y,z
-x,-y,-z
loop_
_atom_site_type_symbol
_atom_site_label
_atom_site_fract_x
_atom_site_fract_y
_atom_site_fract_z
Si Si1 0.451929 0.814209 0.264827
Si Si2 0.564339 0.565736 0.828543
Si Si3 0.790529 0.565515 0.426288
Si Si4 0.898858 0.783841 0.267617
Si Si5 0.180691 0.788158 0.827870
Si Si6 0.010756 0.143484 0.393257
Si Si7 0.288503 0.008651 0.669223
Si Si8 0.343008 0.336683 0.713192
O O1 0.506265 0.674181 0.574322
O O2 0.348488 0.934876 0.386348
O O3 0.505777 0.662586 0.091184
O O4 0.423804 0.051529 0.999338
O O5 0.608336 0.646458 0.616250
O O6 0.652007 0.260138 0.014031
O O7 0.896143 0.429997 0.313880
O O8 0.741952 0.595709 0.276119
O O9 0.714339 0.837528 0.369048
O O10 0.812208 0.370539 0.797074
O O11 0.000000 0.500000 0.500000
O O12 0.833005 0.018536 0.291333
O O13 0.824909 0.806213 0.338226
O O14 0.931562 0.845483 0.912710
O O15 0.282903 0.565456 0.731284
O O16 0.078523 0.978736 0.677370
O O17 0.000000 0.000000 0.500000
#
# Coordination Sequence:
#
# PCOD9070469 Si02
#       8
#     2   2   2   2   2   2   2   2
#     4  12  28  53  83 117 162 216 272 339 410 485
#     4  12  29  53  83 119 164 210 278 341 408 476
#     4  12  26  46  80 112 157 207 269 322 401 481
#     4  12  30  50  77 121 158 207 259 327 402 480
#     4  12  24  48  77 109 156 208 263 323 395 476
#     4  12  25  46  75 112 154 206 261 317 392 476
#     4  12  28  52  78 117 160 213 264 332 409 482
#     4  12  27  48  81 118 149 211 269 336 399 479
#
# _framework density 24.092758
#
# number of rings (size 3 to 8) (size 9 to 14) (size 15 to 20)
#    0.000    0.000    3.750    4.875    7.000    4.000 
#    2.250    0.000    0.000    0.000    0.000    0.000 
#    0.000    0.000    0.000    0.000    0.000    0.000 
#
# Total GULP energy -89598.554379 kJ/mol
# GULP energy per Si atom -5599.909649 kJ/mol
# Density = 2.403792 g / cm^3
# Si number density = 24.092758 Si / 1000 Ang^3
#
#
#
# Elastic Constant Matrix: (Units=GPa)
#
#
# Indices 1 2 3 4 5 6 
#
# 1 71.3968 27.9911 17.7997 -10.5029 -2.1976 6.9415
# 2 27.9911 136.3504 38.6924 -5.3596 2.3634 16.8614
# 3 17.7997 38.6924 101.7002 -22.8605 5.9228 -1.9234
# 4 -10.5029 -5.3596 -22.8605 46.3457 -1.6535 -8.0923
# 5 -2.1976 2.3634 5.9228 -1.6535 39.5655 -0.2991
# 6 6.9415 16.8614 -1.9234 -8.0923 -0.2991 43.5088
#
#
#
# Elastic Compliance Matrix: (Units=1/GPa)
#
#
# Indices 1 2 3 4 5 6 
#
# 1 0.015898 -0.002688 -0.001293 0.002514 0.001334 -0.001075
# 2 -0.002688 0.009277 -0.003549 -0.001940 -0.000281 -0.003686
# 3 -0.001293 -0.003549 0.012955 0.006209 -0.001515 0.003299
# 4 0.002514 -0.001940 0.006209 0.025954 0.000452 0.005456
# 5 0.001334 -0.000281 -0.001515 0.000452 0.025612 0.000089
# 6 -0.001075 -0.003686 0.003299 0.005456 0.000089 0.025745
#
#
# Mechanical properties :
#
#
# Convention : Reuss Voigt Hill
#
# Bulk Modulus (GPa) = 43.34302 53.15711 48.25006
# Shear Modulus (GPa) = 36.18193 40.88160 38.53177
#
# Velocity S-wave (km/s) = 3.87948 4.12374 4.00347
# Velocity P-wave (km/s) = 6.17222 6.69217 6.43744
#
# Compressibility (1/GPa) = 0.02307176
#
# Stress axis : x y z
#
# Youngs Moduli (GPa) = 62.90175 107.78951 77.18774
#
# Poissons Ratio (x) = 0.28976 0.09977
# Poissons Ratio (y) = 0.16909 0.27391
# Poissons Ratio (z) = 0.08131 0.38250
#
# Static dielectric constant tensor:
#      x y z
#    x 2.059700 -0.006580 -0.006810 
#    y -0.006580 1.976560 0.033940 
#    z -0.006810 0.033940 1.930970 
# 
# From -- ./inp_files/124670.got.cif
#   From: 2010.05.17/outbox.cif.g08.bks.cpg/sg2_63_cif.got.tgz:124670.got - 2010.06.03 11:33:40.
