data_PCOD9070213
_publ_section_title
;
Structure prediction by ZEFSAII (Michael W. Deem and Ramdas Pophale) SiO2 
 PCOD9070213
Probable space group: P -1
;
_chemical_formula_sum "Si O2"
_cell_formula_units_Z 16
_cell_length_a 12.794632
_cell_length_b 15.565853
_cell_length_c 16.585226
_cell_angle_alpha 145.121900
_cell_angle_beta 157.021239
_cell_angle_gamma 30.207444
_cell_volume 643.622445
_symmetry_space_group_name_H-M "P -1"
_symmetry_group_IT_number 2
_symmetry_cell_setting 'triclinic'
loop_
_space_group_symop_operation_xyz
x,y,z
-x,-y,-z
loop_
_atom_site_type_symbol
_atom_site_label
_atom_site_fract_x
_atom_site_fract_y
_atom_site_fract_z
Si Si1 0.274848 0.458189 0.859402
Si Si2 0.360374 0.141982 0.440500
Si Si3 0.063058 0.308143 0.902474
Si Si4 0.869139 0.375169 0.394194
Si Si5 0.401145 0.943875 0.161559
Si Si6 0.117499 0.932513 0.443832
Si Si7 0.786635 0.317534 0.871736
Si Si8 0.275951 0.901073 0.861674
O O1 0.452420 0.261564 0.871780
O O2 0.022103 0.458427 0.621619
O O3 0.500000 0.500000 0.000000
O O4 0.122236 0.623593 0.936659
O O5 0.626009 0.196141 0.656613
O O6 0.068154 0.300656 0.397042
O O7 0.500000 0.000000 0.500000
O O8 0.264458 0.058138 0.234093
O O9 0.795264 0.268068 0.651062
O O10 0.058786 0.274686 0.969441
O O11 0.360635 0.199290 0.974994
O O12 0.000000 0.500000 0.000000
O O13 0.515820 0.502183 0.225268
O O14 0.874266 0.220703 0.328656
O O15 0.226315 0.979768 0.978468
O O16 0.649293 0.003250 0.364090
O O17 0.854917 0.010377 0.249147
O O18 0.000000 0.000000 0.500000
#
# Coordination Sequence:
#
# PCOD9070213 Si02
#       8
#     2   2   2   2   2   2   2   2
#     4  12  24  46  75 105 151 202 242 307 376 438
#     4  12  24  46  76 107 147 194 252 309 368 444
#     4  12  25  48  76 107 150 193 247 312 367 449
#     4  12  25  46  75 104 153 198 247 307 377 440
#     4  12  24  46  75 110 149 197 250 311 371 440
#     4  12  26  49  79 105 150 197 249 314 376 443
#     4  12  26  48  70 109 151 194 248 310 373 443
#     4  12  26  49  77 110 152 199 252 309 381 444
#
# _framework density 24.859293999999998
#
# number of rings (size 3 to 8) (size 9 to 14) (size 15 to 20)
#    0.000    0.000    8.750    0.750    0.000    0.500 
#    4.500    1.250    0.000    0.000    0.000    0.000 
#    0.000    0.000    0.000    0.000    0.000    0.000 
#
# Total GULP energy -89411.094027 kJ/mol
# GULP energy per Si atom -5588.193377 kJ/mol
# Density = 2.480271 g / cm^3
# Si number density = 24.859294 Si / 1000 Ang^3
#
#
#
# Elastic Constant Matrix: (Units=GPa)
#
#
# Indices 1 2 3 4 5 6 
#
# 1 157.2144 26.4486 56.7004 26.1724 -21.0215 -2.6397
# 2 26.4486 70.1303 37.3523 26.0399 -12.4908 7.9753
# 3 56.7004 37.3523 161.0729 38.2092 -9.6432 1.3171
# 4 26.1724 26.0399 38.2092 55.6107 2.5199 2.8095
# 5 -21.0215 -12.4908 -9.6432 2.5199 59.4514 12.3054
# 6 -2.6397 7.9753 1.3171 2.8095 12.3054 44.6089
#
#
#
# Elastic Compliance Matrix: (Units=1/GPa)
#
#
# Indices 1 2 3 4 5 6 
#
# 1 0.007862 -0.000725 -0.001952 -0.002133 0.002374 0.000132
# 2 -0.000725 0.019826 -0.002272 -0.007376 0.004757 -0.004368
# 3 -0.001952 -0.002272 0.008332 -0.003766 0.000302 0.000198
# 4 -0.002133 -0.007376 -0.003766 0.025172 -0.004161 0.000866
# 5 0.002374 0.004757 0.000302 -0.004161 0.020129 -0.006009
# 6 0.000132 -0.004368 0.000198 0.000866 -0.006009 0.024803
#
#
# Mechanical properties :
#
#
# Convention : Reuss Voigt Hill
#
# Bulk Modulus (GPa) = 38.28387 69.93558 54.10972
# Shear Modulus (GPa) = 40.08692 49.79528 44.94110
#
# Velocity S-wave (km/s) = 4.02002 4.48044 4.25646
# Velocity P-wave (km/s) = 6.08120 7.41346 6.78013
#
# Compressibility (1/GPa) = 0.02612066
#
# Stress axis : x y z
#
# Youngs Moduli (GPa) = 127.20108 50.44008 120.01506
#
# Poissons Ratio (x) = 0.03658 0.23428
# Poissons Ratio (y) = 0.09225 0.27267
# Poissons Ratio (z) = 0.24831 0.11460
#
# Static dielectric constant tensor:
#      x y z
#    x 2.245880 0.097710 -0.069680 
#    y 0.097710 2.266220 0.015210 
#    z -0.069680 0.015210 1.968330 
# 
# From -- ./inp_files/521809.got.cif
#   From: 2010.05.17/outbox.cif.g08.bks.cpg/sg2_261_cif.got.tgz:521809.got - 2010.06.03 11:33:40.
