data_PCOD9070027
_publ_section_title
;
Structure prediction by ZEFSAII (Michael W. Deem and Ramdas Pophale) SiO2 
 PCOD9070027
Probable space group: P -1
;
_chemical_formula_sum "Si O2"
_cell_formula_units_Z 12
_cell_length_a 16.506482
_cell_length_b 10.120540
_cell_length_c 5.325345
_cell_angle_alpha 75.000953
_cell_angle_beta 91.359724
_cell_angle_gamma 35.826885
_cell_volume 458.065280
_symmetry_space_group_name_H-M "P -1"
_symmetry_group_IT_number 2
_symmetry_cell_setting 'triclinic'
loop_
_space_group_symop_operation_xyz
x,y,z
-x,-y,-z
loop_
_atom_site_type_symbol
_atom_site_label
_atom_site_fract_x
_atom_site_fract_y
_atom_site_fract_z
Si Si1 0.975427 0.362697 0.531236
Si Si2 0.220320 0.330415 0.126510
Si Si3 0.294336 0.995173 0.631496
Si Si4 0.862674 0.107682 0.034809
Si Si5 0.656457 0.333190 0.488425
Si Si6 0.609287 0.647519 0.016631
O O1 0.865335 0.510378 0.694345
O O2 0.127909 0.238286 0.625454
O O3 0.896817 0.501169 0.192207
O O4 0.052101 0.103002 0.646111
O O5 0.283137 0.091034 0.318215
O O6 0.347653 0.257033 0.080421
O O7 0.208151 0.882511 0.198610
O O8 0.329619 0.785887 0.693110
O O9 0.724565 0.400478 0.965796
O O10 0.000000 0.000000 0.000000
O O11 0.500000 0.500000 0.500000
O O12 0.646346 0.509593 0.340690
O O13 0.566842 0.130970 0.157549
#
# Coordination Sequence:
#
# PCOD9070027 Si02
#       6
#     2   2   2   2   2   2
#     4  12  26  48  77 110 149 200 250 304 370 443
#     4  12  29  50  76 111 153 202 246 304 377 448
#     4  12  26  49  73 112 150 195 251 310 372 448
#     4  12  24  44  75 107 147 191 253 312 366 439
#     4  12  25  45  76 109 147 194 251 311 372 437
#     4  12  26  47  73 110 146 197 249 309 376 438
#
# _framework density 26.197141999999999
#
# number of rings (size 3 to 8) (size 9 to 14) (size 15 to 20)
#    0.000    0.000    5.000    5.000    0.000    4.000 
#    0.000    2.500    0.000    0.000    0.000    0.000 
#    0.000    0.000    0.000    0.000    0.000    0.000 
#
# Total GULP energy -67157.338273 kJ/mol
# GULP energy per Si atom -5596.444856 kJ/mol
# Density = 2.613752 g / cm^3
# Si number density = 26.197142 Si / 1000 Ang^3
#
#
#
# Elastic Constant Matrix: (Units=GPa)
#
#
# Indices 1 2 3 4 5 6 
#
# 1 73.4857 6.2030 1.4789 -10.8233 -17.9335 -20.1968
# 2 6.2030 65.9418 1.0996 10.3278 8.1782 -34.0218
# 3 1.4789 1.0996 147.6166 -25.5651 -8.6685 -4.5479
# 4 -10.8233 10.3278 -25.5651 44.8419 -3.6605 -6.2540
# 5 -17.9335 8.1782 -8.6685 -3.6605 56.0644 -6.1452
# 6 -20.1968 -34.0218 -4.5479 -6.2540 -6.1452 37.3409
#
#
#
# Elastic Compliance Matrix: (Units=1/GPa)
#
#
# Indices 1 2 3 4 5 6 
#
# 1 0.022615 0.006178 0.002554 0.009254 0.009668 0.021312
# 2 0.006178 0.030859 0.000600 -0.000793 0.000975 0.031558
# 3 0.002554 0.000600 0.008071 0.005922 0.002843 0.004371
# 4 0.009254 -0.000793 0.005922 0.030250 0.007200 0.011255
# 5 0.009668 0.000975 0.002843 0.007200 0.022951 0.011447
# 6 0.021312 0.031558 0.004371 0.011255 0.011447 0.071362
#
#
# Mechanical properties :
#
#
# Convention : Reuss Voigt Hill
#
# Bulk Modulus (GPa) = 12.46723 33.84522 23.15623
# Shear Modulus (GPa) = 25.74916 46.20027 35.97472
#
# Velocity S-wave (km/s) = 3.13852 4.20403 3.70973
# Velocity P-wave (km/s) = 4.23121 6.04257 5.21612
#
# Compressibility (1/GPa) = 0.08021025
#
# Stress axis : x y z
#
# Youngs Moduli (GPa) = 44.21830 32.40543 123.89356
#
# Poissons Ratio (x) = -0.20019 -0.31647
# Poissons Ratio (y) = -0.27316 -0.07439
# Poissons Ratio (z) = -0.11295 -0.01946
#
# Static dielectric constant tensor:
#      x y z
#    x 2.043090 0.004440 -0.093570 
#    y 0.004440 2.096900 -0.038520 
#    z -0.093570 -0.038520 1.948690 
# 
# From -- ./inp_files/82579.got.cif
#   From: 2010.05.17/outbox.cif.g08.bks.cpg/sg2_42_cif.got.tgz:82579.got - 2010.06.03 11:33:40.
