data_PCOD9070734
_publ_section_title
;
Structure prediction by ZEFSAII (Michael W. Deem and Ramdas Pophale) SiO2 
 PCOD9070734
Probable space group: P -1
;
_chemical_formula_sum "Si O2"
_cell_formula_units_Z 16
_cell_length_a 14.342467
_cell_length_b 7.960047
_cell_length_c 11.677181
_cell_angle_alpha 84.201611
_cell_angle_beta 146.436605
_cell_angle_gamma 107.297500
_cell_volume 675.973378
_symmetry_space_group_name_H-M "P -1"
_symmetry_group_IT_number 2
_symmetry_cell_setting 'triclinic'
loop_
_space_group_symop_operation_xyz
x,y,z
-x,-y,-z
loop_
_atom_site_type_symbol
_atom_site_label
_atom_site_fract_x
_atom_site_fract_y
_atom_site_fract_z
Si Si1 0.571598 0.602908 0.383736
Si Si2 0.670457 0.550651 0.255686
Si Si3 0.457796 0.037261 0.583138
Si Si4 0.807284 0.262409 0.511290
Si Si5 0.094114 0.361714 0.142421
Si Si6 0.834330 0.697907 0.030792
Si Si7 0.831688 0.077241 0.074059
Si Si8 0.950253 0.175912 0.437160
O O1 0.655151 0.673393 0.338486
O O2 0.709841 0.539064 0.601863
O O3 0.372589 0.448514 0.167151
O O4 0.555958 0.767985 0.428282
O O5 0.689166 0.380535 0.352688
O O6 0.859134 0.648909 0.374855
O O7 0.500000 0.500000 0.000000
O O8 0.281423 0.881368 0.468820
O O9 0.500000 0.000000 0.500000
O O10 0.627743 0.038730 0.830563
O O11 0.823340 0.172225 0.413400
O O12 0.016382 0.372751 0.758733
O O13 0.121837 0.266935 0.061275
O O14 0.968622 0.214572 0.113954
O O15 0.000000 0.500000 0.000000
O O16 0.856155 0.884242 0.105193
O O17 0.863895 0.168640 0.224931
O O18 0.000000 0.000000 0.500000
#
# Coordination Sequence:
#
# PCOD9070734 Si02
#       8
#     2   2   2   2   2   2   2   2
#     4  12  26  48  75 114 150 194 257 306 378 451
#     4  12  28  48  76 112 154 199 256 309 374 454
#     4  12  28  51  78 113 154 198 254 311 380 455
#     4  12  27  49  78 109 153 200 255 307 384 447
#     4  12  25  47  75 106 149 199 250 314 381 449
#     4  12  25  45  76 109 148 200 247 314 378 446
#     4  12  26  47  74 108 152 197 254 311 381 450
#     4  12  26  50  76 107 151 200 253 313 377 444
#
# _framework density 23.669571999999999
#
# number of rings (size 3 to 8) (size 9 to 14) (size 15 to 20)
#    0.000    0.000    2.500    7.125    5.250    2.500 
#    0.000    0.000    0.000    0.000    0.000    0.000 
#    0.000    0.000    0.000    0.000    0.000    0.000 
#
# Total GULP energy -89719.419059 kJ/mol
# GULP energy per Si atom -5607.463691 kJ/mol
# Density = 2.361570 g / cm^3
# Si number density = 23.669572 Si / 1000 Ang^3
#
#
#
# Elastic Constant Matrix: (Units=GPa)
#
#
# Indices 1 2 3 4 5 6 
#
# 1 161.5006 26.6704 25.8153 8.3219 -19.1483 -1.5356
# 2 26.6704 100.1604 30.5948 2.0014 4.7278 0.2919
# 3 25.8153 30.5948 183.5725 -10.6449 -3.0695 -3.5203
# 4 8.3219 2.0014 -10.6449 31.9301 3.3626 5.8333
# 5 -19.1483 4.7278 -3.0695 3.3626 40.4952 3.7671
# 6 -1.5356 0.2919 -3.5203 5.8333 3.7671 38.0281
#
#
#
# Elastic Compliance Matrix: (Units=1/GPa)
#
#
# Indices 1 2 3 4 5 6 
#
# 1 0.007186 -0.001801 -0.000786 -0.002459 0.003731 0.000239
# 2 -0.001801 0.011088 -0.001664 -0.000544 -0.002226 -0.000008
# 3 -0.000786 -0.001664 0.005971 0.002259 0.000071 0.000180
# 4 -0.002459 -0.000544 0.002259 0.033966 -0.003305 -0.004769
# 5 0.003731 -0.002226 0.000071 -0.003305 0.027185 -0.002012
# 6 0.000239 -0.000008 0.000180 -0.004769 -0.002012 0.027254
#
#
# Mechanical properties :
#
#
# Convention : Reuss Voigt Hill
#
# Bulk Modulus (GPa) = 63.51828 67.93272 65.72550
# Shear Modulus (GPa) = 39.55741 46.23422 42.89581
#
# Velocity S-wave (km/s) = 4.09251 4.42443 4.26170
# Velocity P-wave (km/s) = 7.01607 7.40699 7.21418
#
# Compressibility (1/GPa) = 0.01574350
#
# Stress axis : x y z
#
# Youngs Moduli (GPa) = 139.15374 90.18989 167.47952
#
# Poissons Ratio (x) = 0.16244 0.13164
# Poissons Ratio (y) = 0.25063 0.27861
# Poissons Ratio (z) = 0.10938 0.15004
#
# Static dielectric constant tensor:
#      x y z
#    x 1.886590 -0.024650 0.010330 
#    y -0.024650 1.937570 0.001360 
#    z 0.010330 0.001360 1.888960 
# 
# From -- ./inp_files/447420.got.cif
#   From: 2010.05.17/outbox.cif.g08.bks.cpg/sg2_224_cif.got.tgz:447420.got - 2010.06.03 11:33:40.
