data_PCOD9070334
_publ_section_title
;
Structure prediction by ZEFSAII (Michael W. Deem and Ramdas Pophale) SiO2 
 PCOD9070334
Probable space group: P -1
;
_chemical_formula_sum "Si O2"
_cell_formula_units_Z 16
_cell_length_a 8.836480
_cell_length_b 17.534277
_cell_length_c 12.075148
_cell_angle_alpha 58.332432
_cell_angle_beta 50.250902
_cell_angle_gamma 31.405672
_cell_volume 748.573859
_symmetry_space_group_name_H-M "P -1"
_symmetry_group_IT_number 2
_symmetry_cell_setting 'triclinic'
loop_
_space_group_symop_operation_xyz
x,y,z
-x,-y,-z
loop_
_atom_site_type_symbol
_atom_site_label
_atom_site_fract_x
_atom_site_fract_y
_atom_site_fract_z
Si Si1 0.654891 0.349134 0.553062
Si Si2 0.749938 0.870600 0.394888
Si Si3 0.973947 0.227962 0.261015
Si Si4 0.342294 0.924464 0.376648
Si Si5 0.128444 0.852292 0.059038
Si Si6 0.833123 0.630252 0.230954
Si Si7 0.197480 0.337817 0.018409
Si Si8 0.438329 0.623709 0.886622
O O1 0.500000 0.500000 0.500000
O O2 0.791892 0.272459 0.427276
O O3 0.372468 0.383259 0.690174
O O4 0.931445 0.258868 0.583843
O O5 0.538121 0.869372 0.440084
O O6 0.872445 0.887053 0.222444
O O7 0.500000 0.000000 0.500000
O O8 0.746167 0.306567 0.198507
O O9 0.107840 0.281299 0.172014
O O10 0.249211 0.052180 0.262989
O O11 0.596722 0.775058 0.303674
O O12 0.000000 0.000000 0.500000
O O13 0.447816 0.755542 0.053588
O O14 0.247025 0.754386 0.967809
O O15 0.000000 0.000000 0.000000
O O16 0.188695 0.478842 0.223753
O O17 0.865638 0.670837 0.069972
O O18 0.000000 0.500000 0.000000
O O19 0.500000 0.500000 0.000000
#
# Coordination Sequence:
#
# PCOD9070334 Si02
#       8
#     2   2   2   2   2   2   2   2
#     4  12  28  46  75 110 146 195 250 306 374 444
#     4  12  26  50  75 104 149 194 242 308 371 435
#     4  12  27  48  74 110 151 198 251 305 373 454
#     4  12  27  49  72 108 151 194 245 303 371 441
#     4  12  28  46  76 113 144 195 250 308 372 447
#     4  12  25  48  75 104 149 200 238 313 370 433
#     4  12  24  47  75 104 150 188 248 306 371 440
#     4  12  27  48  75 110 152 196 249 309 378 444
#
# _framework density 21.373977
#
# number of rings (size 3 to 8) (size 9 to 14) (size 15 to 20)
#    0.000    0.000    6.250    2.250    5.250    2.000 
#    0.000    0.000    0.000    0.000    0.000    0.000 
#    0.000    0.000    0.000    0.000    0.000    0.000 
#
# Total GULP energy -89297.974588 kJ/mol
# GULP energy per Si atom -5581.123412 kJ/mol
# Density = 2.132533 g / cm^3
# Si number density = 21.373977 Si / 1000 Ang^3
#
#
#
# Elastic Constant Matrix: (Units=GPa)
#
#
# Indices 1 2 3 4 5 6 
#
# 1 142.0153 68.2976 42.3023 6.2326 3.7278 -23.6147
# 2 68.2976 159.4007 39.5863 9.2256 -0.0377 4.9876
# 3 42.3023 39.5863 95.1505 13.6120 -2.5916 -2.8711
# 4 6.2326 9.2256 13.6120 37.3020 0.3193 2.3247
# 5 3.7278 -0.0377 -2.5916 0.3193 43.4272 7.9046
# 6 -23.6147 4.9876 -2.8711 2.3247 7.9046 53.4206
#
#
#
# Elastic Compliance Matrix: (Units=1/GPa)
#
#
# Indices 1 2 3 4 5 6 
#
# 1 0.010831 -0.004056 -0.003022 -0.000017 -0.002080 0.005313
# 2 -0.004056 0.008565 -0.001731 -0.000643 0.000761 -0.002770
# 3 -0.003022 -0.001731 0.013140 -0.003843 0.001156 -0.000472
# 4 -0.000017 -0.000643 -0.003843 0.028459 -0.000189 -0.001365
# 5 -0.002080 0.000761 0.001156 -0.000189 0.024093 -0.004485
# 6 0.005313 -0.002770 -0.000472 -0.001365 -0.004485 0.022024
#
#
# Mechanical properties :
#
#
# Convention : Reuss Voigt Hill
#
# Bulk Modulus (GPa) = 67.02960 77.43767 72.23363
# Shear Modulus (GPa) = 38.54946 43.25532 40.90239
#
# Velocity S-wave (km/s) = 4.25145 4.50348 4.37928
# Velocity P-wave (km/s) = 7.45173 7.95929 7.70969
#
# Compressibility (1/GPa) = 0.01491878
#
# Stress axis : x y z
#
# Youngs Moduli (GPa) = 92.32812 116.74956 76.10197
#
# Poissons Ratio (x) = 0.47353 0.22996
# Poissons Ratio (y) = 0.37448 0.13175
# Poissons Ratio (z) = 0.27899 0.20212
#
# Static dielectric constant tensor:
#      x y z
#    x 1.769870 -0.016850 0.004940 
#    y -0.016850 1.717660 0.056330 
#    z 0.004940 0.056330 1.837380 
# 
# From -- ./inp_files/403075.got.cif
#   From: 2010.05.17/outbox.cif.g08.bks.cpg/sg2_202_cif.got.tgz:403075.got - 2010.06.03 11:33:40.
