data_PCOD9070318
_publ_section_title
;
Structure prediction by ZEFSAII (Michael W. Deem and Ramdas Pophale) SiO2 
 PCOD9070318
Probable space group: P -1
;
_chemical_formula_sum "Si O2"
_cell_formula_units_Z 11
_cell_length_a 15.004456
_cell_length_b 13.419549
_cell_length_c 6.220441
_cell_angle_alpha 109.186007
_cell_angle_beta 57.640852
_cell_angle_gamma 148.894558
_cell_volume 521.906879
_symmetry_space_group_name_H-M "P -1"
_symmetry_group_IT_number 2
_symmetry_cell_setting 'triclinic'
loop_
_space_group_symop_operation_xyz
x,y,z
-x,-y,-z
loop_
_atom_site_type_symbol
_atom_site_label
_atom_site_fract_x
_atom_site_fract_y
_atom_site_fract_z
Si Si1 0.500000 0.500000 0.500000
Si Si2 0.128765 0.308464 0.990977
Si Si3 0.373723 0.626253 0.252514
Si Si4 0.976089 0.603772 0.139999
Si Si5 0.691505 0.871215 0.368405
Si Si6 0.396225 0.023909 0.115411
O O1 0.281679 0.377278 0.689198
O O2 0.622688 0.718308 0.502025
O O3 0.066029 0.365068 0.999280
O O4 0.258458 0.440406 0.131199
O O5 0.925540 0.074421 0.148863
O O6 0.211811 0.537654 0.560337
O O7 0.559548 0.741496 0.232697
O O8 0.462355 0.788182 0.091276
O O9 0.178800 0.821197 0.142420
O O10 0.000000 0.500000 0.000000
O O11 0.634931 0.933985 0.598747
O O12 0.500000 0.000000 0.000000
#
# Coordination Sequence:
#
# PCOD9070318 Si02
#       6
#     1   2   2   2   2   2
#     4  12  26  50  74 106 148 188 254 306 350 434
#     4  12  26  48  72 109 143 193 250 295 367 428
#     4  12  24  47  74 104 150 191 236 304 366 426
#     4  12  26  45  75 111 148 191 243 299 366 441
#     4  12  26  48  72 109 143 193 250 295 367 428
#     4  12  26  45  75 111 148 191 243 299 366 441
#
# _framework density 21.076554999999999
#
# number of rings (size 3 to 8) (size 9 to 14) (size 15 to 20)
#    0.000    0.000    7.273    2.727    2.545    3.636 
#    0.000    2.727    0.000    0.000    0.000    0.000 
#    0.000    0.000    0.000    0.000    0.000    0.000 
#
# Total GULP energy -61296.177266 kJ/mol
# GULP energy per Si atom -5572.379751 kJ/mol
# Density = 2.102858 g / cm^3
# Si number density = 21.076555 Si / 1000 Ang^3
#
#
#
# Elastic Constant Matrix: (Units=GPa)
#
#
# Indices 1 2 3 4 5 6 
#
# 1 39.3853 61.4505 37.4536 35.1565 -34.9653 9.3694
# 2 61.4505 143.2656 30.7303 -28.8080 -7.6139 34.2688
# 3 37.4536 30.7303 31.3076 -40.7702 10.1027 4.9099
# 4 35.1565 -28.8080 -40.7702 41.6418 19.0050 -2.8263
# 5 -34.9653 -7.6139 10.1027 19.0050 16.6128 12.4557
# 6 9.3694 34.2688 4.9099 -2.8263 12.4557 44.8054
#
#
#
# Elastic Compliance Matrix: (Units=1/GPa)
#
#
# Indices 1 2 3 4 5 6 
#
# 1 0.005321 -0.004661 0.010945 0.007854 -0.009966 0.004519
# 2 -0.004661 0.014081 -0.008030 0.001000 0.008868 -0.011317
# 3 0.010945 -0.008030 0.018234 -0.003375 0.013768 -0.002186
# 4 0.007854 0.001000 -0.003375 0.008137 0.013738 -0.005343
# 5 -0.009966 0.008868 0.013768 0.013738 0.029306 -0.013487
# 6 0.004519 -0.011317 -0.002186 -0.005343 -0.013487 0.033682
#
#
# Mechanical properties :
#
#
# Convention : Reuss Voigt Hill
#
# Bulk Modulus (GPa) = 29.28832 52.58082 40.93457
# Shear Modulus (GPa) = 40.44184 26.23359 33.33772
#
# Velocity S-wave (km/s) = 4.38517 3.53183 3.98143
# Velocity P-wave (km/s) = 6.29015 6.45240 6.37179
#
# Compressibility (1/GPa) = 0.03414331
#
# Stress axis : x y z
#
# Youngs Moduli (GPa) = 187.93146 71.01658 54.84363
#
# Poissons Ratio (x) = 0.33104 -0.60027
# Poissons Ratio (y) = 0.87602 0.44039
# Poissons Ratio (z) = -2.05692 0.57026
#
# Static dielectric constant tensor:
#      x y z
#    x 1.743750 0.013790 0.035160 
#    y 0.013790 1.733800 0.010560 
#    z 0.035160 0.010560 1.779730 
# 
# From -- ./inp_files/22111.got.cif
#   From: 2010.05.17/outbox.cif.g08.bks.cpg/sg2_12_cif.got.tgz:22111.got - 2010.06.03 11:33:40.
