data_PCOD9070710
_publ_section_title
;
Structure prediction by ZEFSAII (Michael W. Deem and Ramdas Pophale) SiO2 
 PCOD9070710
Probable space group: P -1
;
_chemical_formula_sum "Si O2"
_cell_formula_units_Z 14
_cell_length_a 16.854020
_cell_length_b 5.192254
_cell_length_c 24.117252
_cell_angle_alpha 114.798687
_cell_angle_beta 21.567255
_cell_angle_gamma 123.222337
_cell_volume 620.521426
_symmetry_space_group_name_H-M "P -1"
_symmetry_group_IT_number 2
_symmetry_cell_setting 'triclinic'
loop_
_space_group_symop_operation_xyz
x,y,z
-x,-y,-z
loop_
_atom_site_type_symbol
_atom_site_label
_atom_site_fract_x
_atom_site_fract_y
_atom_site_fract_z
Si Si1 0.437026 0.016483 0.292402
Si Si2 0.050389 0.314004 0.148790
Si Si3 0.229698 0.277449 0.907535
Si Si4 0.058343 0.803177 0.611849
Si Si5 0.552537 0.760637 0.906851
Si Si6 0.782042 0.744047 0.348134
Si Si7 0.160016 0.868301 0.352049
O O1 0.627852 0.380854 0.185087
O O2 0.577504 0.851057 0.216394
O O3 0.227225 0.000890 0.468434
O O4 0.308976 0.818643 0.301608
O O5 0.923273 0.544398 0.256605
O O6 0.127520 0.327180 0.036567
O O7 0.294590 0.445511 0.039378
O O8 0.883771 0.951927 0.244972
O O9 0.000000 0.000000 0.000000
O O10 0.780401 0.741534 0.783801
O O11 0.018404 0.446521 0.594727
O O12 0.178507 0.992975 0.606513
O O13 0.644991 0.895122 0.797178
O O14 0.500000 0.000000 0.000000
O O15 0.500000 0.500000 0.500000
O O16 0.000000 0.000000 0.500000
#
# Coordination Sequence:
#
# PCOD9070710 Si02
#       7
#     2   2   2   2   2   2   2
#     4  12  26  47  74 111 152 197 248 318 384 455
#     4  12  27  50  76 109 148 197 253 315 382 440
#     4  12  28  47  77 108 149 200 258 316 376 447
#     4  12  28  44  79 110 156 199 253 307 391 455
#     4  12  25  45  74 110 156 193 254 314 385 456
#     4  12  30  52  76 107 152 204 254 309 372 464
#     4  12  25  47  73 114 154 199 250 316 389 461
#
# _framework density 22.561668999999998
#
# number of rings (size 3 to 8) (size 9 to 14) (size 15 to 20)
#    0.000    0.000    4.286    4.714    6.000    1.143 
#    0.000    0.000    0.000    0.000    0.000    0.000 
#    0.000    0.000    0.000    0.000    0.000    0.000 
#
# Total GULP energy -78438.434472 kJ/mol
# GULP energy per Si atom -5602.745319 kJ/mol
# Density = 2.251032 g / cm^3
# Si number density = 22.561669 Si / 1000 Ang^3
#
#
#
# Elastic Constant Matrix: (Units=GPa)
#
#
# Indices 1 2 3 4 5 6 
#
# 1 46.8361 22.4801 19.4481 6.2336 -16.0008 8.0561
# 2 22.4801 104.0369 62.9671 -3.0146 -13.9414 9.8855
# 3 19.4481 62.9671 136.3869 -12.3608 -1.2399 -0.3140
# 4 6.2336 -3.0146 -12.3608 52.8141 -3.0932 -0.0156
# 5 -16.0008 -13.9414 -1.2399 -3.0932 36.3352 -12.8604
# 6 8.0561 9.8855 -0.3140 -0.0156 -12.8604 47.0554
#
#
#
# Elastic Compliance Matrix: (Units=1/GPa)
#
#
# Indices 1 2 3 4 5 6 
#
# 1 0.028233 -0.002912 -0.002914 -0.003571 0.010418 -0.001395
# 2 -0.002912 0.014724 -0.006363 -0.000098 0.003552 -0.001666
# 3 -0.002914 -0.006363 0.010877 0.002366 -0.002741 0.001160
# 4 -0.003571 -0.000098 0.002366 0.019930 0.000442 0.000775
# 5 0.010418 0.003552 -0.002741 0.000442 0.035996 0.007290
# 6 -0.001395 -0.001666 0.001160 0.000775 0.007290 0.023841
#
#
# Mechanical properties :
#
#
# Convention : Reuss Voigt Hill
#
# Bulk Modulus (GPa) = 33.94736 55.22785 44.58760
# Shear Modulus (GPa) = 29.79787 39.39858 34.59822
#
# Velocity S-wave (km/s) = 3.63813 4.18336 3.92024
# Velocity P-wave (km/s) = 5.72076 6.91851 6.34795
#
# Compressibility (1/GPa) = 0.02945737
#
# Stress axis : x y z
#
# Youngs Moduli (GPa) = 35.41950 67.91801 91.93430
#
# Poissons Ratio (x) = 0.19777 0.26786
# Poissons Ratio (y) = 0.10314 0.58496
# Poissons Ratio (z) = 0.10320 0.43215
#
# Static dielectric constant tensor:
#      x y z
#    x 1.849150 -0.026370 -0.014150 
#    y -0.026370 1.860120 -0.010430 
#    z -0.014150 -0.010430 1.827760 
# 
# From -- ./inp_files/52939.got.cif
#   From: 2010.05.17/outbox.cif.g08.bks.cpg/sg2_27_cif.got.tgz:52939.got - 2010.06.03 11:33:40.
