data_PCOD9070615
_publ_section_title
;
Structure prediction by ZEFSAII (Michael W. Deem and Ramdas Pophale) SiO2 
 PCOD9070615
Probable space group: P -1
;
_chemical_formula_sum "Si O2"
_cell_formula_units_Z 16
_cell_length_a 16.352657
_cell_length_b 8.072987
_cell_length_c 22.254756
_cell_angle_alpha 63.980809
_cell_angle_beta 162.184753
_cell_angle_gamma 107.344301
_cell_volume 727.439380
_symmetry_space_group_name_H-M "P -1"
_symmetry_group_IT_number 2
_symmetry_cell_setting 'triclinic'
loop_
_space_group_symop_operation_xyz
x,y,z
-x,-y,-z
loop_
_atom_site_type_symbol
_atom_site_label
_atom_site_fract_x
_atom_site_fract_y
_atom_site_fract_z
Si Si1 0.772779 0.706342 0.500457
Si Si2 0.221470 0.212345 0.756267
Si Si3 0.951262 0.227096 0.434398
Si Si4 0.254271 0.697847 0.485368
Si Si5 0.166202 0.062562 0.277348
Si Si6 0.604449 0.460697 0.978968
Si Si7 0.138338 0.050428 0.029828
Si Si8 0.190528 0.459312 0.016565
O O1 0.734542 0.496669 0.513882
O O2 0.841762 0.727979 0.475327
O O3 0.071934 0.676135 0.748198
O O4 0.491717 0.904594 0.295977
O O5 0.050174 0.238359 0.569779
O O6 0.988629 0.262586 0.639190
O O7 0.381373 0.358878 0.838869
O O8 0.500000 0.000000 0.000000
O O9 0.598763 0.345948 0.153849
O O10 0.000000 0.000000 0.500000
O O11 0.574876 0.626042 0.751657
O O12 0.171024 0.907073 0.357732
O O13 0.500000 0.000000 0.500000
O O14 0.024657 0.302768 0.157955
O O15 0.991830 0.016988 0.108124
O O16 0.641639 0.534568 0.927744
O O17 0.067661 0.290248 0.945265
O O18 0.000000 0.000000 0.000000
#
# Coordination Sequence:
#
# PCOD9070615 Si02
#       8
#     2   2   2   2   2   2   2   2
#     4  12  27  46  76 109 155 201 258 313 377 460
#     4  12  26  42  70 105 153 197 247 302 371 451
#     4  12  25  43  68 106 152 199 250 301 373 450
#     4  12  26  50  76 112 153 201 253 313 382 453
#     4  12  30  52  83 114 146 201 258 318 391 451
#     4  12  25  46  69 111 149 202 249 300 378 447
#     4  12  30  53  80 113 150 199 256 324 387 447
#     4  12  27  51  81 110 159 196 253 317 379 460
#
# _framework density 21.994959000000001
#
# number of rings (size 3 to 8) (size 9 to 14) (size 15 to 20)
#    0.000    0.000    3.750    5.250   10.500    1.500 
#    0.000    0.000    0.000    0.000    0.000    0.000 
#    0.000    0.000    0.000    0.000    0.000    0.000 
#
# Total GULP energy -89505.423439 kJ/mol
# GULP energy per Si atom -5594.088965 kJ/mol
# Density = 2.194490 g / cm^3
# Si number density = 21.994959 Si / 1000 Ang^3
#
#
#
# Elastic Constant Matrix: (Units=GPa)
#
#
# Indices 1 2 3 4 5 6 
#
# 1 121.5025 59.2842 40.6302 -9.4473 2.3194 25.4003
# 2 59.2842 163.7227 57.7281 -21.4494 13.6303 3.2261
# 3 40.6302 57.7281 123.7183 -10.2404 2.3464 7.4074
# 4 -9.4473 -21.4494 -10.2404 41.4077 -0.2952 -3.8760
# 5 2.3194 13.6303 2.3464 -0.2952 33.4995 0.8677
# 6 25.4003 3.2261 7.4074 -3.8760 0.8677 27.2476
#
#
#
# Elastic Compliance Matrix: (Units=1/GPa)
#
#
# Indices 1 2 3 4 5 6 
#
# 1 0.013132 -0.004073 -0.001803 -0.000618 0.001164 -0.011394
# 2 -0.004073 0.009254 -0.002871 0.003513 -0.003357 0.004088
# 3 -0.001803 -0.002871 0.010087 0.000538 0.000608 -0.000664
# 4 -0.000618 0.003513 0.000538 0.026308 -0.001291 0.003797
# 5 0.001164 -0.003357 0.000608 -0.001291 0.031135 -0.002028
# 6 -0.011394 0.004088 -0.000664 0.003797 -0.002028 0.047624
#
#
# Mechanical properties :
#
#
# Convention : Reuss Voigt Hill
#
# Bulk Modulus (GPa) = 66.75554 80.46982 73.61268
# Shear Modulus (GPa) = 31.24454 37.18435 34.21444
#
# Velocity S-wave (km/s) = 3.77308 4.11613 3.94834
# Velocity P-wave (km/s) = 7.02836 7.69773 7.37065
#
# Compressibility (1/GPa) = 0.01498003
#
# Stress axis : x y z
#
# Youngs Moduli (GPa) = 76.14840 108.06092 99.13288
#
# Poissons Ratio (x) = 0.44009 0.17878
# Poissons Ratio (y) = 0.31012 0.28459
# Poissons Ratio (z) = 0.13733 0.31022
#
# Static dielectric constant tensor:
#      x y z
#    x 1.790740 0.012720 0.017400 
#    y 0.012720 1.298270 -0.232440 
#    z 0.017400 -0.232440 1.738570 
# 
# From -- ./inp_files/597344.got.cif
#   From: 2010.05.17/outbox.cif.g08.bks.cpg/sg2_299_cif.got.tgz:597344.got - 2010.06.03 11:33:40.
