data_PCOD9070158
_publ_section_title
;
Structure prediction by ZEFSAII (Michael W. Deem and Ramdas Pophale) SiO2 
 PCOD9070158
Probable space group: P -1
;
_chemical_formula_sum "Si O2"
_cell_formula_units_Z 16
_cell_length_a 9.708112
_cell_length_b 16.204277
_cell_length_c 8.745852
_cell_angle_alpha 110.895543
_cell_angle_beta 110.484930
_cell_angle_gamma 32.995976
_cell_volume 696.474832
_symmetry_space_group_name_H-M "P -1"
_symmetry_group_IT_number 2
_symmetry_cell_setting 'triclinic'
loop_
_space_group_symop_operation_xyz
x,y,z
-x,-y,-z
loop_
_atom_site_type_symbol
_atom_site_label
_atom_site_fract_x
_atom_site_fract_y
_atom_site_fract_z
Si Si1 0.145049 0.781766 0.580152
Si Si2 0.722826 0.160999 0.049807
Si Si3 0.046694 0.373529 0.948505
Si Si4 0.374185 0.410226 0.552574
Si Si5 0.882746 0.720420 0.419809
Si Si6 0.407565 0.446094 0.929956
Si Si7 0.500785 0.102898 0.105204
Si Si8 0.391045 0.897940 0.523073
O O1 0.262154 0.772700 0.767425
O O2 0.384427 0.657037 0.474552
O O3 0.011247 0.752086 0.526324
O O4 0.896343 0.962357 0.558831
O O5 0.607983 0.125354 0.045848
O O6 0.587262 0.275218 0.930345
O O7 0.000000 0.000000 0.000000
O O8 0.158810 0.277097 0.774704
O O9 0.780415 0.461621 0.938864
O O10 0.000000 0.500000 0.000000
O O11 0.207603 0.274382 0.096997
O O12 0.312146 0.473986 0.740533
O O13 0.488104 0.256907 0.508376
O O14 0.111294 0.542877 0.443548
O O15 0.609955 0.841551 0.474779
O O16 0.500000 0.500000 0.000000
O O17 0.629589 0.050172 0.282895
O O18 0.500000 0.000000 0.000000
#
# Coordination Sequence:
#
# PCOD9070158 Si02
#       8
#     2   2   2   2   2   2   2   2
#     4  12  26  47  72 103 145 182 236 290 353 419
#     4  12  28  46  72 103 145 185 233 291 355 418
#     4  12  24  47  72 103 145 183 238 293 348 417
#     4  12  24  46  71 103 140 184 236 287 349 422
#     4  12  26  45  74 105 139 186 236 291 352 418
#     4  12  26  45  74 106 141 185 234 289 353 418
#     4  12  28  47  72 103 142 187 235 290 352 420
#     4  12  26  46  71 104 141 186 236 288 350 419
#
# _framework density 22.972833999999999
#
# number of rings (size 3 to 8) (size 9 to 14) (size 15 to 20)
#    0.000    0.000    2.500    7.500    7.000    0.000 
#    0.000    0.000    0.000    0.000    0.000    0.000 
#    0.000    0.000    0.000    0.000    0.000    0.000 
#
# Total GULP energy -89418.329290 kJ/mol
# GULP energy per Si atom -5588.645581 kJ/mol
# Density = 2.292055 g / cm^3
# Si number density = 22.972834 Si / 1000 Ang^3
#
#
#
# Elastic Constant Matrix: (Units=GPa)
#
#
# Indices 1 2 3 4 5 6 
#
# 1 137.1995 11.7867 14.6394 11.0676 -3.7019 6.4716
# 2 11.7867 63.3576 -17.0589 -9.6482 -14.6299 -17.2447
# 3 14.6394 -17.0589 84.5461 -4.7112 3.1154 -0.0106
# 4 11.0676 -9.6482 -4.7112 32.8506 2.5183 13.6380
# 5 -3.7019 -14.6299 3.1154 2.5183 32.4756 10.0215
# 6 6.4716 -17.2447 -0.0106 13.6380 10.0215 35.9289
#
#
#
# Elastic Compliance Matrix: (Units=1/GPa)
#
#
# Indices 1 2 3 4 5 6 
#
# 1 0.008141 -0.002954 -0.002208 -0.003211 0.000626 -0.001841
# 2 -0.002954 0.021874 0.004943 0.004508 0.006365 0.007546
# 3 -0.002208 0.004943 0.013405 0.003520 -0.000030 0.001446
# 4 -0.003211 0.004508 0.003520 0.038340 0.002187 -0.012420
# 5 0.000626 0.006365 -0.000030 0.002187 0.036012 -0.007933
# 6 -0.001841 0.007546 0.001446 -0.012420 -0.007933 0.038714
#
#
# Mechanical properties :
#
#
# Convention : Reuss Voigt Hill
#
# Bulk Modulus (GPa) = 23.26647 33.75971 28.51309
# Shear Modulus (GPa) = 29.19684 38.63342 33.91513
#
# Velocity S-wave (km/s) = 3.56888 4.10530 3.84645
# Velocity P-wave (km/s) = 5.20887 6.09908 5.67147
#
# Compressibility (1/GPa) = 0.04298031
#
# Stress axis : x y z
#
# Youngs Moduli (GPa) = 122.83828 45.71658 74.59959
#
# Poissons Ratio (x) = 0.13507 0.16471
# Poissons Ratio (y) = 0.36291 -0.36872
# Poissons Ratio (z) = 0.27122 -0.22596
#
# Static dielectric constant tensor:
#      x y z
#    x 1.927810 -0.090950 0.050400 
#    y -0.090950 1.868170 -0.093500 
#    z 0.050400 -0.093500 1.880640 
# 
# From -- ./inp_files/208460.got.cif
#   From: 2010.05.17/outbox.cif.g08.bks.cpg/sg2_105_cif.got.tgz:208460.got - 2010.06.03 11:33:40.
