data_PCOD9070105
_publ_section_title
;
Structure prediction by ZEFSAII (Michael W. Deem and Ramdas Pophale) SiO2 
 PCOD9070105
Probable space group: P -1
;
_chemical_formula_sum "Si O2"
_cell_formula_units_Z 16
_cell_length_a 9.517782
_cell_length_b 11.746812
_cell_length_c 14.552110
_cell_angle_alpha 102.037537
_cell_angle_beta 46.128053
_cell_angle_gamma 65.469620
_cell_volume 697.519594
_symmetry_space_group_name_H-M "P -1"
_symmetry_group_IT_number 2
_symmetry_cell_setting 'triclinic'
loop_
_space_group_symop_operation_xyz
x,y,z
-x,-y,-z
loop_
_atom_site_type_symbol
_atom_site_label
_atom_site_fract_x
_atom_site_fract_y
_atom_site_fract_z
Si Si1 0.250318 0.689873 0.880709
Si Si2 0.302251 0.531996 0.013262
Si Si3 0.718707 0.004236 0.868506
Si Si4 0.455781 0.608058 0.455314
Si Si5 0.648082 0.140581 0.725637
Si Si6 0.829544 0.637374 0.383579
Si Si7 0.519483 0.038964 0.260732
Si Si8 0.366389 0.285567 0.224247
O O1 0.219286 0.664480 0.995714
O O2 0.376303 0.526177 0.731935
O O3 0.515576 0.666315 0.755158
O O4 0.890828 0.891124 0.046574
O O5 0.471131 0.348390 0.847159
O O6 0.500000 0.500000 0.000000
O O7 0.017754 0.612377 0.213499
O O8 0.079121 0.801099 0.649012
O O9 0.608947 0.118556 0.845362
O O10 0.500000 0.000000 0.000000
O O11 0.669580 0.116422 0.992854
O O12 0.500000 0.500000 0.500000
O O13 0.617139 0.646693 0.426793
O O14 0.520166 0.081373 0.727234
O O15 0.000000 0.000000 0.500000
O O16 0.612811 0.830310 0.569995
O O17 0.078097 0.459734 0.315353
O O18 0.318876 0.192775 0.292804
#
# Coordination Sequence:
#
# PCOD9070105 Si02
#       8
#     2   2   2   2   2   2   2   2
#     4  12  27  48  76 111 155 196 254 315 375 460
#     4  12  25  49  75 107 153 204 255 306 380 459
#     4  12  24  45  75 106 149 197 249 315 379 445
#     4  12  27  44  72 114 152 194 251 314 383 446
#     4  12  26  44  74 109 152 197 253 308 380 458
#     4  12  26  46  76 110 154 202 252 316 381 450
#     4  12  27  45  75 113 152 196 259 314 380 448
#     4  12  24  47  77 107 152 200 250 315 382 442
#
# _framework density 22.938423
#
# number of rings (size 3 to 8) (size 9 to 14) (size 15 to 20)
#    0.000    0.000    3.750    6.000    1.750    3.500 
#    0.000    0.000    0.000    0.000    0.000    0.000 
#    0.000    0.000    0.000    0.000    0.000    0.000 
#
# Total GULP energy -89470.976897 kJ/mol
# GULP energy per Si atom -5591.936056 kJ/mol
# Density = 2.288621 g / cm^3
# Si number density = 22.938423 Si / 1000 Ang^3
#
#
#
# Elastic Constant Matrix: (Units=GPa)
#
#
# Indices 1 2 3 4 5 6 
#
# 1 133.8400 29.8667 47.1822 -0.1347 12.9890 23.5590
# 2 29.8667 89.9899 14.1653 -9.9117 -4.3301 7.1800
# 3 47.1822 14.1653 149.1916 -0.7376 22.0179 10.8713
# 4 -0.1347 -9.9117 -0.7376 45.0149 4.6072 0.3665
# 5 12.9890 -4.3301 22.0179 4.6072 50.3391 -2.2216
# 6 23.5590 7.1800 10.8713 0.3665 -2.2216 39.2373
#
#
#
# Elastic Compliance Matrix: (Units=1/GPa)
#
#
# Indices 1 2 3 4 5 6 
#
# 1 0.009923 -0.002682 -0.002228 -0.000352 -0.002003 -0.004960
# 2 -0.002682 0.012491 -0.000551 0.002557 0.001754 -0.000447
# 3 -0.002228 -0.000551 0.007978 0.000321 -0.003033 -0.000946
# 4 -0.000352 0.002557 0.000321 0.022989 -0.001963 -0.000671
# 5 -0.002003 0.001754 -0.003033 -0.001963 0.022172 0.002996
# 6 -0.004960 -0.000447 -0.000946 -0.000671 0.002996 0.028984
#
#
# Mechanical properties :
#
#
# Convention : Reuss Voigt Hill
#
# Bulk Modulus (GPa) = 51.36447 61.71667 56.54057
# Shear Modulus (GPa) = 41.00102 45.70541 43.35322
#
# Velocity S-wave (km/s) = 4.23240 4.46861 4.35211
# Velocity P-wave (km/s) = 6.80626 7.32041 7.06801
#
# Compressibility (1/GPa) = 0.01946871
#
# Stress axis : x y z
#
# Youngs Moduli (GPa) = 100.77949 80.05750 125.34503
#
# Poissons Ratio (x) = 0.21471 0.27928
# Poissons Ratio (y) = 0.27028 0.06912
# Poissons Ratio (z) = 0.22455 0.04415
#
# Static dielectric constant tensor:
#      x y z
#    x 1.977430 0.144000 0.052490 
#    y 0.144000 1.979170 0.059470 
#    z 0.052490 0.059470 1.815400 
# 
# From -- ./inp_files/500527.got.cif
#   From: 2010.05.17/outbox.cif.g08.bks.cpg/sg2_251_cif.got.tgz:500527.got - 2010.06.03 11:33:40.
