data_PCOD9070079
_publ_section_title
;
Structure prediction by ZEFSAII (Michael W. Deem and Ramdas Pophale) SiO2 
 PCOD9070079
Probable space group: P -1
;
_chemical_formula_sum "Si O2"
_cell_formula_units_Z 16
_cell_length_a 9.200629
_cell_length_b 15.586602
_cell_length_c 9.732619
_cell_angle_alpha 82.489445
_cell_angle_beta 74.069976
_cell_angle_gamma 35.440578
_cell_volume 767.362945
_symmetry_space_group_name_H-M "P -1"
_symmetry_group_IT_number 2
_symmetry_cell_setting 'triclinic'
loop_
_space_group_symop_operation_xyz
x,y,z
-x,-y,-z
loop_
_atom_site_type_symbol
_atom_site_label
_atom_site_fract_x
_atom_site_fract_y
_atom_site_fract_z
Si Si1 0.491504 0.055158 0.632110
Si Si2 0.062026 0.572082 0.954035
Si Si3 0.313745 0.854933 0.903579
Si Si4 0.882658 0.358908 0.785585
Si Si5 0.301753 0.395372 0.397284
Si Si6 0.695340 0.155123 0.576426
Si Si7 0.408071 0.105119 0.121946
Si Si8 0.604228 0.306179 0.831999
O O1 0.580765 0.112076 0.604066
O O2 0.188708 0.199221 0.720135
O O3 0.500000 0.000000 0.500000
O O4 0.657872 0.922627 0.725575
O O5 0.317181 0.463576 0.819377
O O6 0.824254 0.729563 0.910625
O O7 0.129989 0.587456 0.075809
O O8 0.000000 0.500000 0.000000
O O9 0.497943 0.743765 0.742504
O O10 0.372138 0.928866 0.887967
O O11 0.424253 0.738343 0.014703
O O12 0.000000 0.000000 0.000000
O O13 0.766724 0.479454 0.677472
O O14 0.749417 0.327425 0.820687
O O15 0.497908 0.300773 0.497096
O O16 0.000000 0.500000 0.500000
O O17 0.711174 0.192686 0.712635
O O18 0.000000 0.000000 0.500000
O O19 0.500000 0.000000 0.000000
#
# Coordination Sequence:
#
# PCOD9070079 Si02
#       8
#     2   2   2   2   2   2   2   2
#     4  12  25  44  72 101 148 195 251 309 376 458
#     4  12  24  45  72 107 146 192 246 318 379 445
#     4  12  26  46  75 109 149 194 251 314 381 448
#     4  12  25  47  73 107 146 198 256 314 375 460
#     4  12  27  48  79 107 153 209 252 305 393 467
#     4  12  27  49  71 109 156 199 255 319 385 453
#     4  12  25  42  72 108 141 192 251 307 379 445
#     4  12  26  44  75 104 148 193 252 318 377 444
#
# _framework density 20.850628
#
# number of rings (size 3 to 8) (size 9 to 14) (size 15 to 20)
#    0.000    0.000    5.000    4.875    1.750    1.500 
#    0.000    0.000    0.000    0.000    0.000    0.000 
#    0.000    0.000    0.000    0.000    0.000    0.000 
#
# Total GULP energy -89148.163686 kJ/mol
# GULP energy per Si atom -5571.760230 kJ/mol
# Density = 2.080317 g / cm^3
# Si number density = 20.850628 Si / 1000 Ang^3
#
#
#
# Elastic Constant Matrix: (Units=GPa)
#
#
# Indices 1 2 3 4 5 6 
#
# 1 111.3313 20.1212 34.0354 14.6976 5.1822 19.2453
# 2 20.1212 120.6826 33.2240 7.2471 -0.5739 -2.7712
# 3 34.0354 33.2240 114.0145 9.8752 19.3286 14.4409
# 4 14.6976 7.2471 9.8752 63.6382 0.2792 -5.3957
# 5 5.1822 -0.5739 19.3286 0.2792 28.4863 10.1376
# 6 19.2453 -2.7712 14.4409 -5.3957 10.1376 47.0594
#
#
#
# Elastic Compliance Matrix: (Units=1/GPa)
#
#
# Indices 1 2 3 4 5 6 
#
# 1 0.010921 -0.001116 -0.002377 -0.002399 0.001168 -0.004329
# 2 -0.001116 0.009314 -0.002851 -0.000244 0.001807 0.001463
# 3 -0.002377 -0.002851 0.011785 -0.001043 -0.007113 -0.001399
# 4 -0.002399 -0.000244 -0.001043 0.016733 -0.000180 0.003244
# 5 0.001168 0.001807 -0.007113 -0.000180 0.042367 -0.007336
# 6 -0.004329 0.001463 -0.001399 0.003244 -0.007336 0.025488
#
#
# Mechanical properties :
#
#
# Convention : Reuss Voigt Hill
#
# Bulk Modulus (GPa) = 51.73036 57.86550 54.79793
# Shear Modulus (GPa) = 36.83478 45.07995 40.95736
#
# Velocity S-wave (km/s) = 4.20766 4.65482 4.43688
# Velocity P-wave (km/s) = 6.96202 7.53010 7.25163
#
# Compressibility (1/GPa) = 0.01933101
#
# Stress axis : x y z
#
# Youngs Moduli (GPa) = 91.56460 107.36314 84.85645
#
# Poissons Ratio (x) = 0.11986 0.20168
# Poissons Ratio (y) = 0.10222 0.24196
# Poissons Ratio (z) = 0.21762 0.30614
#
# Static dielectric constant tensor:
#      x y z
#    x 2.546530 -0.652100 -0.655790 
#    y -0.652100 1.905560 0.125320 
#    z -0.655790 0.125320 1.870680 
# 
# From -- ./inp_files/206823.got.cif
#   From: 2010.05.17/outbox.cif.g08.bks.cpg/sg2_104_cif.got.tgz:206823.got - 2010.06.03 11:33:40.
