data_PCOD9070626
_publ_section_title
;
Structure prediction by ZEFSAII (Michael W. Deem and Ramdas Pophale) SiO2 
 PCOD9070626
Probable space group: P -1
;
_chemical_formula_sum "Si O2"
_cell_formula_units_Z 12
_cell_length_a 9.588487
_cell_length_b 14.795660
_cell_length_c 12.551536
_cell_angle_alpha 19.343115
_cell_angle_beta 110.910160
_cell_angle_gamma 109.345034
_cell_volume 550.868125
_symmetry_space_group_name_H-M "P -1"
_symmetry_group_IT_number 2
_symmetry_cell_setting 'triclinic'
loop_
_space_group_symop_operation_xyz
x,y,z
-x,-y,-z
loop_
_atom_site_type_symbol
_atom_site_label
_atom_site_fract_x
_atom_site_fract_y
_atom_site_fract_z
Si Si1 0.603208 0.253266 0.266872
Si Si2 0.282639 0.458891 0.228014
Si Si3 0.146607 0.585979 0.508974
Si Si4 0.853852 0.007977 0.752315
Si Si5 0.540618 0.299462 0.637865
Si Si6 0.910889 0.053688 0.305027
O O1 0.720160 0.176462 0.474657
O O2 0.500000 0.000000 0.500000
O O3 0.500000 0.500000 0.000000
O O4 0.684806 0.347123 0.078372
O O5 0.432172 0.388255 0.412387
O O6 0.212881 0.178156 0.481269
O O7 0.162716 0.643419 0.055406
O O8 0.105853 0.822044 0.320390
O O9 0.286324 0.683536 0.368142
O O10 0.000000 0.500000 0.500000
O O11 0.196172 0.299089 0.895431
O O12 0.982851 0.985125 0.724732
O O13 0.500000 0.500000 0.500000
O O14 0.500000 0.000000 0.000000
O O15 0.000000 0.000000 0.500000
#
# Coordination Sequence:
#
# PCOD9070626 Si02
#       6
#     2   2   2   2   2   2
#     4  12  25  43  73 104 143 189 236 302 377 438
#     4  12  26  45  73 107 149 186 247 302 365 444
#     4  12  29  51  77 109 146 196 253 304 370 437
#     4  12  26  47  76 106 151 187 244 304 367 442
#     4  12  28  50  77 107 146 195 252 308 367 433
#     4  12  26  45  74 113 147 194 239 292 376 444
#
# _framework density 21.783798999999998
#
# number of rings (size 3 to 8) (size 9 to 14) (size 15 to 20)
#    0.000    0.000    1.667    8.000    9.333    0.000 
#    0.000    0.000    0.000    0.000    0.000    0.000 
#    0.000    0.000    0.000    0.000    0.000    0.000 
#
# Total GULP energy -67248.839728 kJ/mol
# GULP energy per Si atom -5604.069977 kJ/mol
# Density = 2.173422 g / cm^3
# Si number density = 21.783799 Si / 1000 Ang^3
#
#
#
# Elastic Constant Matrix: (Units=GPa)
#
#
# Indices 1 2 3 4 5 6 
#
# 1 130.2588 56.4286 25.3772 1.4379 -3.7535 -7.6882
# 2 56.4286 134.4587 23.4762 -19.9752 -5.5320 -0.2968
# 3 25.3772 23.4762 115.5422 -12.4632 -4.5228 0.1922
# 4 1.4379 -19.9752 -12.4632 42.5977 1.2186 10.8423
# 5 -3.7535 -5.5320 -4.5228 1.2186 51.9884 -1.7936
# 6 -7.6882 -0.2968 0.1922 10.8423 -1.7936 47.4215
#
#
#
# Elastic Compliance Matrix: (Units=1/GPa)
#
#
# Indices 1 2 3 4 5 6 
#
# 1 0.010136 -0.004471 -0.001696 -0.003566 0.000277 0.002448
# 2 -0.004471 0.010197 -0.000501 0.005238 0.000533 -0.001836
# 3 -0.001696 -0.000501 0.009455 0.002812 0.000549 -0.000939
# 4 -0.003566 0.005238 0.002812 0.028701 -0.000374 -0.007133
# 5 0.000277 0.000533 0.000549 -0.000374 0.019398 0.000865
# 6 0.002448 -0.001836 -0.000939 -0.007133 0.000865 0.023140
#
#
# Mechanical properties :
#
#
# Convention : Reuss Voigt Hill
#
# Bulk Modulus (GPa) = 60.77706 65.64709 63.21207
# Shear Modulus (GPa) = 41.71992 46.73335 44.22664
#
# Velocity S-wave (km/s) = 4.38103 4.63679 4.51072
# Velocity P-wave (km/s) = 7.31791 7.67252 7.49732
#
# Compressibility (1/GPa) = 0.01645358
#
# Stress axis : x y z
#
# Youngs Moduli (GPa) = 98.65936 98.06874 105.75930
#
# Poissons Ratio (x) = 0.43843 0.17934
# Poissons Ratio (y) = 0.44107 0.05299
# Poissons Ratio (z) = 0.16730 0.04913
#
# Static dielectric constant tensor:
#      x y z
#    x 1.891620 -0.041030 0.017560 
#    y -0.041030 1.804910 0.024350 
#    z 0.017560 0.024350 1.760850 
# 
# From -- ./inp_files/60562.got.cif
#   From: 2010.05.17/outbox.cif.g08.bks.cpg/sg2_31_cif.got.tgz:60562.got - 2010.06.03 11:33:40.
