data_PCOD9070463
_publ_section_title
;
Structure prediction by ZEFSAII (Michael W. Deem and Ramdas Pophale) SiO2 
 PCOD9070463
Probable space group: P -1
;
_chemical_formula_sum "Si O2"
_cell_formula_units_Z 14
_cell_length_a 20.428545
_cell_length_b 6.171201
_cell_length_c 8.946271
_cell_angle_alpha 126.149476
_cell_angle_beta 140.278517
_cell_angle_gamma 55.507028
_cell_volume 567.976520
_symmetry_space_group_name_H-M "P -1"
_symmetry_group_IT_number 2
_symmetry_cell_setting 'triclinic'
loop_
_space_group_symop_operation_xyz
x,y,z
-x,-y,-z
loop_
_atom_site_type_symbol
_atom_site_label
_atom_site_fract_x
_atom_site_fract_y
_atom_site_fract_z
Si Si1 0.090923 0.262945 0.499971
Si Si2 0.898121 0.374636 0.800661
Si Si3 0.243547 0.326957 0.568368
Si Si4 0.401331 0.872789 0.817646
Si Si5 0.459478 0.367919 0.521051
Si Si6 0.220807 0.338997 0.033754
Si Si7 0.339540 0.817960 0.031320
O O1 0.128212 0.344100 0.439223
O O2 0.000000 0.500000 0.500000
O O3 0.080908 0.945029 0.344384
O O4 0.185253 0.300235 0.788587
O O5 0.790732 0.547120 0.602699
O O6 0.861995 0.428843 0.931783
O O7 0.000000 0.500000 0.000000
O O8 0.308543 0.024683 0.604519
O O9 0.309781 0.524731 0.843702
O O10 0.436476 0.558550 0.704720
O O11 0.373403 0.885162 0.948889
O O12 0.500000 0.000000 0.000000
O O13 0.500000 0.500000 0.500000
O O14 0.341341 0.356669 0.262864
O O15 0.566928 0.163847 0.683479
O O16 0.233935 0.025524 0.989248
#
# Coordination Sequence:
#
# PCOD9070463 Si02
#       7
#     2   2   2   2   2   2   2
#     4  12  28  52  80 109 151 197 259 324 393 463
#     4  12  30  51  77 116 147 201 261 326 395 459
#     4  12  24  48  77 105 153 197 255 313 389 454
#     4  12  25  44  73 107 152 207 256 311 376 457
#     4  12  26  43  72 116 155 199 257 306 382 462
#     4  12  26  48  75 108 156 192 256 312 383 453
#     4  12  25  47  73 109 154 205 249 309 387 458
#
# _framework density 24.648906
#
# number of rings (size 3 to 8) (size 9 to 14) (size 15 to 20)
#    0.000    0.000    4.286    5.143    6.000    4.571 
#    0.000    0.000    0.000    0.000    0.000    0.000 
#    0.000    0.000    0.000    0.000    0.000    0.000 
#
# Total GULP energy -78120.425144 kJ/mol
# GULP energy per Si atom -5580.030367 kJ/mol
# Density = 2.459280 g / cm^3
# Si number density = 24.648906 Si / 1000 Ang^3
#
#
#
# Elastic Constant Matrix: (Units=GPa)
#
#
# Indices 1 2 3 4 5 6 
#
# 1 108.0394 27.5059 19.0971 5.4475 9.8611 -6.7211
# 2 27.5059 67.4611 11.8197 -11.8280 1.4238 -14.3189
# 3 19.0971 11.8197 119.8505 -3.0535 8.1882 12.4848
# 4 5.4475 -11.8280 -3.0535 40.7706 -1.5700 1.0370
# 5 9.8611 1.4238 8.1882 -1.5700 39.7480 4.0900
# 6 -6.7211 -14.3189 12.4848 1.0370 4.0900 36.2355
#
#
#
# Elastic Compliance Matrix: (Units=1/GPa)
#
#
# Indices 1 2 3 4 5 6 
#
# 1 0.011101 -0.004534 -0.001340 -0.003025 -0.002549 0.001103
# 2 -0.004534 0.019593 -0.001841 0.005976 0.000284 0.007332
# 3 -0.001340 -0.001841 0.009244 0.000399 -0.001073 -0.004051
# 4 -0.003025 0.005976 0.000399 0.026732 0.001434 0.000736
# 5 -0.002549 0.000284 -0.001073 0.001434 0.026368 -0.003008
# 6 0.001103 0.007332 -0.004051 0.000736 -0.003008 0.032414
#
#
# Mechanical properties :
#
#
# Convention : Reuss Voigt Hill
#
# Bulk Modulus (GPa) = 40.80079 45.79962 43.30021
# Shear Modulus (GPa) = 33.54599 39.14603 36.34601
#
# Velocity S-wave (km/s) = 3.69311 3.98948 3.84415
# Velocity P-wave (km/s) = 5.89696 6.31208 6.10805
#
# Compressibility (1/GPa) = 0.02450933
#
# Stress axis : x y z
#
# Youngs Moduli (GPa) = 90.08428 51.03952 108.17564
#
# Poissons Ratio (x) = 0.23141 0.14491
# Poissons Ratio (y) = 0.40843 0.19913
# Poissons Ratio (z) = 0.12067 0.09395
#
# Static dielectric constant tensor:
#      x y z
#    x 1.951300 -0.022170 -0.013720 
#    y -0.022170 2.143670 0.046810 
#    z -0.013720 0.046810 2.051500 
# 
# From -- ./inp_files/52327.got.cif
#   From: 2010.05.17/outbox.cif.g08.bks.cpg/sg2_27_cif.got.tgz:52327.got - 2010.06.03 11:33:40.
