data_PCOD9070708
_publ_section_title
;
Structure prediction by ZEFSAII (Michael W. Deem and Ramdas Pophale) SiO2 
 PCOD9070708
Probable space group: P -1
;
_chemical_formula_sum "Si O2"
_cell_formula_units_Z 15
_cell_length_a 8.742467
_cell_length_b 10.985998
_cell_length_c 8.327665
_cell_angle_alpha 106.698639
_cell_angle_beta 64.790757
_cell_angle_gamma 76.803249
_cell_volume 633.848717
_symmetry_space_group_name_H-M "P -1"
_symmetry_group_IT_number 2
_symmetry_cell_setting 'triclinic'
loop_
_space_group_symop_operation_xyz
x,y,z
-x,-y,-z
loop_
_atom_site_type_symbol
_atom_site_label
_atom_site_fract_x
_atom_site_fract_y
_atom_site_fract_z
Si Si1 0.554829 0.254709 0.791057
Si Si2 0.206759 0.443592 0.821216
Si Si3 0.748354 0.420896 0.649644
Si Si4 0.000000 0.000000 0.000000
Si Si5 0.437083 0.255821 0.178638
Si Si6 0.263924 0.691660 0.734405
Si Si7 0.842164 0.750869 0.489175
Si Si8 0.289755 0.003141 0.595242
O O1 0.353741 0.335484 0.833663
O O2 0.645000 0.366006 0.805708
O O3 0.679641 0.135389 0.569953
O O4 0.542040 0.191912 0.944421
O O5 0.252031 0.575472 0.814730
O O6 0.210501 0.361241 0.625297
O O7 0.000000 0.500000 0.000000
O O8 0.693379 0.584126 0.746175
O O9 0.693389 0.381027 0.485629
O O10 0.963120 0.332284 0.547921
O O11 0.920387 0.168125 0.129442
O O12 0.824400 0.994708 0.192276
O O13 0.578770 0.264613 0.250169
O O14 0.313239 0.183779 0.281561
O O15 0.834670 0.864550 0.406290
O O16 0.500000 0.000000 0.500000
#
# Coordination Sequence:
#
# PCOD9070708 Si02
#       8
#     2   2   2   1   2   2   2   2
#     4  12  27  47  76 110 155 195 256 312 385 450
#     4  12  25  45  74 110 146 201 251 317 378 449
#     4  12  25  47  73 110 148 194 256 317 372 455
#     4  12  28  48  78 112 146 204 252 314 384 448
#     4  12  26  46  75 111 149 198 249 319 381 450
#     4  12  26  46  76 102 150 200 252 308 385 451
#     4  12  27  45  76 109 152 192 258 311 377 456
#     4  12  27  52  77 112 156 202 257 312 379 467
#
# _framework density 23.664952
#
# number of rings (size 3 to 8) (size 9 to 14) (size 15 to 20)
#    0.000    0.000    5.333    4.400    5.600    2.133 
#    0.000    0.000    0.000    0.000    0.000    0.000 
#    0.000    0.000    0.000    0.000    0.000    0.000 
#
# Total GULP energy -83760.080328 kJ/mol
# GULP energy per Si atom -5584.005355 kJ/mol
# Density = 2.361109 g / cm^3
# Si number density = 23.664952 Si / 1000 Ang^3
#
#
#
# Elastic Constant Matrix: (Units=GPa)
#
#
# Indices 1 2 3 4 5 6 
#
# 1 68.4037 -5.8861 16.5459 -20.2554 -7.0287 -2.9801
# 2 -5.8861 85.1077 17.3173 3.5921 -8.3146 5.1978
# 3 16.5459 17.3173 134.4333 -14.5643 -22.1753 6.3954
# 4 -20.2554 3.5921 -14.5643 45.7167 5.1307 -5.2118
# 5 -7.0287 -8.3146 -22.1753 5.1307 27.2996 -6.3634
# 6 -2.9801 5.1978 6.3954 -5.2118 -6.3634 18.9560
#
#
#
# Elastic Compliance Matrix: (Units=1/GPa)
#
#
# Indices 1 2 3 4 5 6 
#
# 1 0.018004 0.001158 -0.001153 0.007792 0.004083 0.006414
# 2 0.001158 0.012579 -0.001357 -0.001479 0.002772 -0.002285
# 3 -0.001153 -0.001357 0.008977 0.001729 0.006191 -0.000284
# 4 0.007792 -0.001479 0.001729 0.026969 -0.000148 0.008412
# 5 0.004083 0.002772 0.006191 -0.000148 0.046714 0.013434
# 6 0.006414 -0.002285 -0.000284 0.008412 0.013434 0.061307
#
#
# Mechanical properties :
#
#
# Convention : Reuss Voigt Hill
#
# Bulk Modulus (GPa) = 27.13244 38.21099 32.67172
# Shear Modulus (GPa) = 26.37980 35.72564 31.05272
#
# Velocity S-wave (km/s) = 3.34236 3.88963 3.62633
# Velocity P-wave (km/s) = 5.13667 6.02943 5.60086
#
# Compressibility (1/GPa) = 0.03685624
#
# Stress axis : x y z
#
# Youngs Moduli (GPa) = 55.54406 79.49825 111.39122
#
# Poissons Ratio (x) = -0.09205 0.12839
# Poissons Ratio (y) = -0.06432 0.15118
# Poissons Ratio (z) = 0.06402 0.10789
#
# Static dielectric constant tensor:
#      x y z
#    x 1.901220 0.004050 -0.008850 
#    y 0.004050 1.901000 -0.039590 
#    z -0.008850 -0.039590 1.933190 
# 
# From -- ./inp_files/181152.got.cif
#   From: 2010.05.17/outbox.cif.g08.bks.cpg/sg2_91_cif.got.tgz:181152.got - 2010.06.03 11:33:40.
