data_PCOD9070722
_publ_section_title
;
Structure prediction by ZEFSAII (Michael W. Deem and Ramdas Pophale) SiO2 
 PCOD9070722
Probable space group: P -1
;
_chemical_formula_sum "Si O2"
_cell_formula_units_Z 16
_cell_length_a 13.116454
_cell_length_b 8.635832
_cell_length_c 9.492448
_cell_angle_alpha 110.743024
_cell_angle_beta 142.565077
_cell_angle_gamma 67.745529
_cell_volume 602.163577
_symmetry_space_group_name_H-M "P -1"
_symmetry_group_IT_number 2
_symmetry_cell_setting 'triclinic'
loop_
_space_group_symop_operation_xyz
x,y,z
-x,-y,-z
loop_
_atom_site_type_symbol
_atom_site_label
_atom_site_fract_x
_atom_site_fract_y
_atom_site_fract_z
Si Si1 0.912463 0.998594 0.116253
Si Si2 0.371683 0.847076 0.337349
Si Si3 0.471721 0.493506 0.633813
Si Si4 0.832390 0.556522 0.172131
Si Si5 0.675156 0.540573 0.269339
Si Si6 0.028992 0.741981 0.951557
Si Si7 0.410655 0.054945 0.716026
Si Si8 0.782629 0.951763 0.238661
O O1 0.905803 0.018585 0.281612
O O2 0.724912 0.076835 0.881273
O O3 0.019399 0.112459 0.175308
O O4 0.936277 0.811190 0.014929
O O5 0.523624 0.706451 0.414260
O O6 0.224202 0.751754 0.207249
O O7 0.410834 0.970922 0.537556
O O8 0.500000 0.500000 0.500000
O O9 0.641127 0.551009 0.900522
O O10 0.320969 0.547926 0.600429
O O11 0.962837 0.433573 0.175465
O O12 0.845782 0.750746 0.246700
O O13 0.821206 0.481688 0.294289
O O14 0.647077 0.744119 0.292762
O O15 0.500000 0.500000 0.000000
O O16 0.594210 0.995135 0.971329
O O17 0.270151 0.989128 0.642059
#
# Coordination Sequence:
#
# PCOD9070722 Si02
#       8
#     2   2   2   2   2   2   2   2
#     4   9  18  35  57  74  96 138 182 209 253 299
#     4   9  18  33  51  73 104 134 165 216 253 298
#     4  10  18  29  46  73 106 133 165 202 252 308
#     4   9  18  33  49  72 102 131 170 210 248 302
#     4   9  19  32  48  68 101 146 167 195 251 310
#     4   8  18  36  56  74  96 136 183 212 248 303
#     4  10  20  33  49  78 114 130 168 207 258 315
#     4  10  20  31  51  80 105 137 167 208 255 307
#
# _framework density 26.570851999999999
#
# number of rings (size 3 to 8) (size 9 to 14) (size 15 to 20)
#    0.750    2.000    0.000    1.500    1.750    4.500 
#    0.000    0.625    0.000    3.000    0.000    0.000 
#    0.000    0.000    0.000    0.000    0.000    0.000 
#
# Total GULP energy -89175.997118 kJ/mol
# GULP energy per Si atom -5573.499820 kJ/mol
# Density = 2.651038 g / cm^3
# Si number density = 26.570852 Si / 1000 Ang^3
#
#
#
# Elastic Constant Matrix: (Units=GPa)
#
#
# Indices 1 2 3 4 5 6 
#
# 1 90.8280 -1.0160 15.5560 -18.0420 -22.6186 20.8471
# 2 -1.0160 68.2076 -6.1081 10.6691 -0.9873 -7.1035
# 3 15.5560 -6.1081 83.2800 -2.7597 -30.4352 13.5221
# 4 -18.0420 10.6691 -2.7597 35.2384 7.0220 2.6977
# 5 -22.6186 -0.9873 -30.4352 7.0220 45.2462 -0.9089
# 6 20.8471 -7.1035 13.5221 2.6977 -0.9089 22.1308
#
#
#
# Elastic Compliance Matrix: (Units=1/GPa)
#
#
# Indices 1 2 3 4 5 6 
#
# 1 0.020885 -0.003541 0.004137 0.011794 0.010827 -0.024331
# 2 -0.003541 0.016813 0.000096 -0.007639 0.000040 0.009606
# 3 0.004137 0.000096 0.018953 0.001895 0.014222 -0.015094
# 4 0.011794 -0.007639 0.001895 0.038223 0.000683 -0.019351
# 5 0.010827 0.000040 0.014222 0.000683 0.036625 -0.017455
# 6 -0.024331 0.009606 -0.015094 -0.019351 -0.017455 0.082053
#
#
# Mechanical properties :
#
#
# Convention : Reuss Voigt Hill
#
# Bulk Modulus (GPa) = 17.23014 28.79774 23.01394
# Shear Modulus (GPa) = 21.59716 36.11534 28.85625
#
# Velocity S-wave (km/s) = 2.85408 3.69074 3.29904
# Velocity P-wave (km/s) = 4.16650 5.38737 4.81578
#
# Compressibility (1/GPa) = 0.05803783
#
# Stress axis : x y z
#
# Youngs Moduli (GPa) = 47.88063 59.47817 52.76209
#
# Poissons Ratio (x) = 0.21058 -0.21830
# Poissons Ratio (y) = 0.16952 -0.00509
# Poissons Ratio (z) = -0.19811 -0.00573
#
# Static dielectric constant tensor:
#      x y z
#    x 2.178520 0.014650 0.059920 
#    y 0.014650 2.116990 0.008650 
#    z 0.059920 0.008650 2.075020 
# 
# From -- ./inp_files/292820.got.cif
#   From: 2010.05.17/outbox.cif.g08.bks.cpg/sg2_147_cif.got.tgz:292820.got - 2010.06.03 11:33:40.
