data_PCOD9070790
_publ_section_title
;
Structure prediction by ZEFSAII (Michael W. Deem and Ramdas Pophale) SiO2 
 PCOD9070790
Probable space group: P -1
;
_chemical_formula_sum "Si O2"
_cell_formula_units_Z 12
_cell_length_a 8.881251
_cell_length_b 9.197383
_cell_length_c 15.028395
_cell_angle_alpha 63.439360
_cell_angle_beta 137.835217
_cell_angle_gamma 85.375315
_cell_volume 536.092832
_symmetry_space_group_name_H-M "P -1"
_symmetry_group_IT_number 2
_symmetry_cell_setting 'triclinic'
loop_
_space_group_symop_operation_xyz
x,y,z
-x,-y,-z
loop_
_atom_site_type_symbol
_atom_site_label
_atom_site_fract_x
_atom_site_fract_y
_atom_site_fract_z
Si Si1 0.302351 0.950486 0.964153
Si Si2 0.778702 0.322886 0.103373
Si Si3 0.248125 0.963228 0.555669
Si Si4 0.636860 0.261733 0.598185
Si Si5 0.184398 0.423699 0.205668
Si Si6 0.289651 0.042264 0.139738
O O1 0.359301 0.741442 0.008275
O O2 0.955465 0.148425 0.722120
O O3 0.500000 0.000000 0.000000
O O4 0.323787 0.961439 0.076707
O O5 0.941979 0.394789 0.106688
O O6 0.500000 0.500000 0.000000
O O7 0.052008 0.121317 0.341955
O O8 0.545899 0.722352 0.710076
O O9 0.408682 0.016273 0.675077
O O10 0.000000 0.000000 0.500000
O O11 0.500000 0.500000 0.500000
O O12 0.379350 0.306756 0.413454
O O13 0.739699 0.093264 0.768862
O O14 0.992092 0.687613 0.052385
#
# Coordination Sequence:
#
# PCOD9070790 Si02
#       6
#     2   2   2   2   2   2
#     4  12  26  47  75 112 157 197 250 315 383 451
#     4  12  26  49  78 112 158 202 251 319 382 452
#     4  12  25  46  75 116 150 196 261 314 376 455
#     4  12  26  49  78 110 153 198 257 313 383 458
#     4  12  25  50  80 108 156 202 254 321 379 450
#     4  12  27  49  78 113 147 203 259 307 390 458
#
# _framework density 22.384184000000001
#
# number of rings (size 3 to 8) (size 9 to 14) (size 15 to 20)
#    0.000    0.000    5.000    5.500    0.000    1.333 
#    0.000    1.667    0.000    0.000    0.000    0.000 
#    0.000    0.000    0.000    0.000    0.000    0.000 
#
# Total GULP energy -67061.086349 kJ/mol
# GULP energy per Si atom -5588.423862 kJ/mol
# Density = 2.233324 g / cm^3
# Si number density = 22.384184 Si / 1000 Ang^3
#
#
#
# Elastic Constant Matrix: (Units=GPa)
#
#
# Indices 1 2 3 4 5 6 
#
# 1 150.0925 88.1847 81.6214 -5.3763 15.6360 14.8744
# 2 88.1847 197.3116 71.1457 15.8678 10.6644 -9.3215
# 3 81.6214 71.1457 146.5233 9.7780 -10.0365 1.6032
# 4 -5.3763 15.8678 9.7780 54.4870 -1.7817 1.0662
# 5 15.6360 10.6644 -10.0365 -1.7817 54.9303 6.9318
# 6 14.8744 -9.3215 1.6032 1.0662 6.9318 39.6140
#
#
#
# Elastic Compliance Matrix: (Units=1/GPa)
#
#
# Indices 1 2 3 4 5 6 
#
# 1 0.013236 -0.004211 -0.005729 0.003558 -0.003218 -0.005262
# 2 -0.004211 0.007921 -0.001450 -0.002574 -0.001164 0.003777
# 3 -0.005729 -0.001450 0.011106 -0.002027 0.003781 0.000753
# 4 0.003558 -0.002574 -0.002027 0.019867 0.000064 -0.002406
# 5 -0.003218 -0.001164 0.003781 0.000064 0.020392 -0.002789
# 6 -0.005262 0.003777 0.000753 -0.002406 -0.002789 0.028630
#
#
# Mechanical properties :
#
#
# Convention : Reuss Voigt Hill
#
# Bulk Modulus (GPa) = 105.43680 108.42567 106.93123
# Shear Modulus (GPa) = 39.34155 46.67129 43.00642
#
# Velocity S-wave (km/s) = 4.19687 4.57115 4.38800
# Velocity P-wave (km/s) = 8.40777 8.74095 8.57598
#
# Compressibility (1/GPa) = 0.00948435
#
# Stress axis : x y z
#
# Youngs Moduli (GPa) = 75.55176 126.24415 90.04005
#
# Poissons Ratio (x) = 0.53157 0.51583
# Poissons Ratio (y) = 0.31812 0.13055
# Poissons Ratio (z) = 0.43283 0.18304
#
# Static dielectric constant tensor:
#      x y z
#    x 1.941870 0.123040 0.008060 
#    y 0.123040 2.161460 -0.053640 
#    z 0.008060 -0.053640 1.899950 
# 
# From -- ./inp_files/271435.got.cif
#   From: 2010.05.17/outbox.cif.g08.bks.cpg/sg2_136_cif.got.tgz:271435.got - 2010.06.03 11:33:40.
