data_PCOD9070451
_publ_section_title
;
Structure prediction by ZEFSAII (Michael W. Deem and Ramdas Pophale) SiO2 
 PCOD9070451
Probable space group: P -1
;
_chemical_formula_sum "Si O2"
_cell_formula_units_Z 16
_cell_length_a 12.470180
_cell_length_b 17.701174
_cell_length_c 9.235403
_cell_angle_alpha 29.181053
_cell_angle_beta 50.623707
_cell_angle_gamma 49.556548
_cell_volume 743.622005
_symmetry_space_group_name_H-M "P -1"
_symmetry_group_IT_number 2
_symmetry_cell_setting 'triclinic'
loop_
_space_group_symop_operation_xyz
x,y,z
-x,-y,-z
loop_
_atom_site_type_symbol
_atom_site_label
_atom_site_fract_x
_atom_site_fract_y
_atom_site_fract_z
Si Si1 0.390869 0.613502 0.290387
Si Si2 0.739454 0.659607 0.161164
Si Si3 0.142207 0.878296 0.525829
Si Si4 0.134000 0.332788 0.263463
Si Si5 0.100896 0.855932 0.256225
Si Si6 0.436634 0.159843 0.376692
Si Si7 0.026650 0.585848 0.185067
Si Si8 0.589965 0.010573 0.765884
O O1 0.500000 0.500000 0.500000
O O2 0.325226 0.481533 0.486998
O O3 0.252352 0.753470 0.229292
O O4 0.493462 0.701359 0.971405
O O5 0.868804 0.682796 0.109428
O O6 0.800495 0.606365 0.037732
O O7 0.633888 0.834466 0.950058
O O8 0.138585 0.893285 0.327538
O O9 0.275171 0.926088 0.406352
O O10 0.129842 0.705278 0.885330
O O11 0.000000 0.000000 0.500000
O O12 0.266781 0.201376 0.435202
O O13 0.079751 0.457017 0.228951
O O14 0.005836 0.259879 0.444265
O O15 0.000000 0.000000 0.000000
O O16 0.500000 0.000000 0.500000
O O17 0.488188 0.128637 0.546979
O O18 0.000000 0.500000 0.500000
O O19 0.500000 0.000000 0.000000
#
# Coordination Sequence:
#
# PCOD9070451 Si02
#       8
#     2   2   2   2   2   2   2   2
#     4  12  26  45  77 112 146 186 250 313 371 434
#     4  12  24  49  72 104 148 193 241 310 364 435
#     4  12  28  48  73 107 150 195 246 307 379 440
#     4  12  24  48  76 105 142 190 255 301 360 432
#     4  12  28  44  82 110 144 195 261 304 366 447
#     4  12  27  48  77 107 148 193 251 303 369 452
#     4  12  28  45  73 109 149 188 243 309 373 437
#     4  12  30  49  72 107 159 196 241 306 382 448
#
# _framework density 21.516307999999999
#
# number of rings (size 3 to 8) (size 9 to 14) (size 15 to 20)
#    0.000    0.000    6.250    1.875   12.250    0.000 
#    0.000    1.250    0.000    0.000    0.000    0.000 
#    0.000    0.000    0.000    0.000    0.000    0.000 
#
# Total GULP energy -89415.555015 kJ/mol
# GULP energy per Si atom -5588.472188 kJ/mol
# Density = 2.146734 g / cm^3
# Si number density = 21.516308 Si / 1000 Ang^3
#
#
#
# Elastic Constant Matrix: (Units=GPa)
#
#
# Indices 1 2 3 4 5 6 
#
# 1 100.4848 16.6496 18.0801 5.8368 12.3643 -9.6141
# 2 16.6496 51.2195 12.0756 -3.4862 14.8353 -5.4612
# 3 18.0801 12.0756 105.0017 3.7079 17.6916 14.3367
# 4 5.8368 -3.4862 3.7079 31.5095 0.7337 1.6337
# 5 12.3643 14.8353 17.6916 0.7337 52.3690 -5.5500
# 6 -9.6141 -5.4612 14.3367 1.6337 -5.5500 42.6531
#
#
#
# Elastic Compliance Matrix: (Units=1/GPa)
#
#
# Indices 1 2 3 4 5 6 
#
# 1 0.011246 -0.002839 -0.001741 -0.002312 -0.000942 0.002723
# 2 -0.002839 0.022740 -0.001673 0.003250 -0.005034 0.002054
# 3 -0.001741 -0.001673 0.011280 -0.000861 -0.003423 -0.004811
# 4 -0.002312 0.003250 -0.000861 0.032701 -0.000664 -0.001155
# 5 -0.000942 -0.005034 -0.003423 -0.000664 0.022250 0.003214
# 6 0.002723 0.002054 -0.004811 -0.001155 0.003214 0.026401
#
#
# Mechanical properties :
#
#
# Convention : Reuss Voigt Hill
#
# Bulk Modulus (GPa) = 30.52752 38.92407 34.72580
# Shear Modulus (GPa) = 33.32328 39.29971 36.31150
#
# Velocity S-wave (km/s) = 3.93968 4.27840 4.11253
# Velocity P-wave (km/s) = 5.90878 6.52197 6.22293
#
# Compressibility (1/GPa) = 0.03275733
#
# Stress axis : x y z
#
# Youngs Moduli (GPa) = 88.91886 43.97620 88.65281
#
# Poissons Ratio (x) = 0.12487 0.15438
# Poissons Ratio (y) = 0.25248 0.14835
# Poissons Ratio (z) = 0.15484 0.07359
#
# Static dielectric constant tensor:
#      x y z
#    x 1.782360 -0.030210 0.026050 
#    y -0.030210 1.773880 -0.027260 
#    z 0.026050 -0.027260 1.813420 
# 
# From -- ./inp_files/278643.got.cif
#   From: 2010.05.17/outbox.cif.g08.bks.cpg/sg2_140_cif.got.tgz:278643.got - 2010.06.03 11:33:40.
