data_PCOD9070986
_publ_section_title
;
Structure prediction by ZEFSAII (Michael W. Deem and Ramdas Pophale) SiO2 
 PCOD9070986
Probable space group: P -1
;
_chemical_formula_sum "Si O2"
_cell_formula_units_Z 10
_cell_length_a 7.920207
_cell_length_b 11.669789
_cell_length_c 4.865345
_cell_angle_alpha 98.451101
_cell_angle_beta 119.016377
_cell_angle_gamma 72.741384
_cell_volume 375.537105
_symmetry_space_group_name_H-M "P -1"
_symmetry_group_IT_number 2
_symmetry_cell_setting 'triclinic'
loop_
_space_group_symop_operation_xyz
x,y,z
-x,-y,-z
loop_
_atom_site_type_symbol
_atom_site_label
_atom_site_fract_x
_atom_site_fract_y
_atom_site_fract_z
Si Si1 0.841065 0.494878 0.132374
Si Si2 0.825309 0.116248 0.465163
Si Si3 0.434658 0.132230 0.356478
Si Si4 0.612390 0.593801 0.492035
Si Si5 0.042498 0.780673 0.894648
O O1 0.652842 0.558534 0.196442
O O2 0.000000 0.500000 0.500000
O O3 0.863596 0.358151 0.018772
O O4 0.803401 0.569092 0.845718
O O5 0.598391 0.111294 0.226667
O O6 0.899201 0.212262 0.375631
O O7 0.000000 0.000000 0.500000
O O8 0.848943 0.138693 0.813298
O O9 0.465181 0.262524 0.519564
O O10 0.191403 0.168106 0.192774
O O11 0.500000 0.000000 0.500000
O O12 0.500000 0.500000 0.500000
#
# Coordination Sequence:
#
# PCOD9070986 Si02
#       5
#     2   2   2   2   2
#     4  12  25  48  77 111 155 206 261 325 398 470
#     4  12  28  51  74 115 159 208 262 330 392 480
#     4  12  28  50  82 118 158 210 267 324 407 472
#     4  12  27  50  79 115 158 207 267 331 394 482
#     4  12  27  50  80 112 162 204 268 327 399 471
#
# _framework density 26.628526999999998
#
# number of rings (size 3 to 8) (size 9 to 14) (size 15 to 20)
#    0.000    0.000    4.000    5.400    2.800    4.000 
#    0.000    0.000    0.000    0.000    0.000    0.000 
#    0.000    0.000    0.000    0.000    0.000    0.000 
#
# Total GULP energy -55740.309201 kJ/mol
# GULP energy per Si atom -5574.030920 kJ/mol
# Density = 2.656792 g / cm^3
# Si number density = 26.628527 Si / 1000 Ang^3
#
#
#
# Elastic Constant Matrix: (Units=GPa)
#
#
# Indices 1 2 3 4 5 6 
#
# 1 129.5458 28.5603 26.4845 -17.5018 9.9442 -5.4001
# 2 28.5603 210.5176 43.2405 -32.2659 4.6461 -7.1858
# 3 26.4845 43.2405 91.6425 2.8115 -5.3445 -16.0410
# 4 -17.5018 -32.2659 2.8115 48.3184 -5.7591 6.4022
# 5 9.9442 4.6461 -5.3445 -5.7591 55.0177 0.1732
# 6 -5.4001 -7.1858 -16.0410 6.4022 0.1732 51.7135
#
#
#
# Elastic Compliance Matrix: (Units=1/GPa)
#
#
# Indices 1 2 3 4 5 6 
#
# 1 0.008834 -0.000135 -0.002731 0.003130 -0.001522 -0.000326
# 2 -0.000135 0.006028 -0.003067 0.004200 -0.000341 -0.000647
# 3 -0.002731 -0.003067 0.014107 -0.004213 0.001669 0.004180
# 4 0.003130 0.004200 -0.004213 0.025512 0.001352 -0.003559
# 5 -0.001522 -0.000341 0.001669 0.001352 0.018783 0.000081
# 6 -0.000326 -0.000647 0.004180 -0.003559 0.000081 0.020951
#
#
# Mechanical properties :
#
#
# Convention : Reuss Voigt Hill
#
# Bulk Modulus (GPa) = 58.47393 69.80852 64.14122
# Shear Modulus (GPa) = 44.73071 53.23796 48.98434
#
# Velocity S-wave (km/s) = 4.10299 4.47619 4.29364
# Velocity P-wave (km/s) = 6.66729 7.27926 6.97999
#
# Compressibility (1/GPa) = 0.01710164
#
# Stress axis : x y z
#
# Youngs Moduli (GPa) = 113.20540 165.90330 70.88909
#
# Poissons Ratio (x) = 0.02245 0.19359
# Poissons Ratio (y) = 0.01532 0.21741
# Poissons Ratio (z) = 0.30915 0.50880
#
# Static dielectric constant tensor:
#      x y z
#    x 2.969010 0.084380 0.182130 
#    y 0.084380 2.050280 -0.052730 
#    z 0.182130 -0.052730 2.168970 
# 
# From -- ./inp_files/22032.got.cif
#   From: 2010.05.17/outbox.cif.g08.bks.cpg/sg2_12_cif.got.tgz:22032.got - 2010.06.03 11:33:40.
