data_PCOD9070312
_publ_section_title
;
Structure prediction by ZEFSAII (Michael W. Deem and Ramdas Pophale) SiO2 
 PCOD9070312
Probable space group: P -1
;
_chemical_formula_sum "Si O2"
_cell_formula_units_Z 15
_cell_length_a 9.583831
_cell_length_b 14.984532
_cell_length_c 14.043520
_cell_angle_alpha 151.834182
_cell_angle_beta 121.309015
_cell_angle_gamma 42.058308
_cell_volume 576.773258
_symmetry_space_group_name_H-M "P -1"
_symmetry_group_IT_number 2
_symmetry_cell_setting 'triclinic'
loop_
_space_group_symop_operation_xyz
x,y,z
-x,-y,-z
loop_
_atom_site_type_symbol
_atom_site_label
_atom_site_fract_x
_atom_site_fract_y
_atom_site_fract_z
Si Si1 0.127153 0.486860 0.623108
Si Si2 0.828620 0.814507 0.320637
Si Si3 0.536928 0.345868 0.235705
Si Si4 0.809913 0.023774 0.309673
Si Si5 0.537833 0.109646 0.817870
Si Si6 0.812556 0.645815 0.841290
Si Si7 0.000000 0.000000 0.000000
Si Si8 0.712125 0.184706 0.780979
O O1 0.984276 0.551741 0.727854
O O2 0.000000 0.500000 0.500000
O O3 0.368312 0.180330 0.417089
O O4 0.126813 0.709360 0.816269
O O5 0.861894 0.913774 0.332615
O O6 0.050149 0.584706 0.245900
O O7 0.710478 0.714920 0.152282
O O8 0.671740 0.057997 0.567830
O O9 0.399646 0.314495 0.226229
O O10 0.385842 0.656623 0.463663
O O11 0.805994 0.159214 0.170032
O O12 0.546236 0.214383 0.017233
O O13 0.048253 0.911867 0.248130
O O14 0.742728 0.894004 0.103490
O O15 0.708013 0.083733 0.785323
O O16 0.500000 0.500000 0.000000
#
# Coordination Sequence:
#
# PCOD9070312 Si02
#       8
#     2   2   2   2   2   2   1   2
#     4  12  28  56  80 110 153 204 271 335 389 455
#     4  12  24  47  73 118 165 210 248 309 391 480
#     4  12  27  52  78 115 157 207 263 328 389 464
#     4  12  26  46  75 117 165 206 253 313 390 470
#     4  12  25  48  78 114 162 209 258 321 393 460
#     4  12  28  49  79 117 159 205 255 317 404 470
#     4  12  30  50  86 108 142 208 278 332 392 446
#     4  12  26  40  73 122 168 210 254 303 380 483
#
# _framework density 26.006753
#
# number of rings (size 3 to 8) (size 9 to 14) (size 15 to 20)
#    0.000    0.000    5.333    3.600    5.600    1.600 
#    0.000    1.333    0.000    0.000    0.000    0.000 
#    0.000    0.000    0.000    0.000    0.000    0.000 
#
# Total GULP energy -83933.197957 kJ/mol
# GULP energy per Si atom -5595.546530 kJ/mol
# Density = 2.594756 g / cm^3
# Si number density = 26.006753 Si / 1000 Ang^3
#
#
#
# Elastic Constant Matrix: (Units=GPa)
#
#
# Indices 1 2 3 4 5 6 
#
# 1 114.8979 13.5332 29.3569 8.0997 1.3761 3.2610
# 2 13.5332 86.1501 37.0693 4.6429 2.9929 5.8432
# 3 29.3569 37.0693 211.0579 26.9954 8.6561 20.7083
# 4 8.0997 4.6429 26.9954 42.3568 5.4673 -9.5702
# 5 1.3761 2.9929 8.6561 5.4673 45.8423 2.9776
# 6 3.2610 5.8432 20.7083 -9.5702 2.9776 19.2565
#
#
#
# Elastic Compliance Matrix: (Units=1/GPa)
#
#
# Indices 1 2 3 4 5 6 
#
# 1 0.009153 -0.000938 -0.000832 -0.001386 0.000180 -0.001088
# 2 -0.000938 0.012712 -0.001854 -0.000419 -0.000280 -0.001870
# 3 -0.000832 -0.001854 0.006963 -0.006362 0.000238 -0.009983
# 4 -0.001386 -0.000419 -0.006362 0.034163 -0.004419 0.024865
# 5 0.000180 -0.000280 0.000238 -0.004419 0.022693 -0.005907
# 6 -0.001088 -0.001870 -0.009983 0.024865 -0.005907 0.076689
#
#
# Mechanical properties :
#
#
# Convention : Reuss Voigt Hill
#
# Bulk Modulus (GPa) = 46.33682 63.55829 54.94755
# Shear Modulus (GPa) = 28.27875 43.63421 35.95648
#
# Velocity S-wave (km/s) = 3.30109 4.10054 3.72234
# Velocity P-wave (km/s) = 5.69083 6.84920 6.29671
#
# Compressibility (1/GPa) = 0.02158111
#
# Stress axis : x y z
#
# Youngs Moduli (GPa) = 109.25642 78.66775 143.62262
#
# Poissons Ratio (x) = 0.07376 0.11945
# Poissons Ratio (y) = 0.10244 0.26623
# Poissons Ratio (z) = 0.09087 0.14582
#
# Static dielectric constant tensor:
#      x y z
#    x 2.121260 -0.079510 -0.025210 
#    y -0.079510 2.121210 0.032350 
#    z -0.025210 0.032350 2.015620 
# 
# From -- ./inp_files/505888.got.cif
#   From: 2010.05.17/outbox.cif.g08.bks.cpg/sg2_253_cif.got.tgz:505888.got - 2010.06.03 11:33:40.
