data_PCOD9070878
_publ_section_title
;
Structure prediction by ZEFSAII (Michael W. Deem and Ramdas Pophale) SiO2 
 PCOD9070878
Probable space group: P -1
;
_chemical_formula_sum "Si O2"
_cell_formula_units_Z 16
_cell_length_a 17.193936
_cell_length_b 12.398396
_cell_length_c 8.140110
_cell_angle_alpha 112.828843
_cell_angle_beta 50.267638
_cell_angle_gamma 146.908015
_cell_volume 682.154461
_symmetry_space_group_name_H-M "P -1"
_symmetry_group_IT_number 2
_symmetry_cell_setting 'triclinic'
loop_
_space_group_symop_operation_xyz
x,y,z
-x,-y,-z
loop_
_atom_site_type_symbol
_atom_site_label
_atom_site_fract_x
_atom_site_fract_y
_atom_site_fract_z
Si Si1 0.528967 0.634191 0.420610
Si Si2 0.679140 0.216309 0.788051
Si Si3 0.148105 0.379368 0.119369
Si Si4 0.535167 0.163376 0.611970
Si Si5 0.305891 0.320818 0.067502
Si Si6 0.210402 0.995683 0.120424
Si Si7 0.248715 0.977574 0.437889
Si Si8 0.191058 0.419223 0.700171
O O1 0.500000 0.500000 0.500000
O O2 0.684343 0.743084 0.152926
O O3 0.339041 0.463423 0.475137
O O4 0.591700 0.807026 0.544952
O O5 0.796929 0.430061 0.842167
O O6 0.626197 0.231582 0.704089
O O7 0.768919 0.178533 0.604965
O O8 0.500000 0.000000 0.000000
O O9 0.941925 0.157033 0.320402
O O10 0.258677 0.405083 0.116643
O O11 0.171419 0.372904 0.892265
O O12 0.683024 0.352899 0.394614
O O13 0.500000 0.000000 0.500000
O O14 0.358120 0.075265 0.843027
O O15 0.500000 0.500000 0.000000
O O16 0.188920 0.116154 0.209314
O O17 0.269675 0.021348 0.241242
O O18 0.006301 0.756036 0.215323
#
# Coordination Sequence:
#
# PCOD9070878 Si02
#       8
#     2   2   2   2   2   2   2   2
#     4  12  25  47  76 107 152 205 254 307 390 455
#     4  12  25  49  78 107 153 203 257 315 392 456
#     4  12  28  48  76 114 153 204 260 316 388 468
#     4  12  26  48  77 110 156 205 258 319 385 457
#     4  12  27  48  80 111 158 202 258 320 389 461
#     4  12  28  49  76 118 154 200 261 321 386 461
#     4  12  28  50  77 113 156 204 257 321 386 462
#     4  12  28  47  77 114 154 201 259 319 387 455
#
# _framework density 23.455099000000001
#
# number of rings (size 3 to 8) (size 9 to 14) (size 15 to 20)
#    0.000    0.000    3.750    5.625    5.250    2.000 
#    0.000    0.000    0.000    0.000    0.000    0.000 
#    0.000    0.000    0.000    0.000    0.000    0.000 
#
# Total GULP energy -89280.941526 kJ/mol
# GULP energy per Si atom -5580.058845 kJ/mol
# Density = 2.340171 g / cm^3
# Si number density = 23.455099 Si / 1000 Ang^3
#
#
#
# Elastic Constant Matrix: (Units=GPa)
#
#
# Indices 1 2 3 4 5 6 
#
# 1 124.2878 38.3868 21.7298 -5.8846 0.2849 -15.5656
# 2 38.3868 110.5540 41.7136 -0.3732 -3.0082 -9.1472
# 3 21.7298 41.7136 87.1083 -7.6921 -5.6397 2.4536
# 4 -5.8846 -0.3732 -7.6921 36.8055 -4.5069 -2.7718
# 5 0.2849 -3.0082 -5.6397 -4.5069 20.1130 -1.9495
# 6 -15.5656 -9.1472 2.4536 -2.7718 -1.9495 46.1433
#
#
#
# Elastic Compliance Matrix: (Units=1/GPa)
#
#
# Indices 1 2 3 4 5 6 
#
# 1 0.009472 -0.002661 -0.001055 0.001450 -0.000231 0.002801
# 2 -0.002661 0.012104 -0.005274 -0.001244 0.000257 0.001719
# 3 -0.001055 -0.005274 0.014860 0.003228 0.003939 -0.001831
# 4 0.001450 -0.001244 0.003228 0.029135 0.007434 0.002135
# 5 -0.000231 0.000257 0.003939 0.007434 0.052768 0.002439
# 6 0.002801 0.001719 -0.001831 0.002135 0.002439 0.023286
#
#
# Mechanical properties :
#
#
# Convention : Reuss Voigt Hill
#
# Bulk Modulus (GPa) = 54.17838 58.40116 56.28977
# Shear Modulus (GPa) = 30.16479 35.28703 32.72591
#
# Velocity S-wave (km/s) = 3.59007 3.88293 3.73937
# Velocity P-wave (km/s) = 6.35088 6.71238 6.53413
#
# Compressibility (1/GPa) = 0.01845755
#
# Stress axis : x y z
#
# Youngs Moduli (GPa) = 105.57507 82.61596 67.29296
#
# Poissons Ratio (x) = 0.21981 0.07097
# Poissons Ratio (y) = 0.28089 0.35492
# Poissons Ratio (z) = 0.11134 0.43574
#
# Static dielectric constant tensor:
#      x y z
#    x 1.892370 -0.016270 -0.044840 
#    y -0.016270 1.954780 0.064300 
#    z -0.044840 0.064300 2.025320 
# 
# From -- ./inp_files/333603.got.cif
#   From: 2010.05.17/outbox.cif.g08.bks.cpg/sg2_167_cif.got.tgz:333603.got - 2010.06.03 11:33:40.
