data_PCOD9070114
_publ_section_title
;
Structure prediction by ZEFSAII (Michael W. Deem and Ramdas Pophale) SiO2 
 PCOD9070114
Probable space group: P -1
;
_chemical_formula_sum "Si O2"
_cell_formula_units_Z 15
_cell_length_a 8.886517
_cell_length_b 10.454344
_cell_length_c 6.549151
_cell_angle_alpha 84.342702
_cell_angle_beta 80.575746
_cell_angle_gamma 100.254093
_cell_volume 585.500111
_symmetry_space_group_name_H-M "P -1"
_symmetry_group_IT_number 2
_symmetry_cell_setting 'triclinic'
loop_
_space_group_symop_operation_xyz
x,y,z
-x,-y,-z
loop_
_atom_site_type_symbol
_atom_site_label
_atom_site_fract_x
_atom_site_fract_y
_atom_site_fract_z
Si Si1 0.751466 0.875669 0.476706
Si Si2 0.007322 0.777626 0.224686
Si Si3 0.445145 0.123090 0.098890
Si Si4 0.191167 0.669077 0.521972
Si Si5 0.474208 0.313511 0.695463
Si Si6 0.761060 0.132828 0.188100
Si Si7 0.162295 0.462090 0.899534
Si Si8 0.500000 0.500000 0.000000
O O1 0.924951 0.861923 0.384062
O O2 0.697402 0.907124 0.708358
O O3 0.643263 0.738559 0.451511
O O4 0.716674 0.990154 0.318996
O O5 0.881433 0.692229 0.116278
O O6 0.079589 0.673416 0.356099
O O7 0.139665 0.861764 0.040385
O O8 0.602719 0.184931 0.175248
O O9 0.418718 0.229271 0.925403
O O10 0.500000 0.000000 0.000000
O O11 0.363418 0.723985 0.393623
O O12 0.146608 0.769688 0.682019
O O13 0.197940 0.539186 0.665585
O O14 0.501747 0.457718 0.762001
O O15 0.307827 0.497739 0.015564
O O16 0.000000 0.500000 0.000000
#
# Coordination Sequence:
#
# PCOD9070114 Si02
#       8
#     2   2   2   2   2   2   2   1
#     4  12  27  44  75 114 151 197 260 320 380 457
#     4  12  27  49  73 111 158 200 254 323 387 462
#     4  12  24  45  76 105 151 201 255 317 381 459
#     4  12  26  47  79 106 154 205 257 311 393 468
#     4  12  25  47  74 110 147 199 255 321 383 458
#     4  12  24  46  74 110 151 202 256 309 390 465
#     4  12  26  51  77 113 153 206 258 320 395 459
#     4  12  28  48  82 110 158 196 262 330 384 462
#
# _framework density 25.619123999999999
#
# number of rings (size 3 to 8) (size 9 to 14) (size 15 to 20)
#    0.000    0.000    6.667    3.600    0.000    4.267 
#    0.000    0.000    0.000    0.000    0.000    0.000 
#    0.000    0.000    0.000    0.000    0.000    0.000 
#
# Total GULP energy -83724.876647 kJ/mol
# GULP energy per Si atom -5581.658443 kJ/mol
# Density = 2.556081 g / cm^3
# Si number density = 25.619124 Si / 1000 Ang^3
#
#
#
# Elastic Constant Matrix: (Units=GPa)
#
#
# Indices 1 2 3 4 5 6 
#
# 1 119.8033 14.4387 54.1420 11.5550 -24.8308 -11.6266
# 2 14.4387 42.5702 28.0300 6.0611 -13.8314 10.4032
# 3 54.1420 28.0300 147.9680 2.3681 -38.2962 -2.5043
# 4 11.5550 6.0611 2.3681 45.3380 -3.1390 -2.0385
# 5 -24.8308 -13.8314 -38.2962 -3.1390 44.6164 17.0534
# 6 -11.6266 10.4032 -2.5043 -2.0385 17.0534 32.5525
#
#
#
# Elastic Compliance Matrix: (Units=1/GPa)
#
#
# Indices 1 2 3 4 5 6 
#
# 1 0.010793 -0.001610 -0.003204 -0.002127 0.001354 0.003281
# 2 -0.001610 0.036711 -0.002467 -0.004203 0.016190 -0.021242
# 3 -0.003204 -0.002467 0.010326 0.000983 0.007744 -0.003557
# 4 -0.002127 -0.004203 0.000983 0.023157 -0.001025 0.002646
# 5 0.001354 0.016190 0.007744 -0.001025 0.045452 -0.027970
# 6 0.003281 -0.021242 -0.003557 0.002646 -0.027970 0.053224
#
#
# Mechanical properties :
#
#
# Convention : Reuss Voigt Hill
#
# Bulk Modulus (GPa) = 23.11189 55.95144 39.53167
# Shear Modulus (GPa) = 23.96369 38.75011 31.35690
#
# Velocity S-wave (km/s) = 3.06172 3.89337 3.50232
# Velocity P-wave (km/s) = 4.64110 6.48831 5.64083
#
# Compressibility (1/GPa) = 0.04326777
#
# Stress axis : x y z
#
# Youngs Moduli (GPa) = 92.65018 27.23992 96.83891
#
# Poissons Ratio (x) = 0.04385 0.31031
# Poissons Ratio (y) = 0.14915 0.23891
# Poissons Ratio (z) = 0.29689 0.06720
#
# Static dielectric constant tensor:
#      x y z
#    x 2.060960 0.151180 0.034390 
#    y 0.151180 2.443870 0.187500 
#    z 0.034390 0.187500 2.085380 
# 
# From -- ./inp_files/26909.got.cif
#   From: 2010.05.17/outbox.cif.g08.bks.cpg/sg2_14_cif.got.tgz:26909.got - 2010.06.03 11:33:40.
