data_PCOD9070190
_publ_section_title
;
Structure prediction by ZEFSAII (Michael W. Deem and Ramdas Pophale) SiO2 
 PCOD9070190
Probable space group: P -1
;
_chemical_formula_sum "Si O2"
_cell_formula_units_Z 15
_cell_length_a 8.512739
_cell_length_b 11.930775
_cell_length_c 9.421019
_cell_angle_alpha 67.277769
_cell_angle_beta 132.832286
_cell_angle_gamma 112.941926
_cell_volume 635.685219
_symmetry_space_group_name_H-M "P -1"
_symmetry_group_IT_number 2
_symmetry_cell_setting 'triclinic'
loop_
_space_group_symop_operation_xyz
x,y,z
-x,-y,-z
loop_
_atom_site_type_symbol
_atom_site_label
_atom_site_fract_x
_atom_site_fract_y
_atom_site_fract_z
Si Si1 0.199808 0.952457 0.070785
Si Si2 0.889942 0.728864 0.590019
Si Si3 0.500000 0.000000 0.500000
Si Si4 0.765536 0.279205 0.963096
Si Si5 0.567358 0.735161 0.632702
Si Si6 0.180705 0.549723 0.337166
Si Si7 0.283820 0.183042 0.817103
Si Si8 0.711464 0.604799 0.050760
O O1 0.382091 0.950988 0.301211
O O2 0.141524 0.816468 0.035266
O O3 0.269728 0.048491 0.939848
O O4 0.000000 0.000000 0.000000
O O5 0.734611 0.775975 0.586427
O O6 0.779245 0.588445 0.551364
O O7 0.904352 0.810270 0.417639
O O8 0.110581 0.718148 0.812921
O O9 0.477321 0.143256 0.376896
O O10 0.793758 0.407145 0.832647
O O11 0.512624 0.225531 0.858134
O O12 0.351412 0.647636 0.482700
O O13 0.681122 0.655320 0.850619
O O14 0.934018 0.553688 0.227145
O O15 0.274337 0.281714 0.886771
O O16 0.500000 0.500000 0.000000
#
# Coordination Sequence:
#
# PCOD9070190 Si02
#       8
#     2   2   1   2   2   2   2   2
#     4  12  26  48  74 103 147 190 243 302 363 433
#     4  12  26  45  74 108 145 191 243 297 364 430
#     4  12  24  46  74 104 140 188 240 288 366 426
#     4  12  25  44  74 105 142 195 242 296 362 427
#     4  12  25  45  77 105 142 195 241 296 368 431
#     4  12  25  46  77 104 147 195 242 291 366 432
#     4  12  27  45  70 109 145 183 243 306 354 430
#     4  12  27  46  70 109 148 188 241 302 359 431
#
# _framework density 23.596588000000001
#
# number of rings (size 3 to 8) (size 9 to 14) (size 15 to 20)
#    0.000    0.000    5.333    4.400    1.867    4.800 
#    0.000    0.000    0.000    0.000    0.000    0.000 
#    0.000    0.000    0.000    0.000    0.000    0.000 
#
# Total GULP energy -83869.630458 kJ/mol
# GULP energy per Si atom -5591.308697 kJ/mol
# Density = 2.354288 g / cm^3
# Si number density = 23.596588 Si / 1000 Ang^3
#
#
#
# Elastic Constant Matrix: (Units=GPa)
#
#
# Indices 1 2 3 4 5 6 
#
# 1 55.6377 -13.9076 8.5017 -3.2733 8.4152 1.5182
# 2 -13.9076 63.6812 19.1920 3.2115 0.5638 -11.2520
# 3 8.5017 19.1920 121.7037 9.4499 -6.2042 2.6875
# 4 -3.2733 3.2115 9.4499 41.8859 1.2865 -5.8998
# 5 8.4152 0.5638 -6.2042 1.2865 30.5784 -1.4276
# 6 1.5182 -11.2520 2.6875 -5.8998 -1.4276 29.3044
#
#
#
# Elastic Compliance Matrix: (Units=1/GPa)
#
#
# Indices 1 2 3 4 5 6 
#
# 1 0.020894 0.005639 -0.002887 0.002260 -0.006466 0.001488
# 2 0.005639 0.019397 -0.003815 0.000955 -0.002370 0.007582
# 3 -0.002887 -0.003815 0.009411 -0.002500 0.002761 -0.002547
# 4 0.002260 0.000955 -0.002500 0.025375 -0.001958 0.005492
# 5 -0.006466 -0.002370 0.002761 -0.001958 0.035191 0.000492
# 6 0.001488 0.007582 -0.002547 0.005492 0.000492 0.038322
#
#
# Mechanical properties :
#
#
# Convention : Reuss Voigt Hill
#
# Bulk Modulus (GPa) = 21.01834 29.84385 25.43110
# Shear Modulus (GPa) = 30.01628 35.50284 32.75956
#
# Velocity S-wave (km/s) = 3.57046 3.88309 3.73006
# Velocity P-wave (km/s) = 5.09159 5.72534 5.41774
#
# Compressibility (1/GPa) = 0.04757749
#
# Stress axis : x y z
#
# Youngs Moduli (GPa) = 47.85956 51.55379 106.25801
#
# Poissons Ratio (x) = -0.29073 0.30675
# Poissons Ratio (y) = -0.26990 0.40539
# Poissons Ratio (z) = 0.13816 0.19669
#
# Static dielectric constant tensor:
#      x y z
#    x 1.925500 0.000570 -0.003680 
#    y 0.000570 1.822440 0.021630 
#    z -0.003680 0.021630 1.885080 
# 
# From -- ./inp_files/179829.got.cif
#   From: 2010.05.17/outbox.cif.g08.bks.cpg/sg2_90_cif.got.tgz:179829.got - 2010.06.03 11:33:40.
