data_PCOD9070072
_publ_section_title
;
Structure prediction by ZEFSAII (Michael W. Deem and Ramdas Pophale) SiO2 
 PCOD9070072
Probable space group: P -1
;
_chemical_formula_sum "Si O2"
_cell_formula_units_Z 14
_cell_length_a 8.669391
_cell_length_b 5.351560
_cell_length_c 21.652937
_cell_angle_alpha 99.701504
_cell_angle_beta 40.744545
_cell_angle_gamma 78.185448
_cell_volume 553.344823
_symmetry_space_group_name_H-M "P -1"
_symmetry_group_IT_number 2
_symmetry_cell_setting 'triclinic'
loop_
_space_group_symop_operation_xyz
x,y,z
-x,-y,-z
loop_
_atom_site_type_symbol
_atom_site_label
_atom_site_fract_x
_atom_site_fract_y
_atom_site_fract_z
Si Si1 0.328781 0.481732 0.493327
Si Si2 0.791018 0.859455 0.866732
Si Si3 0.746452 0.981370 0.739826
Si Si4 0.690061 0.080561 0.577319
Si Si5 0.736562 0.317333 0.972383
Si Si6 0.833130 0.558442 0.175640
Si Si7 0.448031 0.657943 0.834673
O O1 0.500000 0.500000 0.500000
O O2 0.325355 0.181449 0.465826
O O3 0.016494 0.732251 0.614177
O O4 0.414944 0.614965 0.416092
O O5 0.776589 0.933373 0.803078
O O6 0.999484 0.530734 0.812899
O O7 0.931312 0.020844 0.863929
O O8 0.500000 0.000000 0.000000
O O9 0.519358 0.889719 0.794788
O O10 0.683224 0.306657 0.755045
O O11 0.470215 0.173303 0.703233
O O12 0.000000 0.000000 0.500000
O O13 0.928686 0.441463 0.937011
O O14 0.500000 0.500000 0.000000
O O15 0.625086 0.269998 0.068095
O O16 0.770326 0.350133 0.143838
#
# Coordination Sequence:
#
# PCOD9070072 Si02
#       7
#     2   2   2   2   2   2   2
#     4  12  27  47  76 109 143 190 256 316 360 431
#     4  12  24  45  71 105 148 191 235 295 360 442
#     4  12  25  47  74 102 147 190 241 296 370 421
#     4  12  28  52  75 107 151 195 250 309 372 435
#     4  12  24  45  71 105 150 189 238 293 363 437
#     4  12  28  44  75 105 144 197 239 298 367 429
#     4  12  27  46  72 109 144 191 238 293 357 449
#
# _framework density 25.300678000000001
#
# number of rings (size 3 to 8) (size 9 to 14) (size 15 to 20)
#    0.000    0.000    4.286    4.714    6.000    0.571 
#    0.000    0.000    0.000    0.000    0.000    0.000 
#    0.000    0.000    0.000    0.000    0.000    0.000 
#
# Total GULP energy -78086.957363 kJ/mol
# GULP energy per Si atom -5577.639812 kJ/mol
# Density = 2.524309 g / cm^3
# Si number density = 25.300678 Si / 1000 Ang^3
#
#
#
# Elastic Constant Matrix: (Units=GPa)
#
#
# Indices 1 2 3 4 5 6 
#
# 1 129.0706 36.6172 22.7405 -11.2102 3.0746 11.4120
# 2 36.6172 87.3455 19.1474 -0.3173 6.0767 9.4850
# 3 22.7405 19.1474 103.2561 -11.3963 0.8120 3.4473
# 4 -11.2102 -0.3173 -11.3963 30.7718 1.8565 11.1527
# 5 3.0746 6.0767 0.8120 1.8565 36.7720 0.6234
# 6 11.4120 9.4850 3.4473 11.1527 0.6234 56.7830
#
#
#
# Elastic Compliance Matrix: (Units=1/GPa)
#
#
# Indices 1 2 3 4 5 6 
#
# 1 0.009416 -0.003487 -0.000940 0.003790 -0.000348 -0.001993
# 2 -0.003487 0.013564 -0.001834 -0.001270 -0.001825 -0.001184
# 3 -0.000940 -0.001834 0.010698 0.003939 -0.000038 -0.000928
# 4 0.003790 -0.001270 0.003939 0.038460 -0.001995 -0.008321
# 5 -0.000348 -0.001825 -0.000038 -0.001995 0.027619 0.000466
# 6 -0.001993 -0.001184 -0.000928 -0.008321 0.000466 0.019895
#
#
# Mechanical properties :
#
#
# Convention : Reuss Voigt Hill
#
# Bulk Modulus (GPa) = 47.26561 52.96472 50.11517
# Shear Modulus (GPa) = 35.91350 40.94317 38.42833
#
# Velocity S-wave (km/s) = 3.77167 4.02713 3.90149
# Velocity P-wave (km/s) = 6.13917 6.52712 6.33611
#
# Compressibility (1/GPa) = 0.02115703
#
# Stress axis : x y z
#
# Youngs Moduli (GPa) = 106.19971 73.72722 93.47889
#
# Poissons Ratio (x) = 0.25709 0.08783
# Poissons Ratio (y) = 0.37033 0.17139
# Poissons Ratio (z) = 0.09978 0.13518
#
# Static dielectric constant tensor:
#      x y z
#    x 2.095210 -0.140110 -0.065120 
#    y -0.140110 2.732740 0.074860 
#    z -0.065120 0.074860 1.995820 
# 
# From -- ./inp_files/360734.got.cif
#   From: 2010.05.17/outbox.cif.g08.bks.cpg/sg2_181_cif.got.tgz:360734.got - 2010.06.03 11:33:40.
