data_PCOD9070616
_publ_section_title
;
Structure prediction by ZEFSAII (Michael W. Deem and Ramdas Pophale) SiO2 
 PCOD9070616
Probable space group: P -1
;
_chemical_formula_sum "Si O2"
_cell_formula_units_Z 14
_cell_length_a 7.795107
_cell_length_b 8.301323
_cell_length_c 9.871903
_cell_angle_alpha 92.225417
_cell_angle_beta 92.490674
_cell_angle_gamma 121.002291
_cell_volume 545.635355
_symmetry_space_group_name_H-M "P -1"
_symmetry_group_IT_number 2
_symmetry_cell_setting 'triclinic'
loop_
_space_group_symop_operation_xyz
x,y,z
-x,-y,-z
loop_
_atom_site_type_symbol
_atom_site_label
_atom_site_fract_x
_atom_site_fract_y
_atom_site_fract_z
Si Si1 0.840147 0.572848 0.138881
Si Si2 0.925796 0.392547 0.355568
Si Si3 0.494648 0.812289 0.023573
Si Si4 0.495490 0.813717 0.547740
Si Si5 0.505377 0.384821 0.732994
Si Si6 0.839013 0.776900 0.898786
Si Si7 0.924228 0.898391 0.639734
O O1 0.983672 0.536532 0.237965
O O2 0.688538 0.373308 0.056566
O O3 0.701733 0.621058 0.233986
O O4 0.933612 0.713297 0.018760
O O5 0.685485 0.279204 0.355513
O O6 0.000000 0.500000 0.500000
O O7 0.008627 0.254239 0.363511
O O8 0.690458 0.824317 0.969932
O O9 0.492622 0.773636 0.180999
O O10 0.500000 0.000000 0.000000
O O11 0.471872 0.668993 0.420870
O O12 0.699673 0.858681 0.626322
O O13 0.500000 0.000000 0.500000
O O14 0.685362 0.585091 0.801495
O O15 0.974729 0.943433 0.803492
O O16 0.000000 0.000000 0.500000
#
# Coordination Sequence:
#
# PCOD9070616 Si02
#       7
#     2   2   2   2   2   2   2
#     4   9  20  41  64 102 137 183 233 288 354 418
#     4  12  26  44  74 106 138 186 243 287 348 435
#     4   9  18  31  66 103 135 179 233 287 347 425
#     4  12  25  43  69 101 143 190 226 296 363 403
#     4   9  19  37  65  97 136 181 235 281 349 424
#     4   9  20  41  64  97 141 181 229 293 346 423
#     4  12  26  44  66 102 142 181 236 293 348 420
#
# _framework density 25.658162000000001
#
# number of rings (size 3 to 8) (size 9 to 14) (size 15 to 20)
#    0.000    1.714    1.429    5.143    4.000    2.286 
#    0.000    0.000    0.000   12.000    0.000    0.000 
#    0.000    0.000    0.000    0.000    0.000    0.000 
#
# Total GULP energy -78258.808847 kJ/mol
# GULP energy per Si atom -5589.914918 kJ/mol
# Density = 2.559976 g / cm^3
# Si number density = 25.658162 Si / 1000 Ang^3
#
#
#
# Elastic Constant Matrix: (Units=GPa)
#
#
# Indices 1 2 3 4 5 6 
#
# 1 115.8940 41.8661 33.2314 -22.6639 0.6216 -28.2048
# 2 41.8661 100.5269 56.6004 -16.1208 15.3726 -21.6849
# 3 33.2314 56.6004 165.7436 -50.3027 12.7880 -18.3707
# 4 -22.6639 -16.1208 -50.3027 63.0861 -10.6970 7.5305
# 5 0.6216 15.3726 12.7880 -10.6970 43.7698 -11.8028
# 6 -28.2048 -21.6849 -18.3707 7.5305 -11.8028 39.6637
#
#
#
# Elastic Compliance Matrix: (Units=1/GPa)
#
#
# Indices 1 2 3 4 5 6 
#
# 1 0.012363 -0.003822 0.000433 0.003592 0.003909 0.007384
# 2 -0.003822 0.014775 -0.004299 -0.001960 -0.003641 0.002658
# 3 0.000433 -0.004299 0.009510 0.006601 0.000693 0.001316
# 4 0.003592 -0.001960 0.006601 0.022496 0.004652 0.001653
# 5 0.003909 -0.003641 0.000693 0.004652 0.027253 0.008336
# 6 0.007384 0.002658 0.001316 0.001653 0.008336 0.034692
#
#
# Mechanical properties :
#
#
# Convention : Reuss Voigt Hill
#
# Bulk Modulus (GPa) = 47.00444 71.72889 59.36666
# Shear Modulus (GPa) = 34.82975 46.00170 40.41572
#
# Velocity S-wave (km/s) = 3.68836 4.23882 3.97313
# Velocity P-wave (km/s) = 6.04135 7.20924 6.65098
#
# Compressibility (1/GPa) = 0.02127459
#
# Stress axis : x y z
#
# Youngs Moduli (GPa) = 80.88344 67.67971 105.15057
#
# Poissons Ratio (x) = 0.25866 -0.04555
# Poissons Ratio (y) = 0.30912 0.45201
# Poissons Ratio (z) = -0.03504 0.29093
#
# Static dielectric constant tensor:
#      x y z
#    x 2.039400 0.095240 -0.014580 
#    y 0.095240 2.185330 -0.070080 
#    z -0.014580 -0.070080 2.002490 
# 
# From -- ./inp_files/154085.got.cif
#   From: 2010.05.17/outbox.cif.g08.bks.cpg/sg2_78_cif.got.tgz:154085.got - 2010.06.03 11:33:40.
