data_PCOD9070234
_publ_section_title
;
Structure prediction by ZEFSAII (Michael W. Deem and Ramdas Pophale) SiO2 
 PCOD9070234
Probable space group: P -1
;
_chemical_formula_sum "Si O2"
_cell_formula_units_Z 13
_cell_length_a 6.910624
_cell_length_b 12.234900
_cell_length_c 12.629102
_cell_angle_alpha 34.878298
_cell_angle_beta 64.321110
_cell_angle_gamma 63.499642
_cell_volume 541.708054
_symmetry_space_group_name_H-M "P -1"
_symmetry_group_IT_number 2
_symmetry_cell_setting 'triclinic'
loop_
_space_group_symop_operation_xyz
x,y,z
-x,-y,-z
loop_
_atom_site_type_symbol
_atom_site_label
_atom_site_fract_x
_atom_site_fract_y
_atom_site_fract_z
Si Si1 0.173171 0.801223 0.617284
Si Si2 0.715746 0.338288 0.074876
Si Si3 0.347341 0.088707 0.061137
Si Si4 0.590145 0.943801 0.332247
Si Si5 0.040538 0.869471 0.198967
Si Si6 0.000000 0.500000 0.500000
Si Si7 0.089656 0.474450 0.747594
O O1 0.163980 0.686464 0.820374
O O2 0.421040 0.841020 0.517285
O O3 0.114503 0.678573 0.629394
O O4 0.000000 0.000000 0.500000
O O5 0.657815 0.127228 0.229240
O O6 0.500000 0.500000 0.000000
O O7 0.870817 0.409451 0.894739
O O8 0.462167 0.029600 0.190125
O O9 0.279174 0.315076 0.879427
O O10 0.137177 0.988006 0.171546
O O11 0.500000 0.000000 0.000000
O O12 0.814269 0.806713 0.346449
O O13 0.169415 0.659090 0.310577
O O14 0.000000 0.000000 0.000000
O O15 0.907691 0.531055 0.374121
#
# Coordination Sequence:
#
# PCOD9070234 Si02
#       7
#     2   2   2   2   2   1   2
#     4  12  28  49  75 115 156 206 272 329 392 473
#     4  12  26  48  76 108 153 209 265 324 396 465
#     4  12  24  46  76 110 156 205 251 322 403 472
#     4  12  25  45  78 104 151 198 256 325 390 457
#     4  12  24  48  69 112 151 203 255 316 388 478
#     4  12  26  42  80 108 154 202 252 320 398 462
#     4  12  26  48  76 114 159 202 265 325 394 483
#
# _framework density 23.998165
#
# number of rings (size 3 to 8) (size 9 to 14) (size 15 to 20)
#    0.000    0.000    4.615    4.615    4.308    1.231 
#    0.000    3.077    0.000    0.000    0.000    0.000 
#    0.000    0.000    0.000    0.000    0.000    0.000 
#
# Total GULP energy -72630.218371 kJ/mol
# GULP energy per Si atom -5586.939875 kJ/mol
# Density = 2.394354 g / cm^3
# Si number density = 23.998165 Si / 1000 Ang^3
#
#
#
# Elastic Constant Matrix: (Units=GPa)
#
#
# Indices 1 2 3 4 5 6 
#
# 1 69.6227 12.4639 9.2159 13.4739 0.1796 9.3317
# 2 12.4639 76.5785 -0.4620 2.0428 -13.4470 15.5605
# 3 9.2159 -0.4620 101.2940 16.1490 -3.0514 -1.5603
# 4 13.4739 2.0428 16.1490 43.3232 8.5638 -3.8854
# 5 0.1796 -13.4470 -3.0514 8.5638 59.9314 -2.5585
# 6 9.3317 15.5605 -1.5603 -3.8854 -2.5585 46.5902
#
#
#
# Elastic Compliance Matrix: (Units=1/GPa)
#
#
# Indices 1 2 3 4 5 6 
#
# 1 0.016162 -0.001871 -0.000734 -0.004952 0.000072 -0.003046
# 2 -0.001871 0.014915 0.000490 -0.001378 0.003381 -0.004519
# 3 -0.000734 0.000490 0.010615 -0.003987 0.001226 0.000074
# 4 -0.004952 -0.001378 -0.003987 0.027317 -0.004257 0.003363
# 5 0.000072 0.003381 0.001226 -0.004257 0.018095 -0.000464
# 6 -0.003046 -0.004519 0.000074 0.003363 -0.000464 0.023841
#
#
# Mechanical properties :
#
#
# Convention : Reuss Voigt Hill
#
# Bulk Modulus (GPa) = 26.69472 32.21455 29.45463
# Shear Modulus (GPa) = 39.16608 45.05411 42.11010
#
# Velocity S-wave (km/s) = 4.04424 4.33760 4.19348
# Velocity P-wave (km/s) = 5.74070 6.20800 5.97892
#
# Compressibility (1/GPa) = 0.03746060
#
# Stress axis : x y z
#
# Youngs Moduli (GPa) = 61.87480 67.04758 94.20620
#
# Poissons Ratio (x) = 0.12547 0.06917
# Poissons Ratio (y) = 0.11579 -0.04617
# Poissons Ratio (z) = 0.04543 -0.03286
#
# Static dielectric constant tensor:
#      x y z
#    x 1.981670 -0.056750 -0.078530 
#    y -0.056750 1.530470 0.121380 
#    z -0.078530 0.121380 1.859500 
# 
# From -- ./inp_files/131878.got.cif
#   From: 2010.05.17/outbox.cif.g08.bks.cpg/sg2_66_cif.got.tgz:131878.got - 2010.06.03 11:33:40.
