data_PCOD9070838
_publ_section_title
;
Structure prediction by ZEFSAII (Michael W. Deem and Ramdas Pophale) SiO2 
 PCOD9070838
Probable space group: P -1
;
_chemical_formula_sum "Si O2"
_cell_formula_units_Z 14
_cell_length_a 5.204823
_cell_length_b 11.809611
_cell_length_c 11.382672
_cell_angle_alpha 126.851044
_cell_angle_beta 80.058219
_cell_angle_gamma 105.936518
_cell_volume 538.317998
_symmetry_space_group_name_H-M "P -1"
_symmetry_group_IT_number 2
_symmetry_cell_setting 'triclinic'
loop_
_space_group_symop_operation_xyz
x,y,z
-x,-y,-z
loop_
_atom_site_type_symbol
_atom_site_label
_atom_site_fract_x
_atom_site_fract_y
_atom_site_fract_z
Si Si1 0.684331 0.613267 0.141608
Si Si2 0.152829 0.402488 0.349517
Si Si3 0.896934 0.135232 0.756104
Si Si4 0.066468 0.879909 0.687363
Si Si5 0.314099 0.596479 0.791078
Si Si6 0.368883 0.830655 0.426228
Si Si7 0.430045 0.089955 0.950604
O O1 0.792579 0.510690 0.160703
O O2 0.533779 0.717808 0.293447
O O3 0.893669 0.729902 0.122357
O O4 0.500000 0.500000 0.000000
O O5 0.462450 0.469711 0.338025
O O6 0.000000 0.500000 0.500000
O O7 0.143552 0.253676 0.328396
O O8 0.940537 0.371939 0.238578
O O9 0.871994 0.189165 0.660209
O O10 0.627584 0.104343 0.832008
O O11 0.979929 0.982814 0.661093
O O12 0.286086 0.814000 0.558209
O O13 0.163099 0.991951 0.855573
O O14 0.512669 0.744706 0.910316
O O15 0.500000 0.000000 0.500000
O O16 0.500000 0.000000 0.000000
#
# Coordination Sequence:
#
# PCOD9070838 Si02
#       7
#     2   2   2   2   2   2   2
#     4  12  29  48  76 111 157 206 261 328 395 472
#     4  12  29  52  77 112 155 208 260 323 398 468
#     4  12  26  46  79 108 153 200 261 321 397 459
#     4  12  26  46  78 109 153 197 260 325 386 469
#     4  12  29  50  78 113 157 206 263 322 395 469
#     4  12  25  47  72 115 150 197 261 319 394 468
#     4  12  26  48  75 112 151 202 259 320 391 470
#
# _framework density 26.006934000000001
#
# number of rings (size 3 to 8) (size 9 to 14) (size 15 to 20)
#    0.000    0.000    4.286    4.286    8.000    2.286 
#    0.000    0.000    0.000    0.000    0.000    0.000 
#    0.000    0.000    0.000    0.000    0.000    0.000 
#
# Total GULP energy -78348.817834 kJ/mol
# GULP energy per Si atom -5596.344131 kJ/mol
# Density = 2.594774 g / cm^3
# Si number density = 26.006934 Si / 1000 Ang^3
#
#
#
# Elastic Constant Matrix: (Units=GPa)
#
#
# Indices 1 2 3 4 5 6 
#
# 1 65.7835 8.1284 1.0617 0.0302 -0.1506 -7.2308
# 2 8.1284 147.9537 10.6331 18.5380 9.1443 -2.7158
# 3 1.0617 10.6331 104.6407 9.2013 -6.5580 -5.8856
# 4 0.0302 18.5380 9.2013 44.3143 -0.8619 -3.1598
# 5 -0.1506 9.1443 -6.5580 -0.8619 34.2764 2.3629
# 6 -7.2308 -2.7158 -5.8856 -3.1598 2.3629 38.7823
#
#
#
# Elastic Compliance Matrix: (Units=1/GPa)
#
#
# Indices 1 2 3 4 5 6 
#
# 1 0.015629 -0.000887 0.000054 0.000559 0.000130 0.002897
# 2 -0.000887 0.007362 -0.000604 -0.002985 -0.002169 0.000147
# 3 0.000054 -0.000604 0.009956 -0.001690 0.001940 0.001223
# 4 0.000559 -0.002985 -0.001690 0.024296 0.000979 0.001558
# 5 0.000130 -0.002169 0.001940 0.000979 0.030260 -0.001597
# 6 0.002897 0.000147 0.001223 0.001558 -0.001597 0.026745
#
#
# Mechanical properties :
#
#
# Convention : Reuss Voigt Hill
#
# Bulk Modulus (GPa) = 33.25470 39.78049 36.51760
# Shear Modulus (GPa) = 39.32465 43.37824 41.35145
#
# Velocity S-wave (km/s) = 3.89277 4.08848 3.99183
# Velocity P-wave (km/s) = 5.74626 6.13326 5.94291
#
# Compressibility (1/GPa) = 0.03007094
#
# Stress axis : x y z
#
# Youngs Moduli (GPa) = 63.98496 135.83579 100.43922
#
# Poissons Ratio (x) = 0.12053 -0.00538
# Poissons Ratio (y) = 0.05677 0.06069
# Poissons Ratio (z) = -0.00343 0.08207
#
# Static dielectric constant tensor:
#      x y z
#    x 2.205660 -0.028790 0.011470 
#    y -0.028790 1.970090 -0.056560 
#    z 0.011470 -0.056560 2.228810 
# 
# From -- ./inp_files/69069.got.cif
#   From: 2010.05.17/outbox.cif.g08.bks.cpg/sg2_35_cif.got.tgz:69069.got - 2010.06.03 11:33:40.
