data_PCOD9070140
_publ_section_title
;
Structure prediction by ZEFSAII (Michael W. Deem and Ramdas Pophale) SiO2 
 PCOD9070140
Probable space group: P -1
;
_chemical_formula_sum "Si O2"
_cell_formula_units_Z 14
_cell_length_a 8.757444
_cell_length_b 8.696664
_cell_length_c 13.213759
_cell_angle_alpha 119.829696
_cell_angle_beta 55.468159
_cell_angle_gamma 130.970102
_cell_volume 613.055143
_symmetry_space_group_name_H-M "P -1"
_symmetry_group_IT_number 2
_symmetry_cell_setting 'triclinic'
loop_
_space_group_symop_operation_xyz
x,y,z
-x,-y,-z
loop_
_atom_site_type_symbol
_atom_site_label
_atom_site_fract_x
_atom_site_fract_y
_atom_site_fract_z
Si Si1 0.180047 0.754056 0.822694
Si Si2 0.382684 0.473295 0.427183
Si Si3 0.590718 0.890692 0.997468
Si Si4 0.102856 0.101817 0.278751
Si Si5 0.803437 0.622258 0.197177
Si Si6 0.278594 0.479503 0.041363
Si Si7 0.295018 0.826759 0.584712
O O1 0.188287 0.571828 0.821279
O O2 0.331839 0.843816 0.697778
O O3 0.928161 0.645555 0.852183
O O4 0.240547 0.947668 0.934044
O O5 0.500000 0.500000 0.500000
O O6 0.230682 0.233452 0.373024
O O7 0.577303 0.585462 0.310377
O O8 0.257327 0.597655 0.506721
O O9 0.370573 0.721328 0.079445
O O10 0.714475 0.817992 0.852377
O O11 0.500000 0.000000 0.000000
O O12 0.908704 0.145657 0.349267
O O13 0.990639 0.851317 0.237675
O O14 0.793860 0.607183 0.074011
O O15 0.500000 0.500000 0.000000
O O16 0.500000 0.000000 0.500000
#
# Coordination Sequence:
#
# PCOD9070140 Si02
#       7
#     2   2   2   2   2   2   2
#     4  12  26  48  75 110 151 197 247 307 375 444
#     4  12  26  52  75 106 148 197 256 305 364 450
#     4  12  24  45  78 113 150 193 246 307 375 448
#     4  12  26  47  78 106 153 195 242 317 374 429
#     4  12  24  48  75 109 151 195 251 302 369 449
#     4  12  26  43  73 114 152 192 242 307 376 441
#     4  12  28  51  74 107 152 199 251 310 365 441
#
# _framework density 22.836445000000001
#
# number of rings (size 3 to 8) (size 9 to 14) (size 15 to 20)
#    0.000    0.000    7.143    2.571    2.000    1.714 
#    2.571    0.000    0.000    0.000    0.000    0.000 
#    0.000    0.000    0.000    0.000    0.000    0.000 
#
# Total GULP energy -78210.338778 kJ/mol
# GULP energy per Si atom -5586.452770 kJ/mol
# Density = 2.278447 g / cm^3
# Si number density = 22.836445 Si / 1000 Ang^3
#
#
#
# Elastic Constant Matrix: (Units=GPa)
#
#
# Indices 1 2 3 4 5 6 
#
# 1 98.4481 28.8301 47.4589 7.4144 -4.1260 1.3411
# 2 28.8301 125.0011 50.4149 10.6349 26.3669 22.4679
# 3 47.4589 50.4149 98.5306 -5.5924 -7.9130 1.7066
# 4 7.4144 10.6349 -5.5924 46.6902 3.4650 0.7282
# 5 -4.1260 26.3669 -7.9130 3.4650 36.2393 -2.2519
# 6 1.3411 22.4679 1.7066 0.7282 -2.2519 34.2331
#
#
#
# Elastic Compliance Matrix: (Units=1/GPa)
#
#
# Indices 1 2 3 4 5 6 
#
# 1 0.013649 -0.000554 -0.006390 -0.002874 0.000853 0.000264
# 2 -0.000554 0.018244 -0.010361 -0.003928 -0.015994 -0.012404
# 3 -0.006390 -0.010361 0.019571 0.004795 0.011042 0.006699
# 4 -0.002874 -0.003928 0.004795 0.023201 0.001487 0.002056
# 5 0.000853 -0.015994 0.011042 0.001487 0.042385 0.012670
# 6 0.000264 -0.012404 0.006699 0.002056 0.012670 0.037798
#
#
# Mechanical properties :
#
#
# Convention : Reuss Voigt Hill
#
# Bulk Modulus (GPa) = 59.32996 63.93196 61.63096
# Shear Modulus (GPa) = 25.63129 36.45090 31.04109
#
# Velocity S-wave (km/s) = 3.35384 3.99955 3.69084
# Velocity P-wave (km/s) = 6.40581 7.02744 6.72381
#
# Compressibility (1/GPa) = 0.01685489
#
# Stress axis : x y z
#
# Youngs Moduli (GPa) = 73.26624 54.81368 51.09561
#
# Poissons Ratio (x) = 0.03034 0.32651
# Poissons Ratio (y) = 0.04056 0.52938
# Poissons Ratio (z) = 0.46819 0.56790
#
# Static dielectric constant tensor:
#      x y z
#    x 2.465510 -0.242760 0.556160 
#    y -0.242760 1.941150 -0.182660 
#    z 0.556160 -0.182660 2.395750 
# 
# From -- ./inp_files/223287.got.cif
#   From: 2010.05.17/outbox.cif.g08.bks.cpg/sg2_112_cif.got.tgz:223287.got - 2010.06.03 11:33:40.
