data_PCOD9070694
_publ_section_title
;
Structure prediction by ZEFSAII (Michael W. Deem and Ramdas Pophale) SiO2 
 PCOD9070694
Probable space group: P -1
;
_chemical_formula_sum "Si O2"
_cell_formula_units_Z 14
_cell_length_a 14.031848
_cell_length_b 7.756924
_cell_length_c 13.191069
_cell_angle_alpha 124.002763
_cell_angle_beta 148.884997
_cell_angle_gamma 76.073371
_cell_volume 511.330719
_symmetry_space_group_name_H-M "P -1"
_symmetry_group_IT_number 2
_symmetry_cell_setting 'triclinic'
loop_
_space_group_symop_operation_xyz
x,y,z
-x,-y,-z
loop_
_atom_site_type_symbol
_atom_site_label
_atom_site_fract_x
_atom_site_fract_y
_atom_site_fract_z
Si Si1 0.115920 0.876526 0.113559
Si Si2 0.838571 0.357108 0.110812
Si Si3 0.010633 0.128376 0.668451
Si Si4 0.884504 0.640657 0.477355
Si Si5 0.371129 0.042384 0.578576
Si Si6 0.497008 0.759176 0.867745
Si Si7 0.649317 0.419745 0.558183
O O1 0.202928 0.760425 0.076524
O O2 0.302919 0.090914 0.425691
O O3 0.901891 0.628721 0.883937
O O4 0.000000 0.000000 0.000000
O O5 0.598134 0.265444 0.907505
O O6 0.984339 0.656361 0.322762
O O7 0.948647 0.234677 0.232942
O O8 0.856909 0.101973 0.613597
O O9 0.261403 0.195299 0.912902
O O10 0.889316 0.823413 0.458236
O O11 0.649590 0.455419 0.254081
O O12 0.000000 0.500000 0.500000
O O13 0.418619 0.833163 0.533327
O O14 0.389586 0.658421 0.623787
O O15 0.500000 0.000000 0.000000
O O16 0.500000 0.500000 0.500000
#
# Coordination Sequence:
#
# PCOD9070694 Si02
#       7
#     2   2   2   2   2   2   2
#     4  12  25  45  72 111 164 207 262 334 405 481
#     4  12  27  48  75 114 157 208 272 335 406 485
#     4  12  26  48  81 108 158 210 267 336 402 480
#     4  12  26  52  79 111 158 214 272 334 411 485
#     4  12  26  48  73 116 159 203 271 332 408 490
#     4  12  26  51  83 117 164 214 272 338 405 489
#     4  12  26  48  82 118 162 215 269 336 413 481
#
# _framework density 27.379541
#
# number of rings (size 3 to 8) (size 9 to 14) (size 15 to 20)
#    0.000    0.000    4.286    5.143    4.000    0.571 
#    2.571    1.429    0.000    0.000    0.000    0.000 
#    0.000    0.000    0.000    0.000    0.000    0.000 
#
# Total GULP energy -78078.907222 kJ/mol
# GULP energy per Si atom -5577.064802 kJ/mol
# Density = 2.731722 g / cm^3
# Si number density = 27.379541 Si / 1000 Ang^3
#
#
#
# Elastic Constant Matrix: (Units=GPa)
#
#
# Indices 1 2 3 4 5 6 
#
# 1 132.3033 17.9647 54.5875 -3.3704 14.1830 -37.5241
# 2 17.9647 118.8508 9.7344 10.7450 -7.0322 -29.3732
# 3 54.5875 9.7344 105.4427 3.8473 26.2937 -1.4270
# 4 -3.3704 10.7450 3.8473 41.7011 -0.5153 13.1914
# 5 14.1830 -7.0322 26.2937 -0.5153 55.0982 -2.1765
# 6 -37.5241 -29.3732 -1.4270 13.1914 -2.1765 44.6689
#
#
#
# Elastic Compliance Matrix: (Units=1/GPa)
#
#
# Indices 1 2 3 4 5 6 
#
# 1 0.014163 0.002302 -0.007413 -0.003237 0.000715 0.014165
# 2 0.002302 0.011868 -0.002532 -0.006288 0.002531 0.011637
# 3 -0.007413 -0.002532 0.014853 0.001155 -0.005810 -0.008042
# 4 -0.003237 -0.006288 0.001155 0.030214 -0.000861 -0.015782
# 5 0.000715 0.002531 -0.005810 -0.000861 0.021186 0.003366
# 6 0.014165 0.011637 -0.008042 -0.015782 0.003366 0.046507
#
#
# Mechanical properties :
#
#
# Convention : Reuss Voigt Hill
#
# Bulk Modulus (GPa) = 39.06503 57.90777 48.48640
# Shear Modulus (GPa) = 30.74879 46.58098 38.66489
#
# Velocity S-wave (km/s) = 3.35484 4.12916 3.76198
# Velocity P-wave (km/s) = 5.41346 6.62791 6.05123
#
# Compressibility (1/GPa) = 0.02559834
#
# Stress axis : x y z
#
# Youngs Moduli (GPa) = 70.60716 84.26283 67.32587
#
# Poissons Ratio (x) = -0.19399 0.49910
# Poissons Ratio (y) = -0.16255 0.17045
# Poissons Ratio (z) = 0.52342 0.21333
#
# Static dielectric constant tensor:
#      x y z
#    x 2.329570 0.065960 -0.147140 
#    y 0.065960 2.119770 -0.105190 
#    z -0.147140 -0.105190 2.272970 
# 
# From -- ./inp_files/530192.got.cif
#   From: 2010.05.17/outbox.cif.g08.bks.cpg/sg2_266_cif.got.tgz:530192.got - 2010.06.03 11:33:40.
