data_PCOD9070887
_publ_section_title
;
Structure prediction by ZEFSAII (Michael W. Deem and Ramdas Pophale) SiO2 
 PCOD9070887
Probable space group: P -1
;
_chemical_formula_sum "Si O2"
_cell_formula_units_Z 14
_cell_length_a 6.465965
_cell_length_b 8.949185
_cell_length_c 18.174763
_cell_angle_alpha 35.184287
_cell_angle_beta 92.417570
_cell_angle_gamma 94.904273
_cell_volume 603.068116
_symmetry_space_group_name_H-M "P -1"
_symmetry_group_IT_number 2
_symmetry_cell_setting 'triclinic'
loop_
_space_group_symop_operation_xyz
x,y,z
-x,-y,-z
loop_
_atom_site_type_symbol
_atom_site_label
_atom_site_fract_x
_atom_site_fract_y
_atom_site_fract_z
Si Si1 0.313881 0.282045 0.062920
Si Si2 0.041986 0.351872 0.483628
Si Si3 0.952086 0.337953 0.926738
Si Si4 0.362332 0.982918 0.580106
Si Si5 0.252232 0.145423 0.278279
Si Si6 0.575519 0.945414 0.104842
Si Si7 0.150464 0.461083 0.735498
O O1 0.219016 0.156415 0.186230
O O2 0.411071 0.053096 0.112749
O O3 0.500000 0.500000 0.000000
O O4 0.142044 0.397362 0.962258
O O5 0.000000 0.500000 0.500000
O O6 0.980349 0.529795 0.343710
O O7 0.257387 0.232685 0.510608
O O8 0.880775 0.094788 0.590176
O O9 0.817126 0.577532 0.810668
O O10 0.047838 0.284525 0.870346
O O11 0.793040 0.120626 0.048240
O O12 0.511138 0.883348 0.685224
O O13 0.188081 0.751136 0.651566
O O14 0.500000 0.000000 0.500000
O O15 0.629271 0.650724 0.233135
O O16 0.500000 0.000000 0.000000
#
# Coordination Sequence:
#
# PCOD9070887 Si02
#       7
#     2   2   2   2   2   2   2
#     4  12  27  45  72 110 146 193 243 299 374 433
#     4  12  30  47  73 111 146 192 241 310 375 427
#     4  12  25  47  77 106 145 195 243 302 363 439
#     4  12  25  50  76 103 143 199 253 291 363 444
#     4  12  26  45  78 103 146 189 244 301 365 439
#     4  12  27  46  72 113 145 190 247 301 365 439
#     4  12  25  48  75 104 147 190 246 300 361 443
#
# _framework density 23.214625000000002
#
# number of rings (size 3 to 8) (size 9 to 14) (size 15 to 20)
#    0.000    0.000    5.714    3.857    4.000    1.714 
#    0.000    0.000    0.000    0.000    0.000    0.000 
#    0.000    0.000    0.000    0.000    0.000    0.000 
#
# Total GULP energy -78318.032514 kJ/mol
# GULP energy per Si atom -5594.145180 kJ/mol
# Density = 2.316179 g / cm^3
# Si number density = 23.214625 Si / 1000 Ang^3
#
#
#
# Elastic Constant Matrix: (Units=GPa)
#
#
# Indices 1 2 3 4 5 6 
#
# 1 88.9972 36.3681 24.0200 10.1404 28.9760 -11.5504
# 2 36.3681 86.9858 21.4915 1.3024 26.4606 -18.4173
# 3 24.0200 21.4915 84.6504 22.4964 20.1202 2.8360
# 4 10.1404 1.3024 22.4964 39.9316 -1.0110 8.6263
# 5 28.9760 26.4606 20.1202 -1.0110 63.2943 -4.1733
# 6 -11.5504 -18.4173 2.8360 8.6263 -4.1733 48.4228
#
#
#
# Elastic Compliance Matrix: (Units=1/GPa)
#
#
# Indices 1 2 3 4 5 6 
#
# 1 0.015626 -0.004139 -0.001301 -0.003759 -0.004907 0.002476
# 2 -0.004139 0.015926 -0.002345 0.000731 -0.003692 0.004759
# 3 -0.001301 -0.002345 0.015934 -0.008459 -0.003687 -0.000946
# 4 -0.003759 0.000731 -0.008459 0.032027 0.004256 -0.005462
# 5 -0.004907 -0.003692 -0.003687 0.004256 0.020741 -0.001329
# 6 0.002476 0.004759 -0.000946 -0.005462 -0.001329 0.023966
#
#
# Mechanical properties :
#
#
# Convention : Reuss Voigt Hill
#
# Bulk Modulus (GPa) = 31.33200 47.15474 39.24337
# Shear Modulus (GPa) = 33.23875 42.24666 37.74270
#
# Velocity S-wave (km/s) = 3.78802 4.27057 4.03651
# Velocity P-wave (km/s) = 5.71473 6.68384 6.21819
#
# Compressibility (1/GPa) = 0.03191625
#
# Stress axis : x y z
#
# Youngs Moduli (GPa) = 63.99668 62.79190 62.75989
#
# Poissons Ratio (x) = 0.25986 0.08164
# Poissons Ratio (y) = 0.26485 0.14718
# Poissons Ratio (z) = 0.08325 0.14725
#
# Static dielectric constant tensor:
#      x y z
#    x 1.940490 -0.082730 -0.003970 
#    y -0.082730 1.988480 -0.059300 
#    z -0.003970 -0.059300 1.871060 
# 
# From -- ./inp_files/24135.got.cif
#   From: 2010.05.17/outbox.cif.g08.bks.cpg/sg2_13_cif.got.tgz:24135.got - 2010.06.03 11:33:40.
