data_PCOD9070203
_publ_section_title
;
Structure prediction by ZEFSAII (Michael W. Deem and Ramdas Pophale) SiO2 
 PCOD9070203
Probable space group: P -1
;
_chemical_formula_sum "Si O2"
_cell_formula_units_Z 12
_cell_length_a 9.385893
_cell_length_b 11.574828
_cell_length_c 5.709488
_cell_angle_alpha 87.503959
_cell_angle_beta 58.082368
_cell_angle_gamma 71.366581
_cell_volume 492.802360
_symmetry_space_group_name_H-M "P -1"
_symmetry_group_IT_number 2
_symmetry_cell_setting 'triclinic'
loop_
_space_group_symop_operation_xyz
x,y,z
-x,-y,-z
loop_
_atom_site_type_symbol
_atom_site_label
_atom_site_fract_x
_atom_site_fract_y
_atom_site_fract_z
Si Si1 0.705842 0.944653 0.245333
Si Si2 0.864257 0.074273 0.420656
Si Si3 0.747004 0.632825 0.727534
Si Si4 0.561759 0.116099 0.985603
Si Si5 0.697029 0.511897 0.282254
Si Si6 0.975883 0.716930 0.844509
O O1 0.500000 0.000000 0.500000
O O2 0.838524 0.960080 0.319495
O O3 0.779564 0.803673 0.107997
O O4 0.709707 0.053157 0.055942
O O5 0.663242 0.147427 0.679188
O O6 0.937074 0.178259 0.264031
O O7 0.000000 0.000000 0.500000
O O8 0.599358 0.767776 0.806882
O O9 0.696362 0.573380 0.017894
O O10 0.260256 0.429488 0.513341
O O11 0.926982 0.657381 0.655151
O O12 0.500000 0.000000 0.000000
O O13 0.500000 0.500000 0.500000
O O14 0.877112 0.388760 0.127397
#
# Coordination Sequence:
#
# PCOD9070203 Si02
#       6
#     2   2   2   2   2   2
#     4  12  26  45  75 111 154 199 250 319 391 458
#     4  12  25  43  70 114 153 192 255 315 386 457
#     4  12  28  51  79 109 157 202 259 319 381 464
#     4  12  24  46  74 111 150 200 252 316 392 453
#     4  12  30  54  79 113 150 209 262 319 380 457
#     4  12  27  49  75 113 152 203 256 318 385 462
#
# _framework density 24.350532000000001
#
# number of rings (size 3 to 8) (size 9 to 14) (size 15 to 20)
#    0.000    0.000    5.000    3.000    7.000    1.333 
#    0.000    0.000    0.000    0.000    0.000    0.000 
#    0.000    0.000    0.000    0.000    0.000    0.000 
#
# Total GULP energy -66861.706131 kJ/mol
# GULP energy per Si atom -5571.808844 kJ/mol
# Density = 2.429511 g / cm^3
# Si number density = 24.350532 Si / 1000 Ang^3
#
#
#
# Elastic Constant Matrix: (Units=GPa)
#
#
# Indices 1 2 3 4 5 6 
#
# 1 132.2242 39.0027 31.9024 17.2237 13.1716 4.8300
# 2 39.0027 147.3255 44.4353 13.5622 3.8758 -28.0616
# 3 31.9024 44.4353 111.8092 -1.7133 -10.8167 8.9823
# 4 17.2237 13.5622 -1.7133 23.3111 0.4361 -2.6402
# 5 13.1716 3.8758 -10.8167 0.4361 49.9257 0.1950
# 6 4.8300 -28.0616 8.9823 -2.6402 0.1950 48.7376
#
#
#
# Elastic Compliance Matrix: (Units=1/GPa)
#
#
# Indices 1 2 3 4 5 6 
#
# 1 0.009828 -0.001495 -0.002459 -0.006714 -0.002944 -0.001734
# 2 -0.001495 0.010185 -0.004345 -0.004370 -0.001325 0.006582
# 3 -0.002459 -0.004345 0.012133 0.004687 0.003590 -0.004255
# 4 -0.006714 -0.004370 0.004687 0.050698 0.002683 0.000021
# 5 -0.002944 -0.001325 0.003590 0.002683 0.021668 -0.001074
# 6 -0.001734 0.006582 -0.004255 0.000021 -0.001074 0.025269
#
#
# Mechanical properties :
#
#
# Convention : Reuss Voigt Hill
#
# Bulk Modulus (GPa) = 64.31315 69.11550 66.71433
# Shear Modulus (GPa) = 32.99008 42.79612 37.89310
#
# Velocity S-wave (km/s) = 3.68475 4.19681 3.94909
# Velocity P-wave (km/s) = 6.67622 7.20621 6.94627
#
# Compressibility (1/GPa) = 0.01554892
#
# Stress axis : x y z
#
# Youngs Moduli (GPa) = 101.74714 98.18619 82.41972
#
# Poissons Ratio (x) = 0.14680 0.20263
# Poissons Ratio (y) = 0.15212 0.35811
# Poissons Ratio (z) = 0.25015 0.42661
#
# Static dielectric constant tensor:
#      x y z
#    x 1.814700 0.196780 -0.192520 
#    y 0.196780 1.982640 0.297210 
#    z -0.192520 0.297210 1.989680 
# 
# From -- ./inp_files/21609.got.cif
#   From: 2010.05.17/outbox.cif.g08.bks.cpg/sg2_11_cif.got.tgz:21609.got - 2010.06.03 11:33:40.
