data_PCOD9070836
_publ_section_title
;
Structure prediction by ZEFSAII (Michael W. Deem and Ramdas Pophale) SiO2 
 PCOD9070836
Probable space group: P -1
;
_chemical_formula_sum "Si O2"
_cell_formula_units_Z 12
_cell_length_a 10.543690
_cell_length_b 4.932867
_cell_length_c 12.371465
_cell_angle_alpha 85.198209
_cell_angle_beta 131.425740
_cell_angle_gamma 94.324017
_cell_volume 480.600145
_symmetry_space_group_name_H-M "P -1"
_symmetry_group_IT_number 2
_symmetry_cell_setting 'triclinic'
loop_
_space_group_symop_operation_xyz
x,y,z
-x,-y,-z
loop_
_atom_site_type_symbol
_atom_site_label
_atom_site_fract_x
_atom_site_fract_y
_atom_site_fract_z
Si Si1 0.287491 0.470522 0.584849
Si Si2 0.342299 0.600343 0.213918
Si Si3 0.143192 0.071901 0.166431
Si Si4 0.002329 0.745242 0.295875
Si Si5 0.327461 0.614150 0.946187
Si Si6 0.785817 0.054236 0.311639
O O1 0.477681 0.523340 0.650889
O O2 0.293590 0.167559 0.645396
O O3 0.147615 0.535894 0.415422
O O4 0.233962 0.659921 0.649011
O O5 0.303238 0.888801 0.234256
O O6 0.337828 0.635560 0.080276
O O7 0.197119 0.385912 0.177303
O O8 0.069430 0.964431 0.240685
O O9 0.000000 0.000000 0.000000
O O10 0.956426 0.916381 0.371543
O O11 0.838422 0.575749 0.166943
O O12 0.500000 0.500000 0.000000
O O13 0.302093 0.891774 0.855791
#
# Coordination Sequence:
#
# PCOD9070836 Si02
#       6
#     2   2   2   2   2   2
#     4  12  28  46  74 107 148 187 237 301 359 422
#     4  12  27  48  72 107 144 186 243 294 354 421
#     4  12  27  48  75 103 145 191 240 297 347 427
#     4  12  28  45  76 105 146 194 240 288 365 427
#     4  12  26  45  76 109 140 187 239 297 361 423
#     4  12  25  47  72 108 145 187 235 299 360 421
#
# _framework density 24.968782000000001
#
# number of rings (size 3 to 8) (size 9 to 14) (size 15 to 20)
#    0.000    0.000    5.000    3.500    4.667    2.667 
#    0.000    0.000    0.000    0.000    0.000    0.000 
#    0.000    0.000    0.000    0.000    0.000    0.000 
#
# Total GULP energy -67288.190519 kJ/mol
# GULP energy per Si atom -5607.349210 kJ/mol
# Density = 2.491195 g / cm^3
# Si number density = 24.968782 Si / 1000 Ang^3
#
#
#
# Elastic Constant Matrix: (Units=GPa)
#
#
# Indices 1 2 3 4 5 6 
#
# 1 80.0999 -1.5817 9.5276 10.9030 -2.5528 10.4773
# 2 -1.5817 79.9428 24.9403 -11.5689 -8.4006 11.2438
# 3 9.5276 24.9403 119.1533 -1.1212 21.0003 17.3058
# 4 10.9030 -11.5689 -1.1212 42.4306 7.5103 -3.4753
# 5 -2.5528 -8.4006 21.0003 7.5103 43.3242 -12.1402
# 6 10.4773 11.2438 17.3058 -3.4753 -12.1402 46.9974
#
#
#
# Elastic Compliance Matrix: (Units=1/GPa)
#
#
# Indices 1 2 3 4 5 6 
#
# 1 0.013538 0.000574 -0.001084 -0.003808 0.001340 -0.002692
# 2 0.000574 0.014623 -0.003583 0.002985 0.003777 -0.001111
# 3 -0.001084 -0.003583 0.011334 0.000562 -0.007762 -0.005038
# 4 -0.003808 0.002985 0.000562 0.026189 -0.004243 0.000768
# 5 0.001340 0.003777 -0.007762 -0.004243 0.031012 0.009353
# 6 -0.002692 -0.001111 -0.005038 0.000768 0.009353 0.026472
#
#
# Mechanical properties :
#
#
# Convention : Reuss Voigt Hill
#
# Bulk Modulus (GPa) = 31.93860 38.32984 35.13422
# Shear Modulus (GPa) = 35.26335 42.97108 39.11721
#
# Velocity S-wave (km/s) = 3.76213 4.15298 3.96238
# Velocity P-wave (km/s) = 5.62945 6.19522 5.91910
#
# Compressibility (1/GPa) = 0.03131007
#
# Stress axis : x y z
#
# Youngs Moduli (GPa) = 73.86692 68.38388 88.22813
#
# Poissons Ratio (x) = -0.03927 0.09562
# Poissons Ratio (y) = -0.04242 0.31613
# Poissons Ratio (z) = 0.08006 0.24503
#
# Static dielectric constant tensor:
#      x y z
#    x 1.940870 0.003410 0.023230 
#    y 0.003410 1.963420 0.055260 
#    z 0.023230 0.055260 2.033220 
# 
# From -- ./inp_files/563494.got.cif
#   From: 2010.05.17/outbox.cif.g08.bks.cpg/sg2_282_cif.got.tgz:563494.got - 2010.06.03 11:33:40.
