data_PCOD9070056
_publ_section_title
;
Structure prediction by ZEFSAII (Michael W. Deem and Ramdas Pophale) SiO2 
 PCOD9070056
Probable space group: P -1
;
_chemical_formula_sum "Si O2"
_cell_formula_units_Z 15
_cell_length_a 12.170892
_cell_length_b 15.259879
_cell_length_c 9.248793
_cell_angle_alpha 122.954526
_cell_angle_beta 49.575482
_cell_angle_gamma 150.009452
_cell_volume 652.935445
_symmetry_space_group_name_H-M "P -1"
_symmetry_group_IT_number 2
_symmetry_cell_setting 'triclinic'
loop_
_space_group_symop_operation_xyz
x,y,z
-x,-y,-z
loop_
_atom_site_type_symbol
_atom_site_label
_atom_site_fract_x
_atom_site_fract_y
_atom_site_fract_z
Si Si1 0.500000 0.500000 0.500000
Si Si2 0.604305 0.962459 0.962872
Si Si3 0.981673 0.109115 0.569547
Si Si4 0.335984 0.299343 0.961572
Si Si5 0.056043 0.604376 0.682338
Si Si6 0.609220 0.376756 0.075394
Si Si7 0.192886 0.910530 0.784992
Si Si8 0.428040 0.162263 0.557331
O O1 0.625824 0.484211 0.266150
O O2 0.763992 0.692632 0.504775
O O3 0.649966 0.008033 0.131847
O O4 0.463053 0.769788 0.905985
O O5 0.500000 0.000000 0.000000
O O6 0.868052 0.099198 0.794331
O O7 0.785140 0.992726 0.507114
O O8 0.000000 0.000000 0.500000
O O9 0.405933 0.266225 0.735468
O O10 0.500000 0.500000 0.000000
O O11 0.408851 0.284016 0.035920
O O12 0.048648 0.156901 0.068218
O O13 0.084799 0.733669 0.700718
O O14 0.311727 0.709896 0.617944
O O15 0.000000 0.500000 0.500000
O O16 0.852437 0.495377 0.881329
O O17 0.379118 0.059223 0.641600
#
# Coordination Sequence:
#
# PCOD9070056 Si02
#       8
#     1   2   2   2   2   2   2   2
#     4  12  28  52  82 110 164 218 272 348 402 496
#     4  12  27  52  79 114 167 220 269 339 417 495
#     4  12  27  51  76 118 164 213 278 340 413 495
#     4  12  24  44  81 118 154 203 272 343 399 482
#     4  12  24  48  76 121 164 203 269 343 412 493
#     4  12  26  51  79 121 165 216 282 334 416 496
#     4  12  24  46  78 113 159 210 274 332 409 484
#     4  12  26  47  78 117 164 215 267 342 409 487
#
# _framework density 22.973175000000001
#
# number of rings (size 3 to 8) (size 9 to 14) (size 15 to 20)
#    0.000    0.000    5.333    4.000    1.867    1.067 
#    4.800    2.000    0.000    0.000    0.000    0.000 
#    0.000    0.000    0.000    0.000    0.000    0.000 
#
# Total GULP energy -83688.246162 kJ/mol
# GULP energy per Si atom -5579.216411 kJ/mol
# Density = 2.292089 g / cm^3
# Si number density = 22.973175 Si / 1000 Ang^3
#
#
#
# Elastic Constant Matrix: (Units=GPa)
#
#
# Indices 1 2 3 4 5 6 
#
# 1 124.0834 39.8895 22.8458 -2.8828 2.7414 11.5636
# 2 39.8895 132.1890 49.4746 -1.1830 -6.5920 15.4851
# 3 22.8458 49.4746 121.4346 -12.5473 -10.9228 7.7516
# 4 -2.8828 -1.1830 -12.5473 42.6817 10.2288 -2.5252
# 5 2.7414 -6.5920 -10.9228 10.2288 40.1621 1.2527
# 6 11.5636 15.4851 7.7516 -2.5252 1.2527 43.7846
#
#
#
# Elastic Compliance Matrix: (Units=1/GPa)
#
#
# Indices 1 2 3 4 5 6 
#
# 1 0.009128 -0.002386 -0.000717 0.000573 -0.001313 -0.001369
# 2 -0.002386 0.009910 -0.003463 -0.001348 0.001265 -0.002376
# 3 -0.000717 -0.003463 0.010199 0.002443 0.001642 -0.000298
# 4 0.000573 -0.001348 0.002443 0.025726 -0.006196 0.001554
# 5 -0.001313 0.001265 0.001642 -0.006196 0.027269 -0.001529
# 6 -0.001369 -0.002376 -0.000298 0.001554 -0.001529 0.024227
#
#
# Mechanical properties :
#
#
# Convention : Reuss Voigt Hill
#
# Bulk Modulus (GPa) = 62.08405 66.90297 64.49351
# Shear Modulus (GPa) = 40.01314 43.02548 41.51931
#
# Velocity S-wave (km/s) = 4.17793 4.33235 4.25584
# Velocity P-wave (km/s) = 7.09625 7.36282 7.23076
#
# Compressibility (1/GPa) = 0.01610720
#
# Stress axis : x y z
#
# Youngs Moduli (GPa) = 109.55215 100.90561 98.04416
#
# Poissons Ratio (x) = 0.24079 0.07025
# Poissons Ratio (y) = 0.26142 0.33948
# Poissons Ratio (z) = 0.07850 0.34939
#
# Static dielectric constant tensor:
#      x y z
#    x 1.852110 0.056890 -0.053980 
#    y 0.056890 1.896880 -0.016820 
#    z -0.053980 -0.016820 1.900520 
# 
# From -- ./inp_files/274015.got.cif
#   From: 2010.05.17/outbox.cif.g08.bks.cpg/sg2_138_cif.got.tgz:274015.got - 2010.06.03 11:33:40.
