data_PCOD9070910
_publ_section_title
;
Structure prediction by ZEFSAII (Michael W. Deem and Ramdas Pophale) SiO2 
 PCOD9070910
Probable space group: P -1
;
_chemical_formula_sum "Si O2"
_cell_formula_units_Z 14
_cell_length_a 18.588012
_cell_length_b 9.517989
_cell_length_c 8.275646
_cell_angle_alpha 113.979078
_cell_angle_beta 56.055065
_cell_angle_gamma 150.226380
_cell_volume 592.152218
_symmetry_space_group_name_H-M "P -1"
_symmetry_group_IT_number 2
_symmetry_cell_setting 'triclinic'
loop_
_space_group_symop_operation_xyz
x,y,z
-x,-y,-z
loop_
_atom_site_type_symbol
_atom_site_label
_atom_site_fract_x
_atom_site_fract_y
_atom_site_fract_z
Si Si1 0.332246 0.334602 0.923897
Si Si2 0.856392 0.221420 0.659684
Si Si3 0.562496 0.958114 0.018401
Si Si4 0.428069 0.143933 0.701724
Si Si5 0.012934 0.072971 0.704829
Si Si6 0.719739 0.735298 0.421936
Si Si7 0.092222 0.516943 0.777457
O O1 0.460772 0.655078 0.958804
O O2 0.372627 0.225050 0.887226
O O3 0.325111 0.308165 0.727209
O O4 0.163212 0.146464 0.112639
O O5 0.000000 0.500000 0.500000
O O6 0.959964 0.292049 0.699459
O O7 0.749365 0.198260 0.856834
O O8 0.740557 0.928915 0.575968
O O9 0.542035 0.933289 0.227307
O O10 0.500000 0.000000 0.000000
O O11 0.585709 0.427028 0.533857
O O12 0.268241 0.848787 0.666955
O O13 0.104278 0.078626 0.692442
O O14 0.117510 0.384258 0.748975
O O15 0.000000 0.000000 0.500000
O O16 0.000000 0.500000 0.000000
#
# Coordination Sequence:
#
# PCOD9070910 Si02
#       7
#     2   2   2   2   2   2   2
#     4  12  26  49  78 109 159 205 260 310 393 470
#     4  12  27  46  75 110 158 199 262 317 383 461
#     4  12  29  47  75 114 155 203 260 325 388 456
#     4  12  26  51  81 108 157 206 258 318 391 468
#     4  12  26  48  77 114 153 205 259 322 384 457
#     4  12  28  47  78 115 154 208 256 318 393 464
#     4  12  25  47  80 111 149 204 261 312 390 453
#
# _framework density 23.642569000000002
#
# number of rings (size 3 to 8) (size 9 to 14) (size 15 to 20)
#    0.000    0.000    5.714    3.000    6.000    1.714 
#    0.000    0.000    0.000    0.000    0.000    0.000 
#    0.000    0.000    0.000    0.000    0.000    0.000 
#
# Total GULP energy -78374.420367 kJ/mol
# GULP energy per Si atom -5598.172883 kJ/mol
# Density = 2.358876 g / cm^3
# Si number density = 23.642569 Si / 1000 Ang^3
#
#
#
# Elastic Constant Matrix: (Units=GPa)
#
#
# Indices 1 2 3 4 5 6 
#
# 1 122.1837 4.6287 23.5777 -7.9148 4.6834 2.3593
# 2 4.6287 119.6259 34.1295 -11.4088 6.8340 8.1451
# 3 23.5777 34.1295 99.5621 -18.3691 10.1524 1.5989
# 4 -7.9148 -11.4088 -18.3691 46.7276 6.4463 4.3397
# 5 4.6834 6.8340 10.1524 6.4463 44.4718 7.8852
# 6 2.3593 8.1451 1.5989 4.3397 7.8852 34.6376
#
#
#
# Elastic Compliance Matrix: (Units=1/GPa)
#
#
# Indices 1 2 3 4 5 6 
#
# 1 0.008636 0.000378 -0.001938 0.000923 -0.000557 -0.000577
# 2 0.000378 0.009522 -0.002973 0.001513 -0.000660 -0.002167
# 3 -0.001938 -0.002973 0.012598 0.004264 -0.002900 0.000375
# 4 0.000923 0.001513 0.004264 0.024455 -0.004372 -0.002684
# 5 -0.000557 -0.000660 -0.002900 -0.004372 0.024787 -0.004768
# 6 -0.000577 -0.002167 0.000375 -0.002684 -0.004768 0.030824
#
#
# Mechanical properties :
#
#
# Convention : Reuss Voigt Hill
#
# Bulk Modulus (GPa) = 46.10190 51.78261 48.94226
# Shear Modulus (GPa) = 39.33318 43.76980 41.55149
#
# Velocity S-wave (km/s) = 4.08322 4.30736 4.19679
# Velocity P-wave (km/s) = 6.46314 6.83283 6.65055
#
# Compressibility (1/GPa) = 0.02169108
#
# Stress axis : x y z
#
# Youngs Moduli (GPa) = 115.78868 105.01607 79.37581
#
# Poissons Ratio (x) = -0.03970 0.15386
# Poissons Ratio (y) = -0.04377 0.23595
# Poissons Ratio (z) = 0.22444 0.31217
#
# Static dielectric constant tensor:
#      x y z
#    x 1.993010 0.001540 0.069430 
#    y 0.001540 1.872230 -0.017540 
#    z 0.069430 -0.017540 1.986990 
# 
# From -- ./inp_files/297733.got.cif
#   From: 2010.05.17/outbox.cif.g08.bks.cpg/sg2_149_cif.got.tgz:297733.got - 2010.06.03 11:33:40.
