data_PCOD9070699
_publ_section_title
;
Structure prediction by ZEFSAII (Michael W. Deem and Ramdas Pophale) SiO2 
 PCOD9070699
Probable space group: P -1
;
_chemical_formula_sum "Si O2"
_cell_formula_units_Z 14
_cell_length_a 22.760894
_cell_length_b 8.653883
_cell_length_c 22.511470
_cell_angle_alpha 140.130590
_cell_angle_beta 12.405046
_cell_angle_gamma 139.767866
_cell_volume 607.520035
_symmetry_space_group_name_H-M "P -1"
_symmetry_group_IT_number 2
_symmetry_cell_setting 'triclinic'
loop_
_space_group_symop_operation_xyz
x,y,z
-x,-y,-z
loop_
_atom_site_type_symbol
_atom_site_label
_atom_site_fract_x
_atom_site_fract_y
_atom_site_fract_z
Si Si1 0.225952 0.343795 0.704377
Si Si2 0.548650 0.799327 0.942096
Si Si3 0.988581 0.537498 0.628186
Si Si4 0.966702 0.831053 0.855203
Si Si5 0.899407 0.981288 0.763426
Si Si6 0.477191 0.792189 0.411620
Si Si7 0.429387 0.274103 0.351768
O O1 0.500000 0.500000 0.500000
O O2 0.273407 0.309089 0.577662
O O3 0.137398 0.077920 0.738389
O O4 0.000000 0.500000 0.000000
O O5 0.721156 0.914400 0.861199
O O6 0.731347 0.587391 0.678154
O O7 0.252715 0.666651 0.211964
O O8 0.500000 0.000000 0.000000
O O9 0.922324 0.652796 0.790883
O O10 0.993544 0.749295 0.636839
O O11 0.165761 0.738436 0.681082
O O12 0.680564 0.872301 0.180517
O O13 0.179546 0.149214 0.521759
O O14 0.680970 0.108501 0.057747
O O15 0.554706 0.536390 0.283759
O O16 0.500000 0.000000 0.500000
#
# Coordination Sequence:
#
# PCOD9070699 Si02
#       7
#     2   2   2   2   2   2   2
#     4  12  25  45  73 106 145 190 248 303 354 432
#     4  12  28  47  78 111 147 191 237 302 368 448
#     4  12  26  49  75 108 149 190 244 299 371 434
#     4  12  26  45  75 104 146 194 244 297 368 433
#     4  12  26  48  76 110 148 192 246 303 369 434
#     4  12  27  47  70 106 151 197 243 304 370 427
#     4  12  26  45  75 108 148 194 249 300 367 435
#
# _framework density 23.044508
#
# number of rings (size 3 to 8) (size 9 to 14) (size 15 to 20)
#    0.000    0.000    1.429    8.571    8.000    0.000 
#    0.000    0.000    0.000    0.000    0.000    0.000 
#    0.000    0.000    0.000    0.000    0.000    0.000 
#
# Total GULP energy -78419.021592 kJ/mol
# GULP energy per Si atom -5601.358685 kJ/mol
# Density = 2.299206 g / cm^3
# Si number density = 23.044508 Si / 1000 Ang^3
#
#
#
# Elastic Constant Matrix: (Units=GPa)
#
#
# Indices 1 2 3 4 5 6 
#
# 1 110.6866 21.4566 3.5673 -8.5016 -16.5803 31.1621
# 2 21.4566 152.2897 61.6047 31.5044 15.6946 -41.1492
# 3 3.5673 61.6047 179.9222 42.8167 22.8688 -30.5619
# 4 -8.5016 31.5044 42.8167 94.9373 32.4316 -45.6692
# 5 -16.5803 15.6946 22.8688 32.4316 60.4585 -27.0069
# 6 31.1621 -41.1492 -30.5619 -45.6692 -27.0069 72.6642
#
#
#
# Elastic Compliance Matrix: (Units=1/GPa)
#
#
# Indices 1 2 3 4 5 6 
#
# 1 0.012050 -0.003533 -0.000096 -0.002124 0.001896 -0.007839
# 2 -0.003533 0.009576 -0.002265 0.000605 -0.000095 0.006330
# 3 -0.000096 -0.002265 0.006951 -0.002046 -0.000951 0.000042
# 4 -0.002124 0.000605 -0.002046 0.017311 -0.005055 0.009394
# 5 0.001896 -0.000095 -0.000951 -0.005055 0.021789 0.003654
# 6 -0.007839 0.006330 0.000042 0.009394 0.003654 0.027988
#
#
# Mechanical properties :
#
#
# Convention : Reuss Voigt Hill
#
# Bulk Modulus (GPa) = 59.57003 68.46176 64.01589
# Shear Modulus (GPa) = 44.22844 69.36334 56.79589
#
# Velocity S-wave (km/s) = 4.38569 5.49227 4.96988
# Velocity P-wave (km/s) = 7.17996 8.36619 7.79567
#
# Compressibility (1/GPa) = 0.01678697
#
# Stress axis : x y z
#
# Youngs Moduli (GPa) = 82.98499 104.43242 143.87382
#
# Poissons Ratio (x) = 0.36897 0.01387
# Poissons Ratio (y) = 0.29319 0.32592
# Poissons Ratio (z) = 0.00800 0.23657
#
# Static dielectric constant tensor:
#      x y z
#    x 1.773580 0.705280 0.119140 
#    y 0.705280 -2.520980 -0.834020 
#    z 0.119140 -0.834020 1.645200 
# 
# From -- ./inp_files/527490.got.cif
#   From: 2010.05.17/outbox.cif.g08.bks.cpg/sg2_264_cif.got.tgz:527490.got - 2010.06.03 11:33:40.
