data_PCOD9070832
_publ_section_title
;
Structure prediction by ZEFSAII (Michael W. Deem and Ramdas Pophale) SiO2 
 PCOD9070832
Probable space group: P -1
;
_chemical_formula_sum "Si O2"
_cell_formula_units_Z 16
_cell_length_a 17.607332
_cell_length_b 9.566988
_cell_length_c 9.604085
_cell_angle_alpha 60.687841
_cell_angle_beta 43.884470
_cell_angle_gamma 39.660867
_cell_volume 707.934153
_symmetry_space_group_name_H-M "P -1"
_symmetry_group_IT_number 2
_symmetry_cell_setting 'triclinic'
loop_
_space_group_symop_operation_xyz
x,y,z
-x,-y,-z
loop_
_atom_site_type_symbol
_atom_site_label
_atom_site_fract_x
_atom_site_fract_y
_atom_site_fract_z
Si Si1 0.070092 0.893435 0.808550
Si Si2 0.549020 0.293189 0.953975
Si Si3 0.562825 0.101102 0.307978
Si Si4 0.097479 0.041475 0.426923
Si Si5 0.916050 0.728163 0.078918
Si Si6 0.397621 0.243611 0.953673
Si Si7 0.058098 0.448249 0.292195
Si Si8 0.416231 0.433062 0.580099
O O1 0.067365 0.041138 0.631096
O O2 0.240498 0.655891 0.707222
O O3 0.977524 0.837537 0.897873
O O4 0.000000 0.000000 0.000000
O O5 0.721031 0.148440 0.745232
O O6 0.434624 0.356459 0.951684
O O7 0.500000 0.500000 0.000000
O O8 0.544645 0.156634 0.142233
O O9 0.479541 0.323001 0.399472
O O10 0.500000 0.000000 0.500000
O O11 0.739686 0.912865 0.196611
O O12 0.055719 0.265568 0.333117
O O13 0.000000 0.000000 0.500000
O O14 0.956479 0.655985 0.221932
O O15 0.000000 0.500000 0.000000
O O16 0.442208 0.257301 0.734646
O O17 0.226247 0.353641 0.118979
O O18 0.500000 0.000000 0.000000
O O19 0.000000 0.500000 0.500000
O O20 0.500000 0.500000 0.500000
#
# Coordination Sequence:
#
# PCOD9070832 Si02
#       8
#     2   2   2   2   2   2   2   2
#     4  12  25  47  72 104 143 187 239 296 357 430
#     4  12  27  48  74 107 146 191 242 299 368 435
#     4  12  27  46  75 106 144 192 244 299 362 432
#     4  12  27  47  72 106 146 189 240 298 364 433
#     4  12  26  48  73 104 146 188 244 298 361 436
#     4  12  26  48  75 104 151 188 242 304 362 438
#     4  12  28  47  73 109 144 193 242 300 369 430
#     4  12  26  46  72 107 141 189 241 294 364 430
#
# _framework density 22.60097
#
# number of rings (size 3 to 8) (size 9 to 14) (size 15 to 20)
#    0.000    0.000    2.500    7.500    5.250    0.000 
#    0.000    0.000    0.000    0.000    0.000    0.000 
#    0.000    0.000    0.000    0.000    0.000    0.000 
#
# Total GULP energy -89639.959958 kJ/mol
# GULP energy per Si atom -5602.497497 kJ/mol
# Density = 2.254953 g / cm^3
# Si number density = 22.600970 Si / 1000 Ang^3
#
#
#
# Elastic Constant Matrix: (Units=GPa)
#
#
# Indices 1 2 3 4 5 6 
#
# 1 106.4666 8.0506 42.3743 4.4075 -8.9339 10.7423
# 2 8.0506 66.5000 18.4446 -2.3405 -3.8855 3.6890
# 3 42.3743 18.4446 147.3890 -7.9115 2.2152 -1.1457
# 4 4.4075 -2.3405 -7.9115 51.7358 0.2387 6.0116
# 5 -8.9339 -3.8855 2.2152 0.2387 59.6176 -7.3265
# 6 10.7423 3.6890 -1.1457 6.0116 -7.3265 49.2521
#
#
#
# Elastic Compliance Matrix: (Units=1/GPa)
#
#
# Indices 1 2 3 4 5 6 
#
# 1 0.011101 -0.000277 -0.003261 -0.001220 0.001513 -0.002102
# 2 -0.000277 0.015727 -0.001880 0.000571 0.000917 -0.001095
# 3 -0.003261 -0.001880 0.008048 0.001340 -0.000823 0.000753
# 4 -0.001220 0.000571 0.001340 0.019929 -0.000553 -0.002260
# 5 0.001513 0.000917 -0.000823 -0.000553 0.017367 0.002233
# 6 -0.002102 -0.001095 0.000753 -0.002260 0.002233 0.021470
#
#
# Mechanical properties :
#
#
# Convention : Reuss Voigt Hill
#
# Bulk Modulus (GPa) = 41.59981 50.89940 46.24961
# Shear Modulus (GPa) = 44.44748 48.88685 46.66716
#
# Velocity S-wave (km/s) = 4.43947 4.65590 4.54897
# Velocity P-wave (km/s) = 6.68765 7.17447 6.93533
#
# Compressibility (1/GPa) = 0.02403857
#
# Stress axis : x y z
#
# Youngs Moduli (GPa) = 90.07979 63.58511 124.25659
#
# Poissons Ratio (x) = 0.01763 0.40526
# Poissons Ratio (y) = 0.02497 0.23361
# Poissons Ratio (z) = 0.29379 0.11954
#
# Static dielectric constant tensor:
#      x y z
#    x 1.849860 0.028310 0.017120 
#    y 0.028310 1.822210 -0.025310 
#    z 0.017120 -0.025310 1.796450 
# 
# From -- ./inp_files/294707.got.cif
#   From: 2010.05.17/outbox.cif.g08.bks.cpg/sg2_148_cif.got.tgz:294707.got - 2010.06.03 11:33:40.
