data_PCOD9070557
_publ_section_title
;
Structure prediction by ZEFSAII (Michael W. Deem and Ramdas Pophale) SiO2 
 PCOD9070557
Probable space group: P -1
;
_chemical_formula_sum "Si O2"
_cell_formula_units_Z 13
_cell_length_a 15.431220
_cell_length_b 11.401672
_cell_length_c 14.720283
_cell_angle_alpha 150.923883
_cell_angle_beta 149.200484
_cell_angle_gamma 26.932922
_cell_volume 531.324304
_symmetry_space_group_name_H-M "P -1"
_symmetry_group_IT_number 2
_symmetry_cell_setting 'triclinic'
loop_
_space_group_symop_operation_xyz
x,y,z
-x,-y,-z
loop_
_atom_site_type_symbol
_atom_site_label
_atom_site_fract_x
_atom_site_fract_y
_atom_site_fract_z
Si Si1 0.328507 0.178373 0.543070
Si Si2 0.766320 0.255331 0.754715
Si Si3 0.141732 0.609792 0.368038
Si Si4 0.177028 0.754696 0.703090
Si Si5 0.500000 0.500000 0.500000
Si Si6 0.315973 0.164271 0.873706
Si Si7 0.443870 0.946597 0.153515
O O1 0.177639 0.500105 0.584764
O O2 0.421260 0.204370 0.738592
O O3 0.500000 0.000000 0.500000
O O4 0.250734 0.975717 0.360101
O O5 0.584741 0.423493 0.631776
O O6 0.751288 0.503796 0.971353
O O7 0.979998 0.063548 0.764807
O O8 0.179459 0.684588 0.552657
O O9 0.263134 0.649246 0.425803
O O10 0.895978 0.788202 0.255332
O O11 0.249160 0.260062 0.221744
O O12 0.367899 0.767133 0.913971
O O13 0.426679 0.994467 0.764041
O O14 0.500000 0.000000 0.000000
#
# Coordination Sequence:
#
# PCOD9070557 Si02
#       7
#     2   2   2   2   1   2   2
#     4  12  24  50  77 113 162 204 268 330 393 479
#     4  12  27  47  76 117 154 211 268 318 412 462
#     4  12  27  52  77 117 162 204 273 329 398 475
#     4  12  27  49  81 115 158 212 263 333 396 471
#     4  12  26  48  76 110 158 206 258 332 386 468
#     4  12  29  50  79 117 162 215 266 328 399 480
#     4  12  25  51  78 118 156 207 267 327 402 470
#
# _framework density 24.467165999999999
#
# number of rings (size 3 to 8) (size 9 to 14) (size 15 to 20)
#    0.000    0.000    4.615    4.615    4.308    1.846 
#    0.000    2.308    0.000    0.000    0.000    0.000 
#    0.000    0.000    0.000    0.000    0.000    0.000 
#
# Total GULP energy -72674.336327 kJ/mol
# GULP energy per Si atom -5590.333564 kJ/mol
# Density = 2.441148 g / cm^3
# Si number density = 24.467166 Si / 1000 Ang^3
#
#
#
# Elastic Constant Matrix: (Units=GPa)
#
#
# Indices 1 2 3 4 5 6 
#
# 1 158.2787 38.7000 55.4954 -24.7214 -2.1893 -22.1978
# 2 38.7000 116.2181 27.2061 2.6052 -4.1197 -19.7439
# 3 55.4954 27.2061 124.7687 0.4045 6.3193 -12.6398
# 4 -24.7214 2.6052 0.4045 41.5766 -4.2243 -0.5400
# 5 -2.1893 -4.1197 6.3193 -4.2243 40.8030 4.4704
# 6 -22.1978 -19.7439 -12.6398 -0.5400 4.4704 56.9079
#
#
#
# Elastic Compliance Matrix: (Units=1/GPa)
#
#
# Indices 1 2 3 4 5 6 
#
# 1 0.009272 -0.001985 -0.003559 0.005823 0.001221 0.002097
# 2 -0.001985 0.009984 -0.001079 -0.001700 0.000631 0.002384
# 3 -0.003559 -0.001079 0.010012 -0.002358 -0.002161 0.000608
# 4 0.005823 -0.001700 -0.002358 0.027992 0.003276 0.001166
# 5 0.001221 0.000631 -0.002161 0.003276 0.025504 -0.001757
# 6 0.002097 0.002384 0.000608 0.001166 -0.001757 0.019501
#
#
# Mechanical properties :
#
#
# Convention : Reuss Voigt Hill
#
# Bulk Modulus (GPa) = 62.42071 71.34094 66.88082
# Shear Modulus (GPa) = 41.37287 46.38176 43.87731
#
# Velocity S-wave (km/s) = 4.11658 4.35866 4.23935
# Velocity P-wave (km/s) = 6.93992 7.38591 7.16638
#
# Compressibility (1/GPa) = 0.01602032
#
# Stress axis : x y z
#
# Youngs Moduli (GPa) = 107.85303 100.16347 99.87988
#
# Poissons Ratio (x) = 0.19885 0.35552
# Poissons Ratio (y) = 0.21412 0.10776
# Poissons Ratio (z) = 0.38390 0.10806
#
# Static dielectric constant tensor:
#      x y z
#    x 1.885310 -0.039510 0.021130 
#    y -0.039510 1.880180 -0.025070 
#    z 0.021130 -0.025070 1.972390 
# 
# From -- ./inp_files/532210.got.cif
#   From: 2010.05.17/outbox.cif.g08.bks.cpg/sg2_267_cif.got.tgz:532210.got - 2010.06.03 11:33:40.
