data_PCOD9070332
_publ_section_title
;
Structure prediction by ZEFSAII (Michael W. Deem and Ramdas Pophale) SiO2 
 PCOD9070332
Probable space group: P -1
;
_chemical_formula_sum "Si O2"
_cell_formula_units_Z 15
_cell_length_a 9.620836
_cell_length_b 8.225991
_cell_length_c 8.283164
_cell_angle_alpha 109.833549
_cell_angle_beta 106.071098
_cell_angle_gamma 87.393567
_cell_volume 591.700922
_symmetry_space_group_name_H-M "P -1"
_symmetry_group_IT_number 2
_symmetry_cell_setting 'triclinic'
loop_
_space_group_symop_operation_xyz
x,y,z
-x,-y,-z
loop_
_atom_site_type_symbol
_atom_site_label
_atom_site_fract_x
_atom_site_fract_y
_atom_site_fract_z
Si Si1 0.568158 0.277924 0.339369
Si Si2 0.270183 0.112450 0.292059
Si Si3 0.758655 0.070997 0.122487
Si Si4 0.469637 0.401120 0.789652
Si Si5 0.000000 0.500000 0.000000
Si Si6 0.015145 0.301605 0.397827
Si Si7 0.837636 0.753079 0.259487
Si Si8 0.256762 0.757715 0.312091
O O1 0.431024 0.197389 0.365565
O O2 0.612790 0.146438 0.169265
O O3 0.532213 0.455522 0.303324
O O4 0.702727 0.295220 0.511009
O O5 0.154050 0.258011 0.320924
O O6 0.240344 0.963089 0.364444
O O7 0.248174 0.010572 0.082700
O O8 0.879129 0.227420 0.227812
O O9 0.811963 0.922086 0.205696
O O10 0.313002 0.303964 0.719719
O O11 0.599606 0.278245 0.757315
O O12 0.500000 0.500000 0.000000
O O13 0.124014 0.643985 0.158095
O O14 0.877723 0.599738 0.100373
O O15 0.042181 0.219020 0.553481
O O16 0.000000 0.500000 0.500000
#
# Coordination Sequence:
#
# PCOD9070332 Si02
#       8
#     2   2   2   2   1   2   2   2
#     4  12  26  48  79 116 153 208 260 324 381 463
#     4  12  27  50  79 114 154 204 260 319 391 458
#     4  12  26  49  75 114 155 203 259 315 393 462
#     4  12  24  47  74 115 153 202 258 317 383 456
#     4  12  28  44  78 110 152 204 256 322 384 454
#     4  12  28  47  76 110 158 204 256 321 390 462
#     4  12  26  47  75 106 156 203 259 313 389 452
#     4  12  26  49  78 113 160 200 265 314 398 455
#
# _framework density 25.350646000000001
#
# number of rings (size 3 to 8) (size 9 to 14) (size 15 to 20)
#    0.000    0.000    1.333    8.400    3.733    1.067 
#    0.000    0.000    0.000    0.000    0.000    0.000 
#    0.000    0.000    0.000    0.000    0.000    0.000 
#
# Total GULP energy -84017.260609 kJ/mol
# GULP energy per Si atom -5601.150707 kJ/mol
# Density = 2.529295 g / cm^3
# Si number density = 25.350646 Si / 1000 Ang^3
#
#
#
# Elastic Constant Matrix: (Units=GPa)
#
#
# Indices 1 2 3 4 5 6 
#
# 1 154.6184 37.1780 26.1925 30.8039 2.6547 -10.6895
# 2 37.1780 138.9195 47.3615 7.9584 11.4176 -6.0596
# 3 26.1925 47.3615 108.2358 23.8589 5.3223 11.5821
# 4 30.8039 7.9584 23.8589 46.3820 -1.0716 -6.2296
# 5 2.6547 11.4176 5.3223 -1.0716 52.3017 25.3143
# 6 -10.6895 -6.0596 11.5821 -6.2296 25.3143 32.5213
#
#
#
# Elastic Compliance Matrix: (Units=1/GPa)
#
#
# Indices 1 2 3 4 5 6 
#
# 1 0.008022 -0.001446 -0.000569 -0.004431 -0.001536 0.002917
# 2 -0.001446 0.010006 -0.005261 0.002902 -0.005398 0.008021
# 3 -0.000569 -0.005261 0.014357 -0.007575 0.005300 -0.011857
# 4 -0.004431 0.002902 -0.007575 0.029234 -0.004191 0.010644
# 5 -0.001536 -0.005398 0.005300 -0.004191 0.034953 -0.031408
# 6 0.002917 0.008021 -0.011857 0.010644 -0.031408 0.063912
#
#
# Mechanical properties :
#
#
# Convention : Reuss Voigt Hill
#
# Bulk Modulus (GPa) = 56.07203 69.24862 62.66033
# Shear Modulus (GPa) = 27.62733 45.64376 36.63555
#
# Velocity S-wave (km/s) = 3.30481 4.24783 3.80564
# Velocity P-wave (km/s) = 6.06044 7.17178 6.63940
#
# Compressibility (1/GPa) = 0.01783420
#
# Stress axis : x y z
#
# Youngs Moduli (GPa) = 124.65227 99.93672 69.65355
#
# Poissons Ratio (x) = 0.14448 0.03960
# Poissons Ratio (y) = 0.18021 0.36647
# Poissons Ratio (z) = 0.07088 0.52580
#
# Static dielectric constant tensor:
#      x y z
#    x 1.981030 0.013040 -0.043510 
#    y 0.013040 1.948820 -0.036360 
#    z -0.043510 -0.036360 2.007280 
# 
# From -- ./inp_files/160001.got.cif
#   From: 2010.05.17/outbox.cif.g08.bks.cpg/sg2_81_cif.got.tgz:160001.got - 2010.06.03 11:33:40.
