data_PCOD9070329
_publ_section_title
;
Structure prediction by ZEFSAII (Michael W. Deem and Ramdas Pophale) SiO2 
 PCOD9070329
Probable space group: P -1
;
_chemical_formula_sum "Si O2"
_cell_formula_units_Z 13
_cell_length_a 10.870231
_cell_length_b 8.908605
_cell_length_c 7.615419
_cell_angle_alpha 83.138770
_cell_angle_beta 49.650000
_cell_angle_gamma 111.102797
_cell_volume 455.323423
_symmetry_space_group_name_H-M "P -1"
_symmetry_group_IT_number 2
_symmetry_cell_setting 'triclinic'
loop_
_space_group_symop_operation_xyz
x,y,z
-x,-y,-z
loop_
_atom_site_type_symbol
_atom_site_label
_atom_site_fract_x
_atom_site_fract_y
_atom_site_fract_z
Si Si1 0.407941 0.798439 0.026350
Si Si2 0.234752 0.943749 0.539358
Si Si3 0.734541 0.616926 0.249896
Si Si4 0.904748 0.579190 0.759961
Si Si5 0.500000 0.000000 0.500000
Si Si6 0.074206 0.193227 0.597632
Si Si7 0.348498 0.137577 0.901763
O O1 0.524516 0.885826 0.717319
O O2 0.191183 0.621480 0.208094
O O3 0.520065 0.745257 0.064778
O O4 0.500000 0.000000 0.000000
O O5 0.252758 0.895160 0.725556
O O6 0.131365 0.752246 0.558120
O O7 0.144114 0.055902 0.561767
O O8 0.500000 0.500000 0.500000
O O9 0.838521 0.674112 0.332819
O O10 0.771163 0.797030 0.096337
O O11 0.808402 0.540694 0.046613
O O12 0.843459 0.679797 0.668660
O O13 0.498667 0.853810 0.377067
O O14 0.835470 0.062989 0.831030
#
# Coordination Sequence:
#
# PCOD9070329 Si02
#       7
#     2   2   2   2   1   2   2
#     4  12  27  49  74 108 160 205 251 323 397 462
#     4  12  24  50  78 110 154 207 255 315 387 463
#     4  12  25  43  74 116 154 198 255 324 379 454
#     4  12  27  48  80 119 149 203 273 315 384 468
#     4  12  26  44  76 110 158 208 248 308 392 476
#     4  12  24  49  81 114 155 201 261 326 382 453
#     4  12  24  47  74 110 154 207 251 318 390 453
#
# _framework density 28.551134000000001
#
# number of rings (size 3 to 8) (size 9 to 14) (size 15 to 20)
#    0.000    0.000    6.154    4.615    0.000    2.462 
#    0.000    0.769    0.000    0.000    0.000    0.000 
#    0.000    0.000    0.000    0.000    0.000    0.000 
#
# Total GULP energy -72461.186765 kJ/mol
# GULP energy per Si atom -5573.937443 kJ/mol
# Density = 2.848615 g / cm^3
# Si number density = 28.551134 Si / 1000 Ang^3
#
#
#
# Elastic Constant Matrix: (Units=GPa)
#
#
# Indices 1 2 3 4 5 6 
#
# 1 137.9937 59.6579 1.5426 -15.1386 -6.9939 42.6919
# 2 59.6579 172.1273 55.6318 -16.2538 -16.1923 39.1836
# 3 1.5426 55.6318 114.6828 -28.5046 4.7333 29.9095
# 4 -15.1386 -16.2538 -28.5046 54.9523 20.6754 -1.3446
# 5 -6.9939 -16.1923 4.7333 20.6754 32.0928 1.2186
# 6 42.6919 39.1836 29.9095 -1.3446 1.2186 64.6924
#
#
#
# Elastic Compliance Matrix: (Units=1/GPa)
#
#
# Indices 1 2 3 4 5 6 
#
# 1 0.011702 -0.003828 0.005394 0.006148 -0.003845 -0.007698
# 2 -0.003828 0.009453 -0.005600 -0.003943 0.007333 -0.000830
# 3 0.005394 -0.005600 0.017130 0.013190 -0.012386 -0.007580
# 4 0.006148 -0.003943 0.013190 0.034699 -0.024699 -0.006581
# 5 -0.003845 0.007333 -0.012386 -0.024699 0.051672 0.002336
# 6 -0.007698 -0.000830 -0.007580 -0.006581 0.002336 0.024364
#
#
# Mechanical properties :
#
#
# Convention : Reuss Voigt Hill
#
# Bulk Modulus (GPa) = 33.09418 73.16315 53.12867
# Shear Modulus (GPa) = 29.91127 50.87895 40.39511
#
# Velocity S-wave (km/s) = 3.24024 4.22599 3.76551
# Velocity P-wave (km/s) = 5.06115 7.03512 6.12814
#
# Compressibility (1/GPa) = 0.03021679
#
# Stress axis : x y z
#
# Youngs Moduli (GPa) = 85.45238 105.78748 58.37631
#
# Poissons Ratio (x) = 0.40497 -0.31488
# Poissons Ratio (y) = 0.32713 0.32691
# Poissons Ratio (z) = -0.46092 0.59242
#
# Static dielectric constant tensor:
#      x y z
#    x 0.752700 -0.432520 -0.824420 
#    y -0.432520 2.275620 -0.070080 
#    z -0.824420 -0.070080 1.930630 
# 
# From -- ./inp_files/238866.got.cif
#   From: 2010.05.17/outbox.cif.g08.bks.cpg/sg2_120_cif.got.tgz:238866.got - 2010.06.03 11:33:40.
