data_PCOD9070844
_publ_section_title
;
Structure prediction by ZEFSAII (Michael W. Deem and Ramdas Pophale) SiO2 
 PCOD9070844
Probable space group: P -1
;
_chemical_formula_sum "Si O2"
_cell_formula_units_Z 16
_cell_length_a 23.341829
_cell_length_b 12.695384
_cell_length_c 9.937610
_cell_angle_alpha 133.673820
_cell_angle_beta 143.363623
_cell_angle_gamma 26.187430
_cell_volume 770.620527
_symmetry_space_group_name_H-M "P -1"
_symmetry_group_IT_number 2
_symmetry_cell_setting 'triclinic'
loop_
_space_group_symop_operation_xyz
x,y,z
-x,-y,-z
loop_
_atom_site_type_symbol
_atom_site_label
_atom_site_fract_x
_atom_site_fract_y
_atom_site_fract_z
Si Si1 0.903138 0.213885 0.401460
Si Si2 0.092293 0.969692 0.265596
Si Si3 0.446400 0.503152 0.545221
Si Si4 0.835460 0.776118 0.397241
Si Si5 0.466233 0.414882 0.968199
Si Si6 0.152462 0.401825 0.250975
Si Si7 0.648281 0.903835 0.895171
Si Si8 0.376665 0.010182 0.556924
O O1 0.902201 0.380473 0.597210
O O2 0.720358 0.388193 0.204462
O O3 0.000000 0.000000 0.500000
O O4 0.985885 0.098880 0.312000
O O5 0.260956 0.688957 0.358753
O O6 0.135282 0.085802 0.417245
O O7 0.000000 0.000000 0.000000
O O8 0.500000 0.500000 0.500000
O O9 0.475086 0.594968 0.787621
O O10 0.548204 0.239344 0.540874
O O11 0.706876 0.886216 0.364020
O O12 0.000000 0.500000 0.500000
O O13 0.770900 0.807587 0.156574
O O14 0.500000 0.500000 0.000000
O O15 0.561104 0.151571 0.888916
O O16 0.265628 0.282280 0.229019
O O17 0.247683 0.200545 0.367628
O O18 0.000000 0.500000 0.000000
O O19 0.514361 0.963690 0.760868
#
# Coordination Sequence:
#
# PCOD9070844 Si02
#       8
#     2   2   2   2   2   2   2   2
#     4  12  29  46  73 107 145 189 239 296 362 428
#     4  12  27  48  72 105 147 185 240 294 362 429
#     4  12  25  47  73 105 142 189 240 295 355 424
#     4  12  27  47  73 106 146 191 236 298 362 425
#     4  12  26  47  75 103 145 187 242 297 357 423
#     4  12  28  48  72 105 147 189 241 295 360 429
#     4  12  26  49  75 105 143 193 243 297 354 431
#     4  12  26  47  75 106 145 191 246 295 359 425
#
# _framework density 20.762488000000001
#
# number of rings (size 3 to 8) (size 9 to 14) (size 15 to 20)
#    0.000    0.000    3.750    5.250    8.750    0.000 
#    0.000    0.000    0.000    0.000    0.000    0.000 
#    0.000    0.000    0.000    0.000    0.000    0.000 
#
# Total GULP energy -89662.602061 kJ/mol
# GULP energy per Si atom -5603.912629 kJ/mol
# Density = 2.071523 g / cm^3
# Si number density = 20.762488 Si / 1000 Ang^3
#
#
#
# Elastic Constant Matrix: (Units=GPa)
#
#
# Indices 1 2 3 4 5 6 
#
# 1 137.6594 41.1543 47.3356 7.0765 -8.6919 -12.7337
# 2 41.1543 147.0273 44.5820 -7.1309 -8.9213 3.7590
# 3 47.3356 44.5820 139.2324 -11.0880 -12.4354 -3.6595
# 4 7.0765 -7.1309 -11.0880 42.5279 -4.5150 -1.9482
# 5 -8.6919 -8.9213 -12.4354 -4.5150 38.2908 4.4106
# 6 -12.7337 3.7590 -3.6595 -1.9482 4.4106 46.3857
#
#
#
# Elastic Compliance Matrix: (Units=1/GPa)
#
#
# Indices 1 2 3 4 5 6 
#
# 1 0.009076 -0.001919 -0.002579 -0.002374 0.000228 0.002322
# 2 -0.001919 0.008038 -0.001751 0.001273 0.001177 -0.001375
# 3 -0.002579 -0.001751 0.009040 0.002735 0.002260 0.000047
# 4 -0.002374 0.001273 0.002735 0.025226 0.003600 0.000178
# 5 0.000228 0.001177 0.002260 0.003600 0.027871 -0.002353
# 6 0.002322 -0.001375 0.000047 0.000178 -0.002353 0.022542
#
#
# Mechanical properties :
#
#
# Convention : Reuss Voigt Hill
#
# Bulk Modulus (GPa) = 73.22442 76.67366 74.94904
# Shear Modulus (GPa) = 42.07218 44.83069 43.45143
#
# Velocity S-wave (km/s) = 4.50639 4.65178 4.57966
# Velocity P-wave (km/s) = 7.90069 8.11549 8.00881
#
# Compressibility (1/GPa) = 0.01365665
#
# Stress axis : x y z
#
# Youngs Moduli (GPa) = 110.18037 124.41137 110.61436
#
# Poissons Ratio (x) = 0.23877 0.28524
# Poissons Ratio (y) = 0.21146 0.19368
# Poissons Ratio (z) = 0.28412 0.21783
#
# Static dielectric constant tensor:
#      x y z
#    x 1.718010 0.006060 -0.005080 
#    y 0.006060 1.791310 -0.091270 
#    z -0.005080 -0.091270 1.840540 
# 
# From -- ./inp_files/187606.got.cif
#   From: 2010.05.17/outbox.cif.g08.bks.cpg/sg2_94_cif.got.tgz:187606.got - 2010.06.03 11:33:40.
