data_PCOD9070236
_publ_section_title
;
Structure prediction by ZEFSAII (Michael W. Deem and Ramdas Pophale) SiO2 
 PCOD9070236
Probable space group: P -1
;
_chemical_formula_sum "Si O2"
_cell_formula_units_Z 14
_cell_length_a 13.538810
_cell_length_b 16.972258
_cell_length_c 9.432281
_cell_angle_alpha 53.160480
_cell_angle_beta 43.757326
_cell_angle_gamma 24.318799
_cell_volume 604.086843
_symmetry_space_group_name_H-M "P -1"
_symmetry_group_IT_number 2
_symmetry_cell_setting 'triclinic'
loop_
_space_group_symop_operation_xyz
x,y,z
-x,-y,-z
loop_
_atom_site_type_symbol
_atom_site_label
_atom_site_fract_x
_atom_site_fract_y
_atom_site_fract_z
Si Si1 0.417677 0.784407 0.102292
Si Si2 0.668757 0.583014 0.346988
Si Si3 0.336444 0.153095 0.131170
Si Si4 0.951299 0.974307 0.223326
Si Si5 0.302077 0.573153 0.251116
Si Si6 0.896733 0.462236 0.723144
Si Si7 0.451713 0.157356 0.631937
O O1 0.512901 0.664499 0.270343
O O2 0.087083 0.963058 0.215962
O O3 0.500119 0.848274 0.981434
O O4 0.612917 0.639856 0.919898
O O5 0.586781 0.555987 0.588600
O O6 0.605823 0.733932 0.295082
O O7 0.008452 0.371685 0.205542
O O8 0.350042 0.055547 0.332967
O O9 0.500000 0.000000 0.000000
O O10 0.138707 0.765053 0.269897
O O11 0.628291 0.129580 0.384874
O O12 0.000000 0.000000 0.000000
O O13 0.120804 0.605454 0.310664
O O14 0.500000 0.500000 0.000000
O O15 0.153561 0.291720 0.748614
O O16 0.000000 0.500000 0.500000
#
# Coordination Sequence:
#
# PCOD9070236 Si02
#       7
#     2   2   2   2   2   2   2
#     4  12  26  48  77 109 150 200 245 311 380 437
#     4  12  25  50  77 108 155 190 253 315 367 447
#     4  12  24  46  76 114 146 192 249 307 376 443
#     4  12  28  49  70 111 156 193 252 309 373 452
#     4  12  25  49  75 108 149 201 248 308 372 443
#     4  12  24  46  78 108 146 202 251 303 380 441
#     4  12  25  46  74 109 150 192 249 312 366 444
#
# _framework density 23.175474999999999
#
# number of rings (size 3 to 8) (size 9 to 14) (size 15 to 20)
#    0.000    0.000    7.143    3.000    2.000    1.714 
#    0.000    0.000    0.000    0.000    0.000    0.000 
#    0.000    0.000    0.000    0.000    0.000    0.000 
#
# Total GULP energy -78176.486581 kJ/mol
# GULP energy per Si atom -5584.034756 kJ/mol
# Density = 2.312273 g / cm^3
# Si number density = 23.175475 Si / 1000 Ang^3
#
#
#
# Elastic Constant Matrix: (Units=GPa)
#
#
# Indices 1 2 3 4 5 6 
#
# 1 111.1637 24.9838 34.2805 -10.2120 -3.0388 -5.9725
# 2 24.9838 71.1438 11.2817 -14.9508 -2.6158 9.1193
# 3 34.2805 11.2817 115.7747 -12.3992 -5.3253 0.8709
# 4 -10.2120 -14.9508 -12.3992 39.8834 -3.5174 1.0652
# 5 -3.0388 -2.6158 -5.3253 -3.5174 40.1715 0.0093
# 6 -5.9725 9.1193 0.8709 1.0652 0.0093 35.4953
#
#
#
# Elastic Compliance Matrix: (Units=1/GPa)
#
#
# Indices 1 2 3 4 5 6 
#
# 1 0.010885 -0.003621 -0.002826 0.000498 0.000256 0.002816
# 2 -0.003621 0.017256 0.000119 0.005839 0.001378 -0.005221
# 3 -0.002826 0.000119 0.009797 0.002504 0.001312 -0.000822
# 4 0.000498 0.005839 0.002504 0.028517 0.003247 -0.002334
# 5 0.000256 0.001378 0.001312 0.003247 0.025461 -0.000447
# 6 0.002816 -0.005221 -0.000822 -0.002334 -0.000447 0.030078
#
#
# Mechanical properties :
#
#
# Convention : Reuss Voigt Hill
#
# Bulk Modulus (GPa) = 39.55510 48.79712 44.17611
# Shear Modulus (GPa) = 34.94562 38.27912 36.61237
#
# Velocity S-wave (km/s) = 3.88734 4.06853 3.97897
# Velocity P-wave (km/s) = 6.10355 6.57052 6.34134
#
# Compressibility (1/GPa) = 0.02528119
#
# Stress axis : x y z
#
# Youngs Moduli (GPa) = 91.86730 57.95101 102.06694
#
# Poissons Ratio (x) = 0.20986 0.28847
# Poissons Ratio (y) = 0.33268 -0.01212
# Poissons Ratio (z) = 0.25964 -0.00688
#
# Static dielectric constant tensor:
#      x y z
#    x -0.043360 0.976400 1.420040 
#    y 0.976400 1.437560 -0.765990 
#    z 1.420040 -0.765990 0.998860 
# 
# From -- ./inp_files/272081.got.cif
#   From: 2010.05.17/outbox.cif.g08.bks.cpg/sg2_137_cif.got.tgz:272081.got - 2010.06.03 11:33:40.
