data_PCOD9070593
_publ_section_title
;
Structure prediction by ZEFSAII (Michael W. Deem and Ramdas Pophale) SiO2 
 PCOD9070593
Probable space group: P -1
;
_chemical_formula_sum "Si O2"
_cell_formula_units_Z 7
_cell_length_a 7.022904
_cell_length_b 4.751932
_cell_length_c 8.850808
_cell_angle_alpha 92.471163
_cell_angle_beta 57.055211
_cell_angle_gamma 71.381210
_cell_volume 226.009714
_symmetry_space_group_name_H-M "P -1"
_symmetry_group_IT_number 2
_symmetry_cell_setting 'triclinic'
loop_
_space_group_symop_operation_xyz
x,y,z
-x,-y,-z
loop_
_atom_site_type_symbol
_atom_site_label
_atom_site_fract_x
_atom_site_fract_y
_atom_site_fract_z
Si Si1 0.398465 0.863561 0.220522
Si Si2 0.904098 0.498971 0.711184
Si Si3 0.500000 0.000000 0.500000
Si Si4 0.794678 0.301947 0.173976
O O1 0.355852 0.918988 0.420130
O O2 0.658531 0.564091 0.112825
O O3 0.344534 0.185272 0.171320
O O4 0.815347 0.226755 0.756041
O O5 0.000000 0.500000 0.500000
O O6 0.109361 0.512307 0.740163
O O7 0.389040 0.817718 0.665219
O O8 0.000000 0.000000 0.000000
#
# Coordination Sequence:
#
# PCOD9070593 Si02
#       4
#     2   2   1   2
#     4  12  26  49  80 116 159 206 270 320 388 486
#     4  12  26  48  84 114 156 217 259 322 406 462
#     4  12  24  54  80 114 162 206 266 326 390 474
#     4  12  30  51  80 120 162 206 262 333 394 463
#
# _framework density 30.972123
#
# number of rings (size 3 to 8) (size 9 to 14) (size 15 to 20)
#    0.000    0.000    5.714    3.429    4.000    3.429 
#    0.000    0.000    0.000    0.000    0.000    0.000 
#    0.000    0.000    0.000    0.000    0.000    0.000 
#
# Total GULP energy -39173.743666 kJ/mol
# GULP energy per Si atom -5596.249095 kJ/mol
# Density = 3.090163 g / cm^3
# Si number density = 30.972123 Si / 1000 Ang^3
#
#
#
# Elastic Constant Matrix: (Units=GPa)
#
#
# Indices 1 2 3 4 5 6 
#
# 1 251.5392 56.6067 51.9414 -10.3188 38.6848 17.5882
# 2 56.6067 171.6730 18.9369 -26.2198 10.7239 -15.6807
# 3 51.9414 18.9369 119.4938 -0.5586 22.7651 3.0797
# 4 -10.3188 -26.2198 -0.5586 53.8940 -4.8944 1.3403
# 5 38.6848 10.7239 22.7651 -4.8944 54.4138 3.1019
# 6 17.5882 -15.6807 3.0797 1.3403 3.1019 86.9570
#
#
#
# Elastic Compliance Matrix: (Units=1/GPa)
#
#
# Indices 1 2 3 4 5 6 
#
# 1 0.005092 -0.001452 -0.001447 0.000041 -0.002660 -0.001146
# 2 -0.001452 0.006964 -0.000509 0.003073 0.000063 0.001518
# 3 -0.001447 -0.000509 0.009641 -0.000694 -0.002965 -0.000024
# 4 0.000041 0.003073 -0.000694 0.020178 0.001459 0.000207
# 5 -0.002660 0.000063 -0.002965 0.001459 0.021636 -0.000140
# 6 -0.001146 0.001518 -0.000024 0.000207 -0.000140 0.012008
#
#
# Mechanical properties :
#
#
# Convention : Reuss Voigt Hill
#
# Bulk Modulus (GPa) = 67.20113 88.63064 77.91589
# Shear Modulus (GPa) = 57.27773 66.73435 62.00604
#
# Velocity S-wave (km/s) = 4.30505 4.64687 4.47922
# Velocity P-wave (km/s) = 6.81584 7.58087 7.20851
#
# Compressibility (1/GPa) = 0.01488070
#
# Stress axis : x y z
#
# Youngs Moduli (GPa) = 196.39383 143.59739 103.72839
#
# Poissons Ratio (x) = 0.20846 0.15008
# Poissons Ratio (y) = 0.28511 0.05282
# Poissons Ratio (z) = 0.28415 0.07313
#
# Static dielectric constant tensor:
#      x y z
#    x 2.083960 0.277890 0.220830 
#    y 0.277890 1.731000 -0.375530 
#    z 0.220830 -0.375530 2.045400 
# 
# From -- ./inp_files/129241.got.cif
#   From: 2010.05.17/outbox.cif.g08.bks.cpg/sg2_65_cif.got.tgz:129241.got - 2010.06.03 11:33:40.
