data_PCOD9070561
_publ_section_title
;
Structure prediction by ZEFSAII (Michael W. Deem and Ramdas Pophale) SiO2 
 PCOD9070561
Probable space group: P -1
;
_chemical_formula_sum "Si O2"
_cell_formula_units_Z 14
_cell_length_a 26.513465
_cell_length_b 14.228596
_cell_length_c 14.338477
_cell_angle_alpha 20.046271
_cell_angle_beta 155.943349
_cell_angle_gamma 161.290234
_cell_volume 581.176221
_symmetry_space_group_name_H-M "P -1"
_symmetry_group_IT_number 2
_symmetry_cell_setting 'triclinic'
loop_
_space_group_symop_operation_xyz
x,y,z
-x,-y,-z
loop_
_atom_site_type_symbol
_atom_site_label
_atom_site_fract_x
_atom_site_fract_y
_atom_site_fract_z
Si Si1 0.311327 0.225504 0.909058
Si Si2 0.911779 0.601719 0.191906
Si Si3 0.401809 0.092009 0.998706
Si Si4 0.856346 0.162988 0.352969
Si Si5 0.824922 0.413102 0.594762
Si Si6 0.672825 0.675835 0.672762
Si Si7 0.614572 0.884161 0.568728
O O1 0.304469 0.062518 0.950737
O O2 0.256920 0.461643 0.601148
O O3 0.500000 0.500000 0.000000
O O4 0.201823 0.899972 0.099344
O O5 0.939021 0.542408 0.187699
O O6 0.000000 0.500000 0.500000
O O7 0.724231 0.447829 0.011681
O O8 0.000000 0.000000 0.000000
O O9 0.554259 0.512841 0.856738
O O10 0.296370 0.977708 0.835176
O O11 0.460738 0.864689 0.317264
O O12 0.995024 0.242334 0.448056
O O13 0.793490 0.909368 0.573195
O O14 0.731189 0.218111 0.521809
O O15 0.500000 0.500000 0.500000
O O16 0.683827 0.894841 0.575836
#
# Coordination Sequence:
#
# PCOD9070561 Si02
#       7
#     2   2   2   2   2   2   2
#     4  12  24  50  79 112 143 198 261 325 386 461
#     4  12  27  50  76 109 159 208 261 317 380 458
#     4  12  27  47  78 110 155 194 263 324 384 468
#     4  12  30  49  73 119 160 199 258 319 395 458
#     4  12  27  45  80 109 150 196 257 322 389 459
#     4  12  27  50  80 114 164 210 260 316 388 471
#     4  12  25  45  77 114 144 208 256 314 387 460
#
# _framework density 24.089079999999999
#
# number of rings (size 3 to 8) (size 9 to 14) (size 15 to 20)
#    0.000    0.000    5.714    3.000    4.000    3.429 
#    0.000    0.000    0.000    0.000    0.000    0.000 
#    0.000    0.000    0.000    0.000    0.000    0.000 
#
# Total GULP energy -78277.609093 kJ/mol
# GULP energy per Si atom -5591.257792 kJ/mol
# Density = 2.403425 g / cm^3
# Si number density = 24.089080 Si / 1000 Ang^3
#
#
#
# Elastic Constant Matrix: (Units=GPa)
#
#
# Indices 1 2 3 4 5 6 
#
# 1 116.3790 10.9248 27.0212 2.7079 -3.3024 -8.6965
# 2 10.9248 52.6907 15.6626 6.9663 -7.9411 13.3738
# 3 27.0212 15.6626 121.9155 2.8938 1.4756 -12.1344
# 4 2.7079 6.9663 2.8938 36.0936 1.8377 -4.1254
# 5 -3.3024 -7.9411 1.4756 1.8377 41.1026 -1.9320
# 6 -8.6965 13.3738 -12.1344 -4.1254 -1.9320 43.0388
#
#
#
# Elastic Compliance Matrix: (Units=1/GPa)
#
#
# Indices 1 2 3 4 5 6 
#
# 1 0.009314 -0.001882 -0.001627 0.000000 0.000539 0.002032
# 2 -0.001882 0.024156 -0.003526 -0.005518 0.004456 -0.009209
# 3 -0.001627 -0.003526 0.009355 0.000493 -0.001010 0.003406
# 4 0.000000 -0.005518 0.000493 0.029365 -0.002182 0.004570
# 5 0.000539 0.004456 -0.001010 -0.002182 0.025338 -0.000632
# 6 0.002032 -0.009209 0.003406 0.004570 -0.000632 0.027877
#
#
# Mechanical properties :
#
#
# Convention : Reuss Voigt Hill
#
# Bulk Modulus (GPa) = 34.77571 44.24472 39.51022
# Shear Modulus (GPa) = 33.54365 39.87210 36.70787
#
# Velocity S-wave (km/s) = 3.73565 4.07282 3.90787
# Velocity P-wave (km/s) = 5.75103 6.36586 6.06624
#
# Compressibility (1/GPa) = 0.02875570
#
# Stress axis : x y z
#
# Youngs Moduli (GPa) = 107.36307 41.39839 106.88925
#
# Poissons Ratio (x) = 0.07792 0.17389
# Poissons Ratio (y) = 0.20209 0.37686
# Poissons Ratio (z) = 0.17466 0.14596
#
# Static dielectric constant tensor:
#      x y z
#    x 1.907410 0.046970 -0.014550 
#    y 0.046970 2.025760 -0.061230 
#    z -0.014550 -0.061230 2.006190 
# 
# From -- ./inp_files/544229.got.cif
#   From: 2010.05.17/outbox.cif.g08.bks.cpg/sg2_273_cif.got.tgz:544229.got - 2010.06.03 11:33:40.
