data_PCOD9070526
_publ_section_title
;
Structure prediction by ZEFSAII (Michael W. Deem and Ramdas Pophale) SiO2 
 PCOD9070526
Probable space group: P -1
;
_chemical_formula_sum "Si O2"
_cell_formula_units_Z 14
_cell_length_a 6.176238
_cell_length_b 16.134471
_cell_length_c 18.558523
_cell_angle_alpha 154.757239
_cell_angle_beta 131.204095
_cell_angle_gamma 57.583257
_cell_volume 582.984165
_symmetry_space_group_name_H-M "P -1"
_symmetry_group_IT_number 2
_symmetry_cell_setting 'triclinic'
loop_
_space_group_symop_operation_xyz
x,y,z
-x,-y,-z
loop_
_atom_site_type_symbol
_atom_site_label
_atom_site_fract_x
_atom_site_fract_y
_atom_site_fract_z
Si Si1 0.609234 0.886297 0.648933
Si Si2 0.673334 0.473232 0.589666
Si Si3 0.711748 0.619527 0.329089
Si Si4 0.904026 0.881757 0.313882
Si Si5 0.189732 0.262706 0.960371
Si Si6 0.735158 0.898184 0.011221
Si Si7 0.178671 0.437760 0.850653
O O1 0.471498 0.712219 0.537618
O O2 0.625465 0.778644 0.490332
O O3 0.404637 0.049919 0.719835
O O4 0.929976 0.985296 0.825986
O O5 0.500000 0.500000 0.500000
O O6 0.001966 0.442572 0.622056
O O7 0.693374 0.678299 0.797543
O O8 0.805298 0.676551 0.311336
O O9 0.449787 0.428898 0.116822
O O10 0.015221 0.864108 0.243663
O O11 0.958634 0.676099 0.198318
O O12 0.000000 0.000000 0.500000
O O13 0.327502 0.123252 0.934001
O O14 0.984129 0.381193 0.054064
O O15 0.500000 0.000000 0.000000
O O16 0.500000 0.500000 0.000000
#
# Coordination Sequence:
#
# PCOD9070526 Si02
#       7
#     2   2   2   2   2   2   2
#     4  12  29  51  75 119 156 197 262 319 378 470
#     4  12  28  51  79 112 154 204 255 316 396 449
#     4  12  24  49  78 104 157 200 253 321 376 462
#     4  12  27  44  74 112 155 201 257 315 379 455
#     4  12  26  50  75 112 158 201 261 318 382 464
#     4  12  28  50  80 114 151 205 256 318 391 453
#     4  12  25  46  73 107 145 210 252 305 391 443
#
# _framework density 24.014375999999999
#
# number of rings (size 3 to 8) (size 9 to 14) (size 15 to 20)
#    0.000    0.000    4.286    4.714   10.000    2.286 
#    0.000    0.000    0.000    0.000    0.000    0.000 
#    0.000    0.000    0.000    0.000    0.000    0.000 
#
# Total GULP energy -78193.968462 kJ/mol
# GULP energy per Si atom -5585.283462 kJ/mol
# Density = 2.395972 g / cm^3
# Si number density = 24.014376 Si / 1000 Ang^3
#
#
#
# Elastic Constant Matrix: (Units=GPa)
#
#
# Indices 1 2 3 4 5 6 
#
# 1 69.5421 42.3224 29.1504 1.3389 -4.5279 7.7216
# 2 42.3224 186.5884 45.9493 -22.5044 2.3035 1.4361
# 3 29.1504 45.9493 121.2875 -18.1751 3.3027 7.7505
# 4 1.3389 -22.5044 -18.1751 46.4333 4.3830 -4.7838
# 5 -4.5279 2.3035 3.3027 4.3830 44.5872 -8.7344
# 6 7.7216 1.4361 7.7505 -4.7838 -8.7344 46.7150
#
#
#
# Elastic Compliance Matrix: (Units=1/GPa)
#
#
# Indices 1 2 3 4 5 6 
#
# 1 0.018756 -0.003900 -0.003585 -0.004300 0.002326 -0.002391
# 2 -0.003900 0.006935 -0.001248 0.003145 -0.000813 0.000809
# 3 -0.003585 -0.001248 0.010218 0.003546 -0.001601 -0.001001
# 4 -0.004300 0.003145 0.003546 0.025059 -0.002925 0.002045
# 5 0.002326 -0.000813 -0.001601 -0.002925 0.023911 0.004077
# 6 -0.002391 0.000809 -0.001001 0.002045 0.004077 0.022915
#
#
# Mechanical properties :
#
#
# Convention : Reuss Voigt Hill
#
# Bulk Modulus (GPa) = 54.22478 68.02914 61.12696
# Shear Modulus (GPa) = 38.04939 44.88016 41.46477
#
# Velocity S-wave (km/s) = 3.98482 4.32775 4.15982
# Velocity P-wave (km/s) = 6.61823 7.30497 6.97006
#
# Compressibility (1/GPa) = 0.01844175
#
# Stress axis : x y z
#
# Youngs Moduli (GPa) = 53.31604 144.20593 97.86386
#
# Poissons Ratio (x) = 0.56246 0.35086
# Poissons Ratio (y) = 0.20795 0.12213
# Poissons Ratio (z) = 0.19115 0.17996
#
# Static dielectric constant tensor:
#      x y z
#    x 1.975350 0.116020 0.111090 
#    y 0.116020 2.027180 0.173960 
#    z 0.111090 0.173960 2.172280 
# 
# From -- ./inp_files/91121.got.cif
#   From: 2010.05.17/outbox.cif.g08.bks.cpg/sg2_46_cif.got.tgz:91121.got - 2010.06.03 11:33:40.
