data_PCOD9070920
_publ_section_title
;
Structure prediction by ZEFSAII (Michael W. Deem and Ramdas Pophale) SiO2 
 PCOD9070920
Probable space group: P -1
;
_chemical_formula_sum "Si O2"
_cell_formula_units_Z 13
_cell_length_a 7.503070
_cell_length_b 12.180933
_cell_length_c 12.504358
_cell_angle_alpha 40.038877
_cell_angle_beta 45.390270
_cell_angle_gamma 46.579426
_cell_volume 494.643060
_symmetry_space_group_name_H-M "P -1"
_symmetry_group_IT_number 2
_symmetry_cell_setting 'triclinic'
loop_
_space_group_symop_operation_xyz
x,y,z
-x,-y,-z
loop_
_atom_site_type_symbol
_atom_site_label
_atom_site_fract_x
_atom_site_fract_y
_atom_site_fract_z
Si Si1 0.348954 0.920541 0.212952
Si Si2 0.537146 0.940635 0.714364
Si Si3 0.920646 0.802212 0.377426
Si Si4 0.696905 0.289602 0.901257
Si Si5 0.202694 0.439386 0.860084
Si Si6 0.500000 0.500000 0.500000
Si Si7 0.168361 0.433469 0.246492
O O1 0.494241 0.706389 0.325412
O O2 0.061940 0.929394 0.281171
O O3 0.338111 0.005072 0.272751
O O4 0.500000 0.000000 0.000000
O O5 0.719639 0.757753 0.717800
O O6 0.393458 0.106395 0.572944
O O7 0.292860 0.874777 0.904865
O O8 0.008286 0.616618 0.548938
O O9 0.044310 0.745653 0.251614
O O10 0.456990 0.306243 0.910207
O O11 0.634564 0.480518 0.844228
O O12 0.333431 0.562057 0.642080
O O13 0.999986 0.412215 0.876946
O O14 0.000000 0.500000 0.000000
#
# Coordination Sequence:
#
# PCOD9070920 Si02
#       7
#     2   2   2   2   2   1   2
#     4  12  27  50  78 114 158 207 274 326 404 485
#     4  12  28  47  72 114 153 201 254 329 404 472
#     4  12  27  48  75 110 153 210 259 327 400 480
#     4  12  26  48  77 112 149 206 265 318 404 482
#     4  12  25  47  81 116 154 207 268 331 397 474
#     4  12  26  52  80 118 156 214 274 326 406 488
#     4  12  28  48  75 114 153 202 265 325 403 478
#
# _framework density 26.281578
#
# number of rings (size 3 to 8) (size 9 to 14) (size 15 to 20)
#    0.000    0.000    6.154    1.846    4.308    3.077 
#    0.000    0.000    0.000    0.000    0.000    0.000 
#    0.000    0.000    0.000    0.000    0.000    0.000 
#
# Total GULP energy -72386.590949 kJ/mol
# GULP energy per Si atom -5568.199304 kJ/mol
# Density = 2.622176 g / cm^3
# Si number density = 26.281578 Si / 1000 Ang^3
#
#
#
# Elastic Constant Matrix: (Units=GPa)
#
#
# Indices 1 2 3 4 5 6 
#
# 1 114.1558 35.6708 11.5130 -12.8012 6.7549 18.7571
# 2 35.6708 134.6379 26.8340 1.4798 -4.4229 16.6390
# 3 11.5130 26.8340 133.4274 1.5828 12.7626 12.0568
# 4 -12.8012 1.4798 1.5828 48.5996 0.9339 -3.8917
# 5 6.7549 -4.4229 12.7626 0.9339 27.6718 -7.8317
# 6 18.7571 16.6390 12.0568 -3.8917 -7.8317 43.3278
#
#
#
# Elastic Compliance Matrix: (Units=1/GPa)
#
#
# Indices 1 2 3 4 5 6 
#
# 1 0.010815 -0.002579 0.000387 0.002651 -0.004561 -0.004385
# 2 -0.002579 0.008700 -0.001614 -0.001053 0.002393 -0.001437
# 3 0.000387 -0.001614 0.008535 -0.000259 -0.005091 -0.002866
# 4 0.002651 -0.001053 -0.000259 0.021421 -0.001122 0.001050
# 5 -0.004561 0.002393 -0.005091 -0.001122 0.042885 0.010123
# 6 -0.004385 -0.001437 -0.002866 0.001050 0.010123 0.028252
#
#
# Mechanical properties :
#
#
# Convention : Reuss Voigt Hill
#
# Bulk Modulus (GPa) = 48.93086 58.91741 53.92414
# Shear Modulus (GPa) = 37.02825 44.46674 40.74749
#
# Velocity S-wave (km/s) = 3.75761 4.11778 3.94181
# Velocity P-wave (km/s) = 6.12246 6.71376 6.42492
#
# Compressibility (1/GPa) = 0.02043700
#
# Stress axis : x y z
#
# Youngs Moduli (GPa) = 92.46726 114.94080 117.16562
#
# Poissons Ratio (x) = 0.29647 -0.04530
# Poissons Ratio (y) = 0.23850 0.18907
# Poissons Ratio (z) = -0.03575 0.18548
#
# Static dielectric constant tensor:
#      x y z
#    x 2.167410 -0.227170 0.046080 
#    y -0.227170 2.305180 0.173290 
#    z 0.046080 0.173290 1.989250 
# 
# From -- ./inp_files/383805.got.cif
#   From: 2010.05.17/outbox.cif.g08.bks.cpg/sg2_192_cif.got.tgz:383805.got - 2010.06.03 11:33:40.
