data_PCOD9070807
_publ_section_title
;
Structure prediction by ZEFSAII (Michael W. Deem and Ramdas Pophale) SiO2 
 PCOD9070807
Probable space group: P -1
;
_chemical_formula_sum "Si O2"
_cell_formula_units_Z 12
_cell_length_a 12.974299
_cell_length_b 5.459304
_cell_length_c 11.310885
_cell_angle_alpha 48.551254
_cell_angle_beta 125.263462
_cell_angle_gamma 116.199983
_cell_volume 488.006675
_symmetry_space_group_name_H-M "P -1"
_symmetry_group_IT_number 2
_symmetry_cell_setting 'triclinic'
loop_
_space_group_symop_operation_xyz
x,y,z
-x,-y,-z
loop_
_atom_site_type_symbol
_atom_site_label
_atom_site_fract_x
_atom_site_fract_y
_atom_site_fract_z
Si Si1 0.890825 0.269123 0.714375
Si Si2 0.757508 0.631309 0.864077
Si Si3 0.949714 0.174155 0.204544
Si Si4 0.733008 0.775935 0.338752
Si Si5 0.599249 0.822220 0.474851
Si Si6 0.506268 0.516284 0.858472
O O1 0.784129 0.428824 0.516869
O O2 0.962399 0.564927 0.741757
O O3 0.825095 0.976915 0.845697
O O4 0.978694 0.082981 0.742063
O O5 0.690898 0.727252 0.669445
O O6 0.647657 0.467697 0.927088
O O7 0.864775 0.387928 0.998018
O O8 0.850050 0.981840 0.289191
O O9 0.685104 0.904632 0.389874
O O10 0.608076 0.724553 0.192141
O O11 0.500000 0.500000 0.500000
O O12 0.518202 0.132965 0.328672
O O13 0.500000 0.500000 0.000000
#
# Coordination Sequence:
#
# PCOD9070807 Si02
#       6
#     2   2   2   2   2   2
#     4  12  27  52  80 113 156 211 264 317 381 462
#     4  12  26  51  78 116 153 201 261 323 388 464
#     4  12  30  49  81 114 160 208 262 318 385 465
#     4  12  27  50  78 113 154 203 258 323 390 464
#     4  12  25  46  77 112 155 197 253 317 395 464
#     4  12  28  48  78 115 152 198 254 326 399 457
#
# _framework density 24.589827
#
# number of rings (size 3 to 8) (size 9 to 14) (size 15 to 20)
#    0.000    0.000    3.333    5.500    7.000    2.667 
#    0.000    0.000    0.000    0.000    0.000    0.000 
#    0.000    0.000    0.000    0.000    0.000    0.000 
#
# Total GULP energy -67301.808610 kJ/mol
# GULP energy per Si atom -5608.484051 kJ/mol
# Density = 2.453386 g / cm^3
# Si number density = 24.589827 Si / 1000 Ang^3
#
#
#
# Elastic Constant Matrix: (Units=GPa)
#
#
# Indices 1 2 3 4 5 6 
#
# 1 138.2043 44.6230 31.8237 23.1098 13.8261 4.6044
# 2 44.6230 107.6206 -7.9458 2.0809 0.2156 11.6106
# 3 31.8237 -7.9458 73.4852 -0.2927 5.3121 -13.0018
# 4 23.1098 2.0809 -0.2927 47.5263 -9.3198 -5.3121
# 5 13.8261 0.2156 5.3121 -9.3198 49.9483 -5.8792
# 6 4.6044 11.6106 -13.0018 -5.3121 -5.8792 42.7654
#
#
#
# Elastic Compliance Matrix: (Units=1/GPa)
#
#
# Indices 1 2 3 4 5 6 
#
# 1 0.011837 -0.004863 -0.005935 -0.006772 -0.004263 -0.003186
# 2 -0.004863 0.011634 0.003056 0.001961 0.001184 -0.001299
# 3 -0.005935 0.003056 0.017456 0.003725 0.001143 0.005736
# 4 -0.006772 0.001961 0.003725 0.026270 0.007026 0.005558
# 5 -0.004263 0.001184 0.001143 0.007026 0.022916 0.004508
# 6 -0.003186 -0.001299 0.005736 0.005558 0.004508 0.027133
#
#
# Mechanical properties :
#
#
# Convention : Reuss Voigt Hill
#
# Bulk Modulus (GPa) = 39.30179 50.70132 45.00155
# Shear Modulus (GPa) = 35.40837 44.76860 40.08849
#
# Velocity S-wave (km/s) = 3.79880 4.27150 4.04206
# Velocity P-wave (km/s) = 5.93791 6.70754 6.33443
#
# Compressibility (1/GPa) = 0.02544414
#
# Stress axis : x y z
#
# Youngs Moduli (GPa) = 84.47876 85.95599 57.28767
#
# Poissons Ratio (x) = 0.41802 0.33998
# Poissons Ratio (y) = 0.41083 -0.17509
# Poissons Ratio (z) = 0.50135 -0.26271
#
# Static dielectric constant tensor:
#      x y z
#    x 1.925390 -0.004720 0.002870 
#    y -0.004720 2.010480 -0.014750 
#    z 0.002870 -0.014750 1.935880 
# 
# From -- ./inp_files/21864.got.cif
#   From: 2010.05.17/outbox.cif.g08.bks.cpg/sg2_11_cif.got.tgz:21864.got - 2010.06.03 11:33:40.
