data_PCOD9070195
_publ_section_title
;
Structure prediction by ZEFSAII (Michael W. Deem and Ramdas Pophale) SiO2 
 PCOD9070195
Probable space group: P -1
;
_chemical_formula_sum "Si O2"
_cell_formula_units_Z 15
_cell_length_a 21.014887
_cell_length_b 6.343865
_cell_length_c 9.165815
_cell_angle_alpha 106.202684
_cell_angle_beta 143.389698
_cell_angle_gamma 92.805952
_cell_volume 615.197332
_symmetry_space_group_name_H-M "P -1"
_symmetry_group_IT_number 2
_symmetry_cell_setting 'triclinic'
loop_
_space_group_symop_operation_xyz
x,y,z
-x,-y,-z
loop_
_atom_site_type_symbol
_atom_site_label
_atom_site_fract_x
_atom_site_fract_y
_atom_site_fract_z
Si Si1 0.587586 0.085632 0.036475
Si Si2 0.274113 0.400660 0.471299
Si Si3 0.115635 0.231273 0.681265
Si Si4 0.104491 0.044111 0.315400
Si Si5 0.611124 0.892081 0.505194
Si Si6 0.624435 0.756681 0.814224
Si Si7 0.000000 0.500000 0.000000
Si Si8 0.164091 0.595354 0.072248
O O1 0.516997 0.149748 0.793845
O O2 0.615806 0.880897 0.974515
O O3 0.695391 0.342617 0.342174
O O4 0.500000 0.000000 0.000000
O O5 0.222507 0.199159 0.465434
O O6 0.187010 0.402817 0.181928
O O7 0.372002 0.343950 0.561058
O O8 0.100538 0.201499 0.475462
O O9 0.249931 0.256110 0.960882
O O10 0.123095 0.475232 0.816701
O O11 0.000000 0.000000 0.500000
O O12 0.079198 0.776899 0.275757
O O13 0.000000 0.000000 0.000000
O O14 0.713191 0.145891 0.668413
O O15 0.629799 0.923734 0.717834
O O16 0.500000 0.500000 0.500000
O O17 0.065296 0.624491 0.988957
#
# Coordination Sequence:
#
# PCOD9070195 Si02
#       8
#     2   2   2   2   2   2   1   2
#     4  12  27  46  76 112 149 204 266 320 386 471
#     4  12  25  45  73 110 150 195 260 318 390 457
#     4  12  27  49  78 114 157 202 262 322 389 472
#     4  12  27  46  76 109 153 203 257 322 389 464
#     4  12  26  49  76 105 156 206 252 327 391 458
#     4  12  29  51  79 113 159 211 259 322 395 472
#     4  12  24  46  74 106 152 202 256 312 390 462
#     4  12  25  48  73 111 152 203 258 325 381 478
#
# _framework density 24.382421999999998
#
# number of rings (size 3 to 8) (size 9 to 14) (size 15 to 20)
#    0.000    0.000    6.667    2.400    7.467    0.000 
#    0.000    1.333    0.000    0.000    0.000    0.000 
#    0.000    0.000    0.000    0.000    0.000    0.000 
#
# Total GULP energy -83633.978980 kJ/mol
# GULP energy per Si atom -5575.598599 kJ/mol
# Density = 2.432693 g / cm^3
# Si number density = 24.382422 Si / 1000 Ang^3
#
#
#
# Elastic Constant Matrix: (Units=GPa)
#
#
# Indices 1 2 3 4 5 6 
#
# 1 150.1962 15.8474 39.4234 4.8541 -24.9662 -12.9772
# 2 15.8474 44.6777 5.7038 2.9868 10.2158 -6.9594
# 3 39.4234 5.7038 99.7632 -0.6160 -17.6485 -15.4828
# 4 4.8541 2.9868 -0.6160 47.3175 0.2465 -9.1245
# 5 -24.9662 10.2158 -17.6485 0.2465 46.9297 9.3153
# 6 -12.9772 -6.9594 -15.4828 -9.1245 9.3153 46.5513
#
#
#
# Elastic Compliance Matrix: (Units=1/GPa)
#
#
# Indices 1 2 3 4 5 6 
#
# 1 0.008409 -0.003640 -0.002342 -0.000684 0.004387 0.000009
# 2 -0.003640 0.026549 -0.000993 -0.000434 -0.008946 0.004329
# 3 -0.002342 -0.000993 0.011959 0.000981 0.002910 0.002786
# 4 -0.000684 -0.000434 0.000981 0.022135 -0.000929 0.004595
# 5 0.004387 -0.008946 0.002910 -0.000929 0.027654 -0.004863
# 6 0.000009 0.004329 0.002786 0.004595 -0.004863 0.024932
#
#
# Mechanical properties :
#
#
# Convention : Reuss Voigt Hill
#
# Bulk Modulus (GPa) = 30.33181 46.28737 38.30959
# Shear Modulus (GPa) = 34.11207 43.73721 38.92464
#
# Velocity S-wave (km/s) = 3.74444 4.23992 3.99986
# Velocity P-wave (km/s) = 5.58224 6.55701 6.08916
#
# Compressibility (1/GPa) = 0.03296869
#
# Stress axis : x y z
#
# Youngs Moduli (GPa) = 118.92462 37.66589 83.61890
#
# Poissons Ratio (x) = 0.13709 0.19580
# Poissons Ratio (y) = 0.43283 0.08304
# Poissons Ratio (z) = 0.27847 0.03740
#
# Static dielectric constant tensor:
#      x y z
#    x 1.921820 -0.014260 0.046190 
#    y -0.014260 2.052240 0.012750 
#    z 0.046190 0.012750 1.948360 
# 
# From -- ./inp_files/340590.got.cif
#   From: 2010.05.17/outbox.cif.g08.bks.cpg/sg2_171_cif.got.tgz:340590.got - 2010.06.03 11:33:40.
