data_PCOD9070885
_publ_section_title
;
Structure prediction by ZEFSAII (Michael W. Deem and Ramdas Pophale) SiO2 
 PCOD9070885
Probable space group: P -1
;
_chemical_formula_sum "Si O2"
_cell_formula_units_Z 14
_cell_length_a 15.287421
_cell_length_b 8.360219
_cell_length_c 11.685472
_cell_angle_alpha 126.993320
_cell_angle_beta 28.212669
_cell_angle_gamma 116.793507
_cell_volume 551.285115
_symmetry_space_group_name_H-M "P -1"
_symmetry_group_IT_number 2
_symmetry_cell_setting 'triclinic'
loop_
_space_group_symop_operation_xyz
x,y,z
-x,-y,-z
loop_
_atom_site_type_symbol
_atom_site_label
_atom_site_fract_x
_atom_site_fract_y
_atom_site_fract_z
Si Si1 0.640096 0.437474 0.419892
Si Si2 0.104442 0.394583 0.653506
Si Si3 0.664565 0.972869 0.201645
Si Si4 0.949934 0.188397 0.223594
Si Si5 0.650147 0.930902 0.933246
Si Si6 0.649007 0.307059 0.803427
Si Si7 0.724094 0.373211 0.982249
O O1 0.500000 0.500000 0.500000
O O2 0.783306 0.588825 0.350028
O O3 0.723652 0.195054 0.216817
O O4 0.477426 0.470883 0.718963
O O5 0.134726 0.602539 0.651464
O O6 0.188585 0.211568 0.390965
O O7 0.879559 0.412808 0.911364
O O8 0.500000 0.000000 0.500000
O O9 0.629607 0.909309 0.085295
O O10 0.845866 0.806029 0.959332
O O11 0.794089 0.175059 0.491041
O O12 0.000000 0.000000 0.000000
O O13 0.678344 0.158142 0.981514
O O14 0.467110 0.847245 0.071068
O O15 0.777936 0.365742 0.783072
O O16 0.500000 0.500000 0.000000
#
# Coordination Sequence:
#
# PCOD9070885 Si02
#       7
#     2   2   2   2   2   2   2
#     4  12  26  52  74 113 159 206 262 331 402 468
#     4  12  27  48  82 111 158 206 270 326 398 484
#     4  12  27  47  77 115 159 206 267 331 400 470
#     4  12  25  47  76 121 156 202 271 326 403 468
#     4  12  26  49  76 114 157 208 263 323 398 478
#     4  12  26  47  82 114 161 211 265 335 395 472
#     4  12  27  49  77 114 161 209 268 324 402 481
#
# _framework density 25.395208
#
# number of rings (size 3 to 8) (size 9 to 14) (size 15 to 20)
#    0.000    0.000    5.714    3.429    4.000    1.714 
#    0.000    0.000    0.000    0.000    0.000    0.000 
#    0.000    0.000    0.000    0.000    0.000    0.000 
#
# Total GULP energy -78222.122949 kJ/mol
# GULP energy per Si atom -5587.294496 kJ/mol
# Density = 2.533741 g / cm^3
# Si number density = 25.395208 Si / 1000 Ang^3
#
#
#
# Elastic Constant Matrix: (Units=GPa)
#
#
# Indices 1 2 3 4 5 6 
#
# 1 181.3405 22.6150 34.5502 -5.9799 -4.0922 27.6630
# 2 22.6150 84.2095 6.6561 6.8270 -4.5753 18.8445
# 3 34.5502 6.6561 123.9780 5.1366 -6.6779 8.5268
# 4 -5.9799 6.8270 5.1366 42.2428 12.5330 -0.6152
# 5 -4.0922 -4.5753 -6.6779 12.5330 41.3028 -5.4682
# 6 27.6630 18.8445 8.5268 -0.6152 -5.4682 42.3534
#
#
#
# Elastic Compliance Matrix: (Units=1/GPa)
#
#
# Indices 1 2 3 4 5 6 
#
# 1 0.006518 -0.000975 -0.001611 0.001409 -0.000621 -0.003559
# 2 -0.000975 0.013635 0.000111 -0.002911 0.001615 -0.005286
# 3 -0.001611 0.000111 0.008717 -0.001832 0.001745 -0.000553
# 4 0.001409 -0.002911 -0.001832 0.027152 -0.008716 0.000013
# 5 -0.000621 0.001615 0.001745 -0.008716 0.027623 0.002776
# 6 -0.003559 -0.005286 -0.000553 0.000013 0.002776 0.028757
#
#
# Mechanical properties :
#
#
# Convention : Reuss Voigt Hill
#
# Bulk Modulus (GPa) = 41.80630 57.46340 49.63485
# Shear Modulus (GPa) = 39.89597 46.89358 43.39477
#
# Velocity S-wave (km/s) = 3.96789 4.30181 4.13822
# Velocity P-wave (km/s) = 6.12292 6.88120 6.51311
#
# Compressibility (1/GPa) = 0.02391984
#
# Stress axis : x y z
#
# Youngs Moduli (GPa) = 153.41169 73.34146 114.71927
#
# Poissons Ratio (x) = 0.07148 0.18484
# Poissons Ratio (y) = 0.14953 -0.01271
# Poissons Ratio (z) = 0.24719 -0.00812
#
# Static dielectric constant tensor:
#      x y z
#    x 2.788450 0.039050 0.007660 
#    y 0.039050 1.984140 -0.000070 
#    z 0.007660 -0.000070 2.046590 
# 
# From -- ./inp_files/279773.got.cif
#   From: 2010.05.17/outbox.cif.g08.bks.cpg/sg2_140_cif.got.tgz:279773.got - 2010.06.03 11:33:40.
