data_PCOD9070032
_publ_section_title
;
Structure prediction by ZEFSAII (Michael W. Deem and Ramdas Pophale) SiO2 
 PCOD9070032
Probable space group: P -1
;
_chemical_formula_sum "Si O2"
_cell_formula_units_Z 14
_cell_length_a 23.336106
_cell_length_b 25.842497
_cell_length_c 6.918575
_cell_angle_alpha 60.134646
_cell_angle_beta 120.019096
_cell_angle_gamma 169.975346
_cell_volume 628.471071
_symmetry_space_group_name_H-M "P -1"
_symmetry_group_IT_number 2
_symmetry_cell_setting 'triclinic'
loop_
_space_group_symop_operation_xyz
x,y,z
-x,-y,-z
loop_
_atom_site_type_symbol
_atom_site_label
_atom_site_fract_x
_atom_site_fract_y
_atom_site_fract_z
Si Si1 0.398977 0.544563 0.175787
Si Si2 0.618064 0.045360 0.001236
Si Si3 0.228316 0.902668 0.480842
Si Si4 0.491829 0.726287 0.679345
Si Si5 0.797944 0.369874 0.277572
Si Si6 0.687921 0.693229 0.139428
Si Si7 0.865658 0.000507 0.449235
O O1 0.483857 0.562397 0.153799
O O2 0.032965 0.208370 0.262149
O O3 0.661416 0.784564 0.344930
O O4 0.433494 0.633562 0.938377
O O5 0.953528 0.358313 0.871878
O O6 0.345873 0.786528 0.867692
O O7 0.673986 0.043255 0.256260
O O8 0.500000 0.000000 0.000000
O O9 0.861438 0.558696 0.444831
O O10 0.247451 0.990918 0.371203
O O11 0.492656 0.120413 0.357551
O O12 0.626222 0.804895 0.585090
O O13 0.000000 0.500000 0.500000
O O14 0.830636 0.769741 0.382589
O O15 0.500000 0.500000 0.000000
O O16 0.000000 0.000000 0.000000
#
# Coordination Sequence:
#
# PCOD9070032 Si02
#       7
#     2   2   2   2   2   2   2
#     4  12  26  46  74 103 143 186 238 289 353 413
#     4  12  26  45  76 106 140 180 231 291 356 413
#     4  12  28  46  72 105 142 184 238 286 348 423
#     4  12  28  47  70 102 148 188 232 286 348 426
#     4  12  26  45  76 106 140 180 231 291 356 413
#     4  12  24  44  76 105 139 184 236 299 350 402
#     4  12  26  46  74 103 143 186 238 289 353 413
#
# _framework density 22.276285000000001
#
# number of rings (size 3 to 8) (size 9 to 14) (size 15 to 20)
#    0.000    0.000    2.857    6.857    4.000    6.857 
#    0.000    0.000    0.000    0.000    0.000    0.000 
#    0.000    0.000    0.000    0.000    0.000    0.000 
#
# Total GULP energy -78487.334638 kJ/mol
# GULP energy per Si atom -5606.238188 kJ/mol
# Density = 2.222558 g / cm^3
# Si number density = 22.276285 Si / 1000 Ang^3
#
#
#
# Elastic Constant Matrix: (Units=GPa)
#
#
# Indices 1 2 3 4 5 6 
#
# 1 51.4280 -7.0832 19.3893 16.2351 -2.3593 -15.2948
# 2 -7.0832 88.8596 15.3270 -0.8765 -6.5123 -22.7066
# 3 19.3893 15.3270 113.2308 1.2677 2.9498 -14.1360
# 4 16.2351 -0.8765 1.2677 48.2894 -18.2684 -1.4281
# 5 -2.3593 -6.5123 2.9498 -18.2684 31.2525 4.6220
# 6 -15.2948 -22.7066 -14.1360 -1.4281 4.6220 44.8403
#
#
#
# Elastic Compliance Matrix: (Units=1/GPa)
#
#
# Indices 1 2 3 4 5 6 
#
# 1 0.028101 0.005357 -0.003917 -0.010499 -0.004180 0.011160
# 2 0.005357 0.014252 -0.001868 -0.000472 0.002058 0.008228
# 3 -0.003917 -0.001868 0.009915 0.000492 -0.001483 0.001012
# 4 -0.010499 -0.000472 0.000492 0.030790 0.017728 -0.004512
# 5 -0.004180 0.002058 -0.001483 0.017728 0.043316 -0.004751
# 6 0.011160 0.008228 0.001012 -0.004512 -0.004751 0.030940
#
#
# Mechanical properties :
#
#
# Convention : Reuss Voigt Hill
#
# Bulk Modulus (GPa) = 19.45069 34.30939 26.88004
# Shear Modulus (GPa) = 28.52158 39.93545 34.22851
#
# Velocity S-wave (km/s) = 3.58209 4.23866 3.92413
# Velocity P-wave (km/s) = 5.08517 6.27616 5.71179
#
# Compressibility (1/GPa) = 0.05141207
#
# Stress axis : x y z
#
# Youngs Moduli (GPa) = 35.58593 70.16709 100.86112
#
# Poissons Ratio (x) = -0.37592 0.39512
# Poissons Ratio (y) = -0.19065 0.18837
# Poissons Ratio (z) = 0.13941 0.13104
#
# Static dielectric constant tensor:
#      x y z
#    x 1.827760 0.022490 0.028330 
#    y 0.022490 1.795420 -0.016410 
#    z 0.028330 -0.016410 1.814770 
# 
# From -- ./inp_files/102921.got.cif
#   From: 2010.05.17/outbox.cif.g08.bks.cpg/sg2_52_cif.got.tgz:102921.got - 2010.06.03 11:33:40.
