data_PCOD9070574
_publ_section_title
;
Structure prediction by ZEFSAII (Michael W. Deem and Ramdas Pophale) SiO2 
 PCOD9070574
Probable space group: P -1
;
_chemical_formula_sum "Si O2"
_cell_formula_units_Z 12
_cell_length_a 11.979194
_cell_length_b 8.026423
_cell_length_c 9.599287
_cell_angle_alpha 31.113718
_cell_angle_beta 95.102518
_cell_angle_gamma 90.396686
_cell_volume 470.729332
_symmetry_space_group_name_H-M "P -1"
_symmetry_group_IT_number 2
_symmetry_cell_setting 'triclinic'
loop_
_space_group_symop_operation_xyz
x,y,z
-x,-y,-z
loop_
_atom_site_type_symbol
_atom_site_label
_atom_site_fract_x
_atom_site_fract_y
_atom_site_fract_z
Si Si1 0.735330 0.575104 0.404286
Si Si2 0.868370 0.174736 0.484341
Si Si3 0.602848 0.100720 0.849158
Si Si4 0.827963 0.477988 0.973396
Si Si5 0.942055 0.357982 0.783034
Si Si6 0.574965 0.777700 0.777444
O O1 0.761783 0.330605 0.451664
O O2 0.846327 0.511292 0.555251
O O3 0.631797 0.463158 0.562512
O O4 0.707666 0.920583 0.080040
O O5 0.889200 0.794214 0.792240
O O6 0.841369 0.225546 0.282159
O O7 0.881206 0.338006 0.937977
O O8 0.594336 0.944200 0.808424
O O9 0.500000 0.000000 0.000000
O O10 0.033219 0.610491 0.624636
O O11 0.696443 0.624712 0.840132
O O12 0.000000 0.000000 0.000000
O O13 0.500000 0.000000 0.500000
O O14 0.500000 0.500000 0.000000
#
# Coordination Sequence:
#
# PCOD9070574 Si02
#       6
#     2   2   2   2   2   2
#     4  12  25  49  72 109 154 195 245 313 380 452
#     4  12  24  51  75 107 151 205 252 309 376 456
#     4  12  27  47  76 109 151 195 247 315 389 444
#     4  12  27  49  79 109 154 203 253 317 381 445
#     4  12  29  48  78 117 154 203 261 315 378 459
#     4  12  26  48  78 109 148 195 259 311 374 460
#
# _framework density 25.492356999999998
#
# number of rings (size 3 to 8) (size 9 to 14) (size 15 to 20)
#    0.000    0.000    3.333    6.000    4.667    5.333 
#    0.000    0.000    0.000    0.000    0.000    0.000 
#    0.000    0.000    0.000    0.000    0.000    0.000 
#
# Total GULP energy -67360.634630 kJ/mol
# GULP energy per Si atom -5613.386219 kJ/mol
# Density = 2.543434 g / cm^3
# Si number density = 25.492357 Si / 1000 Ang^3
#
#
#
# Elastic Constant Matrix: (Units=GPa)
#
#
# Indices 1 2 3 4 5 6 
#
# 1 160.5915 53.1615 56.9999 14.7068 -9.6976 0.2392
# 2 53.1615 76.0104 25.8494 11.3207 -20.3407 -24.0744
# 3 56.9999 25.8494 175.2964 14.4915 1.1904 11.2350
# 4 14.7068 11.3207 14.4915 50.1938 1.2011 -12.5535
# 5 -9.6976 -20.3407 1.1904 1.2011 52.0937 7.8787
# 6 0.2392 -24.0744 11.2350 -12.5535 7.8787 42.4964
#
#
#
# Elastic Compliance Matrix: (Units=1/GPa)
#
#
# Indices 1 2 3 4 5 6 
#
# 1 0.009267 -0.007086 -0.001566 -0.001678 -0.000350 -0.004083
# 2 -0.007086 0.024879 -0.002319 0.000405 0.006369 0.013686
# 3 -0.001566 -0.002319 0.006945 -0.001895 -0.000774 -0.003557
# 4 -0.001678 0.000405 -0.001895 0.022873 -0.001823 0.007834
# 5 -0.000350 0.006369 -0.000774 -0.001823 0.021793 -0.000764
# 6 -0.004083 0.013686 -0.003557 0.007834 -0.000764 0.034704
#
#
# Mechanical properties :
#
#
# Convention : Reuss Voigt Hill
#
# Bulk Modulus (GPa) = 52.21472 75.99112 64.10292
# Shear Modulus (GPa) = 33.60545 47.34927 40.47736
#
# Velocity S-wave (km/s) = 3.63472 4.31442 3.98907
# Velocity P-wave (km/s) = 6.17591 7.39548 6.81304
#
# Compressibility (1/GPa) = 0.01915169
#
# Stress axis : x y z
#
# Youngs Moduli (GPa) = 107.91037 40.19449 143.97897
#
# Poissons Ratio (x) = 0.28481 0.22541
# Poissons Ratio (y) = 0.76463 0.33382
# Poissons Ratio (z) = 0.16895 0.09319
#
# Static dielectric constant tensor:
#      x y z
#    x 1.455070 0.909260 -0.483290 
#    y 0.909260 0.592980 0.694310 
#    z -0.483290 0.694310 1.608260 
# 
# From -- ./inp_files/57361.got.cif
#   From: 2010.05.17/outbox.cif.g08.bks.cpg/sg2_29_cif.got.tgz:57361.got - 2010.06.03 11:33:40.
