data_PCOD9070748
_publ_section_title
;
Structure prediction by ZEFSAII (Michael W. Deem and Ramdas Pophale) SiO2 
 PCOD9070748
Probable space group: P -1
;
_chemical_formula_sum "Si O2"
_cell_formula_units_Z 15
_cell_length_a 31.209664
_cell_length_b 12.193358
_cell_length_c 14.856825
_cell_angle_alpha 32.951234
_cell_angle_beta 159.022257
_cell_angle_gamma 159.187317
_cell_volume 693.551741
_symmetry_space_group_name_H-M "P -1"
_symmetry_group_IT_number 2
_symmetry_cell_setting 'triclinic'
loop_
_space_group_symop_operation_xyz
x,y,z
-x,-y,-z
loop_
_atom_site_type_symbol
_atom_site_label
_atom_site_fract_x
_atom_site_fract_y
_atom_site_fract_z
Si Si1 0.500000 0.000000 0.000000
Si Si2 0.101447 0.341583 0.978451
Si Si3 0.788430 0.219326 0.532931
Si Si4 0.046952 0.114948 0.617280
Si Si5 0.448397 0.746866 0.510205
Si Si6 0.336098 0.271952 0.762145
Si Si7 0.780620 0.260528 0.213206
Si Si8 0.823558 0.134025 0.869011
O O1 0.578914 0.937600 0.274865
O O2 0.654325 0.112105 0.154778
O O3 0.207842 0.521699 0.970201
O O4 0.946658 0.306921 0.725975
O O5 0.258791 0.545276 0.223128
O O6 0.000000 0.000000 0.000000
O O7 0.829870 0.517208 0.398415
O O8 0.808352 0.162377 0.713103
O O9 0.000000 0.000000 0.500000
O O10 0.856056 0.912089 0.438038
O O11 0.141180 0.049985 0.900088
O O12 0.399857 0.496244 0.651123
O O13 0.500000 0.000000 0.500000
O O14 0.627063 0.942138 0.661990
O O15 0.302397 0.010900 0.832286
O O16 0.500000 0.500000 0.000000
O O17 0.000000 0.500000 0.500000
O O18 0.000000 0.500000 0.000000
#
# Coordination Sequence:
#
# PCOD9070748 Si02
#       8
#     1   2   2   2   2   2   2   2
#     4  12  28  46  82 108 152 210 262 316 392 472
#     4  12  26  50  78 108 154 206 258 327 394 468
#     4  12  27  49  76 112 156 201 265 321 391 479
#     4  12  25  45  79 111 154 201 250 327 402 465
#     4  12  27  46  73 112 154 200 256 325 397 467
#     4  12  26  45  75 110 152 197 254 323 395 468
#     4  12  25  51  74 108 153 199 261 317 385 474
#     4  12  26  48  75 115 156 200 267 330 395 473
#
# _framework density 21.627801999999999
#
# number of rings (size 3 to 8) (size 9 to 14) (size 15 to 20)
#    0.000    0.000    4.000    5.600    3.733    1.067 
#    0.000    2.000    0.000    0.000    0.000    0.000 
#    0.000    0.000    0.000    0.000    0.000    0.000 
#
# Total GULP energy -83677.983501 kJ/mol
# GULP energy per Si atom -5578.532233 kJ/mol
# Density = 2.157858 g / cm^3
# Si number density = 21.627802 Si / 1000 Ang^3
#
#
#
# Elastic Constant Matrix: (Units=GPa)
#
#
# Indices 1 2 3 4 5 6 
#
# 1 151.4662 41.7954 56.7496 3.6943 6.3645 25.2203
# 2 41.7954 108.6456 24.9902 -20.5550 5.5134 4.4144
# 3 56.7496 24.9902 150.0602 3.7414 -6.8548 6.4652
# 4 3.6943 -20.5550 3.7414 40.1570 9.2563 -1.1276
# 5 6.3645 5.5134 -6.8548 9.2563 55.6326 0.2080
# 6 25.2203 4.4144 6.4652 -1.1276 0.2080 39.2151
#
#
#
# Elastic Compliance Matrix: (Units=1/GPa)
#
#
# Indices 1 2 3 4 5 6 
#
# 1 0.009510 -0.003176 -0.002815 -0.002220 -0.000730 -0.005354
# 2 -0.003176 0.012101 -0.001137 0.007122 -0.002165 0.001084
# 3 -0.002815 -0.001137 0.008005 -0.001435 0.001658 0.000568
# 4 -0.002220 0.007122 -0.001435 0.030241 -0.005667 0.001763
# 5 -0.000730 -0.002165 0.001658 -0.005667 0.019420 0.000174
# 6 -0.005354 0.001084 0.000568 0.001763 0.000174 0.028778
#
#
# Mechanical properties :
#
#
# Convention : Reuss Voigt Hill
#
# Bulk Modulus (GPa) = 65.10867 73.02694 69.06780
# Shear Modulus (GPa) = 39.23722 46.11006 42.67364
#
# Velocity S-wave (km/s) = 4.26397 4.62235 4.44677
# Velocity P-wave (km/s) = 7.37641 7.89473 7.63996
#
# Compressibility (1/GPa) = 0.01535894
#
# Stress axis : x y z
#
# Youngs Moduli (GPa) = 105.15756 82.63850 124.92447
#
# Poissons Ratio (x) = 0.26249 0.35162
# Poissons Ratio (y) = 0.33401 0.14206
# Poissons Ratio (z) = 0.29598 0.09397
#
# Static dielectric constant tensor:
#      x y z
#    x 1.825600 -0.045290 -0.098780 
#    y -0.045290 1.700180 -0.018860 
#    z -0.098780 -0.018860 1.838290 
# 
# From -- ./inp_files/544958.got.cif
#   From: 2010.05.17/outbox.cif.g08.bks.cpg/sg2_273_cif.got.tgz:544958.got - 2010.06.03 11:33:40.
