data_PCOD9070992
_publ_section_title
;
Structure prediction by ZEFSAII (Michael W. Deem and Ramdas Pophale) SiO2 
 PCOD9070992
Probable space group: P -1
;
_chemical_formula_sum "Si O2"
_cell_formula_units_Z 12
_cell_length_a 7.926769
_cell_length_b 11.718221
_cell_length_c 7.788447
_cell_angle_alpha 67.700699
_cell_angle_beta 51.193224
_cell_angle_gamma 98.843240
_cell_volume 437.987318
_symmetry_space_group_name_H-M "P -1"
_symmetry_group_IT_number 2
_symmetry_cell_setting 'triclinic'
loop_
_space_group_symop_operation_xyz
x,y,z
-x,-y,-z
loop_
_atom_site_type_symbol
_atom_site_label
_atom_site_fract_x
_atom_site_fract_y
_atom_site_fract_z
Si Si1 0.947201 0.391392 0.939247
Si Si2 0.246145 0.928813 0.644693
Si Si3 0.753661 0.935423 0.141948
Si Si4 0.139778 0.868838 0.360088
Si Si5 0.621157 0.329377 0.645805
Si Si6 0.557542 0.661868 0.883524
O O1 0.183664 0.497236 0.603121
O O2 0.916770 0.244764 0.107562
O O3 0.677776 0.339928 0.051847
O O4 0.000000 0.500000 0.000000
O O5 0.547644 0.951708 0.397804
O O6 0.190406 0.945494 0.470712
O O7 0.048757 0.966061 0.869837
O O8 0.572142 0.758725 0.336186
O O9 0.726306 0.019659 0.946264
O O10 0.217688 0.747927 0.389241
O O11 0.835895 0.776173 0.566465
O O12 0.448857 0.300999 0.936192
O O13 0.500000 0.500000 0.000000
#
# Coordination Sequence:
#
# PCOD9070992 Si02
#       6
#     2   2   2   2   2   2
#     4  12  25  48  78 108 154 201 253 314 384 455
#     4  12  26  49  78 111 152 207 251 310 384 451
#     4  12  29  49  79 116 150 204 258 316 382 457
#     4  12  27  50  78 114 156 198 259 315 379 455
#     4  12  26  51  76 110 155 202 251 314 389 448
#     4  12  27  46  76 115 148 199 258 315 379 455
#
# _framework density 27.398054999999999
#
# number of rings (size 3 to 8) (size 9 to 14) (size 15 to 20)
#    0.000    0.000    5.000    3.000    9.333    1.333 
#    0.000    2.500    0.000    0.000    0.000    0.000 
#    0.000    0.000    0.000    0.000    0.000    0.000 
#
# Total GULP energy -67347.752874 kJ/mol
# GULP energy per Si atom -5612.312739 kJ/mol
# Density = 2.733570 g / cm^3
# Si number density = 27.398055 Si / 1000 Ang^3
#
#
#
# Elastic Constant Matrix: (Units=GPa)
#
#
# Indices 1 2 3 4 5 6 
#
# 1 122.2797 46.0603 35.4009 -5.8066 -26.7693 11.6185
# 2 46.0603 169.3537 72.8278 16.6223 27.4116 15.1527
# 3 35.4009 72.8278 188.9706 -9.4254 -14.9388 0.7927
# 4 -5.8066 16.6223 -9.4254 65.6993 1.8849 5.5738
# 5 -26.7693 27.4116 -14.9388 1.8849 61.0888 1.9225
# 6 11.6185 15.1527 0.7927 5.5738 1.9225 48.7477
#
#
#
# Elastic Compliance Matrix: (Units=1/GPa)
#
#
# Indices 1 2 3 4 5 6 
#
# 1 0.011643 -0.004455 0.000216 0.002145 0.007148 -0.001921
# 2 -0.004455 0.010477 -0.003951 -0.003273 -0.007473 -0.001462
# 3 0.000216 -0.003951 0.007144 0.001882 0.003534 0.000706
# 4 0.002145 -0.003273 0.001882 0.016568 0.002405 -0.001514
# 5 0.007148 -0.007473 0.003534 0.002405 0.023666 -0.000647
# 6 -0.001921 -0.001462 0.000706 -0.001514 -0.000647 0.021613
#
#
# Mechanical properties :
#
#
# Convention : Reuss Voigt Hill
#
# Bulk Modulus (GPa) = 77.61591 87.68688 82.65140
# Shear Modulus (GPa) = 44.72828 56.86150 50.79489
#
# Velocity S-wave (km/s) = 4.04485 4.56058 4.31043
# Velocity P-wave (km/s) = 7.08554 7.73344 7.41657
#
# Compressibility (1/GPa) = 0.01288396
#
# Stress axis : x y z
#
# Youngs Moduli (GPa) = 85.88982 95.44558 139.96940
#
# Poissons Ratio (x) = 0.42522 -0.03023
# Poissons Ratio (y) = 0.38265 0.55303
# Poissons Ratio (z) = -0.01855 0.37711
#
# Static dielectric constant tensor:
#      x y z
#    x 2.129400 -0.043770 -0.029010 
#    y -0.043770 2.091390 0.073520 
#    z -0.029010 0.073520 2.158420 
# 
# From -- ./inp_files/22488.got.cif
#   From: 2010.05.17/outbox.cif.g08.bks.cpg/sg2_12_cif.got.tgz:22488.got - 2010.06.03 11:33:40.
