data_PCOD9070749
_publ_section_title
;
Structure prediction by ZEFSAII (Michael W. Deem and Ramdas Pophale) SiO2 
 PCOD9070749
Probable space group: P -1
;
_chemical_formula_sum "Si O2"
_cell_formula_units_Z 16
_cell_length_a 8.370691
_cell_length_b 9.993157
_cell_length_c 11.750368
_cell_angle_alpha 43.172680
_cell_angle_beta 102.607541
_cell_angle_gamma 102.220997
_cell_volume 654.261897
_symmetry_space_group_name_H-M "P -1"
_symmetry_group_IT_number 2
_symmetry_cell_setting 'triclinic'
loop_
_space_group_symop_operation_xyz
x,y,z
-x,-y,-z
loop_
_atom_site_type_symbol
_atom_site_label
_atom_site_fract_x
_atom_site_fract_y
_atom_site_fract_z
Si Si1 0.334905 0.623045 0.938361
Si Si2 0.421803 0.015106 0.247996
Si Si3 0.738714 0.489779 0.258908
Si Si4 0.556021 0.621710 0.543071
Si Si5 0.108253 0.917163 0.818577
Si Si6 0.917764 0.715137 0.574419
Si Si7 0.193785 0.046379 0.988702
Si Si8 0.205193 0.208617 0.247721
O O1 0.491263 0.770983 0.897966
O O2 0.327933 0.563379 0.843592
O O3 0.190295 0.760295 0.853056
O O4 0.298044 0.423720 0.125833
O O5 0.328654 0.046338 0.333988
O O6 0.552826 0.855662 0.377604
O O7 0.298327 0.958343 0.160451
O O8 0.590815 0.417015 0.365326
O O9 0.770338 0.720012 0.148014
O O10 0.915837 0.393805 0.348973
O O11 0.500000 0.500000 0.500000
O O12 0.745142 0.581318 0.620159
O O13 0.923666 0.812219 0.864841
O O14 0.082281 0.119616 0.625460
O O15 0.218091 0.957137 0.922683
O O16 0.889878 0.810901 0.635614
O O17 0.000000 0.000000 0.000000
#
# Coordination Sequence:
#
# PCOD9070749 Si02
#       8
#     2   2   2   2   2   2   2   2
#     4  12  26  47  75 117 152 203 260 324 386 460
#     4  12  27  49  78 109 160 202 260 329 384 463
#     4  12  28  50  83 113 158 204 268 321 388 469
#     4  12  30  52  75 118 160 209 261 318 397 470
#     4  12  25  47  72 112 152 198 260 311 391 459
#     4  12  28  48  80 114 156 206 259 325 390 459
#     4  12  28  49  76 112 153 209 259 322 391 462
#     4  12  25  45  80 112 150 202 260 320 385 456
#
# _framework density 24.455038999999999
#
# number of rings (size 3 to 8) (size 9 to 14) (size 15 to 20)
#    0.000    0.000    5.000    3.375    7.000    2.500 
#    0.000    0.000    0.000    0.000    0.000    0.000 
#    0.000    0.000    0.000    0.000    0.000    0.000 
#
# Total GULP energy -89524.098729 kJ/mol
# GULP energy per Si atom -5595.256171 kJ/mol
# Density = 2.439938 g / cm^3
# Si number density = 24.455039 Si / 1000 Ang^3
#
#
#
# Elastic Constant Matrix: (Units=GPa)
#
#
# Indices 1 2 3 4 5 6 
#
# 1 134.8781 18.9945 25.4894 -2.0404 -6.0991 11.9196
# 2 18.9945 123.0774 17.2478 5.6823 -17.6859 11.8589
# 3 25.4894 17.2478 51.0492 -3.3576 -15.7434 -3.4642
# 4 -2.0404 5.6823 -3.3576 40.5570 -2.0045 2.9627
# 5 -6.0991 -17.6859 -15.7434 -2.0045 36.8871 0.3814
# 6 11.9196 11.8589 -3.4642 2.9627 0.3814 50.6553
#
#
#
# Elastic Compliance Matrix: (Units=1/GPa)
#
#
# Indices 1 2 3 4 5 6 
#
# 1 0.008491 -0.000603 -0.004388 0.000271 -0.000720 -0.002167
# 2 -0.000603 0.009249 -0.001981 -0.001165 0.003448 -0.002117
# 3 -0.004388 -0.001981 0.025714 0.002428 0.009400 0.003042
# 4 0.000271 -0.001165 0.002428 0.025210 0.001904 -0.001114
# 5 -0.000720 0.003448 0.009400 0.001904 0.032763 -0.000353
# 6 -0.002167 -0.002117 0.003042 -0.001114 -0.000353 0.021023
#
#
# Mechanical properties :
#
#
# Convention : Reuss Voigt Hill
#
# Bulk Modulus (GPa) = 33.88488 48.05201 40.96844
# Shear Modulus (GPa) = 34.19298 42.10475 38.14887
#
# Velocity S-wave (km/s) = 3.74330 4.15386 3.95392
# Velocity P-wave (km/s) = 5.70694 6.53436 6.13462
#
# Compressibility (1/GPa) = 0.02951169
#
# Stress axis : x y z
#
# Youngs Moduli (GPa) = 117.76877 108.12238 38.88939
#
# Poissons Ratio (x) = 0.06518 0.17063
# Poissons Ratio (y) = 0.07099 0.07703
# Poissons Ratio (z) = 0.51671 0.21417
#
# Static dielectric constant tensor:
#      x y z
#    x 2.028550 0.002140 -0.065600 
#    y 0.002140 1.922670 0.055560 
#    z -0.065600 0.055560 1.974730 
# 
# From -- ./inp_files/381087.got.cif
#   From: 2010.05.17/outbox.cif.g08.bks.cpg/sg2_191_cif.got.tgz:381087.got - 2010.06.03 11:33:40.
