data_PCOD9070715
_publ_section_title
;
Structure prediction by ZEFSAII (Michael W. Deem and Ramdas Pophale) SiO2 
 PCOD9070715
Probable space group: P -1
;
_chemical_formula_sum "Si O2"
_cell_formula_units_Z 12
_cell_length_a 12.656906
_cell_length_b 8.900285
_cell_length_c 5.025587
_cell_angle_alpha 93.818916
_cell_angle_beta 77.364493
_cell_angle_gamma 73.227128
_cell_volume 523.795770
_symmetry_space_group_name_H-M "P -1"
_symmetry_group_IT_number 2
_symmetry_cell_setting 'triclinic'
loop_
_space_group_symop_operation_xyz
x,y,z
-x,-y,-z
loop_
_atom_site_type_symbol
_atom_site_label
_atom_site_fract_x
_atom_site_fract_y
_atom_site_fract_z
Si Si1 0.628738 0.910825 0.514706
Si Si2 0.429440 0.585446 0.800542
Si Si3 0.757187 0.553364 0.281926
Si Si4 0.935511 0.096852 0.794588
Si Si5 0.098405 0.546139 0.292476
Si Si6 0.308772 0.939570 0.983112
O O1 0.707626 0.973860 0.280119
O O2 0.500000 0.000000 0.500000
O O3 0.669097 0.723427 0.423739
O O4 0.650373 0.958930 0.806474
O O5 0.500000 0.500000 0.500000
O O6 0.309577 0.553015 0.834268
O O7 0.405215 0.771706 0.865851
O O8 0.500000 0.500000 0.000000
O O9 0.810337 0.474935 0.521041
O O10 0.848758 0.562758 0.006439
O O11 0.938858 0.275980 0.781275
O O12 0.805935 0.093508 0.868802
O O13 0.000000 0.000000 0.500000
O O14 0.000000 0.000000 0.000000
O O15 0.000000 0.500000 0.500000
#
# Coordination Sequence:
#
# PCOD9070715 Si02
#       6
#     2   2   2   2   2   2
#     4  12  27  47  73 109 149 196 241 296 366 435
#     4  12  25  45  75 105 142 193 242 301 364 434
#     4  12  26  48  74 109 151 188 248 303 364 440
#     4  12  28  48  78 108 145 192 248 304 373 439
#     4  12  28  49  77 110 146 194 247 306 374 437
#     4  12  26  47  73 106 148 187 247 300 363 437
#
# _framework density 22.909690999999999
#
# number of rings (size 3 to 8) (size 9 to 14) (size 15 to 20)
#    0.000    0.000    1.667    8.000    9.333    0.000 
#    0.000    0.000    0.000    0.000    0.000    0.000 
#    0.000    0.000    0.000    0.000    0.000    0.000 
#
# Total GULP energy -67235.486727 kJ/mol
# GULP energy per Si atom -5602.957227 kJ/mol
# Density = 2.285755 g / cm^3
# Si number density = 22.909691 Si / 1000 Ang^3
#
#
#
# Elastic Constant Matrix: (Units=GPa)
#
#
# Indices 1 2 3 4 5 6 
#
# 1 71.4622 32.7285 28.1133 -1.2970 4.5578 -9.3027
# 2 32.7285 141.8373 41.9983 8.3724 12.3893 -12.6915
# 3 28.1133 41.9983 171.4789 9.9635 8.7359 -15.7483
# 4 -1.2970 8.3724 9.9635 52.9414 -3.9482 3.8313
# 5 4.5578 12.3893 8.7359 -3.9482 54.3641 -9.3518
# 6 -9.3027 -12.6915 -15.7483 3.8313 -9.3518 33.1639
#
#
#
# Elastic Compliance Matrix: (Units=1/GPa)
#
#
# Indices 1 2 3 4 5 6 
#
# 1 0.016457 -0.003123 -0.001772 0.001059 0.000122 0.002492
# 2 -0.003123 0.008484 -0.001276 -0.001388 -0.001299 0.001559
# 3 -0.001772 -0.001276 0.006736 -0.001299 -0.000348 0.002265
# 4 0.001059 -0.001388 -0.001299 0.019680 0.001396 -0.002731
# 5 0.000122 -0.001299 -0.000348 0.001396 0.019655 0.004753
# 6 0.002492 0.001559 0.002265 -0.002731 0.004753 0.034180
#
#
# Mechanical properties :
#
#
# Convention : Reuss Voigt Hill
#
# Bulk Modulus (GPa) = 51.72116 65.60650 58.66383
# Shear Modulus (GPa) = 40.32965 46.88977 43.60971
#
# Velocity S-wave (km/s) = 4.20023 4.52898 4.36770
# Velocity P-wave (km/s) = 6.79321 7.48652 7.14828
#
# Compressibility (1/GPa) = 0.01933445
#
# Stress axis : x y z
#
# Youngs Moduli (GPa) = 60.76610 117.87506 148.45896
#
# Poissons Ratio (x) = 0.36810 0.26308
# Poissons Ratio (y) = 0.18976 0.18941
# Poissons Ratio (z) = 0.10768 0.15039
#
# Static dielectric constant tensor:
#      x y z
#    x 1.891240 0.028830 -0.083930 
#    y 0.028830 1.841490 -0.002230 
#    z -0.083930 -0.002230 1.829000 
# 
# From -- ./inp_files/59334.got.cif
#   From: 2010.05.17/outbox.cif.g08.bks.cpg/sg2_30_cif.got.tgz:59334.got - 2010.06.03 11:33:40.
