data_PCOD9070290
_publ_section_title
;
Structure prediction by ZEFSAII (Michael W. Deem and Ramdas Pophale) SiO2 
 PCOD9070290
Probable space group: P -1
;
_chemical_formula_sum "Si O2"
_cell_formula_units_Z 12
_cell_length_a 8.674425
_cell_length_b 5.415765
_cell_length_c 21.951953
_cell_angle_alpha 121.973075
_cell_angle_beta 37.437408
_cell_angle_gamma 124.539508
_cell_volume 509.881867
_symmetry_space_group_name_H-M "P -1"
_symmetry_group_IT_number 2
_symmetry_cell_setting 'triclinic'
loop_
_space_group_symop_operation_xyz
x,y,z
-x,-y,-z
loop_
_atom_site_type_symbol
_atom_site_label
_atom_site_fract_x
_atom_site_fract_y
_atom_site_fract_z
Si Si1 0.307174 0.611704 0.401581
Si Si2 0.063511 0.750089 0.904544
Si Si3 0.557835 0.329263 0.399354
Si Si4 0.374812 0.707930 0.960475
Si Si5 0.130665 0.510237 0.197963
Si Si6 0.596017 0.842058 0.778846
O O1 0.464381 0.492187 0.391124
O O2 0.328438 0.442268 0.309116
O O3 0.000000 0.500000 0.500000
O O4 0.406791 0.972503 0.407286
O O5 0.916831 0.653094 0.873761
O O6 0.370934 0.872048 0.806154
O O7 0.924287 0.438550 0.944138
O O8 0.000000 0.000000 0.000000
O O9 0.500000 0.500000 0.500000
O O10 0.870839 0.357003 0.298559
O O11 0.413377 0.782686 0.887867
O O12 0.576669 0.504617 0.878992
O O13 0.500000 0.000000 0.000000
O O14 0.164889 0.869959 0.241138
#
# Coordination Sequence:
#
# PCOD9070290 Si02
#       6
#     2   2   2   2   2   2
#     4  12  29  52  83 115 152 199 255 317 390 463
#     4  12  24  47  69 104 151 201 257 307 375 448
#     4  12  29  52  83 114 156 196 252 323 389 459
#     4  12  26  43  73 104 151 205 253 312 372 449
#     4  12  27  47  72 111 153 196 256 318 384 447
#     4  12  27  46  74 108 152 198 257 314 379 454
#
# _framework density 23.534863999999999
#
# number of rings (size 3 to 8) (size 9 to 14) (size 15 to 20)
#    0.000    0.000    5.000    4.000   11.667    0.000 
#    0.000    0.000    0.000    0.000    0.000    0.000 
#    0.000    0.000    0.000    0.000    0.000    0.000 
#
# Total GULP energy -66998.085821 kJ/mol
# GULP energy per Si atom -5583.173818 kJ/mol
# Density = 2.348130 g / cm^3
# Si number density = 23.534864 Si / 1000 Ang^3
#
#
#
# Elastic Constant Matrix: (Units=GPa)
#
#
# Indices 1 2 3 4 5 6 
#
# 1 69.8392 24.9760 7.8489 5.8176 9.5512 11.5438
# 2 24.9760 182.7861 53.3108 12.2051 9.2565 38.7445
# 3 7.8489 53.3108 124.2466 10.0057 7.4398 20.6742
# 4 5.8176 12.2051 10.0057 50.3687 12.4600 0.0390
# 5 9.5512 9.2565 7.4398 12.4600 33.9489 -4.2725
# 6 11.5438 38.7445 20.6742 0.0390 -4.2725 43.5006
#
#
#
# Elastic Compliance Matrix: (Units=1/GPa)
#
#
# Indices 1 2 3 4 5 6 
#
# 1 0.016008 -0.001255 0.000474 -0.000509 -0.004557 -0.003803
# 2 -0.001255 0.007572 -0.002072 -0.000868 -0.001642 -0.005587
# 3 0.000474 -0.002072 0.009591 -0.001044 -0.001665 -0.003001
# 4 -0.000509 -0.000868 -0.001044 0.022172 -0.007447 0.000653
# 5 -0.004557 -0.001642 -0.001665 -0.007447 0.035155 0.006923
# 6 -0.003803 -0.005587 -0.003001 0.000653 0.006923 0.031079
#
#
# Mechanical properties :
#
#
# Convention : Reuss Voigt Hill
#
# Bulk Modulus (GPa) = 36.40951 61.01594 48.71272
# Shear Modulus (GPa) = 36.64684 44.94606 40.79645
#
# Velocity S-wave (km/s) = 3.95033 4.37483 4.16799
# Velocity P-wave (km/s) = 6.02585 7.17641 6.62615
#
# Compressibility (1/GPa) = 0.02746535
#
# Stress axis : x y z
#
# Youngs Moduli (GPa) = 62.46760 132.06684 104.26841
#
# Poissons Ratio (x) = 0.16570 -0.04940
# Poissons Ratio (y) = 0.07838 0.21602
# Poissons Ratio (z) = -0.02959 0.27361
#
# Static dielectric constant tensor:
#      x y z
#    x 2.049230 -0.131910 -0.060860 
#    y -0.131910 1.952140 0.011090 
#    z -0.060860 0.011090 1.863520 
# 
# From -- ./inp_files/585823.got.cif
#   From: 2010.05.17/outbox.cif.g08.bks.cpg/sg2_293_cif.got.tgz:585823.got - 2010.06.03 11:33:40.
