data_PCOD9070454
_publ_section_title
;
Structure prediction by ZEFSAII (Michael W. Deem and Ramdas Pophale) SiO2 
 PCOD9070454
Probable space group: P -1
;
_chemical_formula_sum "Si O2"
_cell_formula_units_Z 14
_cell_length_a 9.007329
_cell_length_b 9.007346
_cell_length_c 21.183222
_cell_angle_alpha 135.524931
_cell_angle_beta 150.568411
_cell_angle_gamma 50.960155
_cell_volume 591.488315
_symmetry_space_group_name_H-M "P -1"
_symmetry_group_IT_number 2
_symmetry_cell_setting 'triclinic'
loop_
_space_group_symop_operation_xyz
x,y,z
-x,-y,-z
loop_
_atom_site_type_symbol
_atom_site_label
_atom_site_fract_x
_atom_site_fract_y
_atom_site_fract_z
Si Si1 0.305032 0.444963 0.749999
Si Si2 0.175531 0.548340 0.144092
Si Si3 0.300423 0.320472 0.239557
Si Si4 0.060029 0.060864 0.739556
Si Si5 0.192429 0.031437 0.644090
Si Si6 0.161529 0.405967 0.467124
Si Si7 0.373091 0.694405 0.967125
O O1 0.495268 0.404609 0.745715
O O2 0.349670 0.250445 0.754283
O O3 0.406660 0.639371 0.888879
O O4 0.971746 0.482217 0.611119
O O5 0.199901 0.344576 0.136663
O O6 0.053945 0.746555 0.200177
O O7 0.000000 0.500000 0.000000
O O8 0.486710 0.537844 0.383954
O O9 0.985496 0.290029 0.149084
O O10 0.553272 0.146233 0.299824
O O11 0.981237 0.063232 0.636662
O O12 0.421797 0.102756 0.883954
O O13 0.939118 0.836409 0.649086
O O14 0.000000 0.000000 0.500000
O O15 0.000000 0.500000 0.500000
O O16 0.500000 0.500000 0.000000
#
# Coordination Sequence:
#
# PCOD9070454 Si02
#       7
#     2   2   2   2   2   2   2
#     4  12  24  48  76 106 164 192 266 324 380 448
#     4  12  25  49  78 113 153 210 253 327 381 466
#     4  12  26  50  80 110 160 204 258 317 399 453
#     4  12  26  50  80 110 160 204 258 317 399 453
#     4  12  25  49  78 113 153 210 253 327 381 466
#     4  12  25  50  73 113 154 203 252 327 378 468
#     4  12  25  50  73 113 154 203 252 327 378 468
#
# _framework density 23.669107
#
# number of rings (size 3 to 8) (size 9 to 14) (size 15 to 20)
#    0.000    0.000    8.571    0.000    0.000    3.429 
#   10.286    0.000    0.000    0.000    0.000    0.000 
#    0.000    0.000    0.000    0.000    0.000    0.000 
#
# Total GULP energy -78212.398859 kJ/mol
# GULP energy per Si atom -5586.599919 kJ/mol
# Density = 2.361523 g / cm^3
# Si number density = 23.669107 Si / 1000 Ang^3
#
#
#
# Elastic Constant Matrix: (Units=GPa)
#
#
# Indices 1 2 3 4 5 6 
#
# 1 122.3120 54.9907 43.6639 -6.4114 -10.1727 -7.0423
# 2 54.9907 124.2065 58.7401 -8.0562 -16.6967 1.5964
# 3 43.6639 58.7401 164.3061 -2.0978 -12.5284 -10.7498
# 4 -6.4114 -8.0562 -2.0978 35.6961 8.4609 1.7111
# 5 -10.1727 -16.6967 -12.5284 8.4609 47.4450 5.7147
# 6 -7.0423 1.5964 -10.7498 1.7111 5.7147 33.7538
#
#
#
# Elastic Compliance Matrix: (Units=1/GPa)
#
#
# Indices 1 2 3 4 5 6 
#
# 1 0.010608 -0.004078 -0.001212 0.000786 0.000143 0.001956
# 2 -0.004078 0.011793 -0.003109 0.001275 0.002577 -0.002900
# 3 -0.001212 -0.003109 0.007701 -0.000702 0.000528 0.002293
# 4 0.000786 0.001275 -0.000702 0.029565 -0.004742 -0.000816
# 5 0.000143 0.002577 0.000528 -0.004742 0.023440 -0.003652
# 6 0.001956 -0.002900 0.002293 -0.000816 -0.003652 0.031561
#
#
# Mechanical properties :
#
#
# Convention : Reuss Voigt Hill
#
# Bulk Modulus (GPa) = 75.16945 80.62376 77.89661
# Shear Modulus (GPa) = 36.79112 40.27431 38.53271
#
# Velocity S-wave (km/s) = 3.94686 4.12947 4.03919
# Velocity P-wave (km/s) = 7.25242 7.54145 7.39835
#
# Compressibility (1/GPa) = 0.01330328
#
# Stress axis : x y z
#
# Youngs Moduli (GPa) = 94.27076 84.79253 129.84808
#
# Poissons Ratio (x) = 0.34579 0.15739
# Poissons Ratio (y) = 0.38444 0.40376
# Poissons Ratio (z) = 0.11427 0.26366
#
# Static dielectric constant tensor:
#      x y z
#    x 1.935780 -0.036900 0.020740 
#    y -0.036900 2.003350 0.019520 
#    z 0.020740 0.019520 2.117640 
# 
# From -- ./inp_files/588167.got.cif
#   From: 2010.05.17/outbox.cif.g08.bks.cpg/sg2_295_cif.got.tgz:588167.got - 2010.06.03 11:33:40.
