data_PCOD9070704
_publ_section_title
;
Structure prediction by ZEFSAII (Michael W. Deem and Ramdas Pophale) SiO2 
 PCOD9070704
Probable space group: P -1
;
_chemical_formula_sum "Si O2"
_cell_formula_units_Z 12
_cell_length_a 9.511576
_cell_length_b 18.727384
_cell_length_c 5.665606
_cell_angle_alpha 94.002768
_cell_angle_beta 128.144331
_cell_angle_gamma 49.566336
_cell_volume 503.515826
_symmetry_space_group_name_H-M "P -1"
_symmetry_group_IT_number 2
_symmetry_cell_setting 'triclinic'
loop_
_space_group_symop_operation_xyz
x,y,z
-x,-y,-z
loop_
_atom_site_type_symbol
_atom_site_label
_atom_site_fract_x
_atom_site_fract_y
_atom_site_fract_z
Si Si1 0.924588 0.488520 0.168113
Si Si2 0.684534 0.766507 0.445220
Si Si3 0.106846 0.192725 0.680451
Si Si4 0.876437 0.112692 0.298944
Si Si5 0.411242 0.564796 0.669376
Si Si6 0.387960 0.964401 0.506233
O O1 0.000000 0.500000 0.500000
O O2 0.083863 0.363609 0.290464
O O3 0.593036 0.580290 0.857826
O O4 0.000000 0.500000 0.000000
O O5 0.574908 0.907930 0.922667
O O6 0.483989 0.862448 0.455726
O O7 0.455458 0.797186 0.048415
O O8 0.966475 0.157995 0.535867
O O9 0.912904 0.311367 0.637933
O O10 0.145391 0.217342 0.472052
O O11 0.057533 0.067941 0.235820
O O12 0.000000 0.000000 0.500000
O O13 0.500000 0.500000 0.500000
O O14 0.500000 0.500000 0.000000
O O15 0.500000 0.000000 0.500000
#
# Coordination Sequence:
#
# PCOD9070704 Si02
#       6
#     2   2   2   2   2   2
#     4  12  28  49  76 112 151 191 253 317 374 447
#     4  12  26  47  76 105 147 198 245 305 376 447
#     4  12  26  47  75 106 148 196 246 305 376 448
#     4  12  25  46  73 107 148 190 246 305 369 442
#     4  12  26  48  78 109 148 197 251 310 379 448
#     4  12  25  45  74 106 146 192 246 307 366 442
#
# _framework density 23.832421
#
# number of rings (size 3 to 8) (size 9 to 14) (size 15 to 20)
#    0.000    0.000    5.000    5.000    2.333    2.667 
#    0.000    0.000    0.000    0.000    0.000    0.000 
#    0.000    0.000    0.000    0.000    0.000    0.000 
#
# Total GULP energy -67001.333815 kJ/mol
# GULP energy per Si atom -5583.444485 kJ/mol
# Density = 2.377818 g / cm^3
# Si number density = 23.832421 Si / 1000 Ang^3
#
#
#
# Elastic Constant Matrix: (Units=GPa)
#
#
# Indices 1 2 3 4 5 6 
#
# 1 131.2986 13.8551 20.5159 -0.4809 -7.1822 13.1101
# 2 13.8551 127.6627 18.1048 10.5979 -11.3850 -3.6010
# 3 20.5159 18.1048 65.8535 3.9428 4.6011 9.8954
# 4 -0.4809 10.5979 3.9428 48.8675 -0.2666 1.8458
# 5 -7.1822 -11.3850 4.6011 -0.2666 48.3681 -3.3917
# 6 13.1101 -3.6010 9.8954 1.8458 -3.3917 48.3435
#
#
#
# Elastic Compliance Matrix: (Units=1/GPa)
#
#
# Indices 1 2 3 4 5 6 
#
# 1 0.008272 -0.000557 -0.002271 0.000458 0.001193 -0.001754
# 2 -0.000557 0.008636 -0.002487 -0.001723 0.002284 0.001529
# 3 -0.002271 -0.002487 0.017312 -0.000771 -0.002804 -0.003280
# 4 0.000458 -0.001723 -0.000771 0.020937 -0.000213 -0.000909
# 5 0.001193 0.002284 -0.002804 -0.000213 0.021792 0.001958
# 6 -0.001754 0.001529 -0.003280 -0.000909 0.001958 0.022118
#
#
# Mechanical properties :
#
#
# Convention : Reuss Voigt Hill
#
# Bulk Modulus (GPa) = 42.39194 47.75182 45.07188
# Shear Modulus (GPa) = 42.53121 47.27174 44.90148
#
# Velocity S-wave (km/s) = 4.22903 4.45849 4.34527
# Velocity P-wave (km/s) = 6.45541 6.82526 6.64291
#
# Compressibility (1/GPa) = 0.02358939
#
# Stress axis : x y z
#
# Youngs Moduli (GPa) = 120.89140 115.79168 57.76502
#
# Poissons Ratio (x) = 0.06447 0.13120
# Poissons Ratio (y) = 0.06731 0.14367
# Poissons Ratio (z) = 0.27457 0.28799
#
# Static dielectric constant tensor:
#      x y z
#    x 1.967710 -0.054700 -0.058500 
#    y -0.054700 2.060950 0.104740 
#    z -0.058500 0.104740 1.963730 
# 
# From -- ./inp_files/44746.got.cif
#   From: 2010.05.17/outbox.cif.g08.bks.cpg/sg2_23_cif.got.tgz:44746.got - 2010.06.03 11:33:40.
