data_PCOD9070273
_publ_section_title
;
Structure prediction by ZEFSAII (Michael W. Deem and Ramdas Pophale) SiO2 
 PCOD9070273
Probable space group: P -1
;
_chemical_formula_sum "Si O2"
_cell_formula_units_Z 13
_cell_length_a 11.000696
_cell_length_b 12.464876
_cell_length_c 11.890306
_cell_angle_alpha 121.278196
_cell_angle_beta 24.073446
_cell_angle_gamma 121.524632
_cell_volume 562.797312
_symmetry_space_group_name_H-M "P -1"
_symmetry_group_IT_number 2
_symmetry_cell_setting 'triclinic'
loop_
_space_group_symop_operation_xyz
x,y,z
-x,-y,-z
loop_
_atom_site_type_symbol
_atom_site_label
_atom_site_fract_x
_atom_site_fract_y
_atom_site_fract_z
Si Si1 0.690803 0.022730 0.610315
Si Si2 0.158688 0.374344 0.799274
Si Si3 0.500000 0.000000 0.500000
Si Si4 0.264823 0.375088 0.108904
Si Si5 0.481251 0.752247 0.742095
Si Si6 0.602542 0.299538 0.571074
Si Si7 0.702709 0.811348 0.825859
O O1 0.653518 0.020624 0.506516
O O2 0.008063 0.100825 0.417540
O O3 0.638428 0.882673 0.627540
O O4 0.451624 0.099067 0.912501
O O5 0.334316 0.352539 0.524084
O O6 0.398444 0.360400 0.686448
O O7 0.000000 0.500000 0.000000
O O8 0.869062 0.268205 0.005561
O O9 0.622076 0.152483 0.447531
O O10 0.212402 0.300949 0.229926
O O11 0.931018 0.381804 0.348005
O O12 0.500000 0.500000 0.000000
O O13 0.427923 0.298937 0.836683
O O14 0.501607 0.757461 0.861965
#
# Coordination Sequence:
#
# PCOD9070273 Si02
#       7
#     2   2   1   2   2   2   2
#     4  12  25  44  74 112 149 192 251 307 387 449
#     4  12  28  50  73 108 148 203 254 307 372 449
#     4  12  24  46  80 110 156 182 250 320 390 444
#     4  12  27  49  76 110 150 198 253 308 375 452
#     4  12  26  47  75 105 151 199 249 310 373 453
#     4  12  27  49  79 111 149 196 252 318 379 447
#     4  12  25  47  71 110 149 199 243 310 379 455
#
# _framework density 23.098901999999999
#
# number of rings (size 3 to 8) (size 9 to 14) (size 15 to 20)
#    0.000    0.000    4.615    4.615    2.154    1.231 
#    0.000    0.000    0.000    0.000    0.000    0.000 
#    0.000    0.000    0.000    0.000    0.000    0.000 
#
# Total GULP energy -72550.451782 kJ/mol
# GULP energy per Si atom -5580.803983 kJ/mol
# Density = 2.304633 g / cm^3
# Si number density = 23.098902 Si / 1000 Ang^3
#
#
#
# Elastic Constant Matrix: (Units=GPa)
#
#
# Indices 1 2 3 4 5 6 
#
# 1 140.2381 53.2860 26.0759 0.2894 -25.7619 5.7487
# 2 53.2860 103.7204 15.0167 -11.4414 -23.6746 2.1067
# 3 26.0759 15.0167 89.1218 -18.6340 -37.3421 15.1672
# 4 0.2894 -11.4414 -18.6340 34.1430 9.4371 -1.7957
# 5 -25.7619 -23.6746 -37.3421 9.4371 39.9256 -8.8221
# 6 5.7487 2.1067 15.1672 -1.7957 -8.8221 18.8549
#
#
#
# Elastic Compliance Matrix: (Units=1/GPa)
#
#
# Indices 1 2 3 4 5 6 
#
# 1 0.009636 -0.004417 -0.001487 -0.003190 0.002921 -0.000186
# 2 -0.004417 0.013540 0.002506 0.004120 0.006863 0.001421
# 3 -0.001487 0.002506 0.021231 0.007357 0.016802 -0.008344
# 4 -0.003190 0.004120 0.007357 0.035015 -0.001638 -0.002837
# 5 0.002921 0.006863 0.016802 -0.001638 0.048756 0.007484
# 6 -0.000186 0.001421 -0.008344 -0.002837 0.007484 0.062878
#
#
# Mechanical properties :
#
#
# Convention : Reuss Voigt Hill
#
# Bulk Modulus (GPa) = 26.58682 57.98193 42.28437
# Shear Modulus (GPa) = 23.76556 34.49813 29.13185
#
# Velocity S-wave (km/s) = 3.21107 3.86877 3.55516
# Velocity P-wave (km/s) = 5.02821 6.71659 5.93277
#
# Compressibility (1/GPa) = 0.03761262
#
# Stress axis : x y z
#
# Youngs Moduli (GPa) = 103.77535 73.85749 47.09986
#
# Poissons Ratio (x) = 0.32620 0.07002
# Poissons Ratio (y) = 0.45834 -0.11803
# Poissons Ratio (z) = 0.15427 -0.18508
#
# Static dielectric constant tensor:
#      x y z
#    x 1.761110 0.061980 -0.028270 
#    y 0.061980 1.883090 0.037080 
#    z -0.028270 0.037080 1.835740 
# 
# From -- ./inp_files/428626.got.cif
#   From: 2010.05.17/outbox.cif.g08.bks.cpg/sg2_215_cif.got.tgz:428626.got - 2010.06.03 11:33:40.
