data_PCOD9070862
_publ_section_title
;
Structure prediction by ZEFSAII (Michael W. Deem and Ramdas Pophale) SiO2 
 PCOD9070862
Probable space group: P -1
;
_chemical_formula_sum "Si O2"
_cell_formula_units_Z 10
_cell_length_a 6.657773
_cell_length_b 17.516132
_cell_length_c 5.079501
_cell_angle_alpha 97.177103
_cell_angle_beta 89.644638
_cell_angle_gamma 42.209498
_cell_volume 390.500954
_symmetry_space_group_name_H-M "P -1"
_symmetry_group_IT_number 2
_symmetry_cell_setting 'triclinic'
loop_
_space_group_symop_operation_xyz
x,y,z
-x,-y,-z
loop_
_atom_site_type_symbol
_atom_site_label
_atom_site_fract_x
_atom_site_fract_y
_atom_site_fract_z
Si Si1 0.152315 0.106110 0.631110
Si Si2 0.753449 0.750212 0.101848
Si Si3 0.790142 0.155745 0.141465
Si Si4 0.338939 0.513013 0.761555
Si Si5 0.301418 0.368457 0.525963
O O1 0.131754 0.202543 0.755400
O O2 0.961167 0.118352 0.404428
O O3 0.500000 0.000000 0.500000
O O4 0.036971 0.098159 0.892314
O O5 0.722974 0.701072 0.330066
O O6 0.436900 0.844949 0.979164
O O7 0.996014 0.641653 0.853962
O O8 0.413929 0.401802 0.733996
O O9 0.466538 0.705916 0.746781
O O10 0.500000 0.500000 0.000000
O O11 0.500000 0.500000 0.500000
O O12 0.000000 0.500000 0.500000
#
# Coordination Sequence:
#
# PCOD9070862 Si02
#       5
#     2   2   2   2   2
#     4  12  30  54  81 112 150 202 265 329 391 443
#     4  12  28  49  78 112 161 201 260 318 375 462
#     4  12  27  51  79 114 156 198 262 314 385 465
#     4  12  26  42  71 107 153 204 245 298 372 450
#     4  12  25  47  74 114 157 200 248 302 379 464
#
# _framework density 25.608131
#
# number of rings (size 3 to 8) (size 9 to 14) (size 15 to 20)
#    0.000    0.000    4.000    4.800    5.600    1.600 
#    0.000    0.000    0.000    0.000    0.000    0.000 
#    0.000    0.000    0.000    0.000    0.000    0.000 
#
# Total GULP energy -55842.738372 kJ/mol
# GULP energy per Si atom -5584.273837 kJ/mol
# Density = 2.554985 g / cm^3
# Si number density = 25.608131 Si / 1000 Ang^3
#
#
#
# Elastic Constant Matrix: (Units=GPa)
#
#
# Indices 1 2 3 4 5 6 
#
# 1 73.9769 35.4968 18.9729 -15.2286 19.1899 -12.9504
# 2 35.4968 109.0973 55.7425 20.8993 -6.7974 -17.6921
# 3 18.9729 55.7425 196.1142 4.0666 1.8023 -10.1617
# 4 -15.2286 20.8993 4.0666 57.1670 -17.6029 -0.5249
# 5 19.1899 -6.7974 1.8023 -17.6029 48.3445 1.0253
# 6 -12.9504 -17.6921 -10.1617 -0.5249 1.0253 39.1023
#
#
#
# Elastic Compliance Matrix: (Units=1/GPa)
#
#
# Indices 1 2 3 4 5 6 
#
# 1 0.021210 -0.008187 0.000402 0.006389 -0.007337 0.003703
# 2 -0.008187 0.015535 -0.003344 -0.006647 0.003069 0.003279
# 3 0.000402 -0.003344 0.006012 0.000720 -0.000596 0.000208
# 4 0.006389 -0.006647 0.000720 0.023083 0.004918 -0.000523
# 5 -0.007337 0.003069 -0.000596 0.004918 0.025880 -0.001809
# 6 0.003703 0.003279 0.000208 -0.000523 -0.001809 0.028378
#
#
# Mechanical properties :
#
#
# Convention : Reuss Voigt Hill
#
# Bulk Modulus (GPa) = 48.78396 66.62364 57.70380
# Shear Modulus (GPa) = 33.51450 46.85451 40.18451
#
# Velocity S-wave (km/s) = 3.62158 4.28211 3.96562
# Velocity P-wave (km/s) = 6.04809 7.10786 6.59928
#
# Compressibility (1/GPa) = 0.02049854
#
# Stress axis : x y z
#
# Youngs Moduli (GPa) = 47.14781 64.37173 166.33494
#
# Poissons Ratio (x) = 0.52701 -0.06685
# Poissons Ratio (y) = 0.38600 0.55622
# Poissons Ratio (z) = -0.01895 0.21526
#
# Static dielectric constant tensor:
#      x y z
#    x 3.419130 0.229170 0.276850 
#    y 0.229170 2.271080 -0.036120 
#    z 0.276850 -0.036120 2.028150 
# 
# From -- ./inp_files/8489.got.cif
#   From: 2010.05.17/outbox.cif.g08.bks.cpg/sg2_5_cif.got.tgz:8489.got - 2010.06.03 11:33:40.
