data_PCOD9070483
_publ_section_title
;
Structure prediction by ZEFSAII (Michael W. Deem and Ramdas Pophale) SiO2 
 PCOD9070483
Probable space group: P -1
;
_chemical_formula_sum "Si O2"
_cell_formula_units_Z 12
_cell_length_a 9.231977
_cell_length_b 11.668749
_cell_length_c 9.419285
_cell_angle_alpha 57.753498
_cell_angle_beta 138.480185
_cell_angle_gamma 98.702627
_cell_volume 510.098752
_symmetry_space_group_name_H-M "P -1"
_symmetry_group_IT_number 2
_symmetry_cell_setting 'triclinic'
loop_
_space_group_symop_operation_xyz
x,y,z
-x,-y,-z
loop_
_atom_site_type_symbol
_atom_site_label
_atom_site_fract_x
_atom_site_fract_y
_atom_site_fract_z
Si Si1 0.055392 0.852141 0.807223
Si Si2 0.434907 0.387027 0.124166
Si Si3 0.466316 0.652078 0.450961
Si Si4 0.957204 0.640324 0.685411
Si Si5 0.756981 0.913319 0.169300
Si Si6 0.509514 0.061741 0.312563
O O1 0.114228 0.710868 0.839495
O O2 0.101551 0.998349 0.723165
O O3 0.221948 0.780314 0.116054
O O4 0.764956 0.931114 0.536511
O O5 0.555552 0.353978 0.391463
O O6 0.504816 0.226105 0.208249
O O7 0.500000 0.500000 0.000000
O O8 0.145226 0.471845 0.891706
O O9 0.500000 0.500000 0.500000
O O10 0.718471 0.659574 0.585302
O O11 0.869026 0.741227 0.413437
O O12 0.705146 0.927600 0.955117
O O13 0.500000 0.000000 0.000000
O O14 0.500000 0.000000 0.500000
#
# Coordination Sequence:
#
# PCOD9070483 Si02
#       6
#     2   2   2   2   2   2
#     4  12  24  48  80 104 146 195 251 302 364 447
#     4  12  29  49  73 115 156 191 243 319 381 429
#     4  12  27  47  80 107 142 202 255 292 371 450
#     4  12  26  48  79 111 146 194 255 309 359 452
#     4  12  25  44  78 109 140 194 252 293 369 445
#     4  12  29  49  72 111 156 190 244 312 378 438
#
# _framework density 23.524856
#
# number of rings (size 3 to 8) (size 9 to 14) (size 15 to 20)
#    0.000    0.000    5.000    4.000    7.000    4.667 
#    0.000    0.000    0.000    0.000    0.000    0.000 
#    0.000    0.000    0.000    0.000    0.000    0.000 
#
# Total GULP energy -67074.924492 kJ/mol
# GULP energy per Si atom -5589.577041 kJ/mol
# Density = 2.347131 g / cm^3
# Si number density = 23.524856 Si / 1000 Ang^3
#
#
#
# Elastic Constant Matrix: (Units=GPa)
#
#
# Indices 1 2 3 4 5 6 
#
# 1 63.9368 21.6143 33.1948 13.4762 -24.1599 12.1851
# 2 21.6143 134.4018 17.7825 -2.7496 -0.4055 6.4678
# 3 33.1948 17.7825 141.9548 -2.8617 -22.1280 -8.7415
# 4 13.4762 -2.7496 -2.8617 48.8922 -8.7199 2.2329
# 5 -24.1599 -0.4055 -22.1280 -8.7199 40.5082 -3.7902
# 6 12.1851 6.4678 -8.7415 2.2329 -3.7902 34.2970
#
#
#
# Elastic Compliance Matrix: (Units=1/GPa)
#
#
# Indices 1 2 3 4 5 6 
#
# 1 0.025951 -0.003251 -0.004548 -0.005254 0.011063 -0.008201
# 2 -0.003251 0.008096 -0.000604 0.000987 -0.002052 -0.000817
# 3 -0.004548 -0.000604 0.008955 0.002090 0.003017 0.004210
# 4 -0.005254 0.000987 0.002090 0.022561 0.002974 0.001073
# 5 0.011063 -0.002052 0.003017 0.002974 0.033622 0.000748
# 6 -0.008201 -0.000817 0.004210 0.001073 0.000748 0.033311
#
#
# Mechanical properties :
#
#
# Convention : Reuss Voigt Hill
#
# Bulk Modulus (GPa) = 38.17245 53.94183 46.05714
# Shear Modulus (GPa) = 31.63847 42.58627 37.11237
#
# Velocity S-wave (km/s) = 3.67126 4.25934 3.97619
# Velocity P-wave (km/s) = 5.85086 6.86795 6.37971
#
# Compressibility (1/GPa) = 0.02619691
#
# Stress axis : x y z
#
# Youngs Moduli (GPa) = 38.53346 123.51022 111.66571
#
# Poissons Ratio (x) = 0.40156 0.50783
# Poissons Ratio (y) = 0.12528 0.06747
# Poissons Ratio (z) = 0.17524 0.07463
#
# Static dielectric constant tensor:
#      x y z
#    x 1.915020 -0.006370 -0.025000 
#    y -0.006370 1.931430 0.011550 
#    z -0.025000 0.011550 1.893790 
# 
# From -- ./inp_files/26308.got.cif
#   From: 2010.05.17/outbox.cif.g08.bks.cpg/sg2_14_cif.got.tgz:26308.got - 2010.06.03 11:33:40.
