data_PCOD9070381
_publ_section_title
;
Structure prediction by ZEFSAII (Michael W. Deem and Ramdas Pophale) SiO2 
 PCOD9070381
Probable space group: P -1
;
_chemical_formula_sum "Si O2"
_cell_formula_units_Z 16
_cell_length_a 9.567771
_cell_length_b 11.184063
_cell_length_c 9.883801
_cell_angle_alpha 94.504779
_cell_angle_beta 136.742418
_cell_angle_gamma 80.249288
_cell_volume 712.729666
_symmetry_space_group_name_H-M "P -1"
_symmetry_group_IT_number 2
_symmetry_cell_setting 'triclinic'
loop_
_space_group_symop_operation_xyz
x,y,z
-x,-y,-z
loop_
_atom_site_type_symbol
_atom_site_label
_atom_site_fract_x
_atom_site_fract_y
_atom_site_fract_z
Si Si1 0.703410 0.097832 0.058496
Si Si2 0.267258 0.900033 0.600177
Si Si3 0.645846 0.722107 0.322367
Si Si4 0.481065 0.519847 0.828470
Si Si5 0.938662 0.329996 0.561564
Si Si6 0.139641 0.122990 0.333719
Si Si7 0.898758 0.604828 0.038751
Si Si8 0.731702 0.871954 0.864103
O O1 0.695444 0.082507 0.212409
O O2 0.895042 0.167830 0.168110
O O3 0.497773 0.175335 0.857697
O O4 0.749919 0.968789 0.003466
O O5 0.110918 0.805279 0.463812
O O6 0.493002 0.854121 0.693304
O O7 0.179223 0.022303 0.470014
O O8 0.524718 0.611448 0.252100
O O9 0.723243 0.777316 0.518139
O O10 0.853252 0.675754 0.378853
O O11 0.262600 0.601873 0.649905
O O12 0.670864 0.579931 0.915603
O O13 0.500000 0.500000 0.000000
O O14 0.971762 0.393728 0.731980
O O15 0.209623 0.073379 0.231824
O O16 0.871316 0.741300 0.972011
O O17 0.000000 0.500000 0.000000
#
# Coordination Sequence:
#
# PCOD9070381 Si02
#       8
#     2   2   2   2   2   2   2   2
#     4  12  26  46  78 111 149 196 244 307 372 451
#     4  12  24  47  79 110 147 195 252 298 381 444
#     4  12  27  43  79 110 147 190 252 306 373 435
#     4  12  27  48  78 107 147 194 255 309 366 435
#     4  12  26  49  78 110 147 198 247 315 366 440
#     4  12  28  45  74 109 153 195 241 306 374 447
#     4  12  30  49  76 108 151 201 250 308 372 441
#     4  12  27  50  73 108 159 192 246 306 379 442
#
# _framework density 22.448903000000001
#
# number of rings (size 3 to 8) (size 9 to 14) (size 15 to 20)
#    0.000    0.000    5.000    4.125    5.250    1.500 
#    0.000    0.000    0.000    0.000    0.000    0.000 
#    0.000    0.000    0.000    0.000    0.000    0.000 
#
# Total GULP energy -89681.517682 kJ/mol
# GULP energy per Si atom -5605.094855 kJ/mol
# Density = 2.239781 g / cm^3
# Si number density = 22.448903 Si / 1000 Ang^3
#
#
#
# Elastic Constant Matrix: (Units=GPa)
#
#
# Indices 1 2 3 4 5 6 
#
# 1 87.3661 1.2941 49.0713 -3.3128 -6.3241 -10.7331
# 2 1.2941 99.4304 32.9110 10.7175 -0.8043 -1.5418
# 3 49.0713 32.9110 129.4859 7.8233 11.9990 -13.3088
# 4 -3.3128 10.7175 7.8233 36.3883 -7.6552 7.1681
# 5 -6.3241 -0.8043 11.9990 -7.6552 27.1210 5.9910
# 6 -10.7331 -1.5418 -13.3088 7.1681 5.9910 40.8965
#
#
#
# Elastic Compliance Matrix: (Units=1/GPa)
#
#
# Indices 1 2 3 4 5 6 
#
# 1 0.016645 0.001985 -0.007919 0.004519 0.008766 -0.000210
# 2 0.001985 0.011498 -0.003763 -0.001940 0.001969 -0.000218
# 3 -0.007919 -0.003763 0.013485 -0.005661 -0.010562 0.004708
# 4 0.004519 -0.001940 -0.005661 0.034680 0.015288 -0.009048
# 5 0.008766 0.001969 -0.010562 0.015288 0.050421 -0.011128
# 6 -0.000210 -0.000218 0.004708 -0.009048 -0.011128 0.029137
#
#
# Mechanical properties :
#
#
# Convention : Reuss Voigt Hill
#
# Bulk Modulus (GPa) = 44.97448 53.64838 49.31143
# Shear Modulus (GPa) = 27.37167 36.41488 31.89327
#
# Velocity S-wave (km/s) = 3.49562 4.03193 3.77331
# Velocity P-wave (km/s) = 6.03076 6.75464 6.40294
#
# Compressibility (1/GPa) = 0.02223483
#
# Stress axis : x y z
#
# Youngs Moduli (GPa) = 60.07866 86.96807 74.15608
#
# Poissons Ratio (x) = -0.17265 0.58727
# Poissons Ratio (y) = -0.11927 0.27902
# Poissons Ratio (z) = 0.47579 0.32723
#
# Static dielectric constant tensor:
#      x y z
#    x 1.791690 0.007390 0.015600 
#    y 0.007390 1.862130 0.011920 
#    z 0.015600 0.011920 1.819460 
# 
# From -- ./inp_files/187950.got.cif
#   From: 2010.05.17/outbox.cif.g08.bks.cpg/sg2_94_cif.got.tgz:187950.got - 2010.06.03 11:33:40.
