data_PCOD9070872
_publ_section_title
;
Structure prediction by ZEFSAII (Michael W. Deem and Ramdas Pophale) SiO2 
 PCOD9070872
Probable space group: P -1
;
_chemical_formula_sum "Si O2"
_cell_formula_units_Z 16
_cell_length_a 5.048884
_cell_length_b 19.857151
_cell_length_c 20.389759
_cell_angle_alpha 21.749286
_cell_angle_beta 110.627677
_cell_angle_gamma 102.750498
_cell_volume 674.646467
_symmetry_space_group_name_H-M "P -1"
_symmetry_group_IT_number 2
_symmetry_cell_setting 'triclinic'
loop_
_space_group_symop_operation_xyz
x,y,z
-x,-y,-z
loop_
_atom_site_type_symbol
_atom_site_label
_atom_site_fract_x
_atom_site_fract_y
_atom_site_fract_z
Si Si1 0.323445 0.383879 0.776927
Si Si2 0.108414 0.204806 0.664912
Si Si3 0.617861 0.686021 0.654402
Si Si4 0.126936 0.985975 0.597591
Si Si5 0.931061 0.052512 0.668225
Si Si6 0.697241 0.454978 0.994404
Si Si7 0.768202 0.016688 0.906483
Si Si8 0.977272 0.359947 0.893394
O O1 0.091980 0.574158 0.554034
O O2 0.228328 0.380249 0.848114
O O3 0.668821 0.376668 0.812218
O O4 0.281541 0.189294 0.921275
O O5 0.165588 0.112736 0.679439
O O6 0.440459 0.163972 0.758692
O O7 0.922413 0.087110 0.794191
O O8 0.547217 0.581879 0.805598
O O9 0.888998 0.530163 0.784310
O O10 0.363545 0.772632 0.501183
O O11 0.674716 0.875691 0.514180
O O12 0.965407 0.053903 0.591702
O O13 0.259745 0.762259 0.823034
O O14 0.000000 0.000000 0.500000
O O15 0.924885 0.845371 0.877170
O O16 0.500000 0.500000 0.000000
O O17 0.000000 0.500000 0.000000
O O18 0.000000 0.000000 0.000000
#
# Coordination Sequence:
#
# PCOD9070872 Si02
#       8
#     2   2   2   2   2   2   2   2
#     4  12  25  47  75 109 154 195 247 303 368 432
#     4  12  26  47  78 110 152 200 251 304 366 443
#     4  12  28  46  76 106 146 188 258 311 378 445
#     4  12  27  47  74 105 150 194 248 315 383 445
#     4  12  26  45  76 109 141 200 252 308 372 447
#     4  12  28  49  71 100 144 191 242 304 382 454
#     4  12  27  48  77 116 157 198 245 303 368 443
#     4  12  26  45  75 110 147 195 248 312 367 440
#
# _framework density 23.716124000000001
#
# number of rings (size 3 to 8) (size 9 to 14) (size 15 to 20)
#    0.000    0.000    6.250    2.625    5.250    2.000 
#    0.000    0.000    0.000    0.000    0.000    0.000 
#    0.000    0.000    0.000    0.000    0.000    0.000 
#
# Total GULP energy -89555.394175 kJ/mol
# GULP energy per Si atom -5597.212136 kJ/mol
# Density = 2.366215 g / cm^3
# Si number density = 23.716124 Si / 1000 Ang^3
#
#
#
# Elastic Constant Matrix: (Units=GPa)
#
#
# Indices 1 2 3 4 5 6 
#
# 1 77.9712 5.6951 29.4606 -0.7776 -5.0873 8.0649
# 2 5.6951 63.7788 32.2669 4.8486 -7.5533 13.5697
# 3 29.4606 32.2669 197.7397 -9.0367 -1.6978 14.0397
# 4 -0.7776 4.8486 -9.0367 30.8840 4.5991 0.9820
# 5 -5.0873 -7.5533 -1.6978 4.5991 29.8044 -0.0294
# 6 8.0649 13.5697 14.0397 0.9820 -0.0294 38.2238
#
#
#
# Elastic Compliance Matrix: (Units=1/GPa)
#
#
# Indices 1 2 3 4 5 6 
#
# 1 0.013949 0.000635 -0.002018 -0.000638 0.002523 -0.002409
# 2 0.000635 0.019377 -0.003006 -0.004547 0.005544 -0.005788
# 3 -0.002018 -0.003006 0.006002 0.002370 -0.001131 -0.000773
# 4 -0.000638 -0.004547 0.002370 0.034737 -0.006487 -0.000019
# 5 0.002523 0.005544 -0.001131 -0.006487 0.036322 -0.001890
# 6 -0.002409 -0.005788 -0.000773 -0.000019 -0.001890 0.029008
#
#
# Mechanical properties :
#
#
# Convention : Reuss Voigt Hill
#
# Bulk Modulus (GPa) = 32.73313 52.70390 42.71851
# Shear Modulus (GPa) = 31.57452 37.92026 34.74739
#
# Velocity S-wave (km/s) = 3.65273 4.00299 3.83186
# Velocity P-wave (km/s) = 5.62334 6.60578 6.13426
#
# Compressibility (1/GPa) = 0.03055009
#
# Stress axis : x y z
#
# Youngs Moduli (GPa) = 71.69032 51.60814 166.61505
#
# Poissons Ratio (x) = -0.03279 0.33629
# Poissons Ratio (y) = -0.04555 0.50081
# Poissons Ratio (z) = 0.14470 0.15512
#
# Static dielectric constant tensor:
#      x y z
#    x 1.847010 -0.026550 0.051940 
#    y -0.026550 1.890150 0.097500 
#    z 0.051940 0.097500 1.861700 
# 
# From -- ./inp_files/584287.got.cif
#   From: 2010.05.17/outbox.cif.g08.bks.cpg/sg2_293_cif.got.tgz:584287.got - 2010.06.03 11:33:40.
