data_PCOD9070315
_publ_section_title
;
Structure prediction by ZEFSAII (Michael W. Deem and Ramdas Pophale) SiO2 
 PCOD9070315
Probable space group: P -1
;
_chemical_formula_sum "Si O2"
_cell_formula_units_Z 14
_cell_length_a 9.256176
_cell_length_b 8.850722
_cell_length_c 17.087269
_cell_angle_alpha 69.299478
_cell_angle_beta 121.294928
_cell_angle_gamma 148.370770
_cell_volume 614.862236
_symmetry_space_group_name_H-M "P -1"
_symmetry_group_IT_number 2
_symmetry_cell_setting 'triclinic'
loop_
_space_group_symop_operation_xyz
x,y,z
-x,-y,-z
loop_
_atom_site_type_symbol
_atom_site_label
_atom_site_fract_x
_atom_site_fract_y
_atom_site_fract_z
Si Si1 0.760126 0.166124 0.483307
Si Si2 0.337343 0.493634 0.294401
Si Si3 0.641510 0.362461 0.170523
Si Si4 0.687712 0.172434 0.727122
Si Si5 0.482289 0.173814 0.987766
Si Si6 0.222231 0.321451 0.122294
Si Si7 0.971026 0.980317 0.588701
O O1 0.900975 0.110022 0.559895
O O2 0.000000 0.500000 0.500000
O O3 0.500000 0.000000 0.500000
O O4 0.584449 0.016234 0.378218
O O5 0.211816 0.572225 0.259434
O O6 0.212532 0.308468 0.216045
O O7 0.698766 0.803278 0.325154
O O8 0.272540 0.332216 0.381880
O O9 0.428977 0.342833 0.140975
O O10 0.994520 0.652238 0.247613
O O11 0.465516 0.065299 0.208492
O O12 0.667046 0.365152 0.083604
O O13 0.617882 0.387211 0.916114
O O14 0.135130 0.953370 0.950985
O O15 0.500000 0.000000 0.000000
O O16 0.000000 0.000000 0.500000
#
# Coordination Sequence:
#
# PCOD9070315 Si02
#       7
#     2   2   2   2   2   2   2
#     4  12  28  45  70 101 142 183 237 290 356 411
#     4  12  26  45  72 101 141 181 241 285 351 411
#     4  12  26  44  73 104 144 184 231 288 352 413
#     4  12  26  46  69 103 141 186 235 288 349 419
#     4  12  24  47  74 103 142 184 231 281 351 419
#     4  12  26  45  71 106 141 181 232 289 346 417
#     4  12  26  47  71 100 137 188 234 294 345 413
#
# _framework density 22.769328000000002
#
# number of rings (size 3 to 8) (size 9 to 14) (size 15 to 20)
#    0.000    0.000    1.429    8.571    8.000    0.000 
#    0.000    0.000    0.000    0.000    0.000    0.000 
#    0.000    0.000    0.000    0.000    0.000    0.000 
#
# Total GULP energy -78379.075872 kJ/mol
# GULP energy per Si atom -5598.505419 kJ/mol
# Density = 2.271750 g / cm^3
# Si number density = 22.769328 Si / 1000 Ang^3
#
#
#
# Elastic Constant Matrix: (Units=GPa)
#
#
# Indices 1 2 3 4 5 6 
#
# 1 104.3098 19.0859 27.5943 -7.2635 10.7991 -2.4485
# 2 19.0859 116.3469 5.9360 -13.1354 9.9138 12.2190
# 3 27.5943 5.9360 73.7541 -1.9443 -1.9271 -3.1714
# 4 -7.2635 -13.1354 -1.9443 51.4846 9.2093 7.5796
# 5 10.7991 9.9138 -1.9271 9.2093 41.9361 5.4763
# 6 -2.4485 12.2190 -3.1714 7.5796 5.4763 35.2695
#
#
#
# Elastic Compliance Matrix: (Units=1/GPa)
#
#
# Indices 1 2 3 4 5 6 
#
# 1 0.011401 -0.001312 -0.004160 0.001551 -0.003295 0.001050
# 2 -0.001312 0.009797 -0.000436 0.003265 -0.002208 -0.003883
# 3 -0.004160 -0.000436 0.015229 -0.000615 0.001869 0.001074
# 4 0.001551 0.003265 -0.000615 0.022156 -0.005412 -0.005000
# 5 -0.003295 -0.002208 0.001869 -0.005412 0.026790 -0.002292
# 6 0.001050 -0.003883 0.001074 -0.005000 -0.002292 0.031298
#
#
# Mechanical properties :
#
#
# Convention : Reuss Voigt Hill
#
# Bulk Modulus (GPa) = 40.63390 44.40482 42.51936
# Shear Modulus (GPa) = 36.57859 41.85768 39.21814
#
# Velocity S-wave (km/s) = 4.01245 4.29223 4.15470
# Velocity P-wave (km/s) = 6.27303 6.64144 6.45986
#
# Compressibility (1/GPa) = 0.02460999
#
# Stress axis : x y z
#
# Youngs Moduli (GPa) = 87.70962 102.07141 65.66463
#
# Poissons Ratio (x) = 0.13397 0.27317
# Poissons Ratio (y) = 0.11512 0.02863
# Poissons Ratio (z) = 0.36488 0.04451
#
# Static dielectric constant tensor:
#      x y z
#    x 1.792600 -0.025260 -0.101120 
#    y -0.025260 1.794450 0.060230 
#    z -0.101120 0.060230 1.993120 
# 
# From -- ./inp_files/217231.got.cif
#   From: 2010.05.17/outbox.cif.g08.bks.cpg/sg2_109_cif.got.tgz:217231.got - 2010.06.03 11:33:40.
