data_PCOD9070006
_publ_section_title
;
Structure prediction by ZEFSAII (Michael W. Deem and Ramdas Pophale) SiO2 
 PCOD9070006
Probable space group: P -1
;
_chemical_formula_sum "Si O2"
_cell_formula_units_Z 12
_cell_length_a 12.832477
_cell_length_b 18.696692
_cell_length_c 4.706816
_cell_angle_alpha 117.116858
_cell_angle_beta 71.616960
_cell_angle_gamma 151.742657
_cell_volume 465.826848
_symmetry_space_group_name_H-M "P -1"
_symmetry_group_IT_number 2
_symmetry_cell_setting 'triclinic'
loop_
_space_group_symop_operation_xyz
x,y,z
-x,-y,-z
loop_
_atom_site_type_symbol
_atom_site_label
_atom_site_fract_x
_atom_site_fract_y
_atom_site_fract_z
Si Si1 0.755335 0.374617 0.069066
Si Si2 0.593759 0.511291 0.271445
Si Si3 0.399345 0.014365 0.755661
Si Si4 0.913338 0.157555 0.802644
Si Si5 0.433485 0.657191 0.366533
Si Si6 0.903275 0.989385 0.810111
O O1 0.604745 0.204247 0.006773
O O2 0.639859 0.330183 0.798030
O O3 0.764119 0.455326 0.431633
O O4 0.000000 0.500000 0.000000
O O5 0.463887 0.515900 0.387653
O O6 0.850207 0.670740 0.240454
O O7 0.491898 0.371805 0.942139
O O8 0.500000 0.000000 0.500000
O O9 0.249190 0.962339 0.544074
O O10 0.240055 0.889021 0.932547
O O11 0.971605 0.122408 0.905506
O O12 0.638336 0.814671 0.675340
O O13 0.000000 0.000000 0.500000
O O14 0.000000 0.000000 0.000000
#
# Coordination Sequence:
#
# PCOD9070006 Si02
#       6
#     2   2   2   2   2   2
#     4  12  26  47  76 111 148 196 252 314 387 455
#     4  12  28  50  73 108 153 204 252 302 381 452
#     4  12  26  47  76 111 148 196 252 314 387 455
#     4  12  26  48  74 109 153 191 255 315 372 456
#     4  12  26  48  74 109 153 191 255 315 372 456
#     4  12  24  44  73 108 145 196 250 312 377 444
#
# _framework density 25.760643000000002
#
# number of rings (size 3 to 8) (size 9 to 14) (size 15 to 20)
#    0.000    0.000    3.333    6.000    4.667    2.667 
#    0.000    0.000    0.000    0.000    0.000    0.000 
#    0.000    0.000    0.000    0.000    0.000    0.000 
#
# Total GULP energy -66854.683181 kJ/mol
# GULP energy per Si atom -5571.223598 kJ/mol
# Density = 2.570201 g / cm^3
# Si number density = 25.760643 Si / 1000 Ang^3
#
#
#
# Elastic Constant Matrix: (Units=GPa)
#
#
# Indices 1 2 3 4 5 6 
#
# 1 87.3867 31.6456 35.9009 -14.1497 0.8951 13.1213
# 2 31.6456 135.5841 55.9579 -21.6812 -4.7596 39.5725
# 3 35.9009 55.9579 116.5028 -28.7513 -14.0127 15.3166
# 4 -14.1497 -21.6812 -28.7513 51.8128 9.8558 -5.2573
# 5 0.8951 -4.7596 -14.0127 9.8558 63.6645 -28.7590
# 6 13.1213 39.5725 15.3166 -5.2573 -28.7590 44.6607
#
#
#
# Elastic Compliance Matrix: (Units=1/GPa)
#
#
# Indices 1 2 3 4 5 6 
#
# 1 0.014028 -0.000294 -0.003504 0.001938 -0.003369 -0.004601
# 2 -0.000294 0.014036 -0.004814 0.002977 -0.007251 -0.015018
# 3 -0.003504 -0.004814 0.012882 0.003867 0.003565 0.003628
# 4 0.001938 0.002977 0.003867 0.023643 -0.004801 -0.004842
# 5 -0.003369 -0.007251 0.003565 -0.004801 0.027192 0.023137
# 6 -0.004601 -0.015018 0.003628 -0.004842 0.023137 0.050135
#
#
# Mechanical properties :
#
#
# Convention : Reuss Voigt Hill
#
# Bulk Modulus (GPa) = 42.15451 65.16474 53.65962
# Shear Modulus (GPa) = 29.93182 46.42555 38.17868
#
# Velocity S-wave (km/s) = 3.41239 4.24983 3.85392
# Velocity P-wave (km/s) = 5.65025 7.03083 6.37800
#
# Compressibility (1/GPa) = 0.02372226
#
# Stress axis : x y z
#
# Youngs Moduli (GPa) = 71.28431 71.24668 77.63042
#
# Poissons Ratio (x) = 0.02093 0.27201
# Poissons Ratio (y) = 0.02094 0.37372
# Poissons Ratio (z) = 0.24978 0.34298
#
# Static dielectric constant tensor:
#      x y z
#    x 2.053320 0.037480 -0.009290 
#    y 0.037480 2.154860 0.061640 
#    z -0.009290 0.061640 2.026560 
# 
# From -- ./inp_files/80024.got.cif
#   From: 2010.05.17/outbox.cif.g08.bks.cpg/sg2_41_cif.got.tgz:80024.got - 2010.06.03 11:33:40.
