data_PCOD9070691
_publ_section_title
;
Structure prediction by ZEFSAII (Michael W. Deem and Ramdas Pophale) SiO2 
 PCOD9070691
Probable space group: P -1
;
_chemical_formula_sum "Si O2"
_cell_formula_units_Z 12
_cell_length_a 9.859017
_cell_length_b 9.669146
_cell_length_c 14.044932
_cell_angle_alpha 56.154060
_cell_angle_beta 112.314829
_cell_angle_gamma 151.391273
_cell_volume 511.957155
_symmetry_space_group_name_H-M "P -1"
_symmetry_group_IT_number 2
_symmetry_cell_setting 'triclinic'
loop_
_space_group_symop_operation_xyz
x,y,z
-x,-y,-z
loop_
_atom_site_type_symbol
_atom_site_label
_atom_site_fract_x
_atom_site_fract_y
_atom_site_fract_z
Si Si1 0.181177 0.738620 0.046137
Si Si2 0.245148 0.587739 0.306287
Si Si3 0.686441 0.136147 0.589916
Si Si4 0.213144 0.159820 0.910329
Si Si5 0.167760 0.100249 0.252263
Si Si6 0.242208 0.126916 0.617900
O O1 0.141747 0.609606 0.186658
O O2 0.000000 0.500000 0.000000
O O3 0.500000 0.000000 0.000000
O O4 0.151563 0.905457 0.979946
O O5 0.342949 0.789393 0.348086
O O6 0.548472 0.782995 0.293387
O O7 0.960150 0.181615 0.391271
O O8 0.000000 0.500000 0.500000
O O9 0.500000 0.000000 0.500000
O O10 0.698896 0.951146 0.679894
O O11 0.565253 0.530487 0.863988
O O12 0.099826 0.160213 0.793056
O O13 0.000000 0.000000 0.000000
O O14 0.010055 0.024658 0.331662
O O15 0.500000 0.500000 0.500000
#
# Coordination Sequence:
#
# PCOD9070691 Si02
#       6
#     2   2   2   2   2   2
#     4  12  25  45  72 106 144 186 239 300 363 433
#     4  12  26  46  73 107 146 194 244 300 364 434
#     4  12  27  48  72 105 146 193 244 300 362 434
#     4  12  26  46  72 104 141 189 238 294 361 430
#     4  12  26  48  72 104 145 187 239 299 358 430
#     4  12  26  47  75 108 146 193 244 301 365 435
#
# _framework density 23.439461999999999
#
# number of rings (size 3 to 8) (size 9 to 14) (size 15 to 20)
#    0.000    0.000    0.000   11.000    0.000    5.333 
#    0.000    1.667    0.000    0.000    0.000    0.000 
#    0.000    0.000    0.000    0.000    0.000    0.000 
#
# Total GULP energy -67056.837122 kJ/mol
# GULP energy per Si atom -5588.069760 kJ/mol
# Density = 2.338611 g / cm^3
# Si number density = 23.439462 Si / 1000 Ang^3
#
#
#
# Elastic Constant Matrix: (Units=GPa)
#
#
# Indices 1 2 3 4 5 6 
#
# 1 168.8350 69.5598 52.5512 -9.7393 -3.0317 -18.7131
# 2 69.5598 192.5416 45.4671 4.8931 3.6422 5.3143
# 3 52.5512 45.4671 102.3314 2.7230 1.4125 -16.2472
# 4 -9.7393 4.8931 2.7230 54.4719 7.6445 0.0439
# 5 -3.0317 3.6422 1.4125 7.6445 46.1692 -1.3037
# 6 -18.7131 5.3143 -16.2472 0.0439 -1.3037 39.6398
#
#
#
# Elastic Compliance Matrix: (Units=1/GPa)
#
#
# Indices 1 2 3 4 5 6 
#
# 1 0.008243 -0.002487 -0.002684 0.001742 0.000620 0.003143
# 2 -0.002487 0.006714 -0.002147 -0.000858 -0.000569 -0.002972
# 3 -0.002684 -0.002147 0.012808 -0.000913 -0.000127 0.004267
# 4 0.001742 -0.000858 -0.000913 0.019207 -0.002958 0.000445
# 5 0.000620 -0.000569 -0.000127 -0.002958 0.022268 0.001053
# 6 0.003143 -0.002972 0.004267 0.000445 0.001053 0.028892
#
#
# Mechanical properties :
#
#
# Convention : Reuss Voigt Hill
#
# Bulk Modulus (GPa) = 76.16806 88.76268 82.46537
# Shear Modulus (GPa) = 42.68229 47.79817 45.24023
#
# Velocity S-wave (km/s) = 4.27190 4.52067 4.39804
# Velocity P-wave (km/s) = 7.54310 8.07463 7.81339
#
# Compressibility (1/GPa) = 0.01312886
#
# Stress axis : x y z
#
# Youngs Moduli (GPa) = 121.31623 148.94875 78.07609
#
# Poissons Ratio (x) = 0.37042 0.20956
# Poissons Ratio (y) = 0.30170 0.16763
# Poissons Ratio (z) = 0.32561 0.31980
#
# Static dielectric constant tensor:
#      x y z
#    x 2.481020 -0.150410 0.338210 
#    y -0.150410 1.838630 -0.082310 
#    z 0.338210 -0.082310 2.122460 
# 
# From -- ./inp_files/494515.got.cif
#   From: 2010.05.17/outbox.cif.g08.bks.cpg/sg2_248_cif.got.tgz:494515.got - 2010.06.03 11:33:40.
