data_PCOD9070666
_publ_section_title
;
Structure prediction by ZEFSAII (Michael W. Deem and Ramdas Pophale) SiO2 
 PCOD9070666
Probable space group: P -1
;
_chemical_formula_sum "Si O2"
_cell_formula_units_Z 14
_cell_length_a 10.105195
_cell_length_b 8.412935
_cell_length_c 21.012091
_cell_angle_alpha 43.940137
_cell_angle_beta 33.719627
_cell_angle_gamma 30.528710
_cell_volume 503.684215
_symmetry_space_group_name_H-M "P -1"
_symmetry_group_IT_number 2
_symmetry_cell_setting 'triclinic'
loop_
_space_group_symop_operation_xyz
x,y,z
-x,-y,-z
loop_
_atom_site_type_symbol
_atom_site_label
_atom_site_fract_x
_atom_site_fract_y
_atom_site_fract_z
Si Si1 0.734379 0.208932 0.352386
Si Si2 0.334827 0.136429 0.303843
Si Si3 0.769672 0.354027 0.880323
Si Si4 0.109993 0.670455 0.931454
Si Si5 0.000000 0.000000 0.500000
Si Si6 0.500000 0.500000 0.500000
Si Si7 0.701705 0.505669 0.673758
Si Si8 0.139772 0.355776 0.835740
O O1 0.661509 0.266415 0.439586
O O2 0.413405 0.408206 0.378954
O O3 0.908299 0.341093 0.229075
O O4 0.955603 0.845118 0.355596
O O5 0.332741 0.402292 0.201808
O O6 0.326867 0.234067 0.354419
O O7 0.933944 0.295162 0.412218
O O8 0.475800 0.944399 0.231148
O O9 0.078615 0.269949 0.816798
O O10 0.500000 0.500000 0.000000
O O11 0.878799 0.036766 0.903169
O O12 0.440433 0.509127 0.810274
O O13 0.000000 0.500000 0.000000
O O14 0.068855 0.652358 0.028473
O O15 0.377546 0.814698 0.408614
#
# Coordination Sequence:
#
# PCOD9070666 Si02
#       8
#     2   2   2   2   1   1   2   2
#     4  12  28  50  82 113 161 210 270 331 415 477
#     4  12  27  51  79 112 167 209 284 334 408 484
#     4  12  25  44  76 117 159 221 274 331 401 493
#     4  12  25  45  73 121 168 216 264 325 411 489
#     4  12  28  50  88 118 142 224 272 348 394 482
#     4  12  26  52  84 112 150 204 280 328 402 486
#     4  12  28  50  75 122 166 209 260 346 405 485
#     4  12  25  45  77 111 163 219 269 326 394 504
#
# _framework density 27.795195
#
# number of rings (size 3 to 8) (size 9 to 14) (size 15 to 20)
#    0.000    0.000    5.714    3.857    4.000    0.571 
#    0.000    4.286    0.000    0.000    0.000    0.000 
#    0.000    0.000    0.000    0.000    0.000    0.000 
#
# Total GULP energy -77992.313686 kJ/mol
# GULP energy per Si atom -5570.879549 kJ/mol
# Density = 2.773193 g / cm^3
# Si number density = 27.795195 Si / 1000 Ang^3
#
#
#
# Elastic Constant Matrix: (Units=GPa)
#
#
# Indices 1 2 3 4 5 6 
#
# 1 103.5192 6.3861 -2.3843 -18.0937 12.1099 16.9727
# 2 6.3861 128.7473 -9.0393 -21.2285 -7.0909 7.1830
# 3 -2.3843 -9.0393 154.7415 -17.5682 12.7676 11.5449
# 4 -18.0937 -21.2285 -17.5682 56.4909 4.1589 2.6303
# 5 12.1099 -7.0909 12.7676 4.1589 45.7258 -11.2001
# 6 16.9727 7.1830 11.5449 2.6303 -11.2001 53.4709
#
#
#
# Elastic Compliance Matrix: (Units=1/GPa)
#
#
# Indices 1 2 3 4 5 6 
#
# 1 0.012166 0.000393 0.001683 0.005238 -0.005501 -0.005688
# 2 0.000393 0.008535 0.001033 0.003716 0.000192 -0.001637
# 3 0.001683 0.001033 0.007492 0.003664 -0.003495 -0.003203
# 4 0.005238 0.003716 0.003664 0.022533 -0.005142 -0.005138
# 5 -0.005501 0.000192 -0.003495 -0.005142 0.026845 0.008351
# 6 -0.005688 -0.001637 -0.003203 -0.005138 0.008351 0.023421
#
#
# Mechanical properties :
#
#
# Convention : Reuss Voigt Hill
#
# Bulk Modulus (GPa) = 29.06111 41.88145 35.47128
# Shear Modulus (GPa) = 47.06132 57.27389 52.16761
#
# Velocity S-wave (km/s) = 4.11925 4.54427 4.33697
# Velocity P-wave (km/s) = 5.75347 6.52951 6.15373
#
# Compressibility (1/GPa) = 0.03441024
#
# Stress axis : x y z
#
# Youngs Moduli (GPa) = 82.19589 117.16672 133.47648
#
# Poissons Ratio (x) = -0.04601 -0.22467
# Poissons Ratio (y) = -0.03228 -0.13785
# Poissons Ratio (z) = -0.13835 -0.12101
#
# Static dielectric constant tensor:
#      x y z
#    x 14.658040 -0.779210 0.474400 
#    y -0.779210 2.594050 0.346380 
#    z 0.474400 0.346380 2.510460 
# 
# From -- ./inp_files/131780.got.cif
#   From: 2010.05.17/outbox.cif.g08.bks.cpg/sg2_66_cif.got.tgz:131780.got - 2010.06.03 11:33:40.
