data_PCOD9070784
_publ_section_title
;
Structure prediction by ZEFSAII (Michael W. Deem and Ramdas Pophale) SiO2 
 PCOD9070784
Probable space group: P -1
;
_chemical_formula_sum "Si O2"
_cell_formula_units_Z 14
_cell_length_a 8.185150
_cell_length_b 8.775801
_cell_length_c 12.129441
_cell_angle_alpha 61.517005
_cell_angle_beta 75.103243
_cell_angle_gamma 112.118838
_cell_volume 598.825260
_symmetry_space_group_name_H-M "P -1"
_symmetry_group_IT_number 2
_symmetry_cell_setting 'triclinic'
loop_
_space_group_symop_operation_xyz
x,y,z
-x,-y,-z
loop_
_atom_site_type_symbol
_atom_site_label
_atom_site_fract_x
_atom_site_fract_y
_atom_site_fract_z
Si Si1 0.004895 0.218228 0.222852
Si Si2 0.740676 0.319786 0.925144
Si Si3 0.032045 0.623683 0.338961
Si Si4 0.601305 0.513878 0.361779
Si Si5 0.184614 0.020079 0.893199
Si Si6 0.642760 0.937135 0.548058
Si Si7 0.315587 0.106270 0.193890
O O1 0.082226 0.462389 0.117164
O O2 0.213580 0.230408 0.188192
O O3 0.880707 0.074537 0.187096
O O4 0.867923 0.101008 0.396258
O O5 0.807869 0.382487 0.765293
O O6 0.753298 0.122423 0.013258
O O7 0.513251 0.236167 0.034940
O O8 0.000000 0.500000 0.500000
O O9 0.815891 0.536845 0.342679
O O10 0.138236 0.872221 0.259091
O O11 0.500000 0.500000 0.500000
O O12 0.449926 0.302123 0.391140
O O13 0.646920 0.726366 0.226383
O O14 0.000000 0.000000 0.000000
O O15 0.629026 0.938770 0.681036
O O16 0.500000 0.000000 0.500000
#
# Coordination Sequence:
#
# PCOD9070784 Si02
#       7
#     2   2   2   2   2   2   2
#     4  12  25  49  70 109 150 189 243 302 361 429
#     4  12  27  46  73 110 145 192 241 301 367 432
#     4  12  26  49  73 105 148 190 241 301 362 434
#     4  12  25  48  73 108 142 192 243 294 360 434
#     4  12  25  46  75 104 151 189 242 300 364 428
#     4  12  26  46  77 108 145 194 247 293 361 434
#     4  12  26  48  72 108 147 191 242 302 362 428
#
# _framework density 23.379106
#
# number of rings (size 3 to 8) (size 9 to 14) (size 15 to 20)
#    0.000    0.000    4.286    5.143    4.000    1.143 
#    2.571    0.000    0.000    0.000    0.000    0.000 
#    0.000    0.000    0.000    0.000    0.000    0.000 
#
# Total GULP energy -78464.806822 kJ/mol
# GULP energy per Si atom -5604.629059 kJ/mol
# Density = 2.332589 g / cm^3
# Si number density = 23.379106 Si / 1000 Ang^3
#
#
#
# Elastic Constant Matrix: (Units=GPa)
#
#
# Indices 1 2 3 4 5 6 
#
# 1 87.3418 9.1915 51.6550 5.1039 -12.2909 -17.4628
# 2 9.1915 75.1930 40.2967 -30.0419 -1.4595 -19.5455
# 3 51.6550 40.2967 171.7976 -1.8342 -22.3656 -16.3562
# 4 5.1039 -30.0419 -1.8342 61.6105 -3.4269 0.0523
# 5 -12.2909 -1.4595 -22.3656 -3.4269 43.2579 8.2341
# 6 -17.4628 -19.5455 -16.3562 0.0523 8.2341 31.2461
#
#
#
# Elastic Compliance Matrix: (Units=1/GPa)
#
#
# Indices 1 2 3 4 5 6 
#
# 1 0.015427 0.002365 -0.004375 -0.000221 0.000734 0.007618
# 2 0.002365 0.023938 -0.005242 0.011137 -0.003079 0.014344
# 3 -0.004375 -0.005242 0.008574 -0.001755 0.003273 -0.002096
# 4 -0.000221 0.011137 -0.001755 0.021622 -0.000002 0.005889
# 5 0.000734 -0.003079 0.003273 -0.000002 0.026190 -0.006704
# 6 0.007618 0.014344 -0.002096 0.005889 -0.006704 0.045894
#
#
# Mechanical properties :
#
#
# Convention : Reuss Voigt Hill
#
# Bulk Modulus (GPa) = 29.90916 59.62428 44.76672
# Shear Modulus (GPa) = 29.88757 42.76885 36.32821
#
# Velocity S-wave (km/s) = 3.57933 4.28174 3.94620
# Velocity P-wave (km/s) = 5.46837 7.07128 6.32084
#
# Compressibility (1/GPa) = 0.03343458
#
# Stress axis : x y z
#
# Youngs Moduli (GPa) = 64.82147 41.77505 116.63709
#
# Poissons Ratio (x) = -0.09880 0.51026
# Poissons Ratio (y) = -0.15331 0.61143
# Poissons Ratio (z) = 0.28358 0.21899
#
# Static dielectric constant tensor:
#      x y z
#    x 1.877240 0.013780 0.071030 
#    y 0.013780 1.866890 0.051630 
#    z 0.071030 0.051630 1.742260 
# 
# From -- ./inp_files/158588.got.cif
#   From: 2010.05.17/outbox.cif.g08.bks.cpg/sg2_80_cif.got.tgz:158588.got - 2010.06.03 11:33:40.
