data_PCOD9070845
_publ_section_title
;
Structure prediction by ZEFSAII (Michael W. Deem and Ramdas Pophale) SiO2 
 PCOD9070845
Probable space group: P -1
;
_chemical_formula_sum "Si O2"
_cell_formula_units_Z 16
_cell_length_a 14.770019
_cell_length_b 9.378863
_cell_length_c 8.940188
_cell_angle_alpha 68.459016
_cell_angle_beta 82.351774
_cell_angle_gamma 41.573544
_cell_volume 744.027664
_symmetry_space_group_name_H-M "P -1"
_symmetry_group_IT_number 2
_symmetry_cell_setting 'triclinic'
loop_
_space_group_symop_operation_xyz
x,y,z
-x,-y,-z
loop_
_atom_site_type_symbol
_atom_site_label
_atom_site_fract_x
_atom_site_fract_y
_atom_site_fract_z
Si Si1 0.690038 0.882926 0.611318
Si Si2 0.372626 0.570220 0.921629
Si Si3 0.051489 0.068736 0.858138
Si Si4 0.640473 0.299150 0.457824
Si Si5 0.127405 0.786898 0.451344
Si Si6 0.984329 0.488189 0.833320
Si Si7 0.221847 0.341228 0.645295
Si Si8 0.488831 0.089533 0.132082
O O1 0.748923 0.727038 0.509377
O O2 0.573270 0.939420 0.710157
O O3 0.822682 0.724886 0.749381
O O4 0.651113 0.105746 0.492487
O O5 0.375046 0.588361 0.735828
O O6 0.217962 0.831467 0.892776
O O7 0.500000 0.500000 0.000000
O O8 0.397512 0.360630 0.039796
O O9 0.021686 0.267528 0.866093
O O10 0.954017 0.172213 0.692632
O O11 0.000000 0.000000 0.000000
O O12 0.500000 0.500000 0.500000
O O13 0.766995 0.203449 0.569600
O O14 0.217854 0.529280 0.592885
O O15 0.000000 0.000000 0.500000
O O16 0.078966 0.466293 0.705827
O O17 0.000000 0.500000 0.000000
O O18 0.349170 0.090916 0.792526
O O19 0.500000 0.000000 0.000000
#
# Coordination Sequence:
#
# PCOD9070845 Si02
#       8
#     2   2   2   2   2   2   2   2
#     4  12  25  47  73 105 143 191 246 300 361 434
#     4  12  27  48  72 106 151 193 241 302 367 439
#     4  12  28  47  73 109 149 192 242 299 372 437
#     4  12  27  46  75 107 144 192 248 301 368 434
#     4  12  26  47  76 107 148 190 242 307 365 436
#     4  12  27  46  73 107 146 189 241 302 368 437
#     4  12  26  47  74 104 143 190 245 300 364 435
#     4  12  26  47  72 106 148 193 242 297 367 439
#
# _framework density 21.504576
#
# number of rings (size 3 to 8) (size 9 to 14) (size 15 to 20)
#    0.000    0.000    2.500    7.500    5.250    0.000 
#    0.000    0.000    0.000    0.000    0.000    0.000 
#    0.000    0.000    0.000    0.000    0.000    0.000 
#
# Total GULP energy -89442.473534 kJ/mol
# GULP energy per Si atom -5590.154596 kJ/mol
# Density = 2.145563 g / cm^3
# Si number density = 21.504576 Si / 1000 Ang^3
#
#
#
# Elastic Constant Matrix: (Units=GPa)
#
#
# Indices 1 2 3 4 5 6 
#
# 1 98.4653 32.3057 21.6277 12.6948 -2.2135 0.1178
# 2 32.3057 95.9328 26.1175 7.1843 -2.2818 2.6102
# 3 21.6277 26.1175 73.2094 5.6172 14.1055 20.9216
# 4 12.6948 7.1843 5.6172 48.0315 3.3976 1.3817
# 5 -2.2135 -2.2818 14.1055 3.3976 47.9830 -9.1828
# 6 0.1178 2.6102 20.9216 1.3817 -9.1828 51.7112
#
#
#
# Elastic Compliance Matrix: (Units=1/GPa)
#
#
# Indices 1 2 3 4 5 6 
#
# 1 0.012240 -0.003057 -0.003217 -0.002589 0.001899 0.001834
# 2 -0.003057 0.012725 -0.004430 -0.000772 0.002118 0.001554
# 3 -0.003217 -0.004430 0.020492 -0.000030 -0.008202 -0.009516
# 4 -0.002589 -0.000772 -0.000030 0.021778 -0.001853 -0.000854
# 5 0.001899 0.002118 -0.008202 -0.001853 0.025046 0.007704
# 6 0.001834 0.001554 -0.009516 -0.000854 0.007704 0.024496
#
#
# Mechanical properties :
#
#
# Convention : Reuss Voigt Hill
#
# Bulk Modulus (GPa) = 41.57953 47.52325 44.55139
# Shear Modulus (GPa) = 34.19961 42.04891 38.12426
#
# Velocity S-wave (km/s) = 3.99223 4.42673 4.21508
# Velocity P-wave (km/s) = 6.37399 6.94802 6.66719
#
# Compressibility (1/GPa) = 0.02405030
#
# Stress axis : x y z
#
# Youngs Moduli (GPa) = 81.70196 78.58414 48.79975
#
# Poissons Ratio (x) = 0.24022 0.15698
# Poissons Ratio (y) = 0.24975 0.21616
# Poissons Ratio (z) = 0.26282 0.34809
#
# Static dielectric constant tensor:
#      x y z
#    x -318.330820 -32.229050 -50.493380 
#    y -32.229050 -1.590700 -5.058720 
#    z -50.493380 -5.058720 -6.148540 
# 
# From -- ./inp_files/189165.got.cif
#   From: 2010.05.17/outbox.cif.g08.bks.cpg/sg2_95_cif.got.tgz:189165.got - 2010.06.03 11:33:40.
