data_PCOD9070508
_publ_section_title
;
Structure prediction by ZEFSAII (Michael W. Deem and Ramdas Pophale) SiO2 
 PCOD9070508
Probable space group: P -1
;
_chemical_formula_sum "Si O2"
_cell_formula_units_Z 16
_cell_length_a 9.311867
_cell_length_b 19.608154
_cell_length_c 10.711386
_cell_angle_alpha 138.441088
_cell_angle_beta 104.666191
_cell_angle_gamma 43.754384
_cell_volume 699.548965
_symmetry_space_group_name_H-M "P -1"
_symmetry_group_IT_number 2
_symmetry_cell_setting 'triclinic'
loop_
_space_group_symop_operation_xyz
x,y,z
-x,-y,-z
loop_
_atom_site_type_symbol
_atom_site_label
_atom_site_fract_x
_atom_site_fract_y
_atom_site_fract_z
Si Si1 0.214980 0.617981 0.133390
Si Si2 0.935324 0.613798 0.444693
Si Si3 0.655689 0.504193 0.481929
Si Si4 0.224451 0.914138 0.025212
Si Si5 0.751935 0.593940 0.002578
Si Si6 0.465440 0.998220 0.138829
Si Si7 0.851039 0.024520 0.614675
Si Si8 0.059461 0.612974 0.836949
O O1 0.248424 0.527074 0.135539
O O2 0.500000 0.500000 0.000000
O O3 0.119318 0.599366 0.974982
O O4 0.001091 0.830183 0.390694
O O5 0.862102 0.549294 0.405632
O O6 0.061838 0.630012 0.578216
O O7 0.170680 0.439195 0.168583
O O8 0.692715 0.808459 0.586952
O O9 0.500000 0.500000 0.500000
O O10 0.730793 0.440143 0.268094
O O11 0.477587 0.704867 0.747053
O O12 0.294623 0.994210 0.128303
O O13 0.153927 0.933007 0.182553
O O14 0.000000 0.000000 0.000000
O O15 0.460561 0.804216 0.254941
O O16 0.000000 0.500000 0.000000
O O17 0.756846 0.815020 0.012345
O O18 0.500000 0.000000 0.000000
O O19 0.000000 0.000000 0.500000
#
# Coordination Sequence:
#
# PCOD9070508 Si02
#       8
#     2   2   2   2   2   2   2   2
#     4  12  29  48  75 110 152 197 256 311 380 457
#     4  12  24  49  75 105 153 187 250 312 378 449
#     4  12  26  44  74 106 150 194 244 310 376 439
#     4  12  28  49  76 116 154 195 258 314 379 457
#     4  12  26  49  76 110 146 200 252 314 385 449
#     4  12  25  47  77 112 149 197 246 312 383 457
#     4  12  28  51  80 111 157 203 258 321 382 464
#     4  12  27  48  75 111 149 197 252 309 376 462
#
# _framework density 22.871880000000001
#
# number of rings (size 3 to 8) (size 9 to 14) (size 15 to 20)
#    0.000    0.000    6.250    2.625    7.000    0.500 
#    0.000    0.000    0.000    0.000    0.000    0.000 
#    0.000    0.000    0.000    0.000    0.000    0.000 
#
# Total GULP energy -89421.688739 kJ/mol
# GULP energy per Si atom -5588.855546 kJ/mol
# Density = 2.281982 g / cm^3
# Si number density = 22.871880 Si / 1000 Ang^3
#
#
#
# Elastic Constant Matrix: (Units=GPa)
#
#
# Indices 1 2 3 4 5 6 
#
# 1 113.8853 32.4800 35.6639 21.1706 -19.2725 6.2652
# 2 32.4800 108.3608 30.2376 12.0021 -11.4584 -12.9757
# 3 35.6639 30.2376 127.0260 36.3963 -10.6504 -3.2806
# 4 21.1706 12.0021 36.3963 52.7231 16.4933 -3.2514
# 5 -19.2725 -11.4584 -10.6504 16.4933 40.4581 -0.2370
# 6 6.2652 -12.9757 -3.2806 -3.2514 -0.2370 35.8115
#
#
#
# Elastic Compliance Matrix: (Units=1/GPa)
#
#
# Indices 1 2 3 4 5 6 
#
# 1 0.012412 -0.002462 -0.000363 -0.006871 0.007899 -0.003668
# 2 -0.002462 0.011197 -0.001419 -0.000954 0.002039 0.004285
# 3 -0.000363 -0.001419 0.011564 -0.009513 0.006347 -0.000213
# 4 -0.006871 -0.000954 -0.009513 0.035054 -0.020320 0.003033
# 5 0.007899 0.002039 0.006347 -0.020320 0.039002 -0.001649
# 6 -0.003668 0.004285 -0.000213 0.003033 -0.001649 0.030363
#
#
# Mechanical properties :
#
#
# Convention : Reuss Voigt Hill
#
# Bulk Modulus (GPa) = 37.47326 60.67056 49.07191
# Shear Modulus (GPa) = 31.85209 42.52458 37.18834
#
# Velocity S-wave (km/s) = 3.73585 4.31658 4.03667
# Velocity P-wave (km/s) = 5.91847 7.17131 6.57480
#
# Compressibility (1/GPa) = 0.02668569
#
# Stress axis : x y z
#
# Youngs Moduli (GPa) = 80.56488 89.31162 86.47246
#
# Poissons Ratio (x) = 0.21991 0.03135
# Poissons Ratio (y) = 0.19837 0.12271
# Poissons Ratio (z) = 0.02921 0.12674
#
# Static dielectric constant tensor:
#      x y z
#    x 1.893400 -0.077620 0.014050 
#    y -0.077620 1.942600 -0.022130 
#    z 0.014050 -0.022130 1.886990 
# 
# From -- ./inp_files/405602.got.cif
#   From: 2010.05.17/outbox.cif.g08.bks.cpg/sg2_203_cif.got.tgz:405602.got - 2010.06.03 11:33:40.
