data_PCOD9070286
_publ_section_title
;
Structure prediction by ZEFSAII (Michael W. Deem and Ramdas Pophale) SiO2 
 PCOD9070286
Probable space group: P -1
;
_chemical_formula_sum "Si O2"
_cell_formula_units_Z 10
_cell_length_a 9.471858
_cell_length_b 8.206735
_cell_length_c 5.646761
_cell_angle_alpha 87.009745
_cell_angle_beta 112.274650
_cell_angle_gamma 72.970471
_cell_volume 381.713841
_symmetry_space_group_name_H-M "P -1"
_symmetry_group_IT_number 2
_symmetry_cell_setting 'triclinic'
loop_
_space_group_symop_operation_xyz
x,y,z
-x,-y,-z
loop_
_atom_site_type_symbol
_atom_site_label
_atom_site_fract_x
_atom_site_fract_y
_atom_site_fract_z
Si Si1 0.006364 0.797825 0.992609
Si Si2 0.425463 0.915135 0.658763
Si Si3 0.155500 0.244790 0.611862
Si Si4 0.643059 0.324812 0.678445
Si Si5 0.586476 0.639597 0.106084
O O1 0.193200 0.669885 0.107777
O O2 0.939757 0.751703 0.204261
O O3 0.924572 0.767698 0.694647
O O4 0.000000 0.000000 0.000000
O O5 0.312879 0.808409 0.498920
O O6 0.500000 0.000000 0.500000
O O7 0.309327 0.066223 0.731013
O O8 0.576116 0.757999 0.865336
O O9 0.238842 0.395867 0.663414
O O10 0.500000 0.500000 0.500000
O O11 0.551685 0.244131 0.814226
O O12 0.500000 0.500000 0.000000
#
# Coordination Sequence:
#
# PCOD9070286 Si02
#       5
#     2   2   2   2   2
#     4  12  27  49  80 119 166 204 266 340 402 472
#     4  12  24  46  83 115 154 206 279 331 387 485
#     4  12  27  49  80 121 153 209 275 331 395 476
#     4  12  27  48  79 113 162 212 262 324 412 482
#     4  12  27  48  80 114 162 212 267 333 402 478
#
# _framework density 26.197637
#
# number of rings (size 3 to 8) (size 9 to 14) (size 15 to 20)
#    0.000    0.000    6.000    3.600    2.800    0.000 
#    0.000    6.000    0.000    0.000    0.000    0.000 
#    0.000    0.000    0.000    0.000    0.000    0.000 
#
# Total GULP energy -55822.925961 kJ/mol
# GULP energy per Si atom -5582.292596 kJ/mol
# Density = 2.613801 g / cm^3
# Si number density = 26.197637 Si / 1000 Ang^3
#
#
#
# Elastic Constant Matrix: (Units=GPa)
#
#
# Indices 1 2 3 4 5 6 
#
# 1 166.7135 35.8619 81.5597 -0.5688 6.5745 13.1523
# 2 35.8619 119.8074 76.1392 11.6308 20.8313 14.2585
# 3 81.5597 76.1392 203.9859 19.7788 27.8502 31.1914
# 4 -0.5688 11.6308 19.7788 61.5398 6.3004 11.2943
# 5 6.5745 20.8313 27.8502 6.3004 54.1155 5.4015
# 6 13.1523 14.2585 31.1914 11.2943 5.4015 27.4730
#
#
#
# Elastic Compliance Matrix: (Units=1/GPa)
#
#
# Indices 1 2 3 4 5 6 
#
# 1 0.007582 -0.000570 -0.002937 0.001160 0.000737 -0.000621
# 2 -0.000570 0.011298 -0.003467 -0.000614 -0.002330 -0.000944
# 3 -0.002937 -0.003467 0.008628 -0.000863 -0.002066 -0.005829
# 4 0.001160 -0.000614 -0.000863 0.017930 -0.000904 -0.006450
# 5 0.000737 -0.002330 -0.002066 -0.000904 0.020501 -0.000456
# 6 -0.000621 -0.000944 -0.005829 -0.006450 -0.000456 0.046546
#
#
# Mechanical properties :
#
#
# Convention : Reuss Voigt Hill
#
# Bulk Modulus (GPa) = 73.74811 97.51426 85.63119
# Shear Modulus (GPa) = 38.18230 48.42207 43.30218
#
# Velocity S-wave (km/s) = 3.82183 4.30389 4.07000
# Velocity P-wave (km/s) = 6.90557 7.87409 7.40568
#
# Compressibility (1/GPa) = 0.01355967
#
# Stress axis : x y z
#
# Youngs Moduli (GPa) = 131.89995 88.51310 115.90480
#
# Poissons Ratio (x) = 0.05044 0.34037
# Poissons Ratio (y) = 0.07516 0.40187
# Poissons Ratio (z) = 0.38734 0.30689
#
# Static dielectric constant tensor:
#      x y z
#    x 2.242740 0.110940 -0.154700 
#    y 0.110940 2.210230 0.036730 
#    z -0.154700 0.036730 2.538880 
# 
# From -- ./inp_files/17586.got.cif
#   From: 2010.05.17/outbox.cif.g08.bks.cpg/sg2_9_cif.got.tgz:17586.got - 2010.06.03 11:33:40.
