data_PCOD9070858
_publ_section_title
;
Structure prediction by ZEFSAII (Michael W. Deem and Ramdas Pophale) SiO2 
 PCOD9070858
Probable space group: P -1
;
_chemical_formula_sum "Si O2"
_cell_formula_units_Z 10
_cell_length_a 14.675968
_cell_length_b 5.343239
_cell_length_c 10.400577
_cell_angle_alpha 58.498652
_cell_angle_beta 149.981066
_cell_angle_gamma 112.303170
_cell_volume 342.772704
_symmetry_space_group_name_H-M "P -1"
_symmetry_group_IT_number 2
_symmetry_cell_setting 'triclinic'
loop_
_space_group_symop_operation_xyz
x,y,z
-x,-y,-z
loop_
_atom_site_type_symbol
_atom_site_label
_atom_site_fract_x
_atom_site_fract_y
_atom_site_fract_z
Si Si1 0.131754 0.890909 0.306749
Si Si2 0.937508 0.850299 0.365416
Si Si3 0.001016 0.382209 0.190081
Si Si4 0.590112 0.652439 0.684345
Si Si5 0.531996 0.732863 0.868605
O O1 0.336074 0.959042 0.560697
O O2 0.166165 0.542050 0.407137
O O3 0.196524 0.417488 0.068062
O O4 0.000000 0.000000 0.000000
O O5 0.712911 0.886489 0.068705
O O6 0.000000 0.500000 0.500000
O O7 0.998032 0.183228 0.388536
O O8 0.016140 0.999472 0.268034
O O9 0.000000 0.500000 0.000000
O O10 0.500000 0.500000 0.500000
O O11 0.500000 0.000000 0.500000
O O12 0.567689 0.546765 0.830331
O O13 0.500000 0.500000 0.000000
#
# Coordination Sequence:
#
# PCOD9070858 Si02
#       5
#     2   2   2   2   2
#     4  12  27  48  77 117 165 216 274 347 424 501
#     4  12  26  48  76 110 159 216 271 338 422 504
#     4  12  25  47  74 106 155 217 271 329 407 505
#     4  12  26  49  79 114 160 222 281 334 414 520
#     4  12  27  50  82 125 165 213 283 362 424 490
#
# _framework density 29.173853000000001
#
# number of rings (size 3 to 8) (size 9 to 14) (size 15 to 20)
#    0.000    0.000    0.000   11.400    0.000    4.800 
#    0.000   14.000    0.000    0.000    0.000    0.000 
#    0.000    0.000    0.000    0.000    0.000    0.000 
#
# Total GULP energy -55847.103042 kJ/mol
# GULP energy per Si atom -5584.710304 kJ/mol
# Density = 2.910745 g / cm^3
# Si number density = 29.173853 Si / 1000 Ang^3
#
#
#
# Elastic Constant Matrix: (Units=GPa)
#
#
# Indices 1 2 3 4 5 6 
#
# 1 276.6508 89.3666 121.6943 20.9387 -20.1561 -16.6410
# 2 89.3666 232.8288 103.4327 29.3918 -29.9208 -7.4285
# 3 121.6943 103.4327 245.5217 23.6407 4.5839 -7.2559
# 4 20.9387 29.3918 23.6407 89.2376 -3.9353 -21.4505
# 5 -20.1561 -29.9208 4.5839 -3.9353 76.6503 17.9780
# 6 -16.6410 -7.4285 -7.2559 -21.4505 17.9780 78.0413
#
#
#
# Elastic Compliance Matrix: (Units=1/GPa)
#
#
# Indices 1 2 3 4 5 6 
#
# 1 0.004901 -0.000793 -0.002082 -0.000173 0.000977 0.000503
# 2 -0.000793 0.005953 -0.002054 -0.001292 0.002333 -0.000686
# 3 -0.002082 -0.002054 0.006055 -0.000468 -0.001784 0.000206
# 4 -0.000173 -0.001292 -0.000468 0.012587 -0.000676 0.003412
# 5 0.000977 0.002333 -0.001784 -0.000676 0.015082 -0.003396
# 6 0.000503 -0.000686 0.000206 0.003412 -0.003396 0.014595
#
#
# Mechanical properties :
#
#
# Convention : Reuss Voigt Hill
#
# Bulk Modulus (GPa) = 141.82837 153.77649 147.80243
# Shear Modulus (GPa) = 70.04664 78.15300 74.09982
#
# Velocity S-wave (km/s) = 4.90532 5.18140 5.04525
# Velocity P-wave (km/s) = 8.98907 9.41385 9.20391
#
# Compressibility (1/GPa) = 0.00705078
#
# Stress axis : x y z
#
# Youngs Moduli (GPa) = 204.03315 167.98409 165.15939
#
# Poissons Ratio (x) = 0.13319 0.34386
# Poissons Ratio (y) = 0.16177 0.33928
# Poissons Ratio (z) = 0.42479 0.34508
#
# Static dielectric constant tensor:
#      x y z
#    x 1.951080 -0.453700 -0.524440 
#    y -0.453700 1.640640 -0.665090 
#    z -0.524440 -0.665090 2.139920 
# 
# From -- ./inp_files/287045.got.cif
#   From: 2010.05.17/outbox.cif.g08.bks.cpg/sg2_144_cif.got.tgz:287045.got - 2010.06.03 11:33:40.
