data_PCOD9070765
_publ_section_title
;
Structure prediction by ZEFSAII (Michael W. Deem and Ramdas Pophale) SiO2 
 PCOD9070765
Probable space group: P -1
;
_chemical_formula_sum "Si O2"
_cell_formula_units_Z 16
_cell_length_a 19.520478
_cell_length_b 11.167706
_cell_length_c 7.724383
_cell_angle_alpha 58.810138
_cell_angle_beta 131.884098
_cell_angle_gamma 145.946745
_cell_volume 699.489649
_symmetry_space_group_name_H-M "P -1"
_symmetry_group_IT_number 2
_symmetry_cell_setting 'triclinic'
loop_
_space_group_symop_operation_xyz
x,y,z
-x,-y,-z
loop_
_atom_site_type_symbol
_atom_site_label
_atom_site_fract_x
_atom_site_fract_y
_atom_site_fract_z
Si Si1 0.124879 0.861099 0.227371
Si Si2 0.395006 0.759878 0.434951
Si Si3 0.434242 0.772240 0.092098
Si Si4 0.362100 0.420277 0.771213
Si Si5 0.869942 0.408509 0.742432
Si Si6 0.916923 0.934490 0.232016
Si Si7 0.381054 0.276964 0.570505
Si Si8 0.108184 0.385727 0.713869
O O1 0.191203 0.799682 0.299297
O O2 0.997901 0.670491 0.283576
O O3 0.249802 0.082226 0.375446
O O4 0.059852 0.891588 0.952449
O O5 0.429338 0.750919 0.306912
O O6 0.391684 0.617944 0.652228
O O7 0.240761 0.649143 0.273115
O O8 0.500000 0.000000 0.500000
O O9 0.536344 0.768225 0.194832
O O10 0.273358 0.582117 0.895076
O O11 0.500000 0.000000 0.000000
O O12 0.244638 0.257535 0.836977
O O13 0.322846 0.305164 0.607155
O O14 0.500000 0.500000 0.000000
O O15 0.908699 0.561448 0.541277
O O16 0.000000 0.500000 0.000000
O O17 0.938804 0.830018 0.219154
O O18 0.000000 0.000000 0.500000
O O19 0.500000 0.500000 0.500000
#
# Coordination Sequence:
#
# PCOD9070765 Si02
#       8
#     2   2   2   2   2   2   2   2
#     4  12  27  46  75 108 146 192 246 298 362 434
#     4  12  27  48  74 106 146 193 242 299 366 432
#     4  12  27  45  76 107 147 190 240 296 368 434
#     4  12  27  47  74 106 147 190 243 302 362 430
#     4  12  27  49  75 106 148 189 243 302 360 434
#     4  12  27  45  73 107 146 192 243 298 363 427
#     4  12  25  46  72 107 146 189 240 301 361 430
#     4  12  25  49  73 107 145 191 243 298 362 432
#
# _framework density 22.873819999999998
#
# number of rings (size 3 to 8) (size 9 to 14) (size 15 to 20)
#    0.000    0.000    2.500    7.500    5.250    1.000 
#    0.000    0.000    0.000    0.000    0.000    0.000 
#    0.000    0.000    0.000    0.000    0.000    0.000 
#
# Total GULP energy -89692.704645 kJ/mol
# GULP energy per Si atom -5605.794040 kJ/mol
# Density = 2.282176 g / cm^3
# Si number density = 22.873820 Si / 1000 Ang^3
#
#
#
# Elastic Constant Matrix: (Units=GPa)
#
#
# Indices 1 2 3 4 5 6 
#
# 1 75.7306 8.0928 -2.0551 -1.1785 8.5151 -9.9688
# 2 8.0928 83.5747 24.8558 1.5836 9.2973 -5.1258
# 3 -2.0551 24.8558 92.4207 13.2317 14.7443 7.9292
# 4 -1.1785 1.5836 13.2317 45.4915 -1.1817 4.1033
# 5 8.5151 9.2973 14.7443 -1.1817 42.1274 -5.5988
# 6 -9.9688 -5.1258 7.9292 4.1033 -5.5988 41.2342
#
#
#
# Elastic Compliance Matrix: (Units=1/GPa)
#
#
# Indices 1 2 3 4 5 6 
#
# 1 0.013990 -0.001143 0.000800 -0.000144 -0.002492 0.002762
# 2 -0.001143 0.013405 -0.003656 0.000365 -0.001185 0.001896
# 3 0.000800 -0.003656 0.013318 -0.003565 -0.004526 -0.003082
# 4 -0.000144 0.000365 -0.003565 0.023171 0.001662 -0.001384
# 5 -0.002492 -0.001185 -0.004526 0.001662 0.026608 0.003568
# 6 0.002762 0.001896 -0.003082 -0.001384 0.003568 0.026370
#
#
# Mechanical properties :
#
#
# Convention : Reuss Voigt Hill
#
# Bulk Modulus (GPa) = 30.56841 34.83477 32.70159
# Shear Modulus (GPa) = 36.82832 40.49279 38.66055
#
# Velocity S-wave (km/s) = 4.01691 4.21202 4.11562
# Velocity P-wave (km/s) = 5.90822 6.23835 6.07553
#
# Compressibility (1/GPa) = 0.03271351
#
# Stress axis : x y z
#
# Youngs Moduli (GPa) = 71.47870 74.60085 75.08606
#
# Poissons Ratio (x) = 0.08528 -0.06006
# Poissons Ratio (y) = 0.08171 0.27454
# Poissons Ratio (z) = -0.05717 0.27277
#
# Static dielectric constant tensor:
#      x y z
#    x 1.869620 -0.034530 -0.046130 
#    y -0.034530 1.843820 0.006860 
#    z -0.046130 0.006860 1.849800 
# 
# From -- ./inp_files/345987.got.cif
#   From: 2010.05.17/outbox.cif.g08.bks.cpg/sg2_173_cif.got.tgz:345987.got - 2010.06.03 11:33:40.
