data_PCOD9070294
_publ_section_title
;
Structure prediction by ZEFSAII (Michael W. Deem and Ramdas Pophale) SiO2 
 PCOD9070294
Probable space group: P -1
;
_chemical_formula_sum "Si O2"
_cell_formula_units_Z 16
_cell_length_a 9.021576
_cell_length_b 8.719355
_cell_length_c 11.627414
_cell_angle_alpha 62.263008
_cell_angle_beta 62.943472
_cell_angle_gamma 65.811590
_cell_volume 697.818709
_symmetry_space_group_name_H-M "P -1"
_symmetry_group_IT_number 2
_symmetry_cell_setting 'triclinic'
loop_
_space_group_symop_operation_xyz
x,y,z
-x,-y,-z
loop_
_atom_site_type_symbol
_atom_site_label
_atom_site_fract_x
_atom_site_fract_y
_atom_site_fract_z
Si Si1 0.705114 0.760587 0.617287
Si Si2 0.689059 0.139251 0.611981
Si Si3 0.818253 0.970236 0.043317
Si Si4 0.574819 0.172296 0.896612
Si Si5 0.036197 0.689857 0.901582
Si Si6 0.574545 0.437258 0.122583
Si Si7 0.060489 0.645871 0.642010
Si Si8 0.688263 0.737851 0.358907
O O1 0.549124 0.675491 0.738018
O O2 0.713526 0.776046 0.470951
O O3 0.883016 0.639092 0.646719
O O4 0.692385 0.950462 0.617169
O O5 0.673960 0.138333 0.754175
O O6 0.849636 0.216185 0.499339
O O7 0.509156 0.265746 0.586915
O O8 0.728847 0.887943 0.206509
O O9 0.878520 0.827933 0.969295
O O10 0.700240 0.149802 0.969153
O O11 0.000000 0.000000 0.000000
O O12 0.450112 0.370167 0.871434
O O13 0.500000 0.000000 0.000000
O O14 0.227145 0.672960 0.892330
O O15 0.034990 0.715333 0.756873
O O16 0.000000 0.500000 0.000000
O O17 0.500000 0.500000 0.000000
O O18 0.186789 0.449324 0.657590
#
# Coordination Sequence:
#
# PCOD9070294 Si02
#       8
#     2   2   2   2   2   2   2   2
#     4  12  28  47  72 105 143 182 233 290 350 414
#     4  12  26  47  75 102 140 185 235 288 347 414
#     4  12  28  42  72 103 144 181 227 288 347 413
#     4  12  24  47  71 105 139 182 234 283 345 414
#     4  12  24  47  71 105 139 182 234 283 345 414
#     4  12  26  45  75 105 143 182 231 289 351 412
#     4  12  26  47  75 102 140 185 235 288 347 414
#     4  12  26  48  69 104 144 182 233 283 352 414
#
# _framework density 22.928591000000001
#
# number of rings (size 3 to 8) (size 9 to 14) (size 15 to 20)
#    0.000    0.000    2.500    7.500    7.000    0.000 
#    0.000    0.000    0.000    0.000    0.000    0.000 
#    0.000    0.000    0.000    0.000    0.000    0.000 
#
# Total GULP energy -89604.920190 kJ/mol
# GULP energy per Si atom -5600.307512 kJ/mol
# Density = 2.287640 g / cm^3
# Si number density = 22.928591 Si / 1000 Ang^3
#
#
#
# Elastic Constant Matrix: (Units=GPa)
#
#
# Indices 1 2 3 4 5 6 
#
# 1 123.2327 -4.1810 23.9074 -0.6776 -4.3040 -10.7679
# 2 -4.1810 93.6820 15.7514 1.8813 2.2232 -7.6675
# 3 23.9074 15.7514 154.1061 21.8610 13.6026 18.0850
# 4 -0.6776 1.8813 21.8610 27.9669 9.3785 3.2105
# 5 -4.3040 2.2232 13.6026 9.3785 48.7824 1.1841
# 6 -10.7679 -7.6675 18.0850 3.2105 1.1841 41.7270
#
#
#
# Elastic Compliance Matrix: (Units=1/GPa)
#
#
# Indices 1 2 3 4 5 6 
#
# 1 0.008884 0.000972 -0.002105 0.001071 0.001041 0.003272
# 2 0.000972 0.011246 -0.001686 0.000264 -0.000081 0.003030
# 3 -0.002105 -0.001686 0.008364 -0.005589 -0.001269 -0.004012
# 4 0.001071 0.000264 -0.005589 0.042348 -0.006493 -0.000327
# 5 0.001041 -0.000081 -0.001269 -0.006493 0.022181 0.000674
# 6 0.003272 0.003030 -0.004012 -0.000327 0.000674 0.027111
#
#
# Mechanical properties :
#
#
# Convention : Reuss Voigt Hill
#
# Bulk Modulus (GPa) = 43.75444 49.10848 46.43146
# Shear Modulus (GPa) = 37.48365 46.06481 41.77423
#
# Velocity S-wave (km/s) = 4.04765 4.48711 4.27304
# Velocity P-wave (km/s) = 6.40070 6.95054 6.68128
#
# Compressibility (1/GPa) = 0.02285482
#
# Stress axis : x y z
#
# Youngs Moduli (GPa) = 112.55798 88.92107 119.56403
#
# Poissons Ratio (x) = -0.08644 0.25173
# Poissons Ratio (y) = -0.10942 0.20161
# Poissons Ratio (z) = 0.23698 0.14994
#
# Static dielectric constant tensor:
#      x y z
#    x 1.877980 0.011210 0.024060 
#    y 0.011210 1.928300 0.020760 
#    z 0.024060 0.020760 1.783380 
# 
# From -- ./inp_files/381244.got.cif
#   From: 2010.05.17/outbox.cif.g08.bks.cpg/sg2_191_cif.got.tgz:381244.got - 2010.06.03 11:33:40.
