data_PCOD9070772
_publ_section_title
;
Structure prediction by ZEFSAII (Michael W. Deem and Ramdas Pophale) SiO2 
 PCOD9070772
Probable space group: P -1
;
_chemical_formula_sum "Si O2"
_cell_formula_units_Z 14
_cell_length_a 15.440496
_cell_length_b 11.799630
_cell_length_c 4.914937
_cell_angle_alpha 74.703048
_cell_angle_beta 76.369320
_cell_angle_gamma 35.938677
_cell_volume 506.559206
_symmetry_space_group_name_H-M "P -1"
_symmetry_group_IT_number 2
_symmetry_cell_setting 'triclinic'
loop_
_space_group_symop_operation_xyz
x,y,z
-x,-y,-z
loop_
_atom_site_type_symbol
_atom_site_label
_atom_site_fract_x
_atom_site_fract_y
_atom_site_fract_z
Si Si1 0.111671 0.309755 0.841819
Si Si2 0.611265 0.671024 0.837729
Si Si3 0.693994 0.122898 0.049756
Si Si4 0.611337 0.819801 0.246948
Si Si5 0.326688 0.706166 0.530455
Si Si6 0.063426 0.833328 0.756956
Si Si7 0.938277 0.306105 0.647512
O O1 0.244791 0.260344 0.712043
O O2 0.990383 0.646731 0.337710
O O3 0.216312 0.086165 0.978904
O O4 0.000000 0.500000 0.000000
O O5 0.542172 0.834252 0.558746
O O6 0.294993 0.849603 0.662740
O O7 0.763178 0.479555 0.703566
O O8 0.479923 0.720140 0.956373
O O9 0.008537 0.853630 0.083010
O O10 0.729033 0.196094 0.786116
O O11 0.661889 0.668602 0.089917
O O12 0.500000 0.000000 0.000000
O O13 0.500000 0.500000 0.500000
O O14 0.234125 0.695280 0.724358
O O15 0.034613 0.748549 0.649904
O O16 0.000000 0.000000 0.500000
#
# Coordination Sequence:
#
# PCOD9070772 Si02
#       7
#     2   2   2   2   2   2   2
#     4  12  28  49  75 110 160 200 257 301 373 454
#     4  12  25  46  73 105 148 191 250 308 368 440
#     4  12  26  46  77 114 150 196 253 307 380 450
#     4  12  26  48  72 104 147 197 248 308 366 431
#     4  12  25  48  78 112 145 193 251 320 381 442
#     4  12  25  47  72 103 152 191 246 307 381 446
#     4  12  26  46  72 109 143 200 248 302 376 451
#
# _framework density 27.637443999999999
#
# number of rings (size 3 to 8) (size 9 to 14) (size 15 to 20)
#    0.000    0.000    2.857    7.286    0.000    1.714 
#    0.000    0.000    0.000    0.000    0.000    0.000 
#    0.000    0.000    0.000    0.000    0.000    0.000 
#
# Total GULP energy -78388.251507 kJ/mol
# GULP energy per Si atom -5599.160822 kJ/mol
# Density = 2.757454 g / cm^3
# Si number density = 27.637444 Si / 1000 Ang^3
#
#
#
# Elastic Constant Matrix: (Units=GPa)
#
#
# Indices 1 2 3 4 5 6 
#
# 1 140.4719 37.8503 53.4084 17.5219 -7.9684 -7.9935
# 2 37.8503 114.9272 15.8149 2.2282 9.1232 -23.4028
# 3 53.4084 15.8149 135.9391 -1.7216 2.4222 -5.8345
# 4 17.5219 2.2282 -1.7216 53.1673 -6.4996 -1.1530
# 5 -7.9684 9.1232 2.4222 -6.4996 56.0694 11.7936
# 6 -7.9935 -23.4028 -5.8345 -1.1530 11.7936 52.0286
#
#
#
# Elastic Compliance Matrix: (Units=1/GPa)
#
#
# Indices 1 2 3 4 5 6 
#
# 1 0.009702 -0.002934 -0.003571 -0.002984 0.001813 -0.000707
# 2 -0.002934 0.010971 0.000163 0.000224 -0.003288 0.005253
# 3 -0.003571 0.000163 0.008806 0.001360 -0.000915 0.000750
# 4 -0.002984 0.000224 0.001360 0.020048 0.001842 -0.000178
# 5 0.001813 -0.003288 -0.000915 0.001842 0.020105 -0.005819
# 6 -0.000707 0.005253 0.000750 -0.000178 -0.005819 0.022874
#
#
# Mechanical properties :
#
#
# Convention : Reuss Voigt Hill
#
# Bulk Modulus (GPa) = 59.53810 67.27616 63.40713
# Shear Modulus (GPa) = 45.13169 51.20402 48.16786
#
# Velocity S-wave (km/s) = 4.04541 4.30898 4.17927
# Velocity P-wave (km/s) = 6.58861 7.01082 6.80299
#
# Compressibility (1/GPa) = 0.01679597
#
# Stress axis : x y z
#
# Youngs Moduli (GPa) = 103.07302 91.14740 113.56072
#
# Poissons Ratio (x) = 0.26741 0.40550
# Poissons Ratio (y) = 0.30240 -0.01853
# Poissons Ratio (z) = 0.36806 -0.01487
#
# Static dielectric constant tensor:
#      x y z
#    x 2.112200 0.119590 0.042490 
#    y 0.119590 2.774100 0.196510 
#    z 0.042490 0.196510 2.221680 
# 
# From -- ./inp_files/94738.got.cif
#   From: 2010.05.17/outbox.cif.g08.bks.cpg/sg2_48_cif.got.tgz:94738.got - 2010.06.03 11:33:40.
