data_PCOD9070237
_publ_section_title
;
Structure prediction by ZEFSAII (Michael W. Deem and Ramdas Pophale) SiO2 
 PCOD9070237
Probable space group: P -1
;
_chemical_formula_sum "Si O2"
_cell_formula_units_Z 16
_cell_length_a 8.638297
_cell_length_b 12.965669
_cell_length_c 18.428182
_cell_angle_alpha 151.575694
_cell_angle_beta 50.043573
_cell_angle_gamma 128.860258
_cell_volume 741.899428
_symmetry_space_group_name_H-M "P -1"
_symmetry_group_IT_number 2
_symmetry_cell_setting 'triclinic'
loop_
_space_group_symop_operation_xyz
x,y,z
-x,-y,-z
loop_
_atom_site_type_symbol
_atom_site_label
_atom_site_fract_x
_atom_site_fract_y
_atom_site_fract_z
Si Si1 0.944127 0.914109 0.855013
Si Si2 0.698385 0.043225 0.758744
Si Si3 0.518796 0.678051 0.890050
Si Si4 0.948243 0.740175 0.583018
Si Si5 0.091091 0.775986 0.331307
Si Si6 0.641458 0.235410 0.612790
Si Si7 0.313469 0.718094 0.670370
Si Si8 0.243061 0.653535 0.817732
O O1 0.756921 0.777944 0.871640
O O2 0.946965 0.811611 0.710663
O O3 0.154289 0.885174 0.811391
O O4 0.896791 0.158632 0.015699
O O5 0.791039 0.209439 0.771260
O O6 0.868243 0.925692 0.673383
O O7 0.530160 0.843438 0.653986
O O8 0.588586 0.173605 0.931815
O O9 0.508772 0.429000 0.765250
O O10 0.415585 0.686984 0.847938
O O11 0.795256 0.509521 0.473600
O O12 0.176042 0.724630 0.477207
O O13 0.243405 0.757768 0.340631
O O14 0.903517 0.577169 0.270574
O O15 0.000000 0.000000 0.500000
O O16 0.500000 0.000000 0.500000
O O17 0.336112 0.673440 0.721386
#
# Coordination Sequence:
#
# PCOD9070237 Si02
#       8
#     2   2   2   2   2   2   2   2
#     4  12  25  45  73 109 146 187 240 303 362 421
#     4  12  27  45  75 106 145 189 243 294 364 428
#     4  12  26  47  72 107 146 189 243 296 360 429
#     4  12  25  48  71 109 145 191 241 294 359 434
#     4  12  26  49  72 106 144 190 241 296 358 429
#     4  12  28  47  73 104 148 192 239 295 362 431
#     4  12  25  45  75 107 142 190 246 296 354 427
#     4  12  24  46  76  99 148 192 234 298 360 421
#
# _framework density 21.566265999999999
#
# number of rings (size 3 to 8) (size 9 to 14) (size 15 to 20)
#    0.000    0.000    6.250    3.000    3.500    3.000 
#    0.000    0.000    0.000    0.000    0.000    0.000 
#    0.000    0.000    0.000    0.000    0.000    0.000 
#
# Total GULP energy -89684.144668 kJ/mol
# GULP energy per Si atom -5605.259042 kJ/mol
# Density = 2.151718 g / cm^3
# Si number density = 21.566266 Si / 1000 Ang^3
#
#
#
# Elastic Constant Matrix: (Units=GPa)
#
#
# Indices 1 2 3 4 5 6 
#
# 1 54.7343 -7.4087 1.2609 0.4351 -6.0817 -3.1435
# 2 -7.4087 62.9557 9.1990 9.2107 0.7619 -0.2219
# 3 1.2609 9.1990 90.8711 24.6243 -8.2799 -0.2622
# 4 0.4351 9.2107 24.6243 37.6898 -5.4918 -1.2209
# 5 -6.0817 0.7619 -8.2799 -5.4918 36.7333 2.8634
# 6 -3.1435 -0.2219 -0.2622 -1.2209 2.8634 32.1185
#
#
#
# Elastic Compliance Matrix: (Units=1/GPa)
#
#
# Indices 1 2 3 4 5 6 
#
# 1 0.018996 0.002258 -0.000173 -0.000182 0.002907 0.001607
# 2 0.002258 0.016819 -0.000793 -0.003717 -0.000729 0.000254
# 3 -0.000173 -0.000793 0.013525 -0.008389 0.001813 -0.000393
# 4 -0.000182 -0.003717 -0.008389 0.033401 0.003081 0.000883
# 5 0.002907 -0.000729 0.001813 0.003081 0.028757 -0.002152
# 6 0.001607 0.000254 -0.000393 0.000883 -0.002152 0.031516
#
#
# Mechanical properties :
#
#
# Convention : Reuss Voigt Hill
#
# Bulk Modulus (GPa) = 19.25874 23.85150 21.55512
# Shear Modulus (GPa) = 31.69820 35.00898 33.35359
#
# Velocity S-wave (km/s) = 3.83796 4.03342 3.93690
# Velocity P-wave (km/s) = 5.34690 5.72494 5.53915
#
# Compressibility (1/GPa) = 0.05192449
#
# Stress axis : x y z
#
# Youngs Moduli (GPa) = 52.64145 59.45589 73.93969
#
# Poissons Ratio (x) = -0.13425 0.01281
# Poissons Ratio (y) = -0.11886 0.05860
# Poissons Ratio (z) = 0.00912 0.04712
#
# Static dielectric constant tensor:
#      x y z
#    x 1.774540 -0.010050 -0.009910 
#    y -0.010050 1.771980 -0.004850 
#    z -0.009910 -0.004850 1.799950 
# 
# From -- ./inp_files/242960.got.cif
#   From: 2010.05.17/outbox.cif.g08.bks.cpg/sg2_122_cif.got.tgz:242960.got - 2010.06.03 11:33:40.
