data_PCOD9070871
_publ_section_title
;
Structure prediction by ZEFSAII (Michael W. Deem and Ramdas Pophale) SiO2 
 PCOD9070871
Probable space group: P -1
;
_chemical_formula_sum "Si O2"
_cell_formula_units_Z 12
_cell_length_a 8.180962
_cell_length_b 7.417990
_cell_length_c 14.606459
_cell_angle_alpha 120.649276
_cell_angle_beta 113.300086
_cell_angle_gamma 37.792648
_cell_volume 467.270751
_symmetry_space_group_name_H-M "P -1"
_symmetry_group_IT_number 2
_symmetry_cell_setting 'triclinic'
loop_
_space_group_symop_operation_xyz
x,y,z
-x,-y,-z
loop_
_atom_site_type_symbol
_atom_site_label
_atom_site_fract_x
_atom_site_fract_y
_atom_site_fract_z
Si Si1 0.196513 0.213569 0.694203
Si Si2 0.199232 0.830914 0.249031
Si Si3 0.876642 0.582750 0.894336
Si Si4 0.269525 0.864678 0.065341
Si Si5 0.280409 0.482587 0.627440
Si Si6 0.313850 0.466157 0.426724
O O1 0.203551 0.382954 0.661289
O O2 0.101475 0.388966 0.814481
O O3 0.960210 0.265921 0.619580
O O4 0.487392 0.857577 0.668815
O O5 0.241251 0.546909 0.171249
O O6 0.245320 0.898680 0.178344
O O7 0.413902 0.727418 0.341013
O O8 0.905747 0.152674 0.300879
O O9 0.693704 0.942121 0.923623
O O10 0.000000 0.500000 0.000000
O O11 0.500000 0.500000 0.000000
O O12 0.000000 0.000000 0.000000
O O13 0.248985 0.431867 0.504010
O O14 0.500000 0.500000 0.500000
#
# Coordination Sequence:
#
# PCOD9070871 Si02
#       6
#     2   2   2   2   2   2
#     4  12  26  47  73 110 148 199 248 306 376 446
#     4  12  26  47  75 111 152 195 250 309 377 446
#     4  12  28  50  78 112 153 204 255 312 376 449
#     4  12  27  49  74 107 152 201 254 314 373 440
#     4  12  25  48  76 110 150 196 248 310 376 451
#     4  12  25  47  75 109 149 192 250 309 374 448
#
# _framework density 25.681042999999999
#
# number of rings (size 3 to 8) (size 9 to 14) (size 15 to 20)
#    0.000    0.000    3.333    6.500    0.000    2.000 
#    0.000    0.000    0.000    0.000    0.000    0.000 
#    0.000    0.000    0.000    0.000    0.000    0.000 
#
# Total GULP energy -67403.476277 kJ/mol
# GULP energy per Si atom -5616.956356 kJ/mol
# Density = 2.562259 g / cm^3
# Si number density = 25.681043 Si / 1000 Ang^3
#
#
#
# Elastic Constant Matrix: (Units=GPa)
#
#
# Indices 1 2 3 4 5 6 
#
# 1 115.0280 23.1034 2.5824 -7.4511 2.1268 23.3352
# 2 23.1034 123.0278 23.8377 7.2811 -1.9316 8.6240
# 3 2.5824 23.8377 105.4405 -9.5999 -25.8541 0.2173
# 4 -7.4511 7.2811 -9.5999 54.0727 5.6857 2.4494
# 5 2.1268 -1.9316 -25.8541 5.6857 52.2065 -2.8992
# 6 23.3352 8.6240 0.2173 2.4494 -2.8992 47.8043
#
#
#
# Elastic Compliance Matrix: (Units=1/GPa)
#
#
# Indices 1 2 3 4 5 6 
#
# 1 0.010155 -0.001722 0.000107 0.001963 -0.000905 -0.004802
# 2 -0.001722 0.009045 -0.002306 -0.001770 -0.000585 -0.000726
# 3 0.000107 -0.002306 0.011497 0.001769 0.005442 0.000551
# 4 0.001963 -0.001770 0.001769 0.019553 -0.001495 -0.001739
# 5 -0.000905 -0.000585 0.005442 -0.001495 0.022136 0.001941
# 6 -0.004802 -0.000726 0.000551 -0.001739 0.001941 0.023598
#
#
# Mechanical properties :
#
#
# Convention : Reuss Voigt Hill
#
# Bulk Modulus (GPa) = 43.75058 49.17147 46.46102
# Shear Modulus (GPa) = 44.86648 50.41486 47.64067
#
# Velocity S-wave (km/s) = 4.18433 4.43551 4.31175
# Velocity P-wave (km/s) = 6.35751 6.73946 6.55127
#
# Compressibility (1/GPa) = 0.02285684
#
# Stress axis : x y z
#
# Youngs Moduli (GPa) = 98.47341 110.56180 86.97970
#
# Poissons Ratio (x) = 0.19034 -0.00933
# Poissons Ratio (y) = 0.16952 0.20054
# Poissons Ratio (z) = -0.01056 0.25492
#
# Static dielectric constant tensor:
#      x y z
#    x 2.088710 0.014700 -0.013500 
#    y 0.014700 1.944670 0.017030 
#    z -0.013500 0.017030 1.971770 
# 
# From -- ./inp_files/495633.got.cif
#   From: 2010.05.17/outbox.cif.g08.bks.cpg/sg2_248_cif.got.tgz:495633.got - 2010.06.03 11:33:40.
