data_PCOD9070646
_publ_section_title
;
Structure prediction by ZEFSAII (Michael W. Deem and Ramdas Pophale) SiO2 
 PCOD9070646
Probable space group: P -1
;
_chemical_formula_sum "Si O2"
_cell_formula_units_Z 14
_cell_length_a 12.589489
_cell_length_b 13.539802
_cell_length_c 9.151103
_cell_angle_alpha 122.931289
_cell_angle_beta 80.424036
_cell_angle_gamma 145.385083
_cell_volume 600.780171
_symmetry_space_group_name_H-M "P -1"
_symmetry_group_IT_number 2
_symmetry_cell_setting 'triclinic'
loop_
_space_group_symop_operation_xyz
x,y,z
-x,-y,-z
loop_
_atom_site_type_symbol
_atom_site_label
_atom_site_fract_x
_atom_site_fract_y
_atom_site_fract_z
Si Si1 0.387902 0.264569 0.300454
Si Si2 0.503503 0.114286 0.482142
Si Si3 0.970890 0.935366 0.288026
Si Si4 0.762951 0.423324 0.400747
Si Si5 0.023360 0.408004 0.819739
Si Si6 0.362473 0.584850 0.079042
Si Si7 0.150926 0.974407 0.818409
O O1 0.500000 0.500000 0.500000
O O2 0.576481 0.343497 0.332009
O O3 0.181183 0.053128 0.293439
O O4 0.256215 0.129849 0.067298
O O5 0.622701 0.206305 0.372489
O O6 0.649587 0.359356 0.720699
O O7 0.500000 0.000000 0.500000
O O8 0.235968 0.892555 0.360471
O O9 0.976642 0.051614 0.272026
O O10 0.731303 0.637404 0.073311
O O11 0.000000 0.000000 0.500000
O O12 0.876144 0.474247 0.271626
O O13 0.974328 0.695955 0.650515
O O14 0.201931 0.494000 0.925322
O O15 0.000000 0.500000 0.000000
O O16 0.624297 0.847139 0.178765
#
# Coordination Sequence:
#
# PCOD9070646 Si02
#       7
#     2   2   2   2   2   2   2
#     4  12  25  44  71 109 156 197 254 303 376 466
#     4  12  28  50  75 110 146 198 261 318 386 453
#     4  12  26  44  74 111 157 203 249 310 380 461
#     4  12  27  48  80 108 154 203 250 321 388 449
#     4  12  26  53  76 109 151 196 261 324 378 452
#     4  12  25  47  73 107 154 197 251 316 377 449
#     4  12  25  47  73 110 156 199 252 307 383 468
#
# _framework density 23.303031000000001
#
# number of rings (size 3 to 8) (size 9 to 14) (size 15 to 20)
#    0.000    0.000    5.714    4.286    4.000    1.143 
#    0.000    0.000    0.000    0.000    0.000    0.000 
#    0.000    0.000    0.000    0.000    0.000    0.000 
#
# Total GULP energy -78384.275165 kJ/mol
# GULP energy per Si atom -5598.876798 kJ/mol
# Density = 2.324999 g / cm^3
# Si number density = 23.303031 Si / 1000 Ang^3
#
#
#
# Elastic Constant Matrix: (Units=GPa)
#
#
# Indices 1 2 3 4 5 6 
#
# 1 73.0806 39.4474 12.6103 3.7752 4.6688 5.7417
# 2 39.4474 184.8834 50.8225 -12.0319 -2.4306 19.4023
# 3 12.6103 50.8225 136.9235 -13.8094 -6.6720 5.8900
# 4 3.7752 -12.0319 -13.8094 43.3615 16.8914 1.5679
# 5 4.6688 -2.4306 -6.6720 16.8914 29.1680 3.7891
# 6 5.7417 19.4023 5.8900 1.5679 3.7891 33.3704
#
#
#
# Elastic Compliance Matrix: (Units=1/GPa)
#
#
# Indices 1 2 3 4 5 6 
#
# 1 0.015805 -0.003338 -0.000462 -0.001705 -0.001874 -0.000404
# 2 -0.003338 0.007137 -0.002022 0.001704 0.000110 -0.003311
# 3 -0.000462 -0.002022 0.008338 0.001837 0.000800 -0.000394
# 4 -0.001705 0.001704 0.001837 0.030907 -0.016993 -0.000544
# 5 -0.001874 0.000110 0.000800 -0.016993 0.045164 -0.004212
# 6 -0.000404 -0.003311 -0.000394 -0.000544 -0.004212 0.032534
#
#
# Mechanical properties :
#
#
# Convention : Reuss Voigt Hill
#
# Bulk Modulus (GPa) = 50.93224 66.73868 58.83546
# Shear Modulus (GPa) = 31.63062 40.64713 36.13888
#
# Velocity S-wave (km/s) = 3.68823 4.18100 3.94232
# Velocity P-wave (km/s) = 6.32782 7.21175 6.78420
#
# Compressibility (1/GPa) = 0.01963393
#
# Stress axis : x y z
#
# Youngs Moduli (GPa) = 63.27204 140.12198 119.93860
#
# Poissons Ratio (x) = 0.46776 0.05546
# Poissons Ratio (y) = 0.21122 0.24250
# Poissons Ratio (z) = 0.02926 0.28331
#
# Static dielectric constant tensor:
#      x y z
#    x 1.896800 -0.033950 -0.042760 
#    y -0.033950 1.918550 0.005930 
#    z -0.042760 0.005930 1.998490 
# 
# From -- ./inp_files/313858.got.cif
#   From: 2010.05.17/outbox.cif.g08.bks.cpg/sg2_157_cif.got.tgz:313858.got - 2010.06.03 11:33:40.
