data_PCOD9070020
_publ_section_title
;
Structure prediction by ZEFSAII (Michael W. Deem and Ramdas Pophale) SiO2 
 PCOD9070020
Probable space group: P -1
;
_chemical_formula_sum "Si O2"
_cell_formula_units_Z 15
_cell_length_a 9.130363
_cell_length_b 18.147715
_cell_length_c 11.881777
_cell_angle_alpha 147.707614
_cell_angle_beta 140.262912
_cell_angle_gamma 45.958083
_cell_volume 666.473631
_symmetry_space_group_name_H-M "P -1"
_symmetry_group_IT_number 2
_symmetry_cell_setting 'triclinic'
loop_
_space_group_symop_operation_xyz
x,y,z
-x,-y,-z
loop_
_atom_site_type_symbol
_atom_site_label
_atom_site_fract_x
_atom_site_fract_y
_atom_site_fract_z
Si Si1 0.587292 0.802742 0.509409
Si Si2 0.933147 0.663739 0.141029
Si Si3 0.006994 0.825494 0.621844
Si Si4 0.553108 0.375477 0.282668
Si Si5 0.500000 0.500000 0.000000
Si Si6 0.923684 0.143019 0.704779
Si Si7 0.811230 0.396530 0.245090
Si Si8 0.130866 0.129803 0.042522
O O1 0.598262 0.637393 0.290438
O O2 0.329808 0.870037 0.413387
O O3 0.638480 0.846141 0.723904
O O4 0.788754 0.843777 0.600686
O O5 0.938035 0.748268 0.368536
O O6 0.093697 0.726874 0.224815
O O7 0.681067 0.686328 0.964160
O O8 0.000000 0.500000 0.000000
O O9 0.230942 0.730170 0.681944
O O10 0.079177 0.974333 0.828225
O O11 0.500000 0.500000 0.500000
O O12 0.628899 0.433886 0.284134
O O13 0.681757 0.401172 0.057055
O O14 0.000000 0.000000 0.500000
O O15 0.103283 0.161940 0.935350
O O16 0.000000 0.500000 0.500000
O O17 0.938567 0.240403 0.131366
#
# Coordination Sequence:
#
# PCOD9070020 Si02
#       8
#     2   2   2   2   1   2   2   2
#     4  12  28  46  83 107 153 199 258 322 379 464
#     4  12  29  49  76 109 160 204 255 320 396 463
#     4  12  27  51  75 116 151 206 261 318 391 467
#     4  12  28  47  77 112 153 199 251 321 389 463
#     4  12  24  44  74 112 146 190 256 312 376 446
#     4  12  30  52  73 115 153 204 258 321 395 463
#     4  12  26  47  76 112 146 202 260 316 382 461
#     4  12  27  48  80 109 155 203 263 318 390 464
#
# _framework density 22.506519000000001
#
# number of rings (size 3 to 8) (size 9 to 14) (size 15 to 20)
#    0.000    0.000    6.667    1.200    7.467    2.133 
#    0.000    0.000    0.000    0.000    0.000    0.000 
#    0.000    0.000    0.000    0.000    0.000    0.000 
#
# Total GULP energy -83710.577286 kJ/mol
# GULP energy per Si atom -5580.705152 kJ/mol
# Density = 2.245529 g / cm^3
# Si number density = 22.506519 Si / 1000 Ang^3
#
#
#
# Elastic Constant Matrix: (Units=GPa)
#
#
# Indices 1 2 3 4 5 6 
#
# 1 59.4852 19.2016 17.4551 -3.6306 5.8184 0.1412
# 2 19.2016 94.7202 47.4194 -6.2497 6.9620 4.6606
# 3 17.4551 47.4194 151.8796 -12.3508 -19.1611 11.9009
# 4 -3.6306 -6.2497 -12.3508 60.5106 1.8736 -4.0652
# 5 5.8184 6.9620 -19.1611 1.8736 34.0399 -5.2938
# 6 0.1412 4.6606 11.9009 -4.0652 -5.2938 27.2087
#
#
#
# Elastic Compliance Matrix: (Units=1/GPa)
#
#
# Indices 1 2 3 4 5 6 
#
# 1 0.018555 -0.002599 -0.001763 0.000631 -0.003587 0.000516
# 2 -0.002599 0.013825 -0.004532 0.000418 -0.005162 -0.001314
# 3 -0.001763 -0.004532 0.009195 0.000987 0.006053 -0.001911
# 4 0.000631 0.000418 0.000987 0.016949 -0.000264 0.001974
# 5 -0.003587 -0.005162 0.006053 -0.000264 0.035257 0.005076
# 6 0.000516 -0.001314 -0.001911 0.001974 0.005076 0.039094
#
#
# Mechanical properties :
#
#
# Convention : Reuss Voigt Hill
#
# Bulk Modulus (GPa) = 42.03812 52.69303 47.36558
# Shear Modulus (GPa) = 31.52741 39.15243 35.33992
#
# Velocity S-wave (km/s) = 3.74680 4.17538 3.96688
# Velocity P-wave (km/s) = 6.11856 6.83434 6.48633
#
# Compressibility (1/GPa) = 0.02378793
#
# Stress axis : x y z
#
# Youngs Moduli (GPa) = 53.89316 72.33431 108.75147
#
# Poissons Ratio (x) = 0.18802 0.19169
# Poissons Ratio (y) = 0.14008 0.49284
# Poissons Ratio (z) = 0.09499 0.32780
#
# Static dielectric constant tensor:
#      x y z
#    x 2.006660 -0.152320 0.068300 
#    y -0.152320 1.972840 -0.098040 
#    z 0.068300 -0.098040 1.828990 
# 
# From -- ./inp_files/403671.got.cif
#   From: 2010.05.17/outbox.cif.g08.bks.cpg/sg2_202_cif.got.tgz:403671.got - 2010.06.03 11:33:40.
