data_PCOD9070658
_publ_section_title
;
Structure prediction by ZEFSAII (Michael W. Deem and Ramdas Pophale) SiO2 
 PCOD9070658
Probable space group: P -1
;
_chemical_formula_sum "Si O2"
_cell_formula_units_Z 16
_cell_length_a 9.005750
_cell_length_b 19.845673
_cell_length_c 11.738628
_cell_angle_alpha 138.642988
_cell_angle_beta 140.105986
_cell_angle_gamma 69.868646
_cell_volume 744.418074
_symmetry_space_group_name_H-M "P -1"
_symmetry_group_IT_number 2
_symmetry_cell_setting 'triclinic'
loop_
_space_group_symop_operation_xyz
x,y,z
-x,-y,-z
loop_
_atom_site_type_symbol
_atom_site_label
_atom_site_fract_x
_atom_site_fract_y
_atom_site_fract_z
Si Si1 0.956220 0.271825 0.711106
Si Si2 0.248458 0.512262 0.329125
Si Si3 0.278831 0.240023 0.660494
Si Si4 0.878668 0.728290 0.623862
Si Si5 0.139174 0.512189 0.719774
Si Si6 0.581956 0.760061 0.700381
Si Si7 0.049780 0.909327 0.347216
Si Si8 0.492634 0.909414 0.290088
O O1 0.629152 0.200843 0.405611
O O2 0.123016 0.276538 0.703797
O O3 0.009851 0.202105 0.752239
O O4 0.066358 0.405099 0.995398
O O5 0.500000 0.500000 0.500000
O O6 0.394662 0.643052 0.521969
O O7 0.060803 0.500056 0.310853
O O8 0.121516 0.200822 0.397993
O O9 0.328775 0.143916 0.629099
O O10 0.577244 0.357014 0.949952
O O11 0.804078 0.594989 0.375167
O O12 0.678492 0.723615 0.597828
O O13 0.186216 0.798074 0.943877
O O14 0.000000 0.500000 0.500000
O O15 0.853512 0.856171 0.053352
O O16 0.000000 0.000000 0.500000
O O17 0.368671 0.999880 0.618574
O O18 0.500000 0.000000 0.500000
#
# Coordination Sequence:
#
# PCOD9070658 Si02
#       8
#     2   2   2   2   2   2   2   2
#     4  12  27  47  75 107 145 185 237 294 356 424
#     4  12  25  44  75 107 145 184 232 291 361 426
#     4  12  27  47  75 108 143 187 236 294 358 420
#     4  12  27  47  75 107 145 185 237 294 356 424
#     4  12  25  44  75 107 145 184 232 291 361 426
#     4  12  27  47  75 108 143 187 236 294 358 420
#     4  12  28  49  72 102 143 190 242 290 350 418
#     4  12  28  49  72 102 143 190 242 290 350 418
#
# _framework density 21.493299
#
# number of rings (size 3 to 8) (size 9 to 14) (size 15 to 20)
#    0.000    0.000    5.000    4.500    7.000    2.000 
#    0.000    0.000    0.000    0.000    0.000    0.000 
#    0.000    0.000    0.000    0.000    0.000    0.000 
#
# Total GULP energy -89536.113125 kJ/mol
# GULP energy per Si atom -5596.007070 kJ/mol
# Density = 2.144438 g / cm^3
# Si number density = 21.493299 Si / 1000 Ang^3
#
#
#
# Elastic Constant Matrix: (Units=GPa)
#
#
# Indices 1 2 3 4 5 6 
#
# 1 199.4624 25.8740 25.9372 0.5719 2.2816 -0.1859
# 2 25.8740 65.6533 35.6308 -15.7918 -8.0890 2.5342
# 3 25.9372 35.6308 58.8151 4.7151 1.6401 -7.0987
# 4 0.5719 -15.7918 4.7151 42.1955 0.8779 2.9005
# 5 2.2816 -8.0890 1.6401 0.8779 32.2359 4.3140
# 6 -0.1859 2.5342 -7.0987 2.9005 4.3140 29.4439
#
#
#
# Elastic Compliance Matrix: (Units=1/GPa)
#
#
# Indices 1 2 3 4 5 6 
#
# 1 0.005407 -0.001607 -0.001350 -0.000509 -0.000703 0.000000
# 2 -0.001607 0.033757 -0.022699 0.015759 0.010853 -0.011531
# 3 -0.001350 -0.022699 0.034170 -0.012990 -0.008690 0.012736
# 4 -0.000509 0.015759 -0.012990 0.031525 0.004906 -0.008316
# 5 -0.000703 0.010853 -0.008690 0.004906 0.035265 -0.008684
# 6 0.000000 -0.011531 0.012736 -0.008316 -0.008684 0.040117
#
#
# Mechanical properties :
#
#
# Convention : Reuss Voigt Hill
#
# Bulk Modulus (GPa) = 45.41200 55.42386 50.41793
# Shear Modulus (GPa) = 20.92966 36.54096 28.73531
#
# Velocity S-wave (km/s) = 3.12392 4.12771 3.66039
# Velocity P-wave (km/s) = 5.84690 6.96849 6.43219
#
# Compressibility (1/GPa) = 0.02202061
#
# Stress axis : x y z
#
# Youngs Moduli (GPa) = 184.94313 29.62363 29.26523
#
# Poissons Ratio (x) = 0.04761 0.03952
# Poissons Ratio (y) = 0.29725 0.66430
# Poissons Ratio (z) = 0.24973 0.67243
#
# Static dielectric constant tensor:
#      x y z
#    x 1.707230 0.001840 0.000180 
#    y 0.001840 1.796540 -0.034170 
#    z 0.000180 -0.034170 1.774620 
# 
# From -- ./inp_files/283119.got.cif
#   From: 2010.05.17/outbox.cif.g08.bks.cpg/sg2_142_cif.got.tgz:283119.got - 2010.06.03 11:33:40.
