data_PCOD9070956
_publ_section_title
;
Structure prediction by ZEFSAII (Michael W. Deem and Ramdas Pophale) SiO2 
 PCOD9070956
Probable space group: P -1
;
_chemical_formula_sum "Si O2"
_cell_formula_units_Z 16
_cell_length_a 9.544459
_cell_length_b 9.246310
_cell_length_c 25.320433
_cell_angle_alpha 27.609576
_cell_angle_beta 43.809014
_cell_angle_gamma 51.492775
_cell_volume 715.904142
_symmetry_space_group_name_H-M "P -1"
_symmetry_group_IT_number 2
_symmetry_cell_setting 'triclinic'
loop_
_space_group_symop_operation_xyz
x,y,z
-x,-y,-z
loop_
_atom_site_type_symbol
_atom_site_label
_atom_site_fract_x
_atom_site_fract_y
_atom_site_fract_z
Si Si1 0.775358 0.509066 0.463109
Si Si2 0.754360 0.781998 0.723839
Si Si3 0.973311 0.696419 0.997727
Si Si4 0.512308 0.648434 0.132012
Si Si5 0.756974 0.317640 0.705710
Si Si6 0.511028 0.675122 0.571831
Si Si7 0.269058 0.372858 0.098900
Si Si8 0.120865 0.410817 0.709553
O O1 0.630612 0.711978 0.472057
O O2 0.770824 0.580707 0.379365
O O3 0.008920 0.573939 0.394874
O O4 0.723993 0.144336 0.605730
O O5 0.555313 0.584953 0.821212
O O6 0.797824 0.708204 0.796962
O O7 0.947295 0.660385 0.679200
O O8 0.017362 0.065966 0.856846
O O9 0.124307 0.597035 0.034698
O O10 0.000000 0.500000 0.000000
O O11 0.738941 0.623726 0.099376
O O12 0.354308 0.581410 0.243801
O O13 0.500000 0.000000 0.000000
O O14 0.641527 0.452558 0.643977
O O15 0.739328 0.945334 0.828906
O O16 0.291801 0.511028 0.673091
O O17 0.500000 0.000000 0.500000
O O18 0.500000 0.500000 0.000000
#
# Coordination Sequence:
#
# PCOD9070956 Si02
#       8
#     2   2   2   2   2   2   2   2
#     4  12  26  52  73 107 148 204 244 306 389 444
#     4  12  26  47  77 105 153 197 248 305 376 454
#     4  12  27  47  79 112 151 199 254 308 380 447
#     4  12  25  48  74 111 149 198 252 308 375 450
#     4  12  26  49  73 105 152 195 245 313 376 446
#     4  12  29  46  73 111 148 190 253 310 378 449
#     4  12  27  48  76 106 152 202 250 307 375 443
#     4  12  27  48  74 111 149 195 249 312 372 453
#
# _framework density 22.349360999999998
#
# number of rings (size 3 to 8) (size 9 to 14) (size 15 to 20)
#    0.000    0.000    3.750    5.625    7.000    1.500 
#    0.000    0.000    0.000    0.000    0.000    0.000 
#    0.000    0.000    0.000    0.000    0.000    0.000 
#
# Total GULP energy -89692.922761 kJ/mol
# GULP energy per Si atom -5605.807673 kJ/mol
# Density = 2.229849 g / cm^3
# Si number density = 22.349361 Si / 1000 Ang^3
#
#
#
# Elastic Constant Matrix: (Units=GPa)
#
#
# Indices 1 2 3 4 5 6 
#
# 1 137.5056 15.4929 27.2327 -4.7520 -29.2445 -1.7255
# 2 15.4929 110.0375 27.1295 -3.0586 -13.7543 3.6873
# 3 27.2327 27.1295 75.5710 -14.1125 -23.0467 2.7295
# 4 -4.7520 -3.0586 -14.1125 40.2129 5.1748 -3.8327
# 5 -29.2445 -13.7543 -23.0467 5.1748 46.5494 4.5193
# 6 -1.7255 3.6873 2.7295 -3.8327 4.5193 33.2740
#
#
#
# Elastic Compliance Matrix: (Units=1/GPa)
#
#
# Indices 1 2 3 4 5 6 
#
# 1 0.008583 -0.000238 -0.001660 -0.000171 0.004522 -0.000026
# 2 -0.000238 0.010107 -0.003186 -0.000673 0.001445 -0.001145
# 3 -0.001660 -0.003186 0.017919 0.004869 0.006495 -0.001524
# 4 -0.000171 -0.000673 0.004869 0.026935 -0.001174 0.002928
# 5 0.004522 0.001445 0.006495 -0.001174 0.028530 -0.004469
# 6 -0.000026 -0.001145 -0.001524 0.002928 -0.004469 0.031248
#
#
# Mechanical properties :
#
#
# Convention : Reuss Voigt Hill
#
# Bulk Modulus (GPa) = 37.81752 51.42493 44.62122
# Shear Modulus (GPa) = 35.13570 40.89120 38.01345
#
# Velocity S-wave (km/s) = 3.96929 4.28207 4.12864
# Velocity P-wave (km/s) = 6.16156 6.89258 6.53729
#
# Compressibility (1/GPa) = 0.02644277
#
# Stress axis : x y z
#
# Youngs Moduli (GPa) = 116.50356 98.93953 55.80551
#
# Poissons Ratio (x) = 0.02355 0.09261
# Poissons Ratio (y) = 0.02773 0.17780
# Poissons Ratio (z) = 0.19334 0.31523
#
# Static dielectric constant tensor:
#      x y z
#    x 1.844630 0.012320 0.027620 
#    y 0.012320 1.828360 0.034330 
#    z 0.027620 0.034330 1.817030 
# 
# From -- ./inp_files/606553.got.cif
#   From: 2010.05.17/outbox.cif.g08.bks.cpg/sg2_304_cif.got.tgz:606553.got - 2010.06.03 11:33:40.
