data_PCOD9070973
_publ_section_title
;
Structure prediction by ZEFSAII (Michael W. Deem and Ramdas Pophale) SiO2 
 PCOD9070973
Probable space group: P -1
;
_chemical_formula_sum "Si O2"
_cell_formula_units_Z 15
_cell_length_a 18.670465
_cell_length_b 11.935251
_cell_length_c 9.353239
_cell_angle_alpha 69.768190
_cell_angle_beta 50.699802
_cell_angle_gamma 30.453868
_cell_volume 702.982404
_symmetry_space_group_name_H-M "P -1"
_symmetry_group_IT_number 2
_symmetry_cell_setting 'triclinic'
loop_
_space_group_symop_operation_xyz
x,y,z
-x,-y,-z
loop_
_atom_site_type_symbol
_atom_site_label
_atom_site_fract_x
_atom_site_fract_y
_atom_site_fract_z
Si Si1 0.465139 0.924280 0.474682
Si Si2 0.967985 0.514443 0.203055
Si Si3 0.674390 0.760564 0.990621
Si Si4 0.717218 0.399927 0.424339
Si Si5 0.589334 0.335173 0.818318
Si Si6 0.000000 0.000000 0.000000
Si Si7 0.030447 0.761165 0.599346
Si Si8 0.216567 0.601840 0.132860
O O1 0.570828 0.834687 0.233029
O O2 0.562174 0.688482 0.504632
O O3 0.500000 0.000000 0.500000
O O4 0.227585 0.186816 0.640597
O O5 0.927759 0.422056 0.326671
O O6 0.161994 0.330250 0.128021
O O7 0.000000 0.500000 0.000000
O O8 0.786884 0.523881 0.877200
O O9 0.500000 0.000000 0.000000
O O10 0.621564 0.394985 0.625563
O O11 0.905580 0.228534 0.355629
O O12 0.796354 0.286131 0.215016
O O13 0.801524 0.039047 0.724382
O O14 0.500000 0.500000 0.000000
O O15 0.434672 0.410749 0.933856
O O16 0.937612 0.140128 0.870796
O O17 0.158961 0.653259 0.348353
#
# Coordination Sequence:
#
# PCOD9070973 Si02
#       8
#     2   2   2   2   2   1   2   2
#     4  12  25  49  76 112 151 195 256 313 383 458
#     4  12  27  46  80 112 148 207 257 311 394 465
#     4  12  27  48  74 112 153 195 249 325 382 449
#     4  12  25  49  79 109 154 198 253 326 372 464
#     4  12  26  44  76 109 140 205 257 300 381 457
#     4  12  26  50  72 110 154 196 246 314 390 434
#     4  12  25  48  76 106 148 198 254 315 379 462
#     4  12  27  48  72 108 155 191 250 321 381 455
#
# _framework density 21.337661000000001
#
# number of rings (size 3 to 8) (size 9 to 14) (size 15 to 20)
#    0.000    0.000    6.667    2.800    1.867    4.800 
#    0.000    0.000    0.000    0.000    0.000    0.000 
#    0.000    0.000    0.000    0.000    0.000    0.000 
#
# Total GULP energy -83723.069680 kJ/mol
# GULP energy per Si atom -5581.537979 kJ/mol
# Density = 2.128910 g / cm^3
# Si number density = 21.337661 Si / 1000 Ang^3
#
#
#
# Elastic Constant Matrix: (Units=GPa)
#
#
# Indices 1 2 3 4 5 6 
#
# 1 76.2239 19.4851 23.5533 -6.4971 -4.8688 -2.3403
# 2 19.4851 139.4942 41.0628 -4.5553 -5.5220 4.1863
# 3 23.5533 41.0628 71.6547 -2.7218 -2.3949 8.6642
# 4 -6.4971 -4.5553 -2.7218 42.7799 -1.6316 1.6505
# 5 -4.8688 -5.5220 -2.3949 -1.6316 42.6006 8.1779
# 6 -2.3403 4.1863 8.6642 1.6505 8.1779 28.0844
#
#
#
# Elastic Compliance Matrix: (Units=1/GPa)
#
#
# Indices 1 2 3 4 5 6 
#
# 1 0.015055 -0.000678 -0.004751 0.001855 0.000970 0.002430
# 2 -0.000678 0.008702 -0.004692 0.000564 0.000844 -0.000185
# 3 -0.004751 -0.004692 0.018960 0.000252 0.001051 -0.005867
# 4 0.001855 0.000564 0.000252 0.023865 0.001572 -0.001867
# 5 0.000970 0.000844 0.001051 0.001572 0.025317 -0.007834
# 6 0.002430 -0.000185 -0.005867 -0.001867 -0.007834 0.040038
#
#
# Mechanical properties :
#
#
# Convention : Reuss Voigt Hill
#
# Bulk Modulus (GPa) = 44.49314 50.61947 47.55630
# Shear Modulus (GPa) = 31.31419 36.24441 33.77930
#
# Velocity S-wave (km/s) = 3.83502 4.12589 3.98311
# Velocity P-wave (km/s) = 6.36452 6.81703 6.59466
#
# Compressibility (1/GPa) = 0.02247538
#
# Stress axis : x y z
#
# Youngs Moduli (GPa) = 66.42115 114.91569 52.74194
#
# Poissons Ratio (x) = 0.07796 0.25057
# Poissons Ratio (y) = 0.04506 0.24746
# Poissons Ratio (z) = 0.31556 0.53916
#
# Static dielectric constant tensor:
#      x y z
#    x 1.837750 -0.013900 -0.089060 
#    y -0.013900 1.787080 0.056410 
#    z -0.089060 0.056410 1.837010 
# 
# From -- ./inp_files/278999.got.cif
#   From: 2010.05.17/outbox.cif.g08.bks.cpg/sg2_140_cif.got.tgz:278999.got - 2010.06.03 11:33:40.
