data_PCOD9070967
_publ_section_title
;
Structure prediction by ZEFSAII (Michael W. Deem and Ramdas Pophale) SiO2 
 PCOD9070967
Probable space group: P -1
;
_chemical_formula_sum "Si O2"
_cell_formula_units_Z 13
_cell_length_a 14.309057
_cell_length_b 16.784819
_cell_length_c 5.179052
_cell_angle_alpha 103.983560
_cell_angle_beta 87.569159
_cell_angle_gamma 151.978715
_cell_volume 525.700335
_symmetry_space_group_name_H-M "P -1"
_symmetry_group_IT_number 2
_symmetry_cell_setting 'triclinic'
loop_
_space_group_symop_operation_xyz
x,y,z
-x,-y,-z
loop_
_atom_site_type_symbol
_atom_site_label
_atom_site_fract_x
_atom_site_fract_y
_atom_site_fract_z
Si Si1 0.259140 0.032923 0.103113
Si Si2 0.591884 0.528687 0.258878
Si Si3 0.156714 0.581957 0.256739
Si Si4 0.932944 0.038555 0.441337
Si Si5 0.500000 0.000000 0.500000
Si Si6 0.899207 0.252650 0.339967
Si Si7 0.326863 0.588469 0.866032
O O1 0.151374 0.005628 0.870458
O O2 0.148255 0.856005 0.948565
O O3 0.223834 0.046698 0.393621
O O4 0.511846 0.225458 0.163756
O O5 0.500000 0.500000 0.500000
O O6 0.548960 0.398995 0.130846
O O7 0.844050 0.738525 0.391500
O O8 0.500000 0.500000 0.000000
O O9 0.980744 0.403758 0.332838
O O10 0.349760 0.799276 0.436341
O O11 0.266877 0.586656 0.132890
O O12 0.000000 0.500000 0.000000
O O13 0.000000 0.000000 0.500000
O O14 0.682286 0.088009 0.400977
O O15 0.103489 0.393650 0.599938
#
# Coordination Sequence:
#
# PCOD9070967 Si02
#       7
#     2   2   2   2   1   2   2
#     4  12  27  48  78 114 158 212 268 330 396 482
#     4  12  26  46  75 115 158 205 266 329 389 472
#     4  12  28  49  78 114 154 208 268 338 408 492
#     4  12  25  48  75 113 160 209 269 330 402 471
#     4  12  26  52  74 114 152 206 264 330 416 482
#     4  12  28  50  79 113 161 208 272 333 409 491
#     4  12  27  48  77 112 159 211 264 330 407 473
#
# _framework density 24.728916000000002
#
# number of rings (size 3 to 8) (size 9 to 14) (size 15 to 20)
#    0.000    0.000    4.615    4.615    4.308    1.846 
#    0.000    0.000    0.000    0.000    0.000    0.000 
#    0.000    0.000    0.000    0.000    0.000    0.000 
#
# Total GULP energy -72488.717130 kJ/mol
# GULP energy per Si atom -5576.055164 kJ/mol
# Density = 2.467263 g / cm^3
# Si number density = 24.728916 Si / 1000 Ang^3
#
#
#
# Elastic Constant Matrix: (Units=GPa)
#
#
# Indices 1 2 3 4 5 6 
#
# 1 124.4863 37.3858 31.8953 -0.9602 -9.4888 -28.8876
# 2 37.3858 208.6094 18.6964 8.6328 -0.4418 -4.6974
# 3 31.8953 18.6964 53.4965 -11.6139 8.3207 -7.3997
# 4 -0.9602 8.6328 -11.6139 39.3134 -11.4013 -12.0833
# 5 -9.4888 -0.4418 8.3207 -11.4013 39.2061 3.2485
# 6 -28.8876 -4.6974 -7.3997 -12.0833 3.2485 58.3364
#
#
#
# Elastic Compliance Matrix: (Units=1/GPa)
#
#
# Indices 1 2 3 4 5 6 
#
# 1 0.011449 -0.001464 -0.005938 0.001525 0.004053 0.004889
# 2 -0.001464 0.005249 -0.001445 -0.002032 -0.000507 -0.000878
# 3 -0.005938 -0.001445 0.025229 0.006734 -0.005000 0.001817
# 4 0.001525 -0.002032 0.006734 0.032536 0.007736 0.007754
# 5 0.004053 -0.000507 -0.005000 0.007736 0.029686 0.001281
# 6 0.004889 -0.000878 0.001817 0.007754 0.001281 0.021257
#
#
# Mechanical properties :
#
#
# Convention : Reuss Voigt Hill
#
# Bulk Modulus (GPa) = 41.26647 62.50525 51.88586
# Shear Modulus (GPa) = 33.07355 47.27883 40.17619
#
# Velocity S-wave (km/s) = 3.66108 4.37725 4.03509
# Velocity P-wave (km/s) = 5.88176 7.13289 6.53733
#
# Compressibility (1/GPa) = 0.02423275
#
# Stress axis : x y z
#
# Youngs Moduli (GPa) = 87.34280 190.51865 39.63719
#
# Poissons Ratio (x) = 0.27895 0.23535
# Poissons Ratio (y) = 0.12788 0.05729
# Poissons Ratio (z) = 0.51860 0.27537
#
# Static dielectric constant tensor:
#      x y z
#    x 1.933470 -0.033890 0.084220 
#    y -0.033890 1.976340 -0.068240 
#    z 0.084220 -0.068240 1.978850 
# 
# From -- ./inp_files/78160.got.cif
#   From: 2010.05.17/outbox.cif.g08.bks.cpg/sg2_40_cif.got.tgz:78160.got - 2010.06.03 11:33:40.
