data_PCOD9070510
_publ_section_title
;
Structure prediction by ZEFSAII (Michael W. Deem and Ramdas Pophale) SiO2 
 PCOD9070510
Probable space group: P -1
;
_chemical_formula_sum "Si O2"
_cell_formula_units_Z 16
_cell_length_a 14.717283
_cell_length_b 12.634663
_cell_length_c 18.455870
_cell_angle_alpha 30.555579
_cell_angle_beta 151.638446
_cell_angle_gamma 130.194679
_cell_volume 733.555577
_symmetry_space_group_name_H-M "P -1"
_symmetry_group_IT_number 2
_symmetry_cell_setting 'triclinic'
loop_
_space_group_symop_operation_xyz
x,y,z
-x,-y,-z
loop_
_atom_site_type_symbol
_atom_site_label
_atom_site_fract_x
_atom_site_fract_y
_atom_site_fract_z
Si Si1 0.152407 0.586202 0.516413
Si Si2 0.008277 0.748161 0.645397
Si Si3 0.488939 0.917272 0.428554
Si Si4 0.352976 0.255142 0.714440
Si Si5 0.488378 0.407517 0.126523
Si Si6 0.973539 0.913662 0.920394
Si Si7 0.072540 0.430740 0.009909
Si Si8 0.428930 0.588373 0.478583
O O1 0.247401 0.426598 0.606744
O O2 0.340662 0.571246 0.711481
O O3 0.000000 0.500000 0.500000
O O4 0.020206 0.852880 0.238195
O O5 0.824557 0.753705 0.459270
O O6 0.243920 0.565148 0.889194
O O7 0.987176 0.648362 0.767401
O O8 0.000000 0.000000 0.500000
O O9 0.667150 0.721016 0.720889
O O10 0.508883 0.768630 0.457888
O O11 0.534613 0.136245 0.318339
O O12 0.254420 0.011571 0.244554
O O13 0.487505 0.363836 0.702180
O O14 0.500000 0.000000 0.000000
O O15 0.500000 0.500000 0.000000
O O16 0.000358 0.753734 0.963667
O O17 0.169263 0.745817 0.207551
O O18 0.000000 0.500000 0.000000
O O19 0.500000 0.500000 0.500000
#
# Coordination Sequence:
#
# PCOD9070510 Si02
#       8
#     2   2   2   2   2   2   2   2
#     4  12  28  47  76 112 149 198 253 316 381 454
#     4  12  28  48  75 106 155 202 251 312 386 454
#     4  12  25  46  81 106 147 198 256 316 370 445
#     4  12  28  49  72 109 157 201 248 314 386 455
#     4  12  27  48  76 111 149 198 257 311 381 455
#     4  12  24  49  75 107 147 196 261 310 372 448
#     4  12  26  46  77 112 151 194 257 315 377 448
#     4  12  28  46  75 112 150 200 254 315 379 452
#
# _framework density 21.811572000000002
#
# number of rings (size 3 to 8) (size 9 to 14) (size 15 to 20)
#    0.000    0.000    5.000    3.750    8.750    1.000 
#    0.000    0.000    0.000    0.000    0.000    0.000 
#    0.000    0.000    0.000    0.000    0.000    0.000 
#
# Total GULP energy -89630.003073 kJ/mol
# GULP energy per Si atom -5601.875192 kJ/mol
# Density = 2.176193 g / cm^3
# Si number density = 21.811572 Si / 1000 Ang^3
#
#
#
# Elastic Constant Matrix: (Units=GPa)
#
#
# Indices 1 2 3 4 5 6 
#
# 1 152.5926 67.3761 41.2804 -22.7725 -27.4361 -7.3876
# 2 67.3761 186.4355 62.1326 -26.0494 -15.9423 -17.5218
# 3 41.2804 62.1326 139.3222 -11.7419 -24.7385 2.5791
# 4 -22.7725 -26.0494 -11.7419 54.5775 8.9166 0.1238
# 5 -27.4361 -15.9423 -24.7385 8.9166 33.4356 0.7155
# 6 -7.3876 -17.5218 2.5791 0.1238 0.7155 41.9267
#
#
#
# Elastic Compliance Matrix: (Units=1/GPa)
#
#
# Indices 1 2 3 4 5 6 
#
# 1 0.008965 -0.002320 -0.000534 0.001634 0.005408 0.000546
# 2 -0.002320 0.007626 -0.002751 0.002230 -0.000961 0.002958
# 3 -0.000534 -0.002751 0.009534 -0.000370 0.005444 -0.001922
# 4 0.001634 0.002230 -0.000370 0.020538 -0.003373 0.001240
# 5 0.005408 -0.000961 0.005444 -0.003373 0.038824 -0.000436
# 6 0.000546 0.002958 -0.001922 0.001240 -0.000436 0.025305
#
#
# Mechanical properties :
#
#
# Convention : Reuss Voigt Hill
#
# Bulk Modulus (GPa) = 67.04579 91.10317 79.07448
# Shear Modulus (GPa) = 39.37840 46.49202 42.93521
#
# Velocity S-wave (km/s) = 4.25360 4.62186 4.44155
# Velocity P-wave (km/s) = 7.41144 8.38696 7.91424
#
# Compressibility (1/GPa) = 0.01491518
#
# Stress axis : x y z
#
# Youngs Moduli (GPa) = 111.54929 131.12228 104.89071
#
# Poissons Ratio (x) = 0.30419 0.05599
# Poissons Ratio (y) = 0.25878 0.28857
# Poissons Ratio (z) = 0.05955 0.36074
#
# Static dielectric constant tensor:
#      x y z
#    x 1.749720 0.012550 0.013400 
#    y 0.012550 1.817780 0.053330 
#    z 0.013400 0.053330 1.821570 
# 
# From -- ./inp_files/314495.got.cif
#   From: 2010.05.17/outbox.cif.g08.bks.cpg/sg2_158_cif.got.tgz:314495.got - 2010.06.03 11:33:40.
