data_PCOD9070342
_publ_section_title
;
Structure prediction by ZEFSAII (Michael W. Deem and Ramdas Pophale) SiO2 
 PCOD9070342
Probable space group: P -1
;
_chemical_formula_sum "Si O2"
_cell_formula_units_Z 14
_cell_length_a 10.910053
_cell_length_b 11.132339
_cell_length_c 7.002959
_cell_angle_alpha 97.604194
_cell_angle_beta 118.343143
_cell_angle_gamma 50.895866
_cell_volume 563.239535
_symmetry_space_group_name_H-M "P -1"
_symmetry_group_IT_number 2
_symmetry_cell_setting 'triclinic'
loop_
_space_group_symop_operation_xyz
x,y,z
-x,-y,-z
loop_
_atom_site_type_symbol
_atom_site_label
_atom_site_fract_x
_atom_site_fract_y
_atom_site_fract_z
Si Si1 0.705483 0.923010 0.069386
Si Si2 0.793590 0.578145 0.379704
Si Si3 0.067606 0.758915 0.505451
Si Si4 0.407738 0.351604 0.121524
Si Si5 0.384364 0.173260 0.357719
Si Si6 0.267227 0.806807 0.923943
Si Si7 0.700430 0.362011 0.710387
O O1 0.485265 0.216820 0.309956
O O2 0.715827 0.058037 0.040596
O O3 0.860749 0.830955 0.328373
O O4 0.748218 0.816973 0.892343
O O5 0.804489 0.427614 0.384186
O O6 0.704886 0.698754 0.514267
O O7 0.000000 0.500000 0.500000
O O8 0.692070 0.661645 0.125202
O O9 0.088553 0.848971 0.702029
O O10 0.150963 0.753622 0.363368
O O11 0.571488 0.326699 0.129600
O O12 0.265164 0.526219 0.144151
O O13 0.500000 0.000000 0.500000
O O14 0.500000 0.000000 0.000000
O O15 0.299478 0.735901 0.141970
O O16 0.500000 0.500000 0.500000
#
# Coordination Sequence:
#
# PCOD9070342 Si02
#       7
#     2   2   2   2   2   2   2
#     4  12  29  53  78 113 165 215 268 335 409 487
#     4  12  28  46  80 116 160 213 270 337 403 477
#     4  12  27  49  78 118 159 208 276 338 401 480
#     4  12  24  47  75 113 155 202 261 325 400 473
#     4  12  29  48  78 114 159 213 265 322 409 487
#     4  12  26  49  82 113 160 214 261 331 405 477
#     4  12  25  45  78 119 155 201 270 329 401 478
#
# _framework density 24.856211999999999
#
# number of rings (size 3 to 8) (size 9 to 14) (size 15 to 20)
#    0.000    0.000    5.714    3.429    6.000    1.714 
#    0.000    0.000    0.000    0.000    0.000    0.000 
#    0.000    0.000    0.000    0.000    0.000    0.000 
#
# Total GULP energy -78429.190047 kJ/mol
# GULP energy per Si atom -5602.085003 kJ/mol
# Density = 2.479964 g / cm^3
# Si number density = 24.856212 Si / 1000 Ang^3
#
#
#
# Elastic Constant Matrix: (Units=GPa)
#
#
# Indices 1 2 3 4 5 6 
#
# 1 120.4624 38.6109 67.8178 -9.9187 -9.1160 13.5071
# 2 38.6109 97.1410 42.2160 -0.7042 -11.0231 25.8290
# 3 67.8178 42.2160 165.5903 1.1105 1.2449 2.6545
# 4 -9.9187 -0.7042 1.1105 48.5138 12.0690 0.1142
# 5 -9.1160 -11.0231 1.2449 12.0690 63.2230 -9.4910
# 6 13.5071 25.8290 2.6545 0.1142 -9.4910 46.5003
#
#
#
# Elastic Compliance Matrix: (Units=1/GPa)
#
#
# Indices 1 2 3 4 5 6 
#
# 1 0.011890 -0.002294 -0.004277 0.002330 0.000683 -0.001802
# 2 -0.002294 0.014306 -0.002604 -0.000504 0.001280 -0.006869
# 3 -0.004277 -0.002604 0.008433 -0.000923 -0.000752 0.002056
# 4 0.002330 -0.000504 -0.000923 0.022137 -0.004147 -0.001245
# 5 0.000683 0.001280 -0.000752 -0.004147 0.017348 0.002685
# 6 -0.001802 -0.006869 0.002056 -0.001245 0.002685 0.026277
#
#
# Mechanical properties :
#
#
# Convention : Reuss Voigt Hill
#
# Bulk Modulus (GPa) = 61.42469 75.60925 68.51697
# Shear Modulus (GPa) = 40.26856 47.28400 43.77628
#
# Velocity S-wave (km/s) = 4.02936 4.36627 4.20120
# Velocity P-wave (km/s) = 6.81273 7.47688 7.15252
#
# Compressibility (1/GPa) = 0.01628010
#
# Stress axis : x y z
#
# Youngs Moduli (GPa) = 84.10621 69.90304 118.57944
#
# Poissons Ratio (x) = 0.16035 0.50711
# Poissons Ratio (y) = 0.19293 0.30875
# Poissons Ratio (z) = 0.35968 0.18201
#
# Static dielectric constant tensor:
#      x y z
#    x 1.998280 0.052300 0.010810 
#    y 0.052300 2.006230 -0.004030 
#    z 0.010810 -0.004030 1.967880 
# 
# From -- ./inp_files/77894.got.cif
#   From: 2010.05.17/outbox.cif.g08.bks.cpg/sg2_39_cif.got.tgz:77894.got - 2010.06.03 11:33:40.
