data_PCOD9070883
_publ_section_title
;
Structure prediction by ZEFSAII (Michael W. Deem and Ramdas Pophale) SiO2 
 PCOD9070883
Probable space group: P -1
;
_chemical_formula_sum "Si O2"
_cell_formula_units_Z 13
_cell_length_a 7.588817
_cell_length_b 13.367039
_cell_length_c 11.802733
_cell_angle_alpha 144.129956
_cell_angle_beta 131.196767
_cell_angle_gamma 64.730809
_cell_volume 512.134614
_symmetry_space_group_name_H-M "P -1"
_symmetry_group_IT_number 2
_symmetry_cell_setting 'triclinic'
loop_
_space_group_symop_operation_xyz
x,y,z
-x,-y,-z
loop_
_atom_site_type_symbol
_atom_site_label
_atom_site_fract_x
_atom_site_fract_y
_atom_site_fract_z
Si Si1 0.475898 0.811926 0.005695
Si Si2 0.734740 0.629189 0.770122
Si Si3 0.000000 0.500000 0.500000
Si Si4 0.737883 0.890519 0.818536
Si Si5 0.686638 0.700130 0.395290
Si Si6 0.152357 0.614197 0.067506
Si Si7 0.793868 0.971506 0.484765
O O1 0.663157 0.729622 0.940145
O O2 0.227646 0.669577 0.759479
O O3 0.560155 0.866570 0.218974
O O4 0.433466 0.991603 0.099572
O O5 0.500000 0.500000 0.500000
O O6 0.799688 0.758285 0.812570
O O7 0.961420 0.555974 0.832018
O O8 0.868723 0.598661 0.435040
O O9 0.620666 0.796842 0.569713
O O10 0.000000 0.000000 0.000000
O O11 0.419528 0.584039 0.141861
O O12 0.801433 0.844343 0.479460
O O13 0.199280 0.828688 0.290792
O O14 0.000000 0.500000 0.000000
O O15 0.000000 0.000000 0.500000
#
# Coordination Sequence:
#
# PCOD9070883 Si02
#       7
#     2   2   1   2   2   2   2
#     4  12  27  48  81 116 164 214 271 337 411 490
#     4  12  28  49  78 115 166 214 267 334 409 491
#     4  12  28  52  76 120 162 210 282 330 420 474
#     4  12  25  47  76 113 158 207 268 329 403 486
#     4  12  28  51  80 115 164 221 271 347 410 493
#     4  12  26  51  81 121 163 213 280 335 419 490
#     4  12  28  52  81 120 165 215 277 340 415 494
#
# _framework density 25.383949000000001
#
# number of rings (size 3 to 8) (size 9 to 14) (size 15 to 20)
#    0.000    0.000    4.615    4.615    2.154    1.846 
#    2.769    0.000    0.000    0.000    0.000    0.000 
#    0.000    0.000    0.000    0.000    0.000    0.000 
#
# Total GULP energy -72493.165199 kJ/mol
# GULP energy per Si atom -5576.397323 kJ/mol
# Density = 2.532617 g / cm^3
# Si number density = 25.383949 Si / 1000 Ang^3
#
#
#
# Elastic Constant Matrix: (Units=GPa)
#
#
# Indices 1 2 3 4 5 6 
#
# 1 145.0258 37.5879 26.0840 -42.8748 29.4009 43.8530
# 2 37.5879 234.3651 76.7470 -7.9298 14.8161 21.1024
# 3 26.0840 76.7470 159.7845 -9.7797 9.7034 -29.1784
# 4 -42.8748 -7.9298 -9.7797 81.4637 -33.2002 -14.5639
# 5 29.4009 14.8161 9.7034 -33.2002 66.7260 21.9426
# 6 43.8530 21.1024 -29.1784 -14.5639 21.9426 59.5511
#
#
#
# Elastic Compliance Matrix: (Units=1/GPa)
#
#
# Indices 1 2 3 4 5 6 
#
# 1 0.011411 0.000262 -0.003485 0.004172 0.000588 -0.009399
# 2 0.000262 0.005757 -0.003621 -0.000350 0.000347 -0.004220
# 3 -0.003485 -0.003621 0.010515 -0.000190 -0.002536 0.009889
# 4 0.004172 -0.000350 -0.000190 0.017108 0.007287 -0.001542
# 5 0.000588 0.000347 -0.002536 0.007287 0.021222 -0.007836
# 6 -0.009399 -0.004220 0.009889 -0.001542 -0.007836 0.032565
#
#
# Mechanical properties :
#
#
# Convention : Reuss Voigt Hill
#
# Bulk Modulus (GPa) = 71.46204 91.11259 81.28732
# Shear Modulus (GPa) = 42.76040 68.13192 55.44616
#
# Velocity S-wave (km/s) = 4.10877 5.18641 4.67872
# Velocity P-wave (km/s) = 7.12200 8.47566 7.82815
#
# Compressibility (1/GPa) = 0.01399344
#
# Stress axis : x y z
#
# Youngs Moduli (GPa) = 87.63687 173.70639 95.10373
#
# Poissons Ratio (x) = -0.04543 0.33145
# Poissons Ratio (y) = -0.02292 0.34436
# Poissons Ratio (z) = 0.30543 0.62897
#
# Static dielectric constant tensor:
#      x y z
#    x 1.997900 -0.027520 -0.068300 
#    y -0.027520 1.995530 -0.036680 
#    z -0.068300 -0.036680 2.192800 
# 
# From -- ./inp_files/377508.got.cif
#   From: 2010.05.17/outbox.cif.g08.bks.cpg/sg2_189_cif.got.tgz:377508.got - 2010.06.03 11:33:40.
