data_PCOD9070669
_publ_section_title
;
Structure prediction by ZEFSAII (Michael W. Deem and Ramdas Pophale) SiO2 
 PCOD9070669
Probable space group: P -1
;
_chemical_formula_sum "Si O2"
_cell_formula_units_Z 13
_cell_length_a 10.983607
_cell_length_b 10.480913
_cell_length_c 5.711917
_cell_angle_alpha 74.348003
_cell_angle_beta 63.038535
_cell_angle_gamma 90.410494
_cell_volume 557.885533
_symmetry_space_group_name_H-M "P -1"
_symmetry_group_IT_number 2
_symmetry_cell_setting 'triclinic'
loop_
_space_group_symop_operation_xyz
x,y,z
-x,-y,-z
loop_
_atom_site_type_symbol
_atom_site_label
_atom_site_fract_x
_atom_site_fract_y
_atom_site_fract_z
Si Si1 0.273733 0.489360 0.600535
Si Si2 0.500000 0.500000 0.000000
Si Si3 0.463241 0.926599 0.320947
Si Si4 0.186805 0.755890 0.725270
Si Si5 0.934985 0.844612 0.643727
Si Si6 0.998120 0.642019 0.303060
Si Si7 0.376050 0.281067 0.927749
O O1 0.241247 0.636098 0.602723
O O2 0.351523 0.427884 0.777818
O O3 0.125717 0.399355 0.750350
O O4 0.364117 0.484977 0.294450
O O5 0.464866 0.332873 0.050629
O O6 0.299875 0.882263 0.515121
O O7 0.539595 0.795961 0.289434
O O8 0.500000 0.000000 0.500000
O O9 0.500000 0.000000 0.000000
O O10 0.039690 0.787043 0.755894
O O11 0.149715 0.696801 0.044293
O O12 0.953905 0.760494 0.436037
O O13 0.772477 0.809488 0.861450
O O14 0.000000 0.000000 0.500000
O O15 0.000000 0.500000 0.500000
#
# Coordination Sequence:
#
# PCOD9070669 Si02
#       7
#     2   1   2   2   2   2   2
#     4  12  25  45  73 113 143 198 259 335 401 468
#     4  12  26  44  76 108 150 198 256 332 406 460
#     4  12  32  53  79 113 163 219 270 325 408 496
#     4  12  27  47  77 109 154 203 265 331 405 479
#     4  12  27  47  74 110 153 203 260 325 402 480
#     4  12  25  44  78 108 153 201 264 331 400 488
#     4  12  27  48  76 112 155 199 270 334 399 479
#
# _framework density 23.302271000000001
#
# number of rings (size 3 to 8) (size 9 to 14) (size 15 to 20)
#    0.000    0.000    6.154    2.769    6.462    1.846 
#    0.000    0.000    0.000    0.000    0.000    0.000 
#    0.000    0.000    0.000    0.000    0.000    0.000 
#
# Total GULP energy -72390.047986 kJ/mol
# GULP energy per Si atom -5568.465230 kJ/mol
# Density = 2.324923 g / cm^3
# Si number density = 23.302271 Si / 1000 Ang^3
#
#
#
# Elastic Constant Matrix: (Units=GPa)
#
#
# Indices 1 2 3 4 5 6 
#
# 1 36.2859 15.2657 30.2315 -6.9407 -26.2468 9.4600
# 2 15.2657 112.9938 16.9052 4.8224 -7.4342 4.9662
# 3 30.2315 16.9052 141.5813 -7.3691 -38.5805 7.1943
# 4 -6.9407 4.8224 -7.3691 37.9853 -0.3521 -11.0505
# 5 -26.2468 -7.4342 -38.5805 -0.3521 44.0065 -13.4449
# 6 9.4600 4.9662 7.1943 -11.0505 -13.4449 40.3510
#
#
#
# Elastic Compliance Matrix: (Units=1/GPa)
#
#
# Indices 1 2 3 4 5 6 
#
# 1 0.056087 -0.005728 -0.002351 0.011197 0.030923 0.001345
# 2 -0.005728 0.009742 -0.000826 -0.002906 -0.002975 -0.001496
# 3 -0.002351 -0.000826 0.009766 0.002247 0.007675 0.002084
# 4 0.011197 -0.002906 0.002247 0.032182 0.011459 0.009963
# 5 0.030923 -0.002975 0.007675 0.011459 0.051128 0.011922
# 6 0.001345 -0.001496 0.002084 0.009963 0.011922 0.030981
#
#
# Mechanical properties :
#
#
# Convention : Reuss Voigt Hill
#
# Bulk Modulus (GPa) = 17.30591 46.18509 31.74550
# Shear Modulus (GPa) = 22.03071 39.69913 30.86492
#
# Velocity S-wave (km/s) = 3.07812 4.13202 3.64338
# Velocity P-wave (km/s) = 4.48062 6.52900 5.59927
#
# Compressibility (1/GPa) = 0.05778372
#
# Stress axis : x y z
#
# Youngs Moduli (GPa) = 17.82960 102.65307 102.39363
#
# Poissons Ratio (x) = 0.58801 0.24074
# Poissons Ratio (y) = 0.10213 0.08458
# Poissons Ratio (z) = 0.04192 0.08480
#
# Static dielectric constant tensor:
#      x y z
#    x -3.037160 -0.688720 -3.300930 
#    y -0.688720 1.785190 -0.506390 
#    z -3.300930 -0.506390 -0.279750 
# 
# From -- ./inp_files/28970.got.cif
#   From: 2010.05.17/outbox.cif.g08.bks.cpg/sg2_15_cif.got.tgz:28970.got - 2010.06.03 11:33:40.
