data_PCOD9070330
_publ_section_title
;
Structure prediction by ZEFSAII (Michael W. Deem and Ramdas Pophale) SiO2 
 PCOD9070330
Probable space group: P -1
;
_chemical_formula_sum "Si O2"
_cell_formula_units_Z 14
_cell_length_a 19.916594
_cell_length_b 11.550434
_cell_length_c 14.913170
_cell_angle_alpha 41.009643
_cell_angle_beta 20.113814
_cell_angle_gamma 31.923077
_cell_volume 606.648258
_symmetry_space_group_name_H-M "P -1"
_symmetry_group_IT_number 2
_symmetry_cell_setting 'triclinic'
loop_
_space_group_symop_operation_xyz
x,y,z
-x,-y,-z
loop_
_atom_site_type_symbol
_atom_site_label
_atom_site_fract_x
_atom_site_fract_y
_atom_site_fract_z
Si Si1 0.588324 0.331236 0.406497
Si Si2 0.455604 0.618571 0.758693
Si Si3 0.783547 0.764243 0.107555
Si Si4 0.110744 0.521371 0.574790
Si Si5 0.862852 0.873013 0.141093
Si Si6 0.207547 0.031477 0.200581
Si Si7 0.260061 0.445861 0.227907
O O1 0.500000 0.500000 0.500000
O O2 0.519876 0.473383 0.317164
O O3 0.449779 0.220960 0.643628
O O4 0.883719 0.159412 0.148013
O O5 0.709153 0.499896 0.562850
O O6 0.351148 0.869467 0.718931
O O7 0.274674 0.618150 0.052728
O O8 0.791447 0.852839 0.142154
O O9 0.836303 0.873390 0.900274
O O10 0.000000 0.500000 0.000000
O O11 0.102937 0.318115 0.727477
O O12 0.241841 0.477797 0.339810
O O13 0.853979 0.772457 0.767696
O O14 0.000000 0.000000 0.500000
O O15 0.490455 0.796434 0.977917
O O16 0.000000 0.500000 0.500000
#
# Coordination Sequence:
#
# PCOD9070330 Si02
#       7
#     2   2   2   2   2   2   2
#     4  12  25  44  75 111 151 197 260 323 383 458
#     4  12  26  48  76 113 154 206 259 320 393 465
#     4  12  24  47  74 113 149 201 258 322 385 461
#     4  12  25  52  77 111 152 208 259 319 393 467
#     4  12  26  45  78 110 156 198 261 326 390 460
#     4  12  27  48  79 109 155 205 260 315 388 472
#     4  12  30  50  76 114 162 204 261 322 392 470
#
# _framework density 23.077622000000002
#
# number of rings (size 3 to 8) (size 9 to 14) (size 15 to 20)
#    0.000    0.000    5.714    3.000    6.000    0.571 
#    0.000    0.000    0.000    0.000    0.000    0.000 
#    0.000    0.000    0.000    0.000    0.000    0.000 
#
# Total GULP energy -78289.973925 kJ/mol
# GULP energy per Si atom -5592.140995 kJ/mol
# Density = 2.302510 g / cm^3
# Si number density = 23.077622 Si / 1000 Ang^3
#
#
#
# Elastic Constant Matrix: (Units=GPa)
#
#
# Indices 1 2 3 4 5 6 
#
# 1 146.3991 28.3503 73.1515 -3.2132 13.8147 1.1540
# 2 28.3503 120.1626 52.4178 1.5654 17.5379 -0.1693
# 3 73.1515 52.4178 148.6212 -8.1486 1.8347 -4.5201
# 4 -3.2132 1.5654 -8.1486 53.0561 -4.0313 10.0405
# 5 13.8147 17.5379 1.8347 -4.0313 57.3859 1.4450
# 6 1.1540 -0.1693 -4.5201 10.0405 1.4450 24.6854
#
#
#
# Elastic Compliance Matrix: (Units=1/GPa)
#
#
# Indices 1 2 3 4 5 6 
#
# 1 0.009338 0.000138 -0.004659 -0.000103 -0.002120 -0.001123
# 2 0.000138 0.010408 -0.003760 -0.001121 -0.003173 0.000018
# 3 -0.004659 -0.003760 0.010439 0.001308 0.001992 0.001455
# 4 -0.000103 -0.001121 0.001308 0.020806 0.001997 -0.008343
# 5 -0.002120 -0.003173 0.001992 0.001997 0.019020 -0.001483
# 6 -0.001123 0.000018 0.001455 -0.008343 -0.001483 0.044309
#
#
# Mechanical properties :
#
#
# Convention : Reuss Voigt Hill
#
# Bulk Modulus (GPa) = 73.40382 80.33579 76.86981
# Shear Modulus (GPa) = 36.92124 44.44302 40.68213
#
# Velocity S-wave (km/s) = 4.00418 4.39316 4.20317
# Velocity P-wave (km/s) = 7.29756 7.78588 7.54567
#
# Compressibility (1/GPa) = 0.01362327
#
# Stress axis : x y z
#
# Youngs Moduli (GPa) = 107.08493 96.08401 95.79271
#
# Poissons Ratio (x) = -0.01328 0.44627
# Poissons Ratio (y) = -0.01480 0.36022
# Poissons Ratio (z) = 0.49888 0.36132
#
# Static dielectric constant tensor:
#      x y z
#    x 2.309260 -0.088230 -0.016390 
#    y -0.088230 1.895630 0.005690 
#    z -0.016390 0.005690 1.929130 
# 
# From -- ./inp_files/541085.got.cif
#   From: 2010.05.17/outbox.cif.g08.bks.cpg/sg2_271_cif.got.tgz:541085.got - 2010.06.03 11:33:40.
