data_PCOD9070138
_publ_section_title
;
Structure prediction by ZEFSAII (Michael W. Deem and Ramdas Pophale) SiO2 
 PCOD9070138
Probable space group: P -1
;
_chemical_formula_sum "Si O2"
_cell_formula_units_Z 14
_cell_length_a 7.998389
_cell_length_b 17.512074
_cell_length_c 9.350297
_cell_angle_alpha 56.710262
_cell_angle_beta 127.430002
_cell_angle_gamma 148.944028
_cell_volume 535.244205
_symmetry_space_group_name_H-M "P -1"
_symmetry_group_IT_number 2
_symmetry_cell_setting 'triclinic'
loop_
_space_group_symop_operation_xyz
x,y,z
-x,-y,-z
loop_
_atom_site_type_symbol
_atom_site_label
_atom_site_fract_x
_atom_site_fract_y
_atom_site_fract_z
Si Si1 0.814081 0.059850 0.019127
Si Si2 0.589443 0.077783 0.616844
Si Si3 0.539001 0.780094 0.178258
Si Si4 0.186460 0.395687 0.056988
Si Si5 0.834994 0.794043 0.573499
Si Si6 0.556380 0.333776 0.057689
Si Si7 0.195822 0.647717 0.542274
O O1 0.740611 0.051452 0.823383
O O2 0.193885 0.228161 0.057376
O O3 0.500000 0.000000 0.000000
O O4 0.810462 0.953112 0.165234
O O5 0.833219 0.250908 0.576284
O O6 0.500000 0.000000 0.500000
O O7 0.209446 0.964299 0.596249
O O8 0.669182 0.740953 0.382576
O O9 0.509116 0.751403 0.024237
O O10 0.170298 0.699500 0.108691
O O11 0.153251 0.300516 0.246372
O O12 0.500000 0.500000 0.000000
O O13 0.284473 0.519223 0.070083
O O14 0.572929 0.764546 0.555979
O O15 0.801102 0.379565 0.261945
O O16 0.000000 0.500000 0.500000
#
# Coordination Sequence:
#
# PCOD9070138 Si02
#       7
#     2   2   2   2   2   2   2
#     4  12  24  45  78 111 152 206 260 321 388 471
#     4  12  26  50  79 118 155 201 262 323 388 467
#     4  12  26  49  75 114 152 202 262 326 397 463
#     4  12  26  48  74 110 154 203 261 322 391 462
#     4  12  26  49  79 111 157 207 263 315 393 476
#     4  12  26  47  74 109 161 201 256 330 393 460
#     4  12  27  48  79 114 156 207 262 318 389 471
#
# _framework density 26.156283999999999
#
# number of rings (size 3 to 8) (size 9 to 14) (size 15 to 20)
#    0.000    0.000    2.857    7.286    2.000    0.571 
#    0.000    0.000    0.000    0.000    0.000    0.000 
#    0.000    0.000    0.000    0.000    0.000    0.000 
#
# Total GULP energy -78321.776428 kJ/mol
# GULP energy per Si atom -5594.412602 kJ/mol
# Density = 2.609675 g / cm^3
# Si number density = 26.156284 Si / 1000 Ang^3
#
#
#
# Elastic Constant Matrix: (Units=GPa)
#
#
# Indices 1 2 3 4 5 6 
#
# 1 62.8648 35.4776 27.9645 -8.6672 -4.8634 -1.6570
# 2 35.4776 173.6105 63.3913 -20.1257 9.8170 -10.7889
# 3 27.9645 63.3913 179.8805 2.0924 -1.6028 -12.0037
# 4 -8.6672 -20.1257 2.0924 47.6642 -9.8293 7.2388
# 5 -4.8634 9.8170 -1.6028 -9.8293 43.2256 10.4615
# 6 -1.6570 -10.7889 -12.0037 7.2388 10.4615 46.6070
#
#
#
# Elastic Compliance Matrix: (Units=1/GPa)
#
#
# Indices 1 2 3 4 5 6 
#
# 1 0.019331 -0.003171 -0.002025 0.003413 0.004084 -0.002015
# 2 -0.003171 0.007632 -0.002159 0.002150 -0.001973 0.001207
# 3 -0.002025 -0.002159 0.006756 -0.001865 -0.000279 0.001520
# 4 0.003413 0.002150 -0.001865 0.024769 0.006721 -0.005217
# 5 0.004084 -0.001973 -0.000279 0.006721 0.027394 -0.007576
# 6 -0.002015 0.001207 0.001520 -0.005217 -0.007576 0.024566
#
#
# Mechanical properties :
#
#
# Convention : Reuss Voigt Hill
#
# Bulk Modulus (GPa) = 52.60919 74.44695 63.52807
# Shear Modulus (GPa) = 38.02427 46.80087 42.41257
#
# Velocity S-wave (km/s) = 3.81692 4.23458 4.03116
# Velocity P-wave (km/s) = 6.29144 7.24106 6.78289
#
# Compressibility (1/GPa) = 0.01900809
#
# Stress axis : x y z
#
# Youngs Moduli (GPa) = 51.72957 131.02442 148.02679
#
# Poissons Ratio (x) = 0.41552 0.29983
# Poissons Ratio (y) = 0.16405 0.31954
# Poissons Ratio (z) = 0.10478 0.28284
#
# Static dielectric constant tensor:
#      x y z
#    x 2.151200 0.007920 -0.028120 
#    y 0.007920 2.052730 0.009130 
#    z -0.028120 0.009130 2.056700 
# 
# From -- ./inp_files/217144.got.cif
#   From: 2010.05.17/outbox.cif.g08.bks.cpg/sg2_109_cif.got.tgz:217144.got - 2010.06.03 11:33:40.
