data_PCOD9070854
_publ_section_title
;
Structure prediction by ZEFSAII (Michael W. Deem and Ramdas Pophale) SiO2 
 PCOD9070854
Probable space group: P -1
;
_chemical_formula_sum "Si O2"
_cell_formula_units_Z 13
_cell_length_a 8.495138
_cell_length_b 16.750000
_cell_length_c 9.218441
_cell_angle_alpha 51.125702
_cell_angle_beta 32.213091
_cell_angle_gamma 64.467814
_cell_volume 528.340094
_symmetry_space_group_name_H-M "P -1"
_symmetry_group_IT_number 2
_symmetry_cell_setting 'triclinic'
loop_
_space_group_symop_operation_xyz
x,y,z
-x,-y,-z
loop_
_atom_site_type_symbol
_atom_site_label
_atom_site_fract_x
_atom_site_fract_y
_atom_site_fract_z
Si Si1 0.693703 0.488072 0.507822
Si Si2 0.376737 0.612291 0.797310
Si Si3 0.500000 0.000000 0.500000
Si Si4 0.752787 0.794358 0.504410
Si Si5 0.627392 0.245304 0.883500
Si Si6 0.458103 0.799831 0.325389
Si Si7 0.915325 0.070676 0.359531
O O1 0.500000 0.500000 0.500000
O O2 0.525784 0.516275 0.750755
O O3 0.738276 0.370093 0.623703
O O4 0.022996 0.568670 0.153770
O O5 0.550272 0.696229 0.683883
O O6 0.421820 0.680199 0.536645
O O7 0.344620 0.097352 0.570136
O O8 0.681569 0.003652 0.506630
O O9 0.107825 0.799206 0.193719
O O10 0.666066 0.768619 0.769969
O O11 0.569330 0.190486 0.835903
O O12 0.212343 0.841196 0.559583
O O13 0.788971 0.869835 0.027371
O O14 0.000000 0.000000 0.500000
#
# Coordination Sequence:
#
# PCOD9070854 Si02
#       7
#     2   2   1   2   2   2   2
#     4  12  26  45  79 108 146 198 251 299 378 446
#     4  12  26  47  74 107 148 195 241 308 366 447
#     4  12  28  50  80 106 152 200 254 302 394 440
#     4  12  29  48  72 111 150 191 246 313 377 441
#     4  12  27  47  76 110 149 193 248 309 366 452
#     4  12  25  47  74 105 151 188 246 307 368 439
#     4  12  27  47  75 112 145 199 253 315 374 451
#
# _framework density 24.605364000000002
#
# number of rings (size 3 to 8) (size 9 to 14) (size 15 to 20)
#    0.000    0.000    3.077    6.462    4.308    6.154 
#    0.000    0.000    0.000    0.000    0.000    0.000 
#    0.000    0.000    0.000    0.000    0.000    0.000 
#
# Total GULP energy -72659.373133 kJ/mol
# GULP energy per Si atom -5589.182549 kJ/mol
# Density = 2.454936 g / cm^3
# Si number density = 24.605364 Si / 1000 Ang^3
#
#
#
# Elastic Constant Matrix: (Units=GPa)
#
#
# Indices 1 2 3 4 5 6 
#
# 1 97.2627 86.7585 10.7579 45.0524 -2.3181 36.6183
# 2 86.7585 -28.5609 -83.3260 -127.5803 -42.7610 -75.9208
# 3 10.7579 -83.3260 33.0664 -47.7953 -34.1245 -45.3933
# 4 45.0524 -127.5803 -47.7953 -76.6302 -25.8690 -57.3095
# 5 -2.3181 -42.7610 -34.1245 -25.8690 19.0556 -15.7267
# 6 36.6183 -75.9208 -45.3933 -57.3095 -15.7267 6.7629
#
#
#
# Elastic Compliance Matrix: (Units=1/GPa)
#
#
# Indices 1 2 3 4 5 6 
#
# 1 0.010407 -0.000562 0.005786 -0.000022 0.010318 -0.000020
# 2 -0.000562 0.005708 -0.000238 -0.007919 -0.000281 -0.002235
# 3 0.005786 -0.000238 0.023160 -0.019000 0.018264 0.002923
# 4 -0.000022 -0.007919 -0.019000 0.030061 -0.022550 -0.014008
# 5 0.010318 -0.000281 0.018264 -0.022550 0.054441 -0.000918
# 6 -0.000020 -0.002235 0.002923 -0.014008 -0.000918 0.021666
#
#
# Mechanical properties :
#
#
# Convention : Reuss Voigt Hill
#
# Bulk Modulus (GPa) = 20.30607 14.46101 17.38354
# Shear Modulus (GPa) = 32.91944 -4.32382 14.29781
#
# Velocity S-wave (km/s) = 3.66170 -1.32706 2.41319
# Velocity P-wave (km/s) = 5.11351 1.88197 3.85291
#
# Compressibility (1/GPa) = 0.04924637
#
# Stress axis : x y z
#
# Youngs Moduli (GPa) = 96.09005 175.19697 43.17836
#
# Poissons Ratio (x) = 0.09850 -0.24982
# Poissons Ratio (y) = 0.05403 0.01026
# Poissons Ratio (z) = -0.55596 0.04163
#
# Static dielectric constant tensor:
#      x y z
#    x 1.942440 -0.014490 -0.001920 
#    y -0.014490 1.858290 -0.047650 
#    z -0.001920 -0.047650 1.920220 
# 
# From -- ./inp_files/205786.got.cif
#   From: 2010.05.17/outbox.cif.g08.bks.cpg/sg2_103_cif.got.tgz:205786.got - 2010.06.03 11:33:40.
