data_PCOD9070771
_publ_section_title
;
Structure prediction by ZEFSAII (Michael W. Deem and Ramdas Pophale) SiO2 
 PCOD9070771
Probable space group: P -1
;
_chemical_formula_sum "Si O2"
_cell_formula_units_Z 16
_cell_length_a 17.366094
_cell_length_b 9.138392
_cell_length_c 6.765004
_cell_angle_alpha 129.427252
_cell_angle_beta 108.636908
_cell_angle_gamma 63.651208
_cell_volume 742.020540
_symmetry_space_group_name_H-M "P -1"
_symmetry_group_IT_number 2
_symmetry_cell_setting 'triclinic'
loop_
_space_group_symop_operation_xyz
x,y,z
-x,-y,-z
loop_
_atom_site_type_symbol
_atom_site_label
_atom_site_fract_x
_atom_site_fract_y
_atom_site_fract_z
Si Si1 0.187696 0.564916 0.037012
Si Si2 0.361802 0.225361 0.010489
Si Si3 0.498640 0.797032 0.227739
Si Si4 0.841711 0.074783 0.977281
Si Si5 0.433076 0.447265 0.545771
Si Si6 0.940062 0.201855 0.527996
Si Si7 0.929590 0.661042 0.452641
Si Si8 0.329872 0.873122 0.895637
O O1 0.276113 0.404911 0.043036
O O2 0.194184 0.741946 0.049889
O O3 0.139583 0.434880 0.765278
O O4 0.133432 0.673572 0.276224
O O5 0.430039 0.235860 0.911489
O O6 0.343349 0.017900 0.857782
O O7 0.403796 0.269500 0.284023
O O8 0.524733 0.626147 0.270939
O O9 0.500000 0.000000 0.500000
O O10 0.405789 0.838176 0.088987
O O11 0.901361 0.143840 0.242721
O O12 0.763236 0.043962 0.010538
O O13 0.889725 0.870355 0.720123
O O14 0.500000 0.500000 0.500000
O O15 0.349352 0.645265 0.646334
O O16 0.009878 0.311253 0.647558
O O17 0.000000 0.000000 0.500000
O O18 0.000000 0.500000 0.500000
#
# Coordination Sequence:
#
# PCOD9070771 Si02
#       8
#     2   2   2   2   2   2   2   2
#     4  12  28  47  73 109 147 188 239 298 357 428
#     4  12  28  47  71 107 144 187 244 292 351 425
#     4  12  25  48  74 100 145 193 236 293 353 421
#     4  12  28  48  70 112 149 183 239 303 355 429
#     4  12  25  46  73 101 139 191 241 289 353 418
#     4  12  25  50  77 104 145 189 240 293 363 432
#     4  12  26  48  79 102 144 191 235 292 364 431
#     4  12  27  46  73 106 145 187 239 295 356 420
#
# _framework density 21.562746000000001
#
# number of rings (size 3 to 8) (size 9 to 14) (size 15 to 20)
#    0.000    0.000    5.000    4.500    7.000    2.000 
#    0.000    0.000    0.000    0.000    0.000    0.000 
#    0.000    0.000    0.000    0.000    0.000    0.000 
#
# Total GULP energy -89475.682077 kJ/mol
# GULP energy per Si atom -5592.230130 kJ/mol
# Density = 2.151367 g / cm^3
# Si number density = 21.562746 Si / 1000 Ang^3
#
#
#
# Elastic Constant Matrix: (Units=GPa)
#
#
# Indices 1 2 3 4 5 6 
#
# 1 91.3542 13.1822 17.3648 -5.6071 3.3387 -3.1554
# 2 13.1822 130.4260 20.4392 -12.0474 2.9789 6.7963
# 3 17.3648 20.4392 99.1576 5.8383 -0.0306 -9.4935
# 4 -5.6071 -12.0474 5.8383 32.3192 0.3289 -2.0769
# 5 3.3387 2.9789 -0.0306 0.3289 23.7590 0.7682
# 6 -3.1554 6.7963 -9.4935 -2.0769 0.7682 46.3855
#
#
#
# Elastic Compliance Matrix: (Units=1/GPa)
#
#
# Indices 1 2 3 4 5 6 
#
# 1 0.011630 -0.000660 -0.001971 0.002183 -0.001604 0.000609
# 2 -0.000660 0.008448 -0.001966 0.003302 -0.000966 -0.001521
# 3 -0.001971 -0.001966 0.011231 -0.002960 0.000504 0.002312
# 4 0.002183 0.003302 -0.002960 0.033134 -0.001202 0.000562
# 5 -0.001604 -0.000966 0.000504 -0.001202 0.042473 -0.000622
# 6 0.000609 -0.001521 0.002312 0.000562 -0.000622 0.022331
#
#
# Mechanical properties :
#
#
# Convention : Reuss Voigt Hill
#
# Bulk Modulus (GPa) = 45.21927 46.99002 46.10465
# Shear Modulus (GPa) = 34.29002 38.48951 36.38977
#
# Velocity S-wave (km/s) = 3.99211 4.22951 4.11252
# Velocity P-wave (km/s) = 6.50122 6.75953 6.63163
#
# Compressibility (1/GPa) = 0.02211446
#
# Stress axis : x y z
#
# Youngs Moduli (GPa) = 85.98448 118.36640 89.03699
#
# Poissons Ratio (x) = 0.07811 0.17553
# Poissons Ratio (y) = 0.05674 0.17507
# Poissons Ratio (z) = 0.16951 0.23274
#
# Static dielectric constant tensor:
#      x y z
#    x 1.658930 -0.044100 0.017300 
#    y -0.044100 1.716710 0.021770 
#    z 0.017300 0.021770 1.802920 
# 
# From -- ./inp_files/48742.got.cif
#   From: 2010.05.17/outbox.cif.g08.bks.cpg/sg2_25_cif.got.tgz:48742.got - 2010.06.03 11:33:40.
