data_PCOD9070612
_publ_section_title
;
Structure prediction by ZEFSAII (Michael W. Deem and Ramdas Pophale) SiO2 
 PCOD9070612
Probable space group: P -1
;
_chemical_formula_sum "Si O2"
_cell_formula_units_Z 16
_cell_length_a 8.774474
_cell_length_b 22.415974
_cell_length_c 6.144140
_cell_angle_alpha 130.371677
_cell_angle_beta 59.213218
_cell_angle_gamma 127.370229
_cell_volume 717.505330
_symmetry_space_group_name_H-M "P -1"
_symmetry_group_IT_number 2
_symmetry_cell_setting 'triclinic'
loop_
_space_group_symop_operation_xyz
x,y,z
-x,-y,-z
loop_
_atom_site_type_symbol
_atom_site_label
_atom_site_fract_x
_atom_site_fract_y
_atom_site_fract_z
Si Si1 0.448392 0.182118 0.944765
Si Si2 0.697320 0.344224 0.840173
Si Si3 0.953529 0.677392 0.714437
Si Si4 0.170410 0.260295 0.451890
Si Si5 0.178240 0.518757 0.576696
Si Si6 0.098327 0.004323 0.682467
Si Si7 0.172804 0.835011 0.251581
Si Si8 0.476372 0.403654 0.792220
O O1 0.570400 0.259721 0.874202
O O2 0.286494 0.095548 0.755597
O O3 0.610412 0.159207 0.889513
O O4 0.316200 0.214662 0.267162
O O5 0.554555 0.371735 0.866243
O O6 0.851867 0.324846 0.538618
O O7 0.830497 0.429326 0.082082
O O8 0.824701 0.704094 0.706410
O O9 0.824405 0.575362 0.614561
O O10 0.044500 0.757655 0.001862
O O11 0.258545 0.341565 0.738475
O O12 0.946035 0.199369 0.517871
O O13 0.374030 0.589981 0.494778
O O14 0.000000 0.500000 0.500000
O O15 0.159267 0.924740 0.437624
O O16 0.000000 0.000000 0.500000
O O17 0.000000 0.000000 0.000000
O O18 0.500000 0.500000 0.000000
#
# Coordination Sequence:
#
# PCOD9070612 Si02
#       8
#     2   2   2   2   2   2   2   2
#     4  12  26  51  77 113 151 203 253 317 393 470
#     4  12  26  46  72 106 149 202 259 315 387 463
#     4  12  26  44  76 106 148 200 258 321 384 460
#     4  12  26  46  72 106 154 191 256 315 383 457
#     4  12  25  43  67 103 146 198 258 314 381 458
#     4  12  29  54  87 121 162 204 260 328 399 478
#     4  12  27  51  78 113 152 201 253 320 391 468
#     4  12  27  41  66 105 149 202 256 318 385 456
#
# _framework density 22.299486000000002
#
# number of rings (size 3 to 8) (size 9 to 14) (size 15 to 20)
#    0.000    0.000    5.000    4.500    7.000    2.000 
#    0.000    1.875    0.000    0.000    0.000    0.000 
#    0.000    0.000    0.000    0.000    0.000    0.000 
#
# Total GULP energy -89284.000047 kJ/mol
# GULP energy per Si atom -5580.250003 kJ/mol
# Density = 2.224873 g / cm^3
# Si number density = 22.299486 Si / 1000 Ang^3
#
#
#
# Elastic Constant Matrix: (Units=GPa)
#
#
# Indices 1 2 3 4 5 6 
#
# 1 115.3198 33.9697 27.7663 15.4428 8.0589 -6.1511
# 2 33.9697 115.4007 46.2212 32.5957 16.2365 4.6026
# 3 27.7663 46.2212 110.9074 28.2016 3.7876 -4.0386
# 4 15.4428 32.5957 28.2016 40.9417 7.7317 -1.7661
# 5 8.0589 16.2365 3.7876 7.7317 37.6014 10.4350
# 6 -6.1511 4.6026 -4.0386 -1.7661 10.4350 44.9246
#
#
#
# Elastic Compliance Matrix: (Units=1/GPa)
#
#
# Indices 1 2 3 4 5 6 
#
# 1 0.009887 -0.002007 -0.001300 -0.000893 -0.001420 0.001737
# 2 -0.002007 0.012921 -0.003077 -0.006903 -0.003019 -0.001445
# 3 -0.001300 -0.003077 0.012018 -0.005564 0.001350 0.000685
# 4 -0.000893 -0.006903 -0.005564 0.034974 -0.004130 0.002419
# 5 -0.001420 -0.003019 0.001350 -0.004130 0.030886 -0.007100
# 6 0.001737 -0.001445 0.000685 0.002419 -0.007100 0.024451
#
#
# Mechanical properties :
#
#
# Convention : Reuss Voigt Hill
#
# Bulk Modulus (GPa) = 45.33446 61.94916 53.64181
# Shear Modulus (GPa) = 34.42156 40.27156 37.34656
#
# Velocity S-wave (km/s) = 3.93313 4.25425 4.09684
# Velocity P-wave (km/s) = 6.40313 7.20918 6.81808
#
# Compressibility (1/GPa) = 0.02205827
#
# Stress axis : x y z
#
# Youngs Moduli (GPa) = 101.14040 77.39580 83.20990
#
# Poissons Ratio (x) = 0.15533 0.10818
# Poissons Ratio (y) = 0.20299 0.25600
# Poissons Ratio (z) = 0.13149 0.23811
#
# Static dielectric constant tensor:
#      x y z
#    x 1.795330 -0.008690 -0.010400 
#    y -0.008690 1.877610 -0.104260 
#    z -0.010400 -0.104260 1.960780 
# 
# From -- ./inp_files/53909.got.cif
#   From: 2010.05.17/outbox.cif.g08.bks.cpg/sg2_27_cif.got.tgz:53909.got - 2010.06.03 11:33:40.
