data_PCOD9070284
_publ_section_title
;
Structure prediction by ZEFSAII (Michael W. Deem and Ramdas Pophale) SiO2 
 PCOD9070284
Probable space group: P -1
;
_chemical_formula_sum "Si O2"
_cell_formula_units_Z 13
_cell_length_a 8.759749
_cell_length_b 7.965106
_cell_length_c 9.398229
_cell_angle_alpha 101.350215
_cell_angle_beta 52.627011
_cell_angle_gamma 105.739576
_cell_volume 501.131678
_symmetry_space_group_name_H-M "P -1"
_symmetry_group_IT_number 2
_symmetry_cell_setting 'triclinic'
loop_
_space_group_symop_operation_xyz
x,y,z
-x,-y,-z
loop_
_atom_site_type_symbol
_atom_site_label
_atom_site_fract_x
_atom_site_fract_y
_atom_site_fract_z
Si Si1 0.775404 0.161015 0.036063
Si Si2 0.500000 0.000000 0.000000
Si Si3 0.488304 0.581803 0.863498
Si Si4 0.873129 0.574026 0.467876
Si Si5 0.166837 0.885917 0.389330
Si Si6 0.271966 0.976190 0.644285
Si Si7 0.813440 0.636878 0.218546
O O1 0.592490 0.233841 0.068717
O O2 0.726611 0.986401 0.940464
O O3 0.776542 0.102771 0.187168
O O4 0.962261 0.313995 0.948716
O O5 0.382551 0.945122 0.215409
O O6 0.692590 0.615837 0.668949
O O7 0.334804 0.448500 0.833603
O O8 0.500000 0.500000 0.000000
O O9 0.782985 0.512568 0.354883
O O10 0.000000 0.500000 0.500000
O O11 0.053375 0.723534 0.337849
O O12 0.183495 0.853566 0.543346
O O13 0.000000 0.000000 0.500000
O O14 0.226468 0.170302 0.688798
O O15 0.500000 0.000000 0.500000
#
# Coordination Sequence:
#
# PCOD9070284 Si02
#       7
#     2   1   2   2   2   2   2
#     4  12  26  47  75 109 145 197 250 318 380 456
#     4  12  24  46  82 106 150 188 262 312 378 442
#     4  12  30  48  73 106 151 203 258 314 380 458
#     4  12  27  47  74 105 150 199 250 311 382 456
#     4  12  25  49  75 110 149 195 257 309 384 450
#     4  12  26  44  74 106 146 193 245 314 377 449
#     4  12  27  50  71 109 150 201 253 312 384 455
#
# _framework density 25.941284
#
# number of rings (size 3 to 8) (size 9 to 14) (size 15 to 20)
#    0.000    0.000    4.615    4.154    8.615    0.000 
#    0.000    0.000    0.000    0.000    0.000    0.000 
#    0.000    0.000    0.000    0.000    0.000    0.000 
#
# Total GULP energy -72440.110375 kJ/mol
# GULP energy per Si atom -5572.316183 kJ/mol
# Density = 2.588224 g / cm^3
# Si number density = 25.941284 Si / 1000 Ang^3
#
#
#
# Elastic Constant Matrix: (Units=GPa)
#
#
# Indices 1 2 3 4 5 6 
#
# 1 188.6098 43.8416 71.4920 -4.3485 36.3034 8.0400
# 2 43.8416 64.6631 26.3577 -12.2169 5.0668 15.6392
# 3 71.4920 26.3577 124.6828 -19.2875 22.9643 -0.2929
# 4 -4.3485 -12.2169 -19.2875 32.7215 6.0374 1.4610
# 5 36.3034 5.0668 22.9643 6.0374 84.3309 -1.0113
# 6 8.0400 15.6392 -0.2929 1.4610 -1.0113 58.1095
#
#
#
# Elastic Compliance Matrix: (Units=1/GPa)
#
#
# Indices 1 2 3 4 5 6 
#
# 1 0.008016 -0.004216 -0.003689 -0.002311 -0.002027 0.000030
# 2 -0.004216 0.021350 -0.001080 0.006964 0.000264 -0.005339
# 3 -0.003689 -0.001080 0.011712 0.006347 -0.001983 0.000666
# 4 -0.002311 0.006964 0.006347 0.037420 -0.003861 -0.002531
# 5 -0.002027 0.000264 -0.001983 -0.003861 0.013538 0.000532
# 6 0.000030 -0.005339 0.000666 -0.002531 0.000532 0.018718
#
#
# Mechanical properties :
#
#
# Convention : Reuss Voigt Hill
#
# Bulk Modulus (GPa) = 43.27406 73.48202 58.37804
# Shear Modulus (GPa) = 36.65003 50.78335 43.71669
#
# Velocity S-wave (km/s) = 3.76281 4.42931 4.10959
# Velocity P-wave (km/s) = 5.96624 7.38554 6.71350
#
# Compressibility (1/GPa) = 0.02310853
#
# Stress axis : x y z
#
# Youngs Moduli (GPa) = 124.75257 46.83946 85.38001
#
# Poissons Ratio (x) = 0.19747 0.31496
# Poissons Ratio (y) = 0.52595 0.09218
# Poissons Ratio (z) = 0.46021 0.05057
#
# Static dielectric constant tensor:
#      x y z
#    x 2.122980 0.128340 0.067060 
#    y 0.128340 2.514920 0.112300 
#    z 0.067060 0.112300 2.065410 
# 
# From -- ./inp_files/152781.got.cif
#   From: 2010.05.17/outbox.cif.g08.bks.cpg/sg2_77_cif.got.tgz:152781.got - 2010.06.03 11:33:40.
