data_PCOD9070924
_publ_section_title
;
Structure prediction by ZEFSAII (Michael W. Deem and Ramdas Pophale) SiO2 
 PCOD9070924
Probable space group: P -1
;
_chemical_formula_sum "Si O2"
_cell_formula_units_Z 10
_cell_length_a 9.421786
_cell_length_b 18.108798
_cell_length_c 5.678573
_cell_angle_alpha 115.578559
_cell_angle_beta 112.876360
_cell_angle_gamma 26.758327
_cell_volume 393.445669
_symmetry_space_group_name_H-M "P -1"
_symmetry_group_IT_number 2
_symmetry_cell_setting 'triclinic'
loop_
_space_group_symop_operation_xyz
x,y,z
-x,-y,-z
loop_
_atom_site_type_symbol
_atom_site_label
_atom_site_fract_x
_atom_site_fract_y
_atom_site_fract_z
Si Si1 0.141218 0.135378 0.406904
Si Si2 0.624959 0.267145 0.148111
Si Si3 0.627231 0.180635 0.526067
Si Si4 0.717744 0.821343 0.820028
Si Si5 0.252738 0.584391 0.146699
O O1 0.049350 0.246294 0.310082
O O2 0.005734 0.112807 0.188962
O O3 0.921063 0.253769 0.649106
O O4 0.500000 0.000000 0.500000
O O5 0.532904 0.267577 0.336494
O O6 0.429779 0.441898 0.239822
O O7 0.556040 0.254784 0.836108
O O8 0.482935 0.156944 0.392666
O O9 0.000000 0.000000 0.500000
O O10 0.943374 0.682416 0.976553
O O11 0.500000 0.000000 0.000000
O O12 0.500000 0.500000 0.000000
#
# Coordination Sequence:
#
# PCOD9070924 Si02
#       5
#     2   2   2   2   2
#     4  12  25  47  84 112 153 213 274 317 379 483
#     4  12  28  51  78 117 163 205 258 333 407 456
#     4  12  29  50  79 114 164 206 260 332 401 467
#     4  12  27  49  81 114 152 212 273 318 387 483
#     4  12  27  48  81 117 160 206 266 330 393 466
#
# _framework density 25.416471000000001
#
# number of rings (size 3 to 8) (size 9 to 14) (size 15 to 20)
#    0.000    0.000    4.000    4.800    5.600    1.600 
#    0.000    0.000    0.000    0.000    0.000    0.000 
#    0.000    0.000    0.000    0.000    0.000    0.000 
#
# Total GULP energy -55855.441948 kJ/mol
# GULP energy per Si atom -5585.544195 kJ/mol
# Density = 2.535862 g / cm^3
# Si number density = 25.416471 Si / 1000 Ang^3
#
#
#
# Elastic Constant Matrix: (Units=GPa)
#
#
# Indices 1 2 3 4 5 6 
#
# 1 142.5134 19.1986 66.2903 -2.2104 11.0286 2.0907
# 2 19.1986 120.9281 50.8551 -14.0018 -0.4519 -3.5608
# 3 66.2903 50.8551 170.4173 -2.1946 11.2629 -9.8058
# 4 -2.2104 -14.0018 -2.1946 51.5360 -8.0838 -3.1602
# 5 11.0286 -0.4519 11.2629 -8.0838 57.3822 -18.3169
# 6 2.0907 -3.5608 -9.8058 -3.1602 -18.3169 41.2872
#
#
#
# Elastic Compliance Matrix: (Units=1/GPa)
#
#
# Indices 1 2 3 4 5 6 
#
# 1 0.008763 -0.000046 -0.003402 -0.000169 -0.001684 -0.002016
# 2 -0.000046 0.009868 -0.002925 0.002831 0.001374 0.000985
# 3 -0.003402 -0.002925 0.008184 -0.000583 -0.000556 0.001573
# 4 -0.000169 0.002831 -0.000583 0.021036 0.004291 0.003628
# 5 -0.001684 0.001374 -0.000556 0.004291 0.021672 0.010015
# 6 -0.002016 0.000985 0.001573 0.003628 0.010015 0.029502
#
#
# Mechanical properties :
#
#
# Convention : Reuss Voigt Hill
#
# Bulk Modulus (GPa) = 71.07234 78.50518 74.78876
# Shear Modulus (GPa) = 42.93337 49.87541 46.40439
#
# Velocity S-wave (km/s) = 4.11444 4.43462 4.27753
# Velocity P-wave (km/s) = 7.11304 7.56146 7.34068
#
# Compressibility (1/GPa) = 0.01407017
#
# Stress axis : x y z
#
# Youngs Moduli (GPa) = 114.12069 101.33256 122.19447
#
# Poissons Ratio (x) = 0.00464 0.41567
# Poissons Ratio (y) = 0.00523 0.35739
# Poissons Ratio (z) = 0.38821 0.29637
#
# Static dielectric constant tensor:
#      x y z
#    x 2.150770 -0.059400 -0.159700 
#    y -0.059400 2.053640 0.001020 
#    z -0.159700 0.001020 2.496750 
# 
# From -- ./inp_files/16691.got.cif
#   From: 2010.05.17/outbox.cif.g08.bks.cpg/sg2_9_cif.got.tgz:16691.got - 2010.06.03 11:33:40.
