data_PCOD9070595
_publ_section_title
;
Structure prediction by ZEFSAII (Michael W. Deem and Ramdas Pophale) SiO2 
 PCOD9070595
Probable space group: P -1
;
_chemical_formula_sum "Si O2"
_cell_formula_units_Z 12
_cell_length_a 19.798912
_cell_length_b 12.595526
_cell_length_c 5.124194
_cell_angle_alpha 107.684655
_cell_angle_beta 66.787926
_cell_angle_gamma 155.891048
_cell_volume 474.355922
_symmetry_space_group_name_H-M "P -1"
_symmetry_group_IT_number 2
_symmetry_cell_setting 'triclinic'
loop_
_space_group_symop_operation_xyz
x,y,z
-x,-y,-z
loop_
_atom_site_type_symbol
_atom_site_label
_atom_site_fract_x
_atom_site_fract_y
_atom_site_fract_z
Si Si1 0.622350 0.463269 0.864951
Si Si2 0.415619 0.027991 0.524684
Si Si3 0.102633 0.280332 0.015579
Si Si4 0.110732 0.003872 0.365273
Si Si5 0.256640 0.731796 0.045355
Si Si6 0.770585 0.077408 0.941506
O O1 0.588782 0.320617 0.592392
O O2 0.742371 0.578808 0.994137
O O3 0.426790 0.217259 0.080236
O O4 0.713607 0.693370 0.762672
O O5 0.279014 0.944115 0.710743
O O6 0.399165 0.956328 0.214014
O O7 0.345756 0.845632 0.711860
O O8 0.158146 0.485902 0.082419
O O9 0.947594 0.057789 0.296498
O O10 0.033187 0.153507 0.741374
O O11 0.125000 0.890872 0.212832
O O12 0.154426 0.709080 0.151822
#
# Coordination Sequence:
#
# PCOD9070595 Si02
#       6
#     2   2   2   2   2   2
#     4   9  23  45  63  90 121 166 208 248 299 363
#     4   8  20  37  67  87 117 154 209 255 288 351
#     4  12  26  39  64  91 131 161 194 255 309 369
#     4  12  25  41  62  94 125 163 201 249 309 362
#     4   9  20  40  59  96 118 158 202 250 308 355
#     4   8  23  40  68  88 119 161 208 257 292 356
#
# _framework density 25.297459
#
# number of rings (size 3 to 8) (size 9 to 14) (size 15 to 20)
#    2.000    0.000    0.000    2.500    2.333   10.000 
#    0.000    2.500    0.000    0.000    0.000    0.000 
#    0.000    0.000    0.000    0.000    0.000    0.000 
#
# Total GULP energy -67077.314853 kJ/mol
# GULP energy per Si atom -5589.776238 kJ/mol
# Density = 2.523988 g / cm^3
# Si number density = 25.297459 Si / 1000 Ang^3
#
#
#
# Elastic Constant Matrix: (Units=GPa)
#
#
# Indices 1 2 3 4 5 6 
#
# 1 114.8573 23.6044 14.6510 -8.8825 4.7291 -23.8890
# 2 23.6044 85.6604 18.0471 -1.2531 11.0610 -18.9247
# 3 14.6510 18.0471 90.1975 5.1901 14.2832 0.3525
# 4 -8.8825 -1.2531 5.1901 41.0509 -5.8796 5.9230
# 5 4.7291 11.0610 14.2832 -5.8796 25.5717 -6.7204
# 6 -23.8890 -18.9247 0.3525 5.9230 -6.7204 51.2152
#
#
#
# Elastic Compliance Matrix: (Units=1/GPa)
#
#
# Indices 1 2 3 4 5 6 
#
# 1 0.010216 -0.001702 -0.001653 0.001963 0.001297 0.004091
# 2 -0.001702 0.013887 -0.001869 -0.000822 -0.003800 0.003947
# 3 -0.001653 -0.001869 0.013073 -0.002812 -0.007413 -0.002199
# 4 0.001963 -0.000822 -0.002812 0.026364 0.007239 -0.001468
# 5 0.001297 -0.003800 -0.007413 0.007239 0.047537 0.004652
# 6 0.004091 0.003947 -0.002199 -0.001468 0.004652 0.023687
#
#
# Mechanical properties :
#
#
# Convention : Reuss Voigt Hill
#
# Bulk Modulus (GPa) = 37.41131 44.81335 41.11233
# Shear Modulus (GPa) = 32.44163 39.19507 35.81835
#
# Velocity S-wave (km/s) = 3.58496 3.94047 3.76691
# Velocity P-wave (km/s) = 5.65301 6.20130 5.93349
#
# Compressibility (1/GPa) = 0.02672989
#
# Stress axis : x y z
#
# Youngs Moduli (GPa) = 97.88194 72.00826 76.49093
#
# Poissons Ratio (x) = 0.12254 0.12646
# Poissons Ratio (y) = 0.16658 0.14293
# Poissons Ratio (z) = 0.16182 0.13455
#
# Static dielectric constant tensor:
#      x y z
#    x 2.042460 0.041540 -0.023790 
#    y 0.041540 1.991900 -0.022900 
#    z -0.023790 -0.022900 1.982320 
# 
# From -- ./inp_files/83041.got.cif
#   From: 2010.05.17/outbox.cif.g08.bks.cpg/sg2_42_cif.got.tgz:83041.got - 2010.06.03 11:33:40.
