data_PCOD9070800
_publ_section_title
;
Structure prediction by ZEFSAII (Michael W. Deem and Ramdas Pophale) SiO2 
 PCOD9070800
Probable space group: P -1
;
_chemical_formula_sum "Si O2"
_cell_formula_units_Z 14
_cell_length_a 8.816430
_cell_length_b 16.980255
_cell_length_c 10.196847
_cell_angle_alpha 150.043515
_cell_angle_beta 54.800362
_cell_angle_gamma 110.086565
_cell_volume 575.569868
_symmetry_space_group_name_H-M "P -1"
_symmetry_group_IT_number 2
_symmetry_cell_setting 'triclinic'
loop_
_space_group_symop_operation_xyz
x,y,z
-x,-y,-z
loop_
_atom_site_type_symbol
_atom_site_label
_atom_site_fract_x
_atom_site_fract_y
_atom_site_fract_z
Si Si1 0.520877 0.681693 0.221237
Si Si2 0.849515 0.635353 0.485116
Si Si3 0.834125 0.690612 0.862741
Si Si4 0.115357 0.881091 0.079642
Si Si5 0.469275 0.191957 0.329241
Si Si6 0.850481 0.235661 0.612939
Si Si7 0.290070 0.638555 0.860577
O O1 0.600355 0.748406 0.404292
O O2 0.295774 0.808848 0.476430
O O3 0.500000 0.500000 0.000000
O O4 0.661982 0.682340 0.030936
O O5 0.771514 0.729761 0.797677
O O6 0.685721 0.699873 0.545590
O O7 0.874827 0.440574 0.206440
O O8 0.044025 0.661415 0.373846
O O9 0.000000 0.500000 0.500000
O O10 0.941144 0.814048 0.036891
O O11 0.315533 0.790803 0.763370
O O12 0.210062 0.820749 0.089491
O O13 0.023822 0.078047 0.368831
O O14 0.500000 0.000000 0.000000
O O15 0.711779 0.339452 0.951433
O O16 0.500000 0.500000 0.500000
#
# Coordination Sequence:
#
# PCOD9070800 Si02
#       7
#     2   2   2   2   2   2   2
#     4  12  29  51  78 114 154 208 264 317 389 471
#     4  12  25  47  79 109 150 203 259 311 383 460
#     4  12  27  50  78 114 153 206 260 321 385 468
#     4  12  27  47  77 112 160 199 257 318 395 446
#     4  12  27  49  78 112 159 202 256 321 389 462
#     4  12  28  47  77 113 156 201 261 316 394 457
#     4  12  25  46  76 113 154 204 257 321 382 463
#
# _framework density 24.323720000000002
#
# number of rings (size 3 to 8) (size 9 to 14) (size 15 to 20)
#    0.000    0.000    4.286    5.143    4.000    2.857 
#    0.000    0.000    0.000    0.000    0.000    0.000 
#    0.000    0.000    0.000    0.000    0.000    0.000 
#
# Total GULP energy -78380.932488 kJ/mol
# GULP energy per Si atom -5598.638035 kJ/mol
# Density = 2.426836 g / cm^3
# Si number density = 24.323720 Si / 1000 Ang^3
#
#
#
# Elastic Constant Matrix: (Units=GPa)
#
#
# Indices 1 2 3 4 5 6 
#
# 1 126.6072 53.4335 34.9152 -25.3594 -3.4359 -8.6519
# 2 53.4335 131.8969 40.6277 -34.6983 0.3200 -4.9940
# 3 34.9152 40.6277 63.3686 -19.4757 -4.0154 -11.2955
# 4 -25.3594 -34.6983 -19.4757 52.8040 -3.4300 2.7118
# 5 -3.4359 0.3200 -4.0154 -3.4300 46.5414 -6.7932
# 6 -8.6519 -4.9940 -11.2955 2.7118 -6.7932 54.7616
#
#
#
# Elastic Compliance Matrix: (Units=1/GPa)
#
#
# Indices 1 2 3 4 5 6 
#
# 1 0.010388 -0.002647 -0.003209 0.002078 0.000768 0.000730
# 2 -0.002647 0.011176 -0.004480 0.004424 -0.000419 -0.000594
# 3 -0.003209 -0.004480 0.022422 0.003755 0.002566 0.003842
# 4 0.002078 0.004424 0.003755 0.024349 0.002327 0.000589
# 5 0.000768 -0.000419 0.002566 0.002327 0.022417 0.003278
# 6 0.000730 -0.000594 0.003842 0.000589 0.003278 0.019492
#
#
# Mechanical properties :
#
#
# Convention : Reuss Voigt Hill
#
# Bulk Modulus (GPa) = 42.89183 64.42505 53.65844
# Shear Modulus (GPa) = 36.05252 43.68117 39.86685
#
# Velocity S-wave (km/s) = 3.85411 4.24232 4.05286
# Velocity P-wave (km/s) = 6.12189 7.10917 6.63392
#
# Compressibility (1/GPa) = 0.02331446
#
# Stress axis : x y z
#
# Youngs Moduli (GPa) = 96.26895 89.47487 44.59905
#
# Poissons Ratio (x) = 0.23687 0.14310
# Poissons Ratio (y) = 0.25486 0.19979
# Poissons Ratio (z) = 0.30889 0.40082
#
# Static dielectric constant tensor:
#      x y z
#    x 1.982860 -0.004150 0.040120 
#    y -0.004150 2.042140 0.021440 
#    z 0.040120 0.021440 1.974800 
# 
# From -- ./inp_files/209163.got.cif
#   From: 2010.05.17/outbox.cif.g08.bks.cpg/sg2_105_cif.got.tgz:209163.got - 2010.06.03 11:33:40.
