data_PCOD9070405
_publ_section_title
;
Structure prediction by ZEFSAII (Michael W. Deem and Ramdas Pophale) SiO2 
 PCOD9070405
Probable space group: P -1
;
_chemical_formula_sum "Si O2"
_cell_formula_units_Z 12
_cell_length_a 15.268196
_cell_length_b 9.138428
_cell_length_c 19.200229
_cell_angle_alpha 141.739256
_cell_angle_beta 20.668689
_cell_angle_gamma 141.580784
_cell_volume 570.743897
_symmetry_space_group_name_H-M "P -1"
_symmetry_group_IT_number 2
_symmetry_cell_setting 'triclinic'
loop_
_space_group_symop_operation_xyz
x,y,z
-x,-y,-z
loop_
_atom_site_type_symbol
_atom_site_label
_atom_site_fract_x
_atom_site_fract_y
_atom_site_fract_z
Si Si1 0.132328 0.382756 0.111314
Si Si2 0.482792 0.953829 0.278189
Si Si3 0.021174 0.772519 0.448919
Si Si4 0.299203 0.606141 0.814320
Si Si5 0.529713 0.257000 0.111557
Si Si6 0.553763 0.147784 0.444120
O O1 0.085769 0.566773 0.274597
O O2 0.857664 0.222998 0.234821
O O3 0.319527 0.219143 0.937586
O O4 0.270441 0.541360 0.003518
O O5 0.236400 0.855303 0.377634
O O6 0.617508 0.215679 0.245295
O O7 0.425699 0.991442 0.415462
O O8 0.747643 0.683398 0.655294
O O9 0.000000 0.000000 0.500000
O O10 0.379278 0.753494 0.880939
O O11 0.446025 0.389212 0.620669
O O12 0.000000 0.500000 0.000000
O O13 0.500000 0.000000 0.000000
O O14 0.500000 0.000000 0.500000
#
# Coordination Sequence:
#
# PCOD9070405 Si02
#       6
#     2   2   2   2   2   2
#     4  12  25  48  71 104 145 185 239 293 351 417
#     4  12  26  44  73 105 141 190 235 290 354 424
#     4  12  24  48  71 106 145 184 237 290 353 422
#     4  12  25  44  70 106 141 185 241 289 350 422
#     4  12  25  44  75 102 144 188 230 295 353 414
#     4  12  26  49  73 103 145 187 238 297 351 417
#
# _framework density 21.025191
#
# number of rings (size 3 to 8) (size 9 to 14) (size 15 to 20)
#    0.000    0.000    5.000    4.500    2.333    0.667 
#    3.000    0.000    0.000    0.000    0.000    0.000 
#    0.000    0.000    0.000    0.000    0.000    0.000 
#
# Total GULP energy -67250.540269 kJ/mol
# GULP energy per Si atom -5604.211689 kJ/mol
# Density = 2.097734 g / cm^3
# Si number density = 21.025191 Si / 1000 Ang^3
#
#
#
# Elastic Constant Matrix: (Units=GPa)
#
#
# Indices 1 2 3 4 5 6 
#
# 1 137.2270 19.4618 42.4722 12.3653 -0.3212 10.8194
# 2 19.4618 55.7474 22.3767 7.8097 2.4800 -20.5665
# 3 42.4722 22.3767 99.1571 -1.1892 8.7568 -10.4271
# 4 12.3653 7.8097 -1.1892 60.9791 8.1506 0.1799
# 5 -0.3212 2.4800 8.7568 8.1506 37.8264 -1.2377
# 6 10.8194 -20.5665 -10.4271 0.1799 -1.2377 47.7518
#
#
#
# Elastic Compliance Matrix: (Units=1/GPa)
#
#
# Indices 1 2 3 4 5 6 
#
# 1 0.009453 -0.003119 -0.003946 -0.001774 0.001440 -0.004303
# 2 -0.003119 0.024560 -0.003121 -0.002604 -0.000006 0.010613
# 3 -0.003946 -0.003121 0.013025 0.001871 -0.003172 0.002305
# 4 -0.001774 -0.002604 0.001871 0.017679 -0.004103 -0.000484
# 5 0.001440 -0.000006 -0.003172 -0.004103 0.028058 -0.000279
# 6 -0.004303 0.010613 0.002305 -0.000484 -0.000279 0.026985
#
#
# Mechanical properties :
#
#
# Convention : Reuss Voigt Hill
#
# Bulk Modulus (GPa) = 37.50233 51.19477 44.34855
# Shear Modulus (GPa) = 33.55205 43.16619 38.35912
#
# Velocity S-wave (km/s) = 3.99908 4.53600 4.27598
# Velocity P-wave (km/s) = 6.26092 7.19971 6.74666
#
# Compressibility (1/GPa) = 0.02666501
#
# Stress axis : x y z
#
# Youngs Moduli (GPa) = 105.78137 40.71621 76.77813
#
# Poissons Ratio (x) = 0.12701 0.30298
# Poissons Ratio (y) = 0.32996 0.23963
# Poissons Ratio (z) = 0.41744 0.12708
#
# Static dielectric constant tensor:
#      x y z
#    x 1.732350 0.009380 0.008190 
#    y 0.009380 1.748670 -0.008050 
#    z 0.008190 -0.008050 1.727870 
# 
# From -- ./inp_files/28863.got.cif
#   From: 2010.05.17/outbox.cif.g08.bks.cpg/sg2_15_cif.got.tgz:28863.got - 2010.06.03 11:33:40.
