data_PCOD9070368
_publ_section_title
;
Structure prediction by ZEFSAII (Michael W. Deem and Ramdas Pophale) SiO2 
 PCOD9070368
Probable space group: P -1
;
_chemical_formula_sum "Si O2"
_cell_formula_units_Z 16
_cell_length_a 8.943479
_cell_length_b 8.764070
_cell_length_c 16.037258
_cell_angle_alpha 65.345325
_cell_angle_beta 45.356039
_cell_angle_gamma 89.081872
_cell_volume 734.404085
_symmetry_space_group_name_H-M "P -1"
_symmetry_group_IT_number 2
_symmetry_cell_setting 'triclinic'
loop_
_space_group_symop_operation_xyz
x,y,z
-x,-y,-z
loop_
_atom_site_type_symbol
_atom_site_label
_atom_site_fract_x
_atom_site_fract_y
_atom_site_fract_z
Si Si1 0.094537 0.514012 0.866249
Si Si2 0.609096 0.183106 0.859554
Si Si3 0.110919 0.814820 0.554623
Si Si4 0.500646 0.699549 0.439082
Si Si5 0.592389 0.801019 0.559659
Si Si6 0.244439 0.181036 0.861841
Si Si7 0.012278 0.303792 0.550496
Si Si8 0.262787 0.484200 0.135268
O O1 0.326446 0.701637 0.715076
O O2 0.178054 0.352191 0.859519
O O3 0.900514 0.496924 0.878065
O O4 0.000000 0.500000 0.000000
O O5 0.421901 0.178889 0.864399
O O6 0.842456 0.202904 0.716125
O O7 0.680105 0.359201 0.852272
O O8 0.500000 0.000000 0.000000
O O9 0.238802 0.678455 0.543792
O O10 0.076442 0.821255 0.468643
O O11 0.872878 0.713389 0.720863
O O12 0.269880 0.010881 0.487512
O O13 0.500000 0.500000 0.500000
O O14 0.607182 0.828646 0.448255
O O15 0.629468 0.792339 0.282940
O O16 0.724181 0.668420 0.550579
O O17 0.000000 0.000000 0.000000
O O18 0.000000 0.500000 0.500000
O O19 0.500000 0.500000 0.000000
#
# Coordination Sequence:
#
# PCOD9070368 Si02
#       8
#     2   2   2   2   2   2   2   2
#     4  12  28  48  73 107 154 201 249 310 384 456
#     4  12  28  48  75 111 150 197 256 316 382 452
#     4  12  26  48  74 112 150 196 256 312 378 451
#     4  12  24  47  78 108 146 195 260 311 372 444
#     4  12  28  44  78 111 149 199 255 316 375 447
#     4  12  27  48  77 109 149 201 255 315 377 454
#     4  12  25  48  78 106 147 198 255 315 373 452
#     4  12  28  47  74 108 156 198 247 312 386 455
#
# _framework density 21.786368
#
# number of rings (size 3 to 8) (size 9 to 14) (size 15 to 20)
#    0.000    0.000    5.000    3.750    8.750    1.000 
#    0.000    0.000    0.000    0.000    0.000    0.000 
#    0.000    0.000    0.000    0.000    0.000    0.000 
#
# Total GULP energy -89634.499023 kJ/mol
# GULP energy per Si atom -5602.156189 kJ/mol
# Density = 2.173678 g / cm^3
# Si number density = 21.786368 Si / 1000 Ang^3
#
#
#
# Elastic Constant Matrix: (Units=GPa)
#
#
# Indices 1 2 3 4 5 6 
#
# 1 138.7443 53.9451 65.4864 14.4628 -3.2440 21.7846
# 2 53.9451 103.1166 74.3646 6.3030 2.0177 33.2546
# 3 65.4864 74.3646 192.1196 14.9362 -1.1351 21.8143
# 4 14.4628 6.3030 14.9362 47.7073 3.1338 2.5662
# 5 -3.2440 2.0177 -1.1351 3.1338 42.7567 8.8294
# 6 21.7846 33.2546 21.8143 2.5662 8.8294 52.8513
#
#
#
# Elastic Compliance Matrix: (Units=1/GPa)
#
#
# Indices 1 2 3 4 5 6 
#
# 1 0.009766 -0.003342 -0.001722 -0.001992 0.001273 -0.001328
# 2 -0.003342 0.017268 -0.004724 0.000599 0.000337 -0.007623
# 3 -0.001722 -0.004724 0.007662 -0.001300 0.000280 0.000536
# 4 -0.001992 0.000599 -0.001300 0.022004 -0.001873 0.000226
# 5 0.001273 0.000337 0.000280 -0.001873 0.024620 -0.004874
# 6 -0.001328 -0.007623 0.000536 0.000226 -0.004874 0.024847
#
#
# Mechanical properties :
#
#
# Convention : Reuss Voigt Hill
#
# Bulk Modulus (GPa) = 66.13546 91.28586 78.71066
# Shear Modulus (GPa) = 38.23127 44.67533 41.45330
#
# Velocity S-wave (km/s) = 4.19361 4.53328 4.36675
# Velocity P-wave (km/s) = 7.33967 8.33020 7.85057
#
# Compressibility (1/GPa) = 0.01512048
#
# Stress axis : x y z
#
# Youngs Moduli (GPa) = 102.40102 57.91031 130.50685
#
# Poissons Ratio (x) = 0.19353 0.22473
# Poissons Ratio (y) = 0.34222 0.61649
# Poissons Ratio (z) = 0.17633 0.27356
#
# Static dielectric constant tensor:
#      x y z
#    x 1.854830 -0.017960 0.010670 
#    y -0.017960 1.787130 -0.005030 
#    z 0.010670 -0.005030 1.776490 
# 
# From -- ./inp_files/494615.got.cif
#   From: 2010.05.17/outbox.cif.g08.bks.cpg/sg2_248_cif.got.tgz:494615.got - 2010.06.03 11:33:40.
