data_PCOD9070241
_publ_section_title
;
Structure prediction by ZEFSAII (Michael W. Deem and Ramdas Pophale) SiO2 
 PCOD9070241
Probable space group: P -1
;
_chemical_formula_sum "Si O2"
_cell_formula_units_Z 14
_cell_length_a 9.518888
_cell_length_b 8.164668
_cell_length_c 9.620068
_cell_angle_alpha 64.650248
_cell_angle_beta 89.367536
_cell_angle_gamma 100.686161
_cell_volume 660.497727
_symmetry_space_group_name_H-M "P -1"
_symmetry_group_IT_number 2
_symmetry_cell_setting 'triclinic'
loop_
_space_group_symop_operation_xyz
x,y,z
-x,-y,-z
loop_
_atom_site_type_symbol
_atom_site_label
_atom_site_fract_x
_atom_site_fract_y
_atom_site_fract_z
Si Si1 0.885210 0.610092 0.399159
Si Si2 0.422170 0.631658 0.539120
Si Si3 0.452086 0.650070 0.851017
Si Si4 0.147105 0.020753 0.572178
Si Si5 0.668558 0.017813 0.689758
Si Si6 0.908682 0.138022 0.883889
Si Si7 0.135653 0.676988 0.910668
O O1 0.745159 0.460689 0.421770
O O2 0.839297 0.780138 0.422876
O O3 0.000000 0.500000 0.500000
O O4 0.965515 0.700333 0.230720
O O5 0.500000 0.500000 0.500000
O O6 0.480020 0.638942 0.691055
O O7 0.422970 0.825551 0.394437
O O8 0.281749 0.621497 0.882783
O O9 0.553791 0.846660 0.814764
O O10 0.500000 0.500000 0.000000
O O11 0.265441 0.014971 0.452166
O O12 0.122944 0.843728 0.741816
O O13 0.000000 0.000000 0.500000
O O14 0.800706 0.070237 0.780290
O O15 0.830983 0.220827 0.978611
O O16 0.000000 0.000000 0.000000
O O17 0.000000 0.500000 0.000000
#
# Coordination Sequence:
#
# PCOD9070241 Si02
#       7
#     2   2   2   2   2   2   2
#     4  12  25  45  75 112 143 189 249 302 364 428
#     4  12  27  48  75 105 148 194 245 301 361 447
#     4  12  31  49  73 108 150 195 244 307 372 434
#     4  12  24  46  77 107 146 193 243 305 359 443
#     4  12  27  50  74 109 148 195 249 296 373 441
#     4  12  26  45  74 109 147 187 244 307 361 432
#     4  12  29  48  75 107 149 195 246 304 369 429
#
# _framework density 21.196135000000002
#
# number of rings (size 3 to 8) (size 9 to 14) (size 15 to 20)
#    0.000    0.000    5.714    2.143   12.000    0.571 
#    0.000    0.000    0.000    0.000    0.000    0.000 
#    0.000    0.000    0.000    0.000    0.000    0.000 
#
# Total GULP energy -78187.842343 kJ/mol
# GULP energy per Si atom -5584.845882 kJ/mol
# Density = 2.114789 g / cm^3
# Si number density = 21.196135 Si / 1000 Ang^3
#
#
#
# Elastic Constant Matrix: (Units=GPa)
#
#
# Indices 1 2 3 4 5 6 
#
# 1 92.3649 35.2005 51.2837 -15.3668 0.9966 -8.0648
# 2 35.2005 96.4743 64.7029 -16.1121 7.6126 -7.5312
# 3 51.2837 64.7029 160.6881 -29.1772 15.9786 -7.7217
# 4 -15.3668 -16.1121 -29.1772 60.0937 -4.2980 -5.6682
# 5 0.9966 7.6126 15.9786 -4.2980 44.6025 -7.1983
# 6 -8.0648 -7.5312 -7.7217 -5.6682 -7.1983 49.1435
#
#
#
# Elastic Compliance Matrix: (Units=1/GPa)
#
#
# Indices 1 2 3 4 5 6 
#
# 1 0.014035 -0.002714 -0.003178 0.001615 0.001739 0.001829
# 2 -0.002714 0.014903 -0.004849 0.001020 -0.000466 0.001126
# 3 -0.003178 -0.004849 0.009899 0.002547 -0.002364 0.000238
# 4 0.001615 0.001020 0.002547 0.018951 0.001218 0.003186
# 5 0.001739 -0.000466 -0.002364 0.001218 0.023989 0.003497
# 6 0.001829 0.001126 0.000238 0.003186 0.003497 0.021738
#
#
# Mechanical properties :
#
#
# Convention : Reuss Voigt Hill
#
# Bulk Modulus (GPa) = 57.62200 72.43349 65.02775
# Shear Modulus (GPa) = 38.23106 43.99064 41.11085
#
# Velocity S-wave (km/s) = 4.25158 4.56061 4.40880
# Velocity P-wave (km/s) = 7.16557 7.87270 7.52744
#
# Compressibility (1/GPa) = 0.01735448
#
# Stress axis : x y z
#
# Youngs Moduli (GPa) = 71.24900 67.10130 101.02046
#
# Poissons Ratio (x) = 0.18213 0.32107
# Poissons Ratio (y) = 0.19338 0.48984
# Poissons Ratio (z) = 0.22645 0.32537
#
# Static dielectric constant tensor:
#      x y z
#    x 1.824230 -0.002390 -0.013420 
#    y -0.002390 2.008730 -0.077000 
#    z -0.013420 -0.077000 1.788970 
# 
# From -- ./inp_files/156593.got.cif
#   From: 2010.05.17/outbox.cif.g08.bks.cpg/sg2_79_cif.got.tgz:156593.got - 2010.06.03 11:33:40.
