data_PCOD9070660
_publ_section_title
;
Structure prediction by ZEFSAII (Michael W. Deem and Ramdas Pophale) SiO2 
 PCOD9070660
Probable space group: P -1
;
_chemical_formula_sum "Si O2"
_cell_formula_units_Z 14
_cell_length_a 12.608500
_cell_length_b 5.199323
_cell_length_c 12.129514
_cell_angle_alpha 73.352610
_cell_angle_beta 124.027388
_cell_angle_gamma 76.705750
_cell_volume 549.858044
_symmetry_space_group_name_H-M "P -1"
_symmetry_group_IT_number 2
_symmetry_cell_setting 'triclinic'
loop_
_space_group_symop_operation_xyz
x,y,z
-x,-y,-z
loop_
_atom_site_type_symbol
_atom_site_label
_atom_site_fract_x
_atom_site_fract_y
_atom_site_fract_z
Si Si1 0.838706 0.398386 0.648087
Si Si2 0.176139 0.142154 0.816222
Si Si3 0.670570 0.797344 0.888190
Si Si4 0.102325 0.642774 0.071929
Si Si5 0.629541 0.156413 0.593616
Si Si6 0.634419 0.041874 0.367546
Si Si7 0.169177 0.756306 0.660497
O O1 0.813218 0.511004 0.746694
O O2 0.777595 0.161907 0.642025
O O3 0.009057 0.256494 0.741241
O O4 0.750242 0.679917 0.479706
O O5 0.180362 0.426933 0.722405
O O6 0.211168 0.870307 0.783919
O O7 0.271222 0.101436 0.985672
O O8 0.785612 0.453276 0.953246
O O9 0.507637 0.852779 0.803338
O O10 0.661378 0.997141 0.750758
O O11 0.000000 0.500000 0.000000
O O12 0.000000 0.000000 0.000000
O O13 0.500000 0.500000 0.500000
O O14 0.578542 0.084436 0.456284
O O15 0.719674 0.223416 0.363757
O O16 0.000000 0.000000 0.500000
#
# Coordination Sequence:
#
# PCOD9070660 Si02
#       7
#     2   2   2   2   2   2   2
#     4  12  25  44  75 110 151 203 266 314 399 461
#     4  12  30  48  81 115 154 208 267 333 392 463
#     4  12  27  51  74 125 161 202 266 331 405 475
#     4  12  26  44  73 112 159 204 247 318 394 472
#     4  12  25  45  78 116 160 208 257 323 405 482
#     4  12  27  48  78 110 157 210 264 331 388 467
#     4  12  28  53  82 111 152 210 278 321 389 471
#
# _framework density 25.461117000000002
#
# number of rings (size 3 to 8) (size 9 to 14) (size 15 to 20)
#    0.000    0.000    5.714    3.429    4.000    2.286 
#    0.000    0.000    0.000    0.000    0.000    0.000 
#    0.000    0.000    0.000    0.000    0.000    0.000 
#
# Total GULP energy -78472.657946 kJ/mol
# GULP energy per Si atom -5605.189853 kJ/mol
# Density = 2.540317 g / cm^3
# Si number density = 25.461117 Si / 1000 Ang^3
#
#
#
# Elastic Constant Matrix: (Units=GPa)
#
#
# Indices 1 2 3 4 5 6 
#
# 1 126.8032 -2.2429 47.0678 6.0521 1.2955 21.6065
# 2 -2.2429 87.3686 43.4336 17.6164 -6.4610 7.0406
# 3 47.0678 43.4336 132.7085 24.4142 9.4929 -6.3246
# 4 6.0521 17.6164 24.4142 48.2433 0.0235 -10.3565
# 5 1.2955 -6.4610 9.4929 0.0235 55.2111 6.8697
# 6 21.6065 7.0406 -6.3246 -10.3565 6.8697 43.2321
#
#
#
# Elastic Compliance Matrix: (Units=1/GPa)
#
#
# Indices 1 2 3 4 5 6 
#
# 1 0.011529 0.004330 -0.005705 -0.001881 0.002227 -0.008106
# 2 0.004330 0.016845 -0.006799 -0.004911 0.004000 -0.007714
# 3 -0.005705 -0.006799 0.012680 -0.001947 -0.003577 0.005916
# 4 -0.001881 -0.004911 -0.001947 0.025402 -0.001168 0.007726
# 5 0.002227 0.004000 -0.003577 -0.001168 0.019856 -0.005723
# 6 -0.008106 -0.007714 0.005916 0.007726 -0.005723 0.032064
#
#
# Mechanical properties :
#
#
# Convention : Reuss Voigt Hill
#
# Bulk Modulus (GPa) = 40.47938 58.15527 49.31732
# Shear Modulus (GPa) = 34.97497 46.57874 40.77686
#
# Velocity S-wave (km/s) = 3.71032 4.28180 4.00626
# Velocity P-wave (km/s) = 5.85562 6.88008 6.38842
#
# Compressibility (1/GPa) = 0.02470393
#
# Stress axis : x y z
#
# Youngs Moduli (GPa) = 86.73858 59.36644 78.86443
#
# Poissons Ratio (x) = -0.25703 0.44996
# Poissons Ratio (y) = -0.37554 0.53618
# Poissons Ratio (z) = 0.49488 0.40362
#
# Static dielectric constant tensor:
#      x y z
#    x 1.985160 -0.003070 -0.024280 
#    y -0.003070 2.117060 0.003440 
#    z -0.024280 0.003440 2.069320 
# 
# From -- ./inp_files/410141.got.cif
#   From: 2010.05.17/outbox.cif.g08.bks.cpg/sg2_206_cif.got.tgz:410141.got - 2010.06.03 11:33:40.
