data_PCOD9070886
_publ_section_title
;
Structure prediction by ZEFSAII (Michael W. Deem and Ramdas Pophale) SiO2 
 PCOD9070886
Probable space group: P -1
;
_chemical_formula_sum "Si O2"
_cell_formula_units_Z 16
_cell_length_a 13.713383
_cell_length_b 30.062364
_cell_length_c 9.511027
_cell_angle_alpha 142.713563
_cell_angle_beta 151.923300
_cell_angle_gamma 24.789269
_cell_volume 773.463160
_symmetry_space_group_name_H-M "P -1"
_symmetry_group_IT_number 2
_symmetry_cell_setting 'triclinic'
loop_
_space_group_symop_operation_xyz
x,y,z
-x,-y,-z
loop_
_atom_site_type_symbol
_atom_site_label
_atom_site_fract_x
_atom_site_fract_y
_atom_site_fract_z
Si Si1 0.644570 0.593124 0.766093
Si Si2 0.634072 0.462423 0.920366
Si Si3 0.504350 0.970520 0.089475
Si Si4 0.322223 0.651090 0.795552
Si Si5 0.711948 0.069619 0.712801
Si Si6 0.166528 0.854335 0.207844
Si Si7 0.706597 0.758526 0.853885
Si Si8 0.725232 0.734237 0.150437
O O1 0.511685 0.568400 0.427004
O O2 0.506410 0.616342 0.801155
O O3 0.583371 0.691059 0.884425
O O4 0.000000 0.500000 0.000000
O O5 0.530612 0.561533 0.954075
O O6 0.500000 0.500000 0.000000
O O7 0.991258 0.357947 0.108980
O O8 0.650460 0.000524 0.431781
O O9 0.167430 0.043888 0.903781
O O10 0.500000 0.000000 0.000000
O O11 0.696030 0.847619 0.030686
O O12 0.066410 0.657853 0.443804
O O13 0.189552 0.763896 0.957412
O O14 0.752444 0.109341 0.724010
O O15 0.447716 0.167457 0.719209
O O16 0.000000 0.000000 0.000000
O O17 0.413992 0.801102 0.511263
O O18 0.701709 0.755540 0.008903
#
# Coordination Sequence:
#
# PCOD9070886 Si02
#       8
#     2   2   2   2   2   2   2   2
#     4  12  25  47  77 101 147 198 245 301 366 429
#     4  12  30  47  74 112 151 195 251 306 364 439
#     4  12  28  49  78 106 154 197 239 308 371 440
#     4  12  26  51  75 108 151 195 249 306 365 437
#     4  12  28  47  78 113 145 192 248 303 371 438
#     4  12  28  50  76 111 151 194 247 305 369 446
#     4  12  29  48  74 111 152 195 250 302 372 438
#     4  12  26  48  75 109 149 193 244 306 367 436
#
# _framework density 20.686181999999999
#
# number of rings (size 3 to 8) (size 9 to 14) (size 15 to 20)
#    0.000    0.000    6.250    2.250   12.250    1.500 
#    0.000    0.000    0.000    0.000    0.000    0.000 
#    0.000    0.000    0.000    0.000    0.000    0.000 
#
# Total GULP energy -89539.668238 kJ/mol
# GULP energy per Si atom -5596.229265 kJ/mol
# Density = 2.063910 g / cm^3
# Si number density = 20.686182 Si / 1000 Ang^3
#
#
#
# Elastic Constant Matrix: (Units=GPa)
#
#
# Indices 1 2 3 4 5 6 
#
# 1 154.4609 47.4526 7.4981 -8.5553 -5.7361 2.0045
# 2 47.4526 74.4187 2.8031 -13.3923 7.0563 14.9763
# 3 7.4981 2.8031 78.5344 -10.5494 0.9510 12.1010
# 4 -8.5553 -13.3923 -10.5494 44.4132 1.5068 6.6032
# 5 -5.7361 7.0563 0.9510 1.5068 31.4174 -3.3987
# 6 2.0045 14.9763 12.1010 6.6032 -3.3987 32.2513
#
#
#
# Elastic Compliance Matrix: (Units=1/GPa)
#
#
# Indices 1 2 3 4 5 6 
#
# 1 0.008649 -0.006837 -0.001409 -0.001425 0.003641 0.003841
# 2 -0.006837 0.022889 0.003289 0.008752 -0.008436 -0.014119
# 3 -0.001409 0.003289 0.014830 0.005584 -0.002624 -0.008424
# 4 -0.001425 0.008752 0.005584 0.028221 -0.005088 -0.012385
# 5 0.003641 -0.008436 -0.002624 -0.005088 0.035738 0.009483
# 6 0.003841 -0.014119 -0.008424 -0.012385 0.009483 0.044020
#
#
# Mechanical properties :
#
#
# Convention : Reuss Voigt Hill
#
# Bulk Modulus (GPa) = 27.43116 46.99131 37.21123
# Shear Modulus (GPa) = 28.34252 38.26040 33.30146
#
# Velocity S-wave (km/s) = 3.70553 4.30532 4.01664
# Velocity P-wave (km/s) = 5.62115 6.89057 6.28798
#
# Compressibility (1/GPa) = 0.03645489
#
# Stress axis : x y z
#
# Youngs Moduli (GPa) = 115.61531 43.68876 67.42918
#
# Poissons Ratio (x) = 0.29869 0.09502
# Poissons Ratio (y) = 0.79045 -0.22178
# Poissons Ratio (z) = 0.16292 -0.14369
#
# Static dielectric constant tensor:
#      x y z
#    x 1.689930 0.013300 -0.000880 
#    y 0.013300 1.739170 0.027200 
#    z -0.000880 0.027200 1.794410 
# 
# From -- ./inp_files/37279.got.cif
#   From: 2010.05.17/outbox.cif.g08.bks.cpg/sg2_19_cif.got.tgz:37279.got - 2010.06.03 11:33:40.
