data_PCOD9070468
_publ_section_title
;
Structure prediction by ZEFSAII (Michael W. Deem and Ramdas Pophale) SiO2 
 PCOD9070468
Probable space group: P -1
;
_chemical_formula_sum "Si O2"
_cell_formula_units_Z 16
_cell_length_a 13.902061
_cell_length_b 8.258494
_cell_length_c 9.257511
_cell_angle_alpha 112.069296
_cell_angle_beta 126.061091
_cell_angle_gamma 49.985266
_cell_volume 658.038071
_symmetry_space_group_name_H-M "P -1"
_symmetry_group_IT_number 2
_symmetry_cell_setting 'triclinic'
loop_
_space_group_symop_operation_xyz
x,y,z
-x,-y,-z
loop_
_atom_site_type_symbol
_atom_site_label
_atom_site_fract_x
_atom_site_fract_y
_atom_site_fract_z
Si Si1 0.528943 0.020194 0.868560
Si Si2 0.761624 0.119760 0.155066
Si Si3 0.057836 0.761187 0.147426
Si Si4 0.482909 0.300798 0.422549
Si Si5 0.210255 0.935559 0.490935
Si Si6 0.990712 0.707136 0.762601
Si Si7 0.240798 0.472007 0.720615
Si Si8 0.786720 0.597589 0.635311
O O1 0.380149 0.233416 0.755510
O O2 0.583282 0.787488 0.778260
O O3 0.646696 0.075450 0.980681
O O4 0.500000 0.000000 0.000000
O O5 0.770370 0.096369 0.330734
O O6 0.725233 0.351494 0.160606
O O7 0.911565 0.942464 0.154585
O O8 0.182794 0.776344 0.331994
O O9 0.113627 0.534316 0.185060
O O10 0.047824 0.771483 0.969988
O O11 0.500000 0.500000 0.500000
O O12 0.647335 0.110299 0.475600
O O13 0.379729 0.324827 0.469355
O O14 0.069182 0.153916 0.388582
O O15 0.845248 0.742407 0.708215
O O16 0.130531 0.492167 0.752101
O O17 0.167879 0.529712 0.517688
#
# Coordination Sequence:
#
# PCOD9070468 Si02
#       8
#     2   2   2   2   2   2   2   2
#     4  12  29  47  78 117 148 202 259 314 385 458
#     4  12  25  50  78 112 159 203 254 319 383 464
#     4  12  25  46  75 110 153 201 260 312 386 453
#     4  12  26  51  80 109 158 205 253 318 384 460
#     4  12  24  48  77 109 154 206 255 310 392 455
#     4  12  28  46  76 115 152 202 261 324 378 456
#     4  12  27  50  77 112 158 204 253 318 391 463
#     4  12  27  47  75 112 149 204 259 315 385 456
#
# _framework density 24.314703999999999
#
# number of rings (size 3 to 8) (size 9 to 14) (size 15 to 20)
#    0.000    0.000    5.000    4.125    3.500    3.000 
#    0.000    0.000    0.000    0.000    0.000    0.000 
#    0.000    0.000    0.000    0.000    0.000    0.000 
#
# Total GULP energy -89152.743873 kJ/mol
# GULP energy per Si atom -5572.046492 kJ/mol
# Density = 2.425936 g / cm^3
# Si number density = 24.314704 Si / 1000 Ang^3
#
#
#
# Elastic Constant Matrix: (Units=GPa)
#
#
# Indices 1 2 3 4 5 6 
#
# 1 137.1026 35.0848 52.2614 -3.0410 -3.2137 -23.5914
# 2 35.0848 78.3684 45.2244 -0.7443 -13.3920 -1.8795
# 3 52.2614 45.2244 108.6904 18.3653 1.5273 -7.2990
# 4 -3.0410 -0.7443 18.3653 28.5928 -6.7158 1.0739
# 5 -3.2137 -13.3920 1.5273 -6.7158 33.0760 5.4296
# 6 -23.5914 -1.8795 -7.2990 1.0739 5.4296 38.0737
#
#
#
# Elastic Compliance Matrix: (Units=1/GPa)
#
#
# Indices 1 2 3 4 5 6 
#
# 1 0.010545 -0.001813 -0.004627 0.003943 0.000421 0.005387
# 2 -0.001813 0.021361 -0.010081 0.009699 0.011551 -0.003922
# 3 -0.004627 -0.010081 0.018333 -0.014627 -0.008642 0.001795
# 4 0.003943 0.009699 -0.014627 0.048803 0.015463 -0.003464
# 5 0.000421 0.011551 -0.008642 0.015463 0.039625 -0.006913
# 6 0.005387 -0.003922 0.001795 -0.003464 -0.006913 0.030837
#
#
# Mechanical properties :
#
#
# Convention : Reuss Voigt Hill
#
# Bulk Modulus (GPa) = 58.14224 65.47805 61.81015
# Shear Modulus (GPa) = 24.00637 32.72122 28.36380
#
# Velocity S-wave (km/s) = 3.14557 3.67241 3.41915
# Velocity P-wave (km/s) = 6.09566 6.70597 6.40809
#
# Compressibility (1/GPa) = 0.01719920
#
# Stress axis : x y z
#
# Youngs Moduli (GPa) = 94.82734 46.81375 54.54578
#
# Poissons Ratio (x) = 0.08486 0.25237
# Poissons Ratio (y) = 0.17189 0.54988
# Poissons Ratio (z) = 0.43874 0.47193
#
# Static dielectric constant tensor:
#      x y z
#    x 2.189610 -0.107340 -0.118120 
#    y -0.107340 2.408860 0.335680 
#    z -0.118120 0.335680 2.239380 
# 
# From -- ./inp_files/245213.got.cif
#   From: 2010.05.17/outbox.cif.g08.bks.cpg/sg2_123_cif.got.tgz:245213.got - 2010.06.03 11:33:40.
