data_PCOD9070486
_publ_section_title
;
Structure prediction by ZEFSAII (Michael W. Deem and Ramdas Pophale) SiO2 
 PCOD9070486
Probable space group: P -1
;
_chemical_formula_sum "Si O2"
_cell_formula_units_Z 12
_cell_length_a 12.071570
_cell_length_b 14.830152
_cell_length_c 4.903247
_cell_angle_alpha 112.753226
_cell_angle_beta 63.324952
_cell_angle_gamma 147.177812
_cell_volume 425.072425
_symmetry_space_group_name_H-M "P -1"
_symmetry_group_IT_number 2
_symmetry_cell_setting 'triclinic'
loop_
_space_group_symop_operation_xyz
x,y,z
-x,-y,-z
loop_
_atom_site_type_symbol
_atom_site_label
_atom_site_fract_x
_atom_site_fract_y
_atom_site_fract_z
Si Si1 0.650538 0.516236 0.707092
Si Si2 0.000000 0.000000 0.500000
Si Si3 0.558101 0.800693 0.208149
Si Si4 0.146894 0.620339 0.230446
Si Si5 0.090577 0.261572 0.840324
Si Si6 0.000000 0.000000 0.000000
Si Si7 0.695700 0.074248 0.724899
O O1 0.535915 0.339334 0.642521
O O2 0.734073 0.600761 0.419209
O O3 0.500000 0.500000 0.000000
O O4 0.845846 0.642157 0.845477
O O5 0.897780 0.848822 0.222393
O O6 0.955640 0.046858 0.356148
O O7 0.369090 0.704175 0.096207
O O8 0.763741 0.877909 0.937274
O O9 0.613235 0.936454 0.457037
O O10 0.199088 0.767363 0.355414
O O11 0.000000 0.500000 0.500000
O O12 0.000000 0.500000 0.000000
O O13 0.861540 0.146167 0.857201
O O14 0.500000 0.000000 0.000000
#
# Coordination Sequence:
#
# PCOD9070486 Si02
#       7
#     2   1   2   2   2   1   2
#     4  12  28  50  80 124 159 218 265 341 421 494
#     4  12  24  48  80 114 164 214 264 336 412 490
#     4  12  28  53  85 121 173 209 287 337 427 496
#     4  12  28  54  84 118 166 218 281 345 411 493
#     4  12  27  50  81 114 170 207 282 334 415 489
#     4  12  28  48  82 122 160 220 256 352 408 498
#     4  12  29  52  86 125 163 229 280 346 418 499
#
# _framework density 28.230481999999999
#
# number of rings (size 3 to 8) (size 9 to 14) (size 15 to 20)
#    0.000    0.000    1.667    7.000    2.333    5.333 
#    0.000    0.000    0.000    0.000    0.000    0.000 
#    0.000    0.000    0.000    0.000    0.000    0.000 
#
# Total GULP energy -67134.071884 kJ/mol
# GULP energy per Si atom -5594.505990 kJ/mol
# Density = 2.816623 g / cm^3
# Si number density = 28.230482 Si / 1000 Ang^3
#
#
#
# Elastic Constant Matrix: (Units=GPa)
#
#
# Indices 1 2 3 4 5 6 
#
# 1 187.6531 95.3921 63.4765 -4.7061 -10.6917 32.4364
# 2 95.3921 217.3181 61.0871 13.8176 -19.5889 -29.5197
# 3 63.4765 61.0871 110.7859 -4.1117 10.7003 -3.2196
# 4 -4.7061 13.8176 -4.1117 41.3902 -1.0186 -10.2176
# 5 -10.6917 -19.5889 10.7003 -1.0186 73.4702 -1.3771
# 6 32.4364 -29.5197 -3.2196 -10.2176 -1.3771 92.9837
#
#
#
# Elastic Compliance Matrix: (Units=1/GPa)
#
#
# Indices 1 2 3 4 5 6 
#
# 1 0.009149 -0.003632 -0.003410 0.000858 0.000790 -0.004357
# 2 -0.003632 0.007611 -0.002283 -0.002301 0.001865 0.003379
# 3 -0.003410 -0.002283 0.012617 0.001818 -0.002897 0.001059
# 4 0.000858 -0.002301 0.001818 0.025653 -0.000363 0.001847
# 5 0.000790 0.001865 -0.002897 -0.000363 0.014647 0.000393
# 6 -0.004357 0.003379 0.001059 0.001847 0.000393 0.013593
#
#
# Mechanical properties :
#
#
# Convention : Reuss Voigt Hill
#
# Bulk Modulus (GPa) = 93.22814 106.18540 99.70677
# Shear Modulus (GPa) = 47.39541 61.28889 54.34215
#
# Velocity S-wave (km/s) = 4.10185 4.66447 4.39218
# Velocity P-wave (km/s) = 7.45179 8.16732 7.81775
#
# Compressibility (1/GPa) = 0.01072637
#
# Stress axis : x y z
#
# Youngs Moduli (GPa) = 109.30716 131.38822 79.25840
#
# Poissons Ratio (x) = 0.47726 0.27027
# Poissons Ratio (y) = 0.39705 0.18093
# Poissons Ratio (z) = 0.37273 0.29992
#
# Static dielectric constant tensor:
#      x y z
#    x 2.708170 -0.169320 0.351990 
#    y -0.169320 2.610790 -0.066870 
#    z 0.351990 -0.066870 2.165290 
# 
# From -- ./inp_files/76636.got.cif
#   From: 2010.05.17/outbox.cif.g08.bks.cpg/sg2_39_cif.got.tgz:76636.got - 2010.06.03 11:33:40.
