data_PCOD9070094
_publ_section_title
;
Structure prediction by ZEFSAII (Michael W. Deem and Ramdas Pophale) SiO2 
 PCOD9070094
Probable space group: P -1
;
_chemical_formula_sum "Si O2"
_cell_formula_units_Z 15
_cell_length_a 11.923740
_cell_length_b 9.595595
_cell_length_c 9.344222
_cell_angle_alpha 118.173833
_cell_angle_beta 66.468060
_cell_angle_gamma 131.767564
_cell_volume 697.065770
_symmetry_space_group_name_H-M "P -1"
_symmetry_group_IT_number 2
_symmetry_cell_setting 'triclinic'
loop_
_space_group_symop_operation_xyz
x,y,z
-x,-y,-z
loop_
_atom_site_type_symbol
_atom_site_label
_atom_site_fract_x
_atom_site_fract_y
_atom_site_fract_z
Si Si1 0.241304 0.017289 0.514005
Si Si2 0.978854 0.430818 0.638708
Si Si3 0.318678 0.622353 0.562414
Si Si4 0.012069 0.025054 0.834279
Si Si5 0.105318 0.452281 0.003352
Si Si6 0.440827 0.779483 0.888480
Si Si7 0.500000 0.000000 0.500000
Si Si8 0.699967 0.743009 0.687437
O O1 0.146196 0.799547 0.390640
O O2 0.396382 0.068392 0.524361
O O3 0.268391 0.159554 0.438919
O O4 0.140349 0.015357 0.690565
O O5 0.141139 0.485477 0.628226
O O6 0.000000 0.500000 0.500000
O O7 0.933130 0.546740 0.811121
O O8 0.403523 0.736453 0.719132
O O9 0.356371 0.478081 0.415017
O O10 0.347438 0.781720 0.510829
O O11 0.853267 0.863419 0.760249
O O12 0.057411 0.240591 0.882441
O O13 0.000000 0.000000 0.000000
O O14 0.282938 0.620966 0.970061
O O15 0.000000 0.500000 0.000000
O O16 0.573619 0.754408 0.834773
O O17 0.500000 0.000000 0.000000
#
# Coordination Sequence:
#
# PCOD9070094 Si02
#       8
#     2   2   2   2   2   2   1   2
#     4  12  25  48  76 109 144 199 259 298 372 448
#     4  12  24  45  74 105 146 197 248 295 360 446
#     4  12  26  47  74 107 148 197 248 308 366 448
#     4  12  28  49  73 111 151 192 243 317 376 436
#     4  12  26  45  75 107 148 193 245 300 374 440
#     4  12  26  46  73 110 150 191 246 310 374 437
#     4  12  28  42  78 108 148 190 254 306 366 440
#     4  12  27  49  78 109 147 198 252 310 368 454
#
# _framework density 21.518771000000001
#
# number of rings (size 3 to 8) (size 9 to 14) (size 15 to 20)
#    0.000    0.000    5.333    4.800    1.867    0.000 
#    0.000    0.667    0.000    0.000    0.000    0.000 
#    0.000    0.000    0.000    0.000    0.000    0.000 
#
# Total GULP energy -83733.536965 kJ/mol
# GULP energy per Si atom -5582.235798 kJ/mol
# Density = 2.146979 g / cm^3
# Si number density = 21.518771 Si / 1000 Ang^3
#
#
#
# Elastic Constant Matrix: (Units=GPa)
#
#
# Indices 1 2 3 4 5 6 
#
# 1 127.5218 22.5943 53.5568 -9.9762 -2.8674 14.2365
# 2 22.5943 102.7983 19.4327 13.6063 12.4010 -0.0207
# 3 53.5568 19.4327 113.5666 6.5469 -2.8709 8.6317
# 4 -9.9762 13.6063 6.5469 49.0629 3.5171 -0.9388
# 5 -2.8674 12.4010 -2.8709 3.5171 32.4140 -9.0105
# 6 14.2365 -0.0207 8.6317 -0.9388 -9.0105 37.8873
#
#
#
# Elastic Compliance Matrix: (Units=1/GPa)
#
#
# Indices 1 2 3 4 5 6 
#
# 1 0.010735 -0.001919 -0.004703 0.003280 0.000118 -0.002854
# 2 -0.001919 0.011249 -0.000939 -0.003082 -0.004264 -0.000149
# 3 -0.004703 -0.000939 0.011391 -0.002302 0.001023 -0.000642
# 4 0.003280 -0.003082 -0.002302 0.022294 -0.001282 -0.000462
# 5 0.000118 -0.004264 0.001023 -0.001282 0.034946 0.007999
# 6 -0.002854 -0.000149 -0.000642 -0.000462 0.007999 0.029504
#
#
# Mechanical properties :
#
#
# Convention : Reuss Voigt Hill
#
# Bulk Modulus (GPa) = 54.78412 59.45047 57.11729
# Shear Modulus (GPa) = 35.37926 40.42637 37.90282
#
# Velocity S-wave (km/s) = 4.05916 4.33905 4.20144
# Velocity P-wave (km/s) = 6.89080 7.26570 7.08073
#
# Compressibility (1/GPa) = 0.01825347
#
# Stress axis : x y z
#
# Youngs Moduli (GPa) = 93.15363 88.89440 87.78581
#
# Poissons Ratio (x) = 0.17061 0.41288
# Poissons Ratio (y) = 0.17879 0.08239
# Poissons Ratio (z) = 0.43812 0.08343
#
# Static dielectric constant tensor:
#      x y z
#    x 1.764370 -0.006080 0.012020 
#    y -0.006080 1.775020 -0.022590 
#    z 0.012020 -0.022590 1.788110 
# 
# From -- ./inp_files/157916.got.cif
#   From: 2010.05.17/outbox.cif.g08.bks.cpg/sg2_79_cif.got.tgz:157916.got - 2010.06.03 11:33:40.
