data_PCOD9070847
_publ_section_title
;
Structure prediction by ZEFSAII (Michael W. Deem and Ramdas Pophale) SiO2 
 PCOD9070847
Probable space group: P -1
;
_chemical_formula_sum "Si O2"
_cell_formula_units_Z 16
_cell_length_a 20.276638
_cell_length_b 11.860025
_cell_length_c 18.010679
_cell_angle_alpha 31.710187
_cell_angle_beta 28.856776
_cell_angle_gamma 19.788126
_cell_volume 698.227153
_symmetry_space_group_name_H-M "P -1"
_symmetry_group_IT_number 2
_symmetry_cell_setting 'triclinic'
loop_
_space_group_symop_operation_xyz
x,y,z
-x,-y,-z
loop_
_atom_site_type_symbol
_atom_site_label
_atom_site_fract_x
_atom_site_fract_y
_atom_site_fract_z
Si Si1 0.364033 0.703461 0.811702
Si Si2 0.625696 0.155827 0.107930
Si Si3 0.730628 0.612408 0.981145
Si Si4 0.754247 0.370910 0.529175
Si Si5 0.429338 0.249821 0.654984
Si Si6 0.903037 0.808024 0.471616
Si Si7 0.901708 0.583816 0.349777
Si Si8 0.912824 0.270378 0.149740
O O1 0.367389 0.792192 0.841332
O O2 0.269627 0.580030 0.970474
O O3 0.597664 0.409661 0.708806
O O4 0.227502 0.044669 0.709000
O O5 0.523730 0.047621 0.253808
O O6 0.500000 0.500000 0.000000
O O7 0.867659 0.863929 0.000640
O O8 0.796264 0.426885 0.097955
O O9 0.907047 0.570253 0.805985
O O10 0.500000 0.000000 0.000000
O O11 0.669087 0.499577 0.457593
O O12 0.749228 0.607727 0.441960
O O13 0.000000 0.000000 0.500000
O O14 0.250460 0.452548 0.781659
O O15 0.645026 0.095802 0.560070
O O16 0.000000 0.500000 0.500000
O O17 0.995330 0.661732 0.544712
O O18 0.967155 0.960249 0.290878
#
# Coordination Sequence:
#
# PCOD9070847 Si02
#       8
#     2   2   2   2   2   2   2   2
#     4  12  27  47  74 106 144 185 248 298 353 431
#     4  12  29  44  73 105 143 193 239 295 360 424
#     4  12  26  46  74 105 143 189 236 296 361 423
#     4  12  26  46  74 105 143 189 236 296 361 423
#     4  12  26  49  72 108 147 188 238 296 359 430
#     4  12  27  44  76 106 145 187 241 296 360 421
#     4  12  25  47  73 106 140 189 238 294 355 424
#     4  12  26  49  72 108 147 188 238 296 359 430
#
# _framework density 22.915178999999998
#
# number of rings (size 3 to 8) (size 9 to 14) (size 15 to 20)
#    0.000    0.000    2.500    6.750   10.500    0.000 
#    0.000    0.000    0.000    0.000    0.000    0.000 
#    0.000    0.000    0.000    0.000    0.000    0.000 
#
# Total GULP energy -89724.869739 kJ/mol
# GULP energy per Si atom -5607.804359 kJ/mol
# Density = 2.286302 g / cm^3
# Si number density = 22.915179 Si / 1000 Ang^3
#
#
#
# Elastic Constant Matrix: (Units=GPa)
#
#
# Indices 1 2 3 4 5 6 
#
# 1 72.0697 -8.8034 17.0534 -2.1267 18.4330 -0.1349
# 2 -8.8034 88.2133 -4.4551 3.1364 12.9966 -11.9629
# 3 17.0534 -4.4551 82.8567 -3.2755 15.3257 -6.2819
# 4 -2.1267 3.1364 -3.2755 53.9033 1.3532 -0.4258
# 5 18.4330 12.9966 15.3257 1.3532 47.8197 -5.3482
# 6 -0.1349 -11.9629 -6.2819 -0.4258 -5.3482 40.3194
#
#
#
# Elastic Compliance Matrix: (Units=1/GPa)
#
#
# Indices 1 2 3 4 5 6 
#
# 1 0.016287 0.002380 -0.002063 0.000534 -0.006323 -0.000394
# 2 0.002380 0.012761 0.001250 -0.000435 -0.004393 0.003401
# 3 -0.002063 0.001250 0.013415 0.000768 -0.003644 0.001979
# 4 0.000534 -0.000435 0.000768 0.018667 -0.000854 0.000076
# 5 -0.006323 -0.004393 -0.003644 -0.000854 0.025907 0.001535
# 6 -0.000394 0.003401 0.001979 0.000076 0.001535 0.026323
#
#
# Mechanical properties :
#
#
# Convention : Reuss Voigt Hill
#
# Bulk Modulus (GPa) = 21.93182 27.85884 24.89533
# Shear Modulus (GPa) = 39.86450 44.36478 42.11464
#
# Velocity S-wave (km/s) = 4.17544 4.40482 4.29166
# Velocity P-wave (km/s) = 5.73039 6.16877 5.95362
#
# Compressibility (1/GPa) = 0.04559586
#
# Stress axis : x y z
#
# Youngs Moduli (GPa) = 61.40006 78.36457 74.54164
#
# Poissons Ratio (x) = -0.18653 0.15380
# Poissons Ratio (y) = -0.14615 -0.09314
# Poissons Ratio (z) = 0.12669 -0.09792
#
# Static dielectric constant tensor:
#      x y z
#    x 1.792310 0.011140 -0.024780 
#    y 0.011140 1.868140 0.001860 
#    z -0.024780 0.001860 1.832380 
# 
# From -- ./inp_files/570756.got.cif
#   From: 2010.05.17/outbox.cif.g08.bks.cpg/sg2_286_cif.got.tgz:570756.got - 2010.06.03 11:33:40.
