data_PCOD9070539
_publ_section_title
;
Structure prediction by ZEFSAII (Michael W. Deem and Ramdas Pophale) SiO2 
 PCOD9070539
Probable space group: P -1
;
_chemical_formula_sum "Si O2"
_cell_formula_units_Z 14
_cell_length_a 9.279277
_cell_length_b 12.414764
_cell_length_c 9.223319
_cell_angle_alpha 62.177148
_cell_angle_beta 63.527194
_cell_angle_gamma 112.120417
_cell_volume 567.190071
_symmetry_space_group_name_H-M "P -1"
_symmetry_group_IT_number 2
_symmetry_cell_setting 'triclinic'
loop_
_space_group_symop_operation_xyz
x,y,z
-x,-y,-z
loop_
_atom_site_type_symbol
_atom_site_label
_atom_site_fract_x
_atom_site_fract_y
_atom_site_fract_z
Si Si1 0.716590 0.581396 0.719303
Si Si2 0.481764 0.215401 0.977437
Si Si3 0.123328 0.889126 0.557479
Si Si4 0.606042 0.789920 0.591872
Si Si5 0.848158 0.313484 0.105186
Si Si6 0.741607 0.913283 0.137449
Si Si7 0.096088 0.726885 0.212160
O O1 0.540491 0.369123 0.946424
O O2 0.587733 0.635301 0.706265
O O3 0.885650 0.706639 0.701301
O O4 0.884555 0.636321 0.474631
O O5 0.377315 0.204295 0.879568
O O6 0.724727 0.275335 0.806950
O O7 0.297087 0.021762 0.262374
O O8 0.190151 0.821226 0.685415
O O9 0.145693 0.023968 0.562343
O O10 0.403237 0.762522 0.767645
O O11 0.597492 0.815020 0.410203
O O12 0.968668 0.345792 0.878047
O O13 0.000000 0.500000 0.000000
O O14 0.765414 0.069277 0.997471
O O15 0.000000 0.000000 0.000000
#
# Coordination Sequence:
#
# PCOD9070539 Si02
#       7
#     2   2   2   2   2   2   2
#     4  12  29  48  77 112 148 197 256 306 373 444
#     4  12  27  47  77 109 151 197 250 309 371 448
#     4  12  25  51  77 108 152 198 248 309 373 447
#     4  12  26  49  73 111 153 200 243 315 380 431
#     4  12  28  48  78 113 151 196 255 307 371 453
#     4  12  25  47  77 111 149 197 250 311 378 439
#     4  12  24  50  72 111 147 200 249 306 373 448
#
# _framework density 24.683084999999998
#
# number of rings (size 3 to 8) (size 9 to 14) (size 15 to 20)
#    0.000    0.000    5.714    3.429    4.000    2.286 
#    2.571    0.000    0.000    0.000    0.000    0.000 
#    0.000    0.000    0.000    0.000    0.000    0.000 
#
# Total GULP energy -78451.962152 kJ/mol
# GULP energy per Si atom -5603.711582 kJ/mol
# Density = 2.462690 g / cm^3
# Si number density = 24.683085 Si / 1000 Ang^3
#
#
#
# Elastic Constant Matrix: (Units=GPa)
#
#
# Indices 1 2 3 4 5 6 
#
# 1 94.2626 52.4760 39.4808 4.6469 26.6287 -8.5180
# 2 52.4760 145.0729 56.1445 -10.7674 5.0550 10.4943
# 3 39.4808 56.1445 100.2015 21.4262 11.2006 -1.9593
# 4 4.6469 -10.7674 21.4262 60.5795 -6.6677 6.2291
# 5 26.6287 5.0550 11.2006 -6.6677 35.9522 3.5412
# 6 -8.5180 10.4943 -1.9593 6.2291 3.5412 54.4040
#
#
#
# Elastic Compliance Matrix: (Units=1/GPa)
#
#
# Indices 1 2 3 4 5 6 
#
# 1 0.019982 -0.007031 -0.001165 -0.004620 -0.014890 0.005941
# 2 -0.007031 0.012537 -0.006511 0.006365 0.007141 -0.004947
# 3 -0.001165 -0.006511 0.016351 -0.007700 -0.005027 0.002871
# 4 -0.004620 0.006365 -0.007700 0.022329 0.009600 -0.005410
# 5 -0.014890 0.007141 -0.005027 0.009600 0.041946 -0.007719
# 6 0.005941 -0.004947 0.002871 -0.005410 -0.007719 0.021491
#
#
# Mechanical properties :
#
#
# Convention : Reuss Voigt Hill
#
# Bulk Modulus (GPa) = 51.39408 70.63772 61.01590
# Shear Modulus (GPa) = 29.31937 42.94951 36.13444
#
# Velocity S-wave (km/s) = 3.45023 4.17590 3.83029
# Velocity P-wave (km/s) = 6.06126 7.20631 6.65845
#
# Compressibility (1/GPa) = 0.01945749
#
# Stress axis : x y z
#
# Youngs Moduli (GPa) = 50.04564 79.76096 61.15670
#
# Poissons Ratio (x) = 0.56078 0.07125
# Poissons Ratio (y) = 0.35186 0.39817
# Poissons Ratio (z) = 0.05831 0.51930
#
# Static dielectric constant tensor:
#      x y z
#    x 1.989580 0.062800 -0.045680 
#    y 0.062800 1.973990 0.032640 
#    z -0.045680 0.032640 2.040890 
# 
# From -- ./inp_files/184963.got.cif
#   From: 2010.05.17/outbox.cif.g08.bks.cpg/sg2_93_cif.got.tgz:184963.got - 2010.06.03 11:33:40.
