data_PCOD9070922
_publ_section_title
;
Structure prediction by ZEFSAII (Michael W. Deem and Ramdas Pophale) SiO2 
 PCOD9070922
Probable space group: P -1
;
_chemical_formula_sum "Si O2"
_cell_formula_units_Z 16
_cell_length_a 7.180697
_cell_length_b 9.783850
_cell_length_c 9.365605
_cell_angle_alpha 116.798355
_cell_angle_beta 84.352076
_cell_angle_gamma 99.786791
_cell_volume 578.586998
_symmetry_space_group_name_H-M "P -1"
_symmetry_group_IT_number 2
_symmetry_cell_setting 'triclinic'
loop_
_space_group_symop_operation_xyz
x,y,z
-x,-y,-z
loop_
_atom_site_type_symbol
_atom_site_label
_atom_site_fract_x
_atom_site_fract_y
_atom_site_fract_z
Si Si1 0.780070 0.135671 0.149777
Si Si2 0.144064 0.194630 0.328285
Si Si3 0.533894 0.373341 0.324315
Si Si4 0.501530 0.422590 0.809466
Si Si5 0.970781 0.359237 0.049909
Si Si6 0.738229 0.859743 0.183068
Si Si7 0.106234 0.631982 0.363611
Si Si8 0.273818 0.975186 0.461350
O O1 0.673200 0.253994 0.304890
O O2 0.990674 0.125713 0.189093
O O3 0.802768 0.218564 0.033398
O O4 0.674036 0.966252 0.112505
O O5 0.330435 0.273235 0.269017
O O6 0.229270 0.085359 0.386966
O O7 0.033798 0.317292 0.480673
O O8 0.500000 0.500000 0.500000
O O9 0.613452 0.472746 0.228564
O O10 0.419743 0.250398 0.772124
O O11 0.684016 0.415409 0.694761
O O12 0.500000 0.500000 0.000000
O O13 0.000848 0.466787 0.237880
O O14 0.131142 0.257660 0.943903
O O15 0.000000 0.500000 0.000000
O O16 0.819497 0.972624 0.359462
O O17 0.164657 0.800991 0.359610
O O18 0.500000 0.000000 0.500000
#
# Coordination Sequence:
#
# PCOD9070922 Si02
#       8
#     2   2   2   2   2   2   2   2
#     4  12  28  51  78 116 159 208 265 334 401 479
#     4  12  27  47  79 122 156 202 274 336 394 474
#     4  12  27  50  80 115 161 213 271 337 406 482
#     4  12  26  49  79 119 164 211 269 337 411 490
#     4  12  27  48  76 111 158 212 264 326 403 483
#     4  12  25  49  76 111 160 205 261 326 404 483
#     4  12  25  47  82 113 155 210 267 328 401 482
#     4  12  25  48  79 117 159 208 263 333 402 480
#
# _framework density 27.653576000000001
#
# number of rings (size 3 to 8) (size 9 to 14) (size 15 to 20)
#    0.000    0.000    3.750    6.000    1.750    1.500 
#    0.000    0.625    0.000    0.000    0.000    0.000 
#    0.000    0.000    0.000    0.000    0.000    0.000 
#
# Total GULP energy -89309.768496 kJ/mol
# GULP energy per Si atom -5581.860531 kJ/mol
# Density = 2.759063 g / cm^3
# Si number density = 27.653576 Si / 1000 Ang^3
#
#
#
# Elastic Constant Matrix: (Units=GPa)
#
#
# Indices 1 2 3 4 5 6 
#
# 1 130.9653 43.7079 9.9040 -2.6961 -24.9863 -3.9764
# 2 43.7079 242.1560 55.8867 -9.7721 -11.0661 -15.6563
# 3 9.9040 55.8867 110.3779 12.6928 -6.0188 -24.5007
# 4 -2.6961 -9.7721 12.6928 53.9768 -3.9275 -14.3115
# 5 -24.9863 -11.0661 -6.0188 -3.9275 25.6905 -2.5814
# 6 -3.9764 -15.6563 -24.5007 -14.3115 -2.5814 41.8229
#
#
#
# Elastic Compliance Matrix: (Units=1/GPa)
#
#
# Indices 1 2 3 4 5 6 
#
# 1 0.009951 -0.001312 0.000549 0.001313 0.009625 0.001820
# 2 -0.001312 0.005088 -0.002393 0.001741 0.000723 0.001018
# 3 0.000549 -0.002393 0.011806 -0.001472 0.002620 0.005731
# 4 0.001313 0.001741 -0.001472 0.021716 0.005776 0.007702
# 5 0.009625 0.000723 0.002620 0.005776 0.050882 0.007838
# 6 0.001820 0.001018 0.005731 0.007702 0.007838 0.030941
#
#
# Mechanical properties :
#
#
# Convention : Reuss Voigt Hill
#
# Bulk Modulus (GPa) = 48.70205 78.05515 63.37860
# Shear Modulus (GPa) = 34.83348 49.23140 42.03244
#
# Velocity S-wave (km/s) = 3.55299 4.22393 3.90290
# Velocity P-wave (km/s) = 5.87208 7.21638 6.57866
#
# Compressibility (1/GPa) = 0.02053302
#
# Stress axis : x y z
#
# Youngs Moduli (GPa) = 100.49596 196.54615 84.69984
#
# Poissons Ratio (x) = 0.25793 -0.04654
# Poissons Ratio (y) = 0.13188 0.20269
# Poissons Ratio (z) = -0.05522 0.47035
#
# Static dielectric constant tensor:
#      x y z
#    x 2.053940 -0.334150 0.268230 
#    y -0.334150 1.647130 0.269420 
#    z 0.268230 0.269420 2.055240 
# 
# From -- ./inp_files/379880.got.cif
#   From: 2010.05.17/outbox.cif.g08.bks.cpg/sg2_190_cif.got.tgz:379880.got - 2010.06.03 11:33:40.
