data_PCOD9070576
_publ_section_title
;
Structure prediction by ZEFSAII (Michael W. Deem and Ramdas Pophale) SiO2 
 PCOD9070576
Probable space group: P -1
;
_chemical_formula_sum "Si O2"
_cell_formula_units_Z 14
_cell_length_a 15.652734
_cell_length_b 21.612600
_cell_length_c 11.403093
_cell_angle_alpha 151.620333
_cell_angle_beta 150.565839
_cell_angle_gamma 19.507235
_cell_volume 590.867572
_symmetry_space_group_name_H-M "P -1"
_symmetry_group_IT_number 2
_symmetry_cell_setting 'triclinic'
loop_
_space_group_symop_operation_xyz
x,y,z
-x,-y,-z
loop_
_atom_site_type_symbol
_atom_site_label
_atom_site_fract_x
_atom_site_fract_y
_atom_site_fract_z
Si Si1 0.890751 0.204353 0.197089
Si Si2 0.997920 0.554858 0.864930
Si Si3 0.765480 0.282196 0.914211
Si Si4 0.640562 0.880247 0.348330
Si Si5 0.202957 0.177230 0.119686
Si Si6 0.582123 0.191855 0.354499
Si Si7 0.619942 0.425810 0.648697
O O1 0.599745 0.393899 0.220171
O O2 0.095991 0.185598 0.471002
O O3 0.915914 0.201567 0.082374
O O4 0.000000 0.000000 0.000000
O O5 0.238448 0.329537 0.823716
O O6 0.873610 0.640896 0.726784
O O7 0.734948 0.649241 0.770859
O O8 0.124943 0.626079 0.144204
O O9 0.683977 0.196337 0.605993
O O10 0.500000 0.500000 0.000000
O O11 0.935803 0.271069 0.011172
O O12 0.500000 0.000000 0.500000
O O13 0.431415 0.032650 0.250338
O O14 0.303609 0.014838 0.874688
O O15 0.668974 0.249827 0.457412
O O16 0.500000 0.500000 0.500000
#
# Coordination Sequence:
#
# PCOD9070576 Si02
#       7
#     2   2   2   2   2   2   2
#     4  12  27  48  73 114 156 201 257 326 394 459
#     4  12  27  51  76 115 158 203 263 321 396 455
#     4  12  24  51  77 110 158 202 261 324 386 467
#     4  12  26  49  76 116 158 202 265 325 386 475
#     4  12  28  48  81 116 155 211 262 320 400 466
#     4  12  27  50  79 116 158 206 266 325 385 476
#     4  12  27  47  79 110 155 209 253 320 394 459
#
# _framework density 23.693971999999999
#
# number of rings (size 3 to 8) (size 9 to 14) (size 15 to 20)
#    0.000    0.000    5.714    2.571    6.000    1.714 
#    0.000    0.000    0.000    0.000    0.000    0.000 
#    0.000    0.000    0.000    0.000    0.000    0.000 
#
# Total GULP energy -78152.133589 kJ/mol
# GULP energy per Si atom -5582.295256 kJ/mol
# Density = 2.364004 g / cm^3
# Si number density = 23.693972 Si / 1000 Ang^3
#
#
#
# Elastic Constant Matrix: (Units=GPa)
#
#
# Indices 1 2 3 4 5 6 
#
# 1 68.9092 11.4676 28.4407 -10.9596 2.1893 13.1198
# 2 11.4676 96.9853 19.0128 -25.7655 5.3873 17.7620
# 3 28.4407 19.0128 70.0262 -32.8928 6.8417 -0.0811
# 4 -10.9596 -25.7655 -32.8928 40.0102 -3.5788 0.9960
# 5 2.1893 5.3873 6.8417 -3.5788 49.3266 -2.9461
# 6 13.1198 17.7620 -0.0811 0.9960 -2.9461 45.8029
#
#
#
# Elastic Compliance Matrix: (Units=1/GPa)
#
#
# Indices 1 2 3 4 5 6 
#
# 1 0.018728 -0.000027 -0.008366 -0.001641 -0.000106 -0.005340
# 2 -0.000027 0.013804 0.000921 0.009666 -0.001269 -0.005636
# 3 -0.008366 0.000921 0.027241 0.020486 -0.001931 0.001518
# 4 -0.001641 0.009666 0.020486 0.047662 -0.000624 -0.004318
# 5 -0.000106 -0.001269 -0.001931 -0.000624 0.020750 0.001867
# 6 -0.005340 -0.005636 0.001518 -0.004318 0.001867 0.025764
#
#
# Mechanical properties :
#
#
# Convention : Reuss Voigt Hill
#
# Bulk Modulus (GPa) = 22.30668 39.30699 30.80684
# Shear Modulus (GPa) = 27.19794 38.82793 33.01294
#
# Velocity S-wave (km/s) = 3.39172 4.05251 3.73675
# Velocity P-wave (km/s) = 4.97728 6.20666 5.62565
#
# Compressibility (1/GPa) = 0.04482961
#
# Stress axis : x y z
#
# Youngs Moduli (GPa) = 53.39554 72.44293 36.70884
#
# Poissons Ratio (x) = 0.00192 0.30710
# Poissons Ratio (y) = 0.00142 -0.03379
# Poissons Ratio (z) = 0.44670 -0.06669
#
# Static dielectric constant tensor:
#      x y z
#    x 1.872010 0.003650 -0.024960 
#    y 0.003650 1.802690 -0.039130 
#    z -0.024960 -0.039130 1.925280 
# 
# From -- ./inp_files/174485.got.cif
#   From: 2010.05.17/outbox.cif.g08.bks.cpg/sg2_88_cif.got.tgz:174485.got - 2010.06.03 11:33:40.
