data_PCOD9070026
_publ_section_title
;
Structure prediction by ZEFSAII (Michael W. Deem and Ramdas Pophale) SiO2 
 PCOD9070026
Probable space group: P -1
;
_chemical_formula_sum "Si O2"
_cell_formula_units_Z 14
_cell_length_a 18.588166
_cell_length_b 17.901091
_cell_length_c 13.387024
_cell_angle_alpha 25.532348
_cell_angle_beta 150.984735
_cell_angle_gamma 164.524517
_cell_volume 511.844067
_symmetry_space_group_name_H-M "P -1"
_symmetry_group_IT_number 2
_symmetry_cell_setting 'triclinic'
loop_
_space_group_symop_operation_xyz
x,y,z
-x,-y,-z
loop_
_atom_site_type_symbol
_atom_site_label
_atom_site_fract_x
_atom_site_fract_y
_atom_site_fract_z
Si Si1 0.155982 0.448947 0.711932
Si Si2 0.641259 0.855080 0.929643
Si Si3 0.241386 0.783067 0.879300
Si Si4 0.568429 0.400553 0.322710
Si Si5 0.320375 0.214451 0.515954
Si Si6 0.809668 0.933030 0.244873
Si Si7 0.058044 0.660292 0.606707
O O1 0.290422 0.443891 0.802965
O O2 0.053661 0.494896 0.453246
O O3 0.398017 0.728961 0.742561
O O4 0.908552 0.130989 0.855554
O O5 0.548907 0.563252 0.158520
O O6 0.703616 0.946625 0.010770
O O7 0.262268 0.010344 0.612754
O O8 0.182637 0.657296 0.846998
O O9 0.000000 0.500000 0.000000
O O10 0.500000 0.000000 0.000000
O O11 0.291340 0.027448 0.421257
O O12 0.791002 0.490022 0.535522
O O13 0.624782 0.577688 0.449046
O O14 0.242013 0.055420 0.720142
O O15 0.114473 0.172518 0.305676
#
# Coordination Sequence:
#
# PCOD9070026 Si02
#       7
#     2   2   2   2   2   2   2
#     4  10  20  28  44  70 111 139 170 215 258 329
#     4  12  18  28  46  79 101 143 178 205 260 323
#     4  12  24  38  60  84 107 142 190 240 278 321
#     4  10  18  29  45  67 112 141 167 210 257 336
#     4  10  21  41  54  83 113 148 187 226 277 323
#     4  10  21  35  61  79 116 154 179 220 268 336
#     4  10  20  33  46  70 103 141 165 215 283 311
#
# _framework density 27.352079
#
# number of rings (size 3 to 8) (size 9 to 14) (size 15 to 20)
#    0.857    0.571    1.429    6.000    0.000    0.000 
#    0.000    0.000    0.000    0.000    0.000    6.000 
#    0.000    0.000    0.000    0.000    0.000    0.000 
#
# Total GULP energy -78368.804203 kJ/mol
# GULP energy per Si atom -5597.771729 kJ/mol
# Density = 2.728982 g / cm^3
# Si number density = 27.352079 Si / 1000 Ang^3
#
#
#
# Elastic Constant Matrix: (Units=GPa)
#
#
# Indices 1 2 3 4 5 6 
#
# 1 67.0000 9.4091 36.3387 20.7775 -16.5947 -1.5508
# 2 9.4091 156.0698 48.4741 22.7902 -16.3165 5.0918
# 3 36.3387 48.4741 125.0092 23.6830 -44.3315 -13.2357
# 4 20.7775 22.7902 23.6830 59.1887 -22.2925 -11.4945
# 5 -16.5947 -16.3165 -44.3315 -22.2925 68.2106 7.3747
# 6 -1.5508 5.0918 -13.2357 -11.4945 7.3747 34.5523
#
#
#
# Elastic Compliance Matrix: (Units=1/GPa)
#
#
# Indices 1 2 3 4 5 6 
#
# 1 0.019425 0.001498 -0.005486 -0.005873 -0.000034 -0.003397
# 2 0.001498 0.007890 -0.003502 -0.003056 -0.000665 -0.003312
# 3 -0.005486 -0.003502 0.013508 0.001187 0.006514 0.004449
# 4 -0.005873 -0.003056 0.001187 0.023077 0.005378 0.007170
# 5 -0.000034 -0.000665 0.006514 0.005378 0.020483 0.000009
# 6 -0.003397 -0.003312 0.004449 0.007170 0.000009 0.033365
#
#
# Mechanical properties :
#
#
# Convention : Reuss Voigt Hill
#
# Bulk Modulus (GPa) = 38.69786 59.61366 49.15576
# Shear Modulus (GPa) = 35.37486 49.31413 42.34449
#
# Velocity S-wave (km/s) = 3.60017 4.25071 3.93889
# Velocity P-wave (km/s) = 5.60896 6.77743 6.22069
#
# Compressibility (1/GPa) = 0.02584122
#
# Stress axis : x y z
#
# Youngs Moduli (GPa) = 51.48027 126.74865 74.02749
#
# Poissons Ratio (x) = -0.18985 0.40615
# Poissons Ratio (y) = -0.07711 0.25927
# Poissons Ratio (z) = 0.28244 0.44392
#
# Static dielectric constant tensor:
#      x y z
#    x 2.094520 -0.038800 -0.048650 
#    y -0.038800 2.038610 0.036260 
#    z -0.048650 0.036260 2.188830 
# 
# From -- ./inp_files/543360.got.cif
#   From: 2010.05.17/outbox.cif.g08.bks.cpg/sg2_272_cif.got.tgz:543360.got - 2010.06.03 11:33:40.
