data_PCOD9070441
_publ_section_title
;
Structure prediction by ZEFSAII (Michael W. Deem and Ramdas Pophale) SiO2 
 PCOD9070441
Probable space group: P -1
;
_chemical_formula_sum "Si O2"
_cell_formula_units_Z 16
_cell_length_a 11.666454
_cell_length_b 11.480013
_cell_length_c 9.006173
_cell_angle_alpha 47.347393
_cell_angle_beta 67.481539
_cell_angle_gamma 51.016709
_cell_volume 687.618778
_symmetry_space_group_name_H-M "P -1"
_symmetry_group_IT_number 2
_symmetry_cell_setting 'triclinic'
loop_
_space_group_symop_operation_xyz
x,y,z
-x,-y,-z
loop_
_atom_site_type_symbol
_atom_site_label
_atom_site_fract_x
_atom_site_fract_y
_atom_site_fract_z
Si Si1 0.234003 0.958978 0.830713
Si Si2 0.539797 0.918036 0.713931
Si Si3 0.186332 0.508874 0.008377
Si Si4 0.758306 0.536616 0.309786
Si Si5 0.190847 0.831618 0.237958
Si Si6 0.054860 0.349412 0.732950
Si Si7 0.098764 0.914383 0.677344
Si Si8 0.552349 0.129904 0.791354
O O1 0.391162 0.925577 0.823514
O O2 0.201557 0.972901 0.658443
O O3 0.106632 0.154485 0.797290
O O4 0.225447 0.805353 0.067893
O O5 0.675778 0.699726 0.841260
O O6 0.500000 0.000000 0.500000
O O7 0.569118 0.054193 0.680785
O O8 0.062524 0.574998 0.139659
O O9 0.157905 0.492677 0.862283
O O10 0.201608 0.688182 0.825385
O O11 0.802836 0.344572 0.535916
O O12 0.798975 0.663978 0.270617
O O13 0.581583 0.659329 0.283246
O O14 0.302341 0.879638 0.218608
O O15 0.030121 0.008981 0.203505
O O16 0.000000 0.500000 0.500000
O O17 0.000000 0.000000 0.500000
O O18 0.500000 0.000000 0.000000
#
# Coordination Sequence:
#
# PCOD9070441 Si02
#       8
#     2   2   2   2   2   2   2   2
#     4  12  26  51  76 105 155 202 252 310 382 445
#     4  12  28  48  76 110 149 201 254 314 374 451
#     4  12  27  46  76 111 153 197 251 316 377 442
#     4  12  25  46  74 113 150 199 253 306 384 448
#     4  12  25  45  76 109 149 197 247 309 377 452
#     4  12  26  45  75 110 148 200 254 313 369 453
#     4  12  28  48  74 112 154 198 250 313 377 451
#     4  12  24  48  75 106 153 199 251 305 380 448
#
# _framework density 23.268706000000002
#
# number of rings (size 3 to 8) (size 9 to 14) (size 15 to 20)
#    0.000    0.000    6.250    2.625    3.500    1.500 
#    0.000    0.000    0.000    0.000    0.000    0.000 
#    0.000    0.000    0.000    0.000    0.000    0.000 
#
# Total GULP energy -89276.323760 kJ/mol
# GULP energy per Si atom -5579.770235 kJ/mol
# Density = 2.321575 g / cm^3
# Si number density = 23.268706 Si / 1000 Ang^3
#
#
#
# Elastic Constant Matrix: (Units=GPa)
#
#
# Indices 1 2 3 4 5 6 
#
# 1 103.2261 16.8513 8.6825 18.4186 15.6774 15.9414
# 2 16.8513 94.1255 34.9702 -8.5511 -2.4206 4.8997
# 3 8.6825 34.9702 147.6985 5.4261 4.3854 10.0255
# 4 18.4186 -8.5511 5.4261 26.1530 -5.1907 1.9200
# 5 15.6774 -2.4206 4.3854 -5.1907 20.0440 8.4128
# 6 15.9414 4.8997 10.0255 1.9200 8.4128 40.6959
#
#
#
# Elastic Compliance Matrix: (Units=1/GPa)
#
#
# Indices 1 2 3 4 5 6 
#
# 1 0.016400 -0.005428 0.001583 -0.016999 -0.017501 -0.001741
# 2 -0.005428 0.014350 -0.003713 0.011434 0.010323 -0.001360
# 3 0.001583 -0.003713 0.007926 -0.004734 -0.004214 -0.001031
# 4 -0.016999 0.011434 -0.004734 0.061739 0.033088 -0.003304
# 5 -0.017501 0.010323 -0.004214 0.033088 0.079037 -0.011249
# 6 -0.001741 -0.001360 -0.001031 -0.003304 -0.011249 0.028154
#
#
# Mechanical properties :
#
#
# Convention : Reuss Voigt Hill
#
# Bulk Modulus (GPa) = 42.44277 51.78424 47.11351
# Shear Modulus (GPa) = 21.68488 36.34831 29.01660
#
# Velocity S-wave (km/s) = 3.05607 3.95664 3.53515
# Velocity P-wave (km/s) = 5.54370 6.57089 6.07903
#
# Compressibility (1/GPa) = 0.02356114
#
# Stress axis : x y z
#
# Youngs Moduli (GPa) = 60.97387 69.68446 126.17356
#
# Poissons Ratio (x) = 0.37827 -0.19979
# Poissons Ratio (y) = 0.33098 0.46846
# Poissons Ratio (z) = -0.09655 0.25873
#
# Static dielectric constant tensor:
#      x y z
#    x 2.308690 -0.395960 0.044030 
#    y -0.395960 2.489740 -0.072050 
#    z 0.044030 -0.072050 2.007380 
# 
# From -- ./inp_files/261568.got.cif
#   From: 2010.05.17/outbox.cif.g08.bks.cpg/sg2_131_cif.got.tgz:261568.got - 2010.06.03 11:33:40.
