data_PCOD9070877
_publ_section_title
;
Structure prediction by ZEFSAII (Michael W. Deem and Ramdas Pophale) SiO2 
 PCOD9070877
Probable space group: P -1
;
_chemical_formula_sum "Si O2"
_cell_formula_units_Z 12
_cell_length_a 13.043286
_cell_length_b 16.691281
_cell_length_c 9.074970
_cell_angle_alpha 144.641554
_cell_angle_beta 134.087631
_cell_angle_gamma 26.210079
_cell_volume 499.946670
_symmetry_space_group_name_H-M "P -1"
_symmetry_group_IT_number 2
_symmetry_cell_setting 'triclinic'
loop_
_space_group_symop_operation_xyz
x,y,z
-x,-y,-z
loop_
_atom_site_type_symbol
_atom_site_label
_atom_site_fract_x
_atom_site_fract_y
_atom_site_fract_z
Si Si1 0.036482 0.595951 0.800188
Si Si2 0.254814 0.722513 0.180111
Si Si3 0.463513 0.404051 0.439367
Si Si4 0.528785 0.093295 0.551940
Si Si5 0.028790 0.093291 0.285518
Si Si6 0.754814 0.722512 0.997058
O O1 0.309242 0.359459 0.749352
O O2 0.000000 0.500000 0.500000
O O3 0.858550 0.693925 0.900871
O O4 0.068627 0.736310 0.010299
O O5 0.358557 0.693924 0.398012
O O6 0.109170 0.961536 0.320936
O O7 0.500000 0.500000 0.000000
O O8 0.500000 0.500000 0.500000
O O9 0.431376 0.263686 0.164111
O O10 0.190747 0.640545 0.552477
O O11 0.500000 0.000000 0.500000
O O12 0.749992 0.000012 0.690746
O O13 0.609175 0.961536 0.282022
O O14 0.000000 0.000000 0.000000
O O15 0.000000 0.500000 0.000000
#
# Coordination Sequence:
#
# PCOD9070877 Si02
#       6
#     2   2   2   2   2   2
#     4  12  27  48  74 108 152 190 243 317 367 437
#     4  12  25  47  76 107 147 196 250 301 374 445
#     4  12  27  48  74 108 152 190 243 317 367 437
#     4  12  26  46  78 107 143 196 250 300 376 446
#     4  12  26  46  78 107 143 196 250 300 376 446
#     4  12  25  47  76 107 147 196 250 301 374 445
#
# _framework density 24.002561
#
# number of rings (size 3 to 8) (size 9 to 14) (size 15 to 20)
#    0.000    0.000    6.667    2.000    4.667    1.333 
#    0.000    0.000    0.000    0.000    0.000    0.000 
#    0.000    0.000    0.000    0.000    0.000    0.000 
#
# Total GULP energy -66878.805823 kJ/mol
# GULP energy per Si atom -5573.233819 kJ/mol
# Density = 2.394793 g / cm^3
# Si number density = 24.002561 Si / 1000 Ang^3
#
#
#
# Elastic Constant Matrix: (Units=GPa)
#
#
# Indices 1 2 3 4 5 6 
#
# 1 145.0113 -0.6322 39.6409 -37.1971 22.2113 -20.8808
# 2 -0.6322 67.7761 -6.4389 -24.4616 4.3659 2.9342
# 3 39.6409 -6.4389 76.7315 -29.2685 20.5964 -11.6561
# 4 -37.1971 -24.4616 -29.2685 52.9946 -16.0901 3.5407
# 5 22.2113 4.3659 20.5964 -16.0901 59.7058 -8.3411
# 6 -20.8808 2.9342 -11.6561 3.5407 -8.3411 38.2994
#
#
#
# Elastic Compliance Matrix: (Units=1/GPa)
#
#
# Indices 1 2 3 4 5 6 
#
# 1 0.009660 0.002138 -0.001541 0.006366 -0.000967 0.003835
# 2 0.002138 0.020536 0.006212 0.014226 -0.000601 0.000037
# 3 -0.001541 0.006212 0.020156 0.011729 -0.003251 0.003026
# 4 0.006366 0.014226 0.011729 0.037075 0.002980 0.003172
# 5 -0.000967 -0.000601 -0.003251 0.002980 0.019424 0.002484
# 6 0.003835 0.000037 0.003026 0.003172 0.002484 0.029367
#
#
# Mechanical properties :
#
#
# Convention : Reuss Voigt Hill
#
# Bulk Modulus (GPa) = 15.63239 39.40650 27.51944
# Shear Modulus (GPa) = 34.74098 47.32992 41.03545
#
# Velocity S-wave (km/s) = 3.80858 4.44539 4.13925
# Velocity P-wave (km/s) = 5.08599 6.54232 5.85958
#
# Compressibility (1/GPa) = 0.06396976
#
# Stress axis : x y z
#
# Youngs Moduli (GPa) = 103.52171 48.69516 49.61382
#
# Poissons Ratio (x) = -0.10410 0.07643
# Poissons Ratio (y) = -0.22130 -0.30820
# Poissons Ratio (z) = 0.15948 -0.30249
#
# Static dielectric constant tensor:
#      x y z
#    x 1.994570 -0.033410 -0.184020 
#    y -0.033410 1.437410 -0.604420 
#    z -0.184020 -0.604420 1.394220 
# 
# From -- ./inp_files/157762.got.cif
#   From: 2010.05.17/outbox.cif.g08.bks.cpg/sg2_79_cif.got.tgz:157762.got - 2010.06.03 11:33:40.
