data_PCOD9070712
_publ_section_title
;
Structure prediction by ZEFSAII (Michael W. Deem and Ramdas Pophale) SiO2 
 PCOD9070712
Probable space group: P -1
;
_chemical_formula_sum "Si O2"
_cell_formula_units_Z 16
_cell_length_a 11.528891
_cell_length_b 18.186214
_cell_length_c 25.684402
_cell_angle_alpha 158.335227
_cell_angle_beta 30.085656
_cell_angle_gamma 147.920423
_cell_volume 969.130450
_symmetry_space_group_name_H-M "P -1"
_symmetry_group_IT_number 2
_symmetry_cell_setting 'triclinic'
loop_
_space_group_symop_operation_xyz
x,y,z
-x,-y,-z
loop_
_atom_site_type_symbol
_atom_site_label
_atom_site_fract_x
_atom_site_fract_y
_atom_site_fract_z
Si Si1 0.586073 0.233042 0.139888
Si Si2 0.900229 0.630444 0.582194
Si Si3 0.136817 0.456296 0.579173
Si Si4 0.727714 0.967787 0.323113
Si Si5 0.830593 0.188906 0.830174
Si Si6 0.026955 0.381396 0.992497
Si Si7 0.550239 0.201673 0.254435
Si Si8 0.794024 0.070600 0.488268
O O1 0.369073 0.345489 0.290496
O O2 0.632196 0.214516 0.171260
O O3 0.816275 0.349253 0.095153
O O4 0.500000 0.000000 0.000000
O O5 0.919968 0.538225 0.456214
O O6 0.000000 0.500000 0.500000
O O7 0.068669 0.858396 0.667270
O O8 0.339230 0.324833 0.417646
O O9 0.244170 0.674276 0.706595
O O10 0.916725 0.311883 0.599821
O O11 0.753644 0.015402 0.406296
O O12 0.462322 0.977584 0.417286
O O13 0.785610 0.748572 0.148566
O O14 0.908426 0.275790 0.915133
O O15 0.578791 0.026429 0.827233
O O16 0.023403 0.063813 0.653639
O O17 0.849723 0.385432 0.915784
#
# Coordination Sequence:
#
# PCOD9070712 Si02
#       8
#     2   2   2   2   2   2   2   2
#     4  11  18  32  51  76 101 130 164 202 251 291
#     4  10  20  31  50  77 101 126 162 206 247 288
#     4   8  16  32  52  73  96 130 166 200 244 292
#     4   9  16  29  45  69  98 126 153 199 248 288
#     4   9  17  28  47  75  96 124 162 204 244 285
#     4  10  18  29  46  73 102 124 159 205 249 289
#     4   9  16  31  55  72  98 130 167 206 239 291
#     4   8  15  28  48  69  92 122 164 197 238 291
#
# _framework density 16.509646
#
# number of rings (size 3 to 8) (size 9 to 14) (size 15 to 20)
#    0.000    2.750    2.500    1.500    1.750    0.000 
#    2.250    0.000    2.750    6.750    0.000    0.000 
#    0.000    0.000    0.000    0.000    0.000    0.000 
#
# Total GULP energy -89083.032946 kJ/mol
# GULP energy per Si atom -5567.689559 kJ/mol
# Density = 1.647207 g / cm^3
# Si number density = 16.509646 Si / 1000 Ang^3
#
#
#
# Elastic Constant Matrix: (Units=GPa)
#
#
# Indices 1 2 3 4 5 6 
#
# 1 54.2035 31.7522 31.6161 14.3285 0.0528 -0.8611
# 2 31.7522 116.7816 53.6760 8.9912 -0.8102 -4.8047
# 3 31.6161 53.6760 69.7939 13.5358 -6.1024 -4.5854
# 4 14.3285 8.9912 13.5358 31.7563 1.7800 -0.5559
# 5 0.0528 -0.8102 -6.1024 1.7800 20.5829 5.6965
# 6 -0.8611 -4.8047 -4.5854 -0.5559 5.6965 18.9792
#
#
#
# Elastic Compliance Matrix: (Units=1/GPa)
#
#
# Indices 1 2 3 4 5 6 
#
# 1 0.027325 -0.002763 -0.009021 -0.007622 -0.001831 -0.001313
# 2 -0.002763 0.013739 -0.009789 0.001734 -0.003045 0.001952
# 3 -0.009021 -0.009789 0.027777 -0.005423 0.007992 0.001266
# 4 -0.007622 0.001734 -0.005423 0.037061 -0.005113 0.001403
# 5 -0.001831 -0.003045 0.007992 -0.005113 0.055646 -0.015775
# 6 -0.001313 0.001952 0.001266 0.001403 -0.015775 0.058206
#
#
# Mechanical properties :
#
#
# Convention : Reuss Voigt Hill
#
# Bulk Modulus (GPa) = 38.91888 52.76307 45.84097
# Shear Modulus (GPa) = 18.41855 22.51265 20.46560
#
# Velocity S-wave (km/s) = 3.34372 3.69671 3.52464
# Velocity P-wave (km/s) = 6.20740 7.08867 6.66262
#
# Compressibility (1/GPa) = 0.02569447
#
# Stress axis : x y z
#
# Youngs Moduli (GPa) = 36.59599 72.78438 36.00156
#
# Poissons Ratio (x) = 0.20111 0.32478
# Poissons Ratio (y) = 0.10112 0.35242
# Poissons Ratio (z) = 0.33015 0.71248
#
# Static dielectric constant tensor:
#      x y z
#    x 1.545280 0.012100 0.004200 
#    y 0.012100 1.566090 -0.001420 
#    z 0.004200 -0.001420 1.560970 
# 
# From -- ./inp_files/254895.got.cif
#   From: 2010.05.17/outbox.cif.g08.bks.cpg/sg2_128_cif.got.tgz:254895.got - 2010.06.03 11:33:40.
