data_PCOD9070689
_publ_section_title
;
Structure prediction by ZEFSAII (Michael W. Deem and Ramdas Pophale) SiO2 
 PCOD9070689
Probable space group: P -1
;
_chemical_formula_sum "Si O2"
_cell_formula_units_Z 14
_cell_length_a 8.804176
_cell_length_b 17.655662
_cell_length_c 9.180191
_cell_angle_alpha 124.742463
_cell_angle_beta 147.922591
_cell_angle_gamma 66.174805
_cell_volume 612.452839
_symmetry_space_group_name_H-M "P -1"
_symmetry_group_IT_number 2
_symmetry_cell_setting 'triclinic'
loop_
_space_group_symop_operation_xyz
x,y,z
-x,-y,-z
loop_
_atom_site_type_symbol
_atom_site_label
_atom_site_fract_x
_atom_site_fract_y
_atom_site_fract_z
Si Si1 0.467266 0.479247 0.778083
Si Si2 0.715334 0.167940 0.735011
Si Si3 0.078386 0.110669 0.210581
Si Si4 0.350748 0.341066 0.056002
Si Si5 0.251087 0.939410 0.637317
Si Si6 0.015899 0.628092 0.924003
Si Si7 0.823508 0.217498 0.366366
O O1 0.460201 0.570758 0.774417
O O2 0.179752 0.407178 0.415333
O O3 0.500000 0.500000 0.000000
O O4 0.756941 0.439201 0.928255
O O5 0.416114 0.148404 0.560612
O O6 0.668312 0.086033 0.486850
O O7 0.993445 0.157123 0.044063
O O8 0.788528 0.270647 0.838551
O O9 0.881480 0.145235 0.211542
O O10 0.000000 0.000000 0.000000
O O11 0.201480 0.367326 0.112521
O O12 0.539055 0.261420 0.157063
O O13 0.095324 0.301422 0.692258
O O14 0.175963 0.839740 0.546802
O O15 0.000000 0.000000 0.500000
O O16 0.500000 0.000000 0.000000
#
# Coordination Sequence:
#
# PCOD9070689 Si02
#       7
#     2   2   2   2   2   2   2
#     4  12  28  47  77 109 145 187 236 296 361 440
#     4  12  26  45  74 104 142 191 240 292 361 425
#     4  12  27  47  70 104 149 193 239 297 363 421
#     4  12  26  48  74 107 144 187 239 293 364 423
#     4  12  25  45  72 104 142 185 241 295 348 423
#     4  12  26  49  74 107 148 186 239 294 365 431
#     4  12  26  45  73 106 144 188 242 295 354 426
#
# _framework density 22.858903999999999
#
# number of rings (size 3 to 8) (size 9 to 14) (size 15 to 20)
#    0.000    0.000    1.429    8.571    8.000    0.000 
#    0.000    0.000    0.000    0.000    0.000    0.000 
#    0.000    0.000    0.000    0.000    0.000    0.000 
#
# Total GULP energy -78431.076755 kJ/mol
# GULP energy per Si atom -5602.219768 kJ/mol
# Density = 2.280688 g / cm^3
# Si number density = 22.858904 Si / 1000 Ang^3
#
#
#
# Elastic Constant Matrix: (Units=GPa)
#
#
# Indices 1 2 3 4 5 6 
#
# 1 75.7295 32.2965 -1.5393 -2.5494 0.3854 -18.4045
# 2 32.2965 97.0890 3.0219 -11.0738 8.8017 -5.1594
# 3 -1.5393 3.0219 115.3630 -1.5245 4.2609 -14.5066
# 4 -2.5494 -11.0738 -1.5245 44.0544 -2.8576 9.4904
# 5 0.3854 8.8017 4.2609 -2.8576 36.8808 1.4365
# 6 -18.4045 -5.1594 -14.5066 9.4904 1.4365 36.4326
#
#
#
# Elastic Compliance Matrix: (Units=1/GPa)
#
#
# Indices 1 2 3 4 5 6 
#
# 1 0.017933 -0.005825 0.001531 -0.002377 0.000474 0.009444
# 2 -0.005825 0.012736 -0.000534 0.003122 -0.002595 -0.002063
# 3 0.001531 -0.000534 0.009324 -0.000807 -0.001210 0.004668
# 4 -0.002377 0.003122 -0.000807 0.025077 0.001615 -0.007676
# 5 0.000474 -0.002595 -0.001210 0.001615 0.028077 -0.002138
# 6 0.009444 -0.002063 0.004668 -0.007676 -0.002138 0.035869
#
#
# Mechanical properties :
#
#
# Convention : Reuss Voigt Hill
#
# Bulk Modulus (GPa) = 32.96411 39.52663 36.24537
# Shear Modulus (GPa) = 33.60562 40.43371 37.01967
#
# Velocity S-wave (km/s) = 3.83839 4.21032 4.02865
# Velocity P-wave (km/s) = 5.83921 6.40038 6.12622
#
# Compressibility (1/GPa) = 0.03033603
#
# Stress axis : x y z
#
# Youngs Moduli (GPa) = 55.76272 78.51813 107.25336
#
# Poissons Ratio (x) = 0.45739 -0.16416
# Poissons Ratio (y) = 0.32483 0.05723
# Poissons Ratio (z) = -0.08535 0.04190
#
# Static dielectric constant tensor:
#      x y z
#    x 1.867220 -0.001950 -0.001480 
#    y -0.001950 1.778010 0.005820 
#    z -0.001480 0.005820 1.832120 
# 
# From -- ./inp_files/205799.got.cif
#   From: 2010.05.17/outbox.cif.g08.bks.cpg/sg2_103_cif.got.tgz:205799.got - 2010.06.03 11:33:40.
