data_PCOD9070867
_publ_section_title
;
Structure prediction by ZEFSAII (Michael W. Deem and Ramdas Pophale) SiO2 
 PCOD9070867
Probable space group: P -1
;
_chemical_formula_sum "Si O2"
_cell_formula_units_Z 12
_cell_length_a 8.930869
_cell_length_b 8.785857
_cell_length_c 8.938048
_cell_angle_alpha 75.634464
_cell_angle_beta 106.603632
_cell_angle_gamma 121.444705
_cell_volume 569.162500
_symmetry_space_group_name_H-M "P -1"
_symmetry_group_IT_number 2
_symmetry_cell_setting 'triclinic'
loop_
_space_group_symop_operation_xyz
x,y,z
-x,-y,-z
loop_
_atom_site_type_symbol
_atom_site_label
_atom_site_fract_x
_atom_site_fract_y
_atom_site_fract_z
Si Si1 0.682078 0.152519 0.589632
Si Si2 0.625887 0.663849 0.893700
Si Si3 0.018530 0.195547 0.489750
Si Si4 0.373145 0.523138 0.576233
Si Si5 0.980376 0.664981 0.877812
Si Si6 0.327375 0.974504 0.047753
O O1 0.697378 0.346104 0.533930
O O2 0.678992 0.111616 0.772660
O O3 0.849195 0.159064 0.550122
O O4 0.500000 0.000000 0.500000
O O5 0.500641 0.632254 0.722805
O O6 0.801192 0.656523 0.893591
O O7 0.669509 0.841362 0.954258
O O8 0.500000 0.500000 0.000000
O O9 0.201986 0.327237 0.597810
O O10 0.022802 0.302372 0.311010
O O11 0.000000 0.000000 0.500000
O O12 0.500000 0.500000 0.500000
O O13 0.000000 0.500000 0.000000
O O14 0.152764 0.843891 0.938469
O O15 0.500000 0.000000 0.000000
#
# Coordination Sequence:
#
# PCOD9070867 Si02
#       6
#     2   2   2   2   2   2
#     4  12  25  47  75 106 141 186 246 296 356 428
#     4  12  28  46  73 108 145 191 237 295 362 428
#     4  12  27  48  78 106 144 194 243 300 358 428
#     4  12  26  48  73 106 146 187 242 297 357 426
#     4  12  27  49  74 108 148 191 242 295 366 430
#     4  12  27  48  75 105 147 189 238 299 360 431
#
# _framework density 21.083608000000002
#
# number of rings (size 3 to 8) (size 9 to 14) (size 15 to 20)
#    0.000    0.000    3.333    6.000    9.333    0.000 
#    0.000    0.000    0.000    0.000    0.000    0.000 
#    0.000    0.000    0.000    0.000    0.000    0.000 
#
# Total GULP energy -67148.372216 kJ/mol
# GULP energy per Si atom -5595.697685 kJ/mol
# Density = 2.103562 g / cm^3
# Si number density = 21.083608 Si / 1000 Ang^3
#
#
#
# Elastic Constant Matrix: (Units=GPa)
#
#
# Indices 1 2 3 4 5 6 
#
# 1 207.3561 70.7250 57.2854 -11.7364 -21.2810 16.4582
# 2 70.7250 161.3850 23.5317 10.9251 11.0425 0.2665
# 3 57.2854 23.5317 97.6535 -2.1484 -9.0312 -0.0957
# 4 -11.7364 10.9251 -2.1484 43.1677 3.7700 13.2368
# 5 -21.2810 11.0425 -9.0312 3.7700 37.2378 -2.9721
# 6 16.4582 0.2665 -0.0957 13.2368 -2.9721 54.4594
#
#
#
# Elastic Compliance Matrix: (Units=1/GPa)
#
#
# Indices 1 2 3 4 5 6 
#
# 1 0.007724 -0.003408 -0.003263 0.003338 0.004063 -0.002913
# 2 -0.003408 0.008241 -0.000429 -0.003150 -0.004054 0.001533
# 3 -0.003263 -0.000429 0.012377 -0.000671 0.001432 0.001251
# 4 0.003338 -0.003150 -0.000671 0.027244 -0.000690 -0.007654
# 5 0.004063 -0.004054 0.001432 -0.000690 0.030847 0.000646
# 6 -0.002913 0.001533 0.001251 -0.007654 0.000646 0.021133
#
#
# Mechanical properties :
#
#
# Convention : Reuss Voigt Hill
#
# Bulk Modulus (GPa) = 70.72165 85.49766 78.10965
# Shear Modulus (GPa) = 39.53182 47.96315 43.74748
#
# Velocity S-wave (km/s) = 4.33483 4.77477 4.56011
# Velocity P-wave (km/s) = 7.65967 8.42838 8.05320
#
# Compressibility (1/GPa) = 0.01413994
#
# Stress axis : x y z
#
# Youngs Moduli (GPa) = 129.47064 121.34993 80.79565
#
# Poissons Ratio (x) = 0.41358 0.26366
# Poissons Ratio (y) = 0.44126 0.03468
# Poissons Ratio (z) = 0.42250 0.05208
#
# Static dielectric constant tensor:
#      x y z
#    x 1.652730 0.067850 0.120130 
#    y 0.067850 1.698830 -0.028550 
#    z 0.120130 -0.028550 1.753580 
# 
# From -- ./inp_files/149651.got.cif
#   From: 2010.05.17/outbox.cif.g08.bks.cpg/sg2_75_cif.got.tgz:149651.got - 2010.06.03 11:33:40.
