data_PCOD9070888
_publ_section_title
;
Structure prediction by ZEFSAII (Michael W. Deem and Ramdas Pophale) SiO2 
 PCOD9070888
Probable space group: P -1
;
_chemical_formula_sum "Si O2"
_cell_formula_units_Z 16
_cell_length_a 8.518730
_cell_length_b 9.516330
_cell_length_c 14.415062
_cell_angle_alpha 111.521542
_cell_angle_beta 79.243183
_cell_angle_gamma 52.119389
_cell_volume 710.327872
_symmetry_space_group_name_H-M "P -1"
_symmetry_group_IT_number 2
_symmetry_cell_setting 'triclinic'
loop_
_space_group_symop_operation_xyz
x,y,z
-x,-y,-z
loop_
_atom_site_type_symbol
_atom_site_label
_atom_site_fract_x
_atom_site_fract_y
_atom_site_fract_z
Si Si1 0.038597 0.012245 0.168919
Si Si2 0.502324 0.359252 0.394481
Si Si3 0.212558 0.182353 0.078422
Si Si4 0.139557 0.615784 0.998664
Si Si5 0.383037 0.829321 0.257857
Si Si6 0.518200 0.957775 0.598144
Si Si7 0.979820 0.375142 0.779784
Si Si8 0.819937 0.255006 0.617763
O O1 0.106883 0.111723 0.125994
O O2 0.758696 0.178612 0.267096
O O3 0.142020 0.796153 0.048161
O O4 0.176745 0.934884 0.232438
O O5 0.500000 0.500000 0.500000
O O6 0.287931 0.551570 0.395406
O O7 0.452543 0.236790 0.423201
O O8 0.116246 0.399657 0.192907
O O9 0.092104 0.263442 0.008743
O O10 0.500000 0.000000 0.000000
O O11 0.136349 0.573121 0.096008
O O12 0.367898 0.371362 0.871253
O O13 0.321948 0.031726 0.363061
O O14 0.392814 0.695178 0.303891
O O15 0.259394 0.187001 0.720256
O O16 0.500000 0.000000 0.500000
O O17 0.938393 0.268350 0.688753
O O18 0.000000 0.000000 0.500000
#
# Coordination Sequence:
#
# PCOD9070888 Si02
#       8
#     2   2   2   2   2   2   2   2
#     4  12  27  46  74 112 151 199 251 304 380 449
#     4  12  27  49  79 107 152 200 250 310 380 450
#     4  12  29  43  72 114 152 191 253 309 368 455
#     4  12  25  50  73 106 151 205 243 307 391 444
#     4  12  25  47  77 110 152 195 251 310 375 453
#     4  12  27  49  77 112 147 195 251 317 376 444
#     4  12  26  47  74 104 151 195 245 311 380 444
#     4  12  27  51  75 108 150 201 252 306 378 453
#
# _framework density 22.524809999999999
#
# number of rings (size 3 to 8) (size 9 to 14) (size 15 to 20)
#    0.000    0.000    3.750    5.625    8.750    0.000 
#    0.000    1.875    0.000    0.000    0.000    0.000 
#    0.000    0.000    0.000    0.000    0.000    0.000 
#
# Total GULP energy -89491.158133 kJ/mol
# GULP energy per Si atom -5593.197383 kJ/mol
# Density = 2.247354 g / cm^3
# Si number density = 22.524810 Si / 1000 Ang^3
#
#
#
# Elastic Constant Matrix: (Units=GPa)
#
#
# Indices 1 2 3 4 5 6 
#
# 1 111.2839 50.6884 44.0177 4.3745 29.8810 12.8536
# 2 50.6884 127.8673 41.3837 5.4228 4.9360 18.6145
# 3 44.0177 41.3837 107.3909 -3.2685 25.7320 11.7687
# 4 4.3745 5.4228 -3.2685 30.8201 6.0403 5.8810
# 5 29.8810 4.9360 25.7320 6.0403 43.7635 2.4303
# 6 12.8536 18.6145 11.7687 5.8810 2.4303 55.2925
#
#
#
# Elastic Compliance Matrix: (Units=1/GPa)
#
#
# Indices 1 2 3 4 5 6 
#
# 1 0.014046 -0.004475 -0.002023 0.000318 -0.007884 -0.001016
# 2 -0.004475 0.010825 -0.003172 -0.002046 0.004087 -0.001891
# 3 -0.002023 -0.003172 0.013175 0.003771 -0.006452 -0.001384
# 4 0.000318 -0.002046 0.003771 0.035198 -0.006860 -0.003630
# 5 -0.007884 0.004087 -0.006452 -0.006860 0.032449 0.001134
# 6 -0.001016 -0.001891 -0.001384 -0.003630 0.001134 0.019589
#
#
# Mechanical properties :
#
#
# Convention : Reuss Voigt Hill
#
# Bulk Modulus (GPa) = 53.45249 68.74689 61.09969
# Shear Modulus (GPa) = 33.14374 40.00536 36.57455
#
# Velocity S-wave (km/s) = 3.84009 4.21890 4.03394
# Velocity P-wave (km/s) = 6.59118 7.37014 6.99152
#
# Compressibility (1/GPa) = 0.01870820
#
# Stress axis : x y z
#
# Youngs Moduli (GPa) = 71.19468 92.37659 75.89885
#
# Poissons Ratio (x) = 0.41335 0.15353
# Poissons Ratio (y) = 0.31857 0.24073
# Poissons Ratio (z) = 0.14402 0.29299
#
# Static dielectric constant tensor:
#      x y z
#    x 1.811100 0.231810 -0.052000 
#    y 0.231810 1.462200 0.070000 
#    z -0.052000 0.070000 1.794140 
# 
# From -- ./inp_files/494918.got.cif
#   From: 2010.05.17/outbox.cif.g08.bks.cpg/sg2_248_cif.got.tgz:494918.got - 2010.06.03 11:33:40.
