data_PCOD9070737
_publ_section_title
;
Structure prediction by ZEFSAII (Michael W. Deem and Ramdas Pophale) SiO2 
 PCOD9070737
Probable space group: P -1
;
_chemical_formula_sum "Si O2"
_cell_formula_units_Z 14
_cell_length_a 14.483222
_cell_length_b 11.387597
_cell_length_c 5.064851
_cell_angle_alpha 113.833706
_cell_angle_beta 123.851899
_cell_angle_gamma 54.044351
_cell_volume 557.861805
_symmetry_space_group_name_H-M "P -1"
_symmetry_group_IT_number 2
_symmetry_cell_setting 'triclinic'
loop_
_space_group_symop_operation_xyz
x,y,z
-x,-y,-z
loop_
_atom_site_type_symbol
_atom_site_label
_atom_site_fract_x
_atom_site_fract_y
_atom_site_fract_z
Si Si1 0.743099 0.528553 0.918818
Si Si2 0.007729 0.649057 0.567375
Si Si3 0.671574 0.718286 0.510937
Si Si4 0.408936 0.771925 0.367907
Si Si5 0.796840 0.897134 0.687412
Si Si6 0.951658 0.168169 0.657112
Si Si7 0.657337 0.330825 0.342021
O O1 0.765868 0.611422 0.786664
O O2 0.650338 0.476837 0.583211
O O3 0.871916 0.387543 0.082367
O O4 0.692394 0.627044 0.190115
O O5 0.052298 0.708338 0.439539
O O6 0.000000 0.500000 0.500000
O O7 0.860825 0.776278 0.450920
O O8 0.531333 0.777169 0.456272
O O9 0.708286 0.845000 0.646755
O O10 0.421472 0.717522 0.636969
O O11 0.288031 0.932509 0.330503
O O12 0.378522 0.673820 0.022684
O O13 0.931905 0.859435 0.991714
O O14 0.804535 0.217548 0.515861
O O15 0.000000 0.000000 0.500000
#
# Coordination Sequence:
#
# PCOD9070737 Si02
#       7
#     2   2   2   2   2   2   2
#     4  12  26  46  77 110 149 195 253 315 386 448
#     4  12  25  45  76 115 156 195 253 324 392 457
#     4  12  28  49  73 107 153 205 254 306 373 463
#     4  12  28  49  73 107 153 205 254 306 373 463
#     4  12  27  44  78 110 151 196 256 316 390 452
#     4  12  25  45  76 115 156 195 253 324 392 457
#     4  12  26  46  77 110 149 195 253 315 386 448
#
# _framework density 25.095821999999998
#
# number of rings (size 3 to 8) (size 9 to 14) (size 15 to 20)
#    0.000    0.000    4.286    5.571    0.000    5.714 
#    0.000    2.857    0.000    0.000    0.000    0.000 
#    0.000    0.000    0.000    0.000    0.000    0.000 
#
# Total GULP energy -78110.192739 kJ/mol
# GULP energy per Si atom -5579.299481 kJ/mol
# Density = 2.503870 g / cm^3
# Si number density = 25.095822 Si / 1000 Ang^3
#
#
#
# Elastic Constant Matrix: (Units=GPa)
#
#
# Indices 1 2 3 4 5 6 
#
# 1 119.8849 24.5378 -0.7442 12.0078 8.1574 -6.6923
# 2 24.5378 105.3623 6.3131 -3.6866 -9.8013 -14.0685
# 3 -0.7442 6.3131 58.9970 -4.3857 -4.9366 -5.0708
# 4 12.0078 -3.6866 -4.3857 16.2718 -1.2082 7.0474
# 5 8.1574 -9.8013 -4.9366 -1.2082 44.8379 -18.8204
# 6 -6.6923 -14.0685 -5.0708 7.0474 -18.8204 36.5215
#
#
#
# Elastic Compliance Matrix: (Units=1/GPa)
#
#
# Indices 1 2 3 4 5 6 
#
# 1 0.009976 -0.002617 -0.000300 -0.008801 -0.002064 0.001413
# 2 -0.002617 0.011597 -0.000065 0.002129 0.005817 0.006565
# 3 -0.000300 -0.000065 0.017834 0.003756 0.003581 0.003517
# 4 -0.008801 0.002129 0.003756 0.076271 -0.002241 -0.016143
# 5 -0.002064 0.005817 0.003581 -0.002241 0.032481 0.019531
# 6 0.001413 0.006565 0.003517 -0.016143 0.019531 0.043837
#
#
# Mechanical properties :
#
#
# Convention : Reuss Voigt Hill
#
# Bulk Modulus (GPa) = 29.89965 38.27308 34.08636
# Shear Modulus (GPa) = 23.91134 36.46875 30.19005
#
# Velocity S-wave (km/s) = 3.09010 3.81620 3.47218
# Velocity P-wave (km/s) = 4.96706 5.89081 5.44855
#
# Compressibility (1/GPa) = 0.03344521
#
# Stress axis : x y z
#
# Youngs Moduli (GPa) = 100.24248 86.23238 56.07159
#
# Poissons Ratio (x) = 0.22563 0.01680
# Poissons Ratio (y) = 0.26229 0.00362
# Poissons Ratio (z) = 0.03004 0.00557
#
# Static dielectric constant tensor:
#      x y z
#    x 2.014210 -0.015880 -0.005830 
#    y -0.015880 1.968730 0.080040 
#    z -0.005830 0.080040 2.083570 
# 
# From -- ./inp_files/95571.got.cif
#   From: 2010.05.17/outbox.cif.g08.bks.cpg/sg2_48_cif.got.tgz:95571.got - 2010.06.03 11:33:40.
