data_PCOD9070125
_publ_section_title
;
Structure prediction by ZEFSAII (Michael W. Deem and Ramdas Pophale) SiO2 
 PCOD9070125
Probable space group: P -1
;
_chemical_formula_sum "Si O2"
_cell_formula_units_Z 16
_cell_length_a 11.731106
_cell_length_b 8.661362
_cell_length_c 19.660366
_cell_angle_alpha 31.472634
_cell_angle_beta 134.448242
_cell_angle_gamma 122.516134
_cell_volume 734.927030
_symmetry_space_group_name_H-M "P -1"
_symmetry_group_IT_number 2
_symmetry_cell_setting 'triclinic'
loop_
_space_group_symop_operation_xyz
x,y,z
-x,-y,-z
loop_
_atom_site_type_symbol
_atom_site_label
_atom_site_fract_x
_atom_site_fract_y
_atom_site_fract_z
Si Si1 0.704322 0.591600 0.171045
Si Si2 0.351030 0.702041 0.141507
Si Si3 0.112935 0.681087 0.174065
Si Si4 0.066849 0.703059 0.507642
Si Si5 0.369072 0.769920 0.524908
Si Si6 0.658718 0.266438 0.632912
Si Si7 0.840902 0.287891 0.204362
Si Si8 0.358864 0.424033 0.111210
O O1 0.849277 0.483961 0.323903
O O2 0.748315 0.445854 0.170899
O O3 0.543918 0.471652 0.173040
O O4 0.668215 0.949867 0.015684
O O5 0.251693 0.663850 0.182280
O O6 0.534054 0.550632 0.290453
O O7 0.290088 0.523247 0.119675
O O8 0.193179 0.646844 0.294716
O O9 0.997934 0.443107 0.201619
O O10 0.000000 0.000000 0.000000
O O11 0.211272 0.846434 0.477170
O O12 0.000000 0.500000 0.500000
O O13 0.914528 0.944394 0.375871
O O14 0.323120 0.742551 0.437294
O O15 0.500000 0.000000 0.500000
O O16 0.500000 0.500000 0.500000
O O17 0.647967 0.921911 0.777871
O O18 0.730958 0.360563 0.064817
#
# Coordination Sequence:
#
# PCOD9070125 Si02
#       8
#     2   2   2   2   2   2   2   2
#     4  12  26  48  73 103 145 192 235 289 367 439
#     4  12  24  45  77 101 145 185 240 298 352 435
#     4  12  25  47  69 109 142 183 237 298 363 419
#     4  12  29  48  72 109 145 189 242 299 368 426
#     4  12  25  48  74 108 143 191 244 299 352 426
#     4  12  26  43  74 104 140 188 242 291 355 427
#     4  12  28  47  72 104 149 183 237 301 363 424
#     4  12  26  46  73 107 137 193 242 290 362 433
#
# _framework density 21.770869000000001
#
# number of rings (size 3 to 8) (size 9 to 14) (size 15 to 20)
#    0.000    0.000    6.250    2.625    5.250    2.500 
#    0.000    0.000    0.000    0.000    0.000    0.000 
#    0.000    0.000    0.000    0.000    0.000    0.000 
#
# Total GULP energy -89599.991298 kJ/mol
# GULP energy per Si atom -5599.999456 kJ/mol
# Density = 2.172132 g / cm^3
# Si number density = 21.770869 Si / 1000 Ang^3
#
#
#
# Elastic Constant Matrix: (Units=GPa)
#
#
# Indices 1 2 3 4 5 6 
#
# 1 70.7167 -8.9288 8.3922 5.2054 5.7873 -19.1177
# 2 -8.9288 43.5293 28.6935 13.1727 10.7300 -10.4506
# 3 8.3922 28.6935 151.1581 16.3824 8.1001 -22.1580
# 4 5.2054 13.1727 16.3824 54.4460 -11.9838 -7.0965
# 5 5.7873 10.7300 8.1001 -11.9838 32.8677 0.0113
# 6 -19.1177 -10.4506 -22.1580 -7.0965 0.0113 34.7916
#
#
#
# Elastic Compliance Matrix: (Units=1/GPa)
#
#
# Indices 1 2 3 4 5 6 
#
# 1 0.020278 0.011201 -0.000301 -0.004778 -0.008900 0.013344
# 2 0.011201 0.038866 -0.003880 -0.011556 -0.017922 0.013007
# 3 -0.000301 -0.003880 0.008088 -0.001250 -0.001130 0.003565
# 4 -0.004778 -0.011556 -0.001250 0.024833 0.013977 -0.001832
# 5 -0.008900 -0.017922 -0.001130 0.013977 0.043220 -0.008157
# 6 0.013344 0.013007 0.003565 -0.001832 -0.008157 0.041882
#
#
# Mechanical properties :
#
#
# Convention : Reuss Voigt Hill
#
# Bulk Modulus (GPa) = 12.30436 35.74643 24.02540
# Shear Modulus (GPa) = 26.28567 40.23753 33.26160
#
# Velocity S-wave (km/s) = 3.47850 4.30377 3.91295
# Velocity P-wave (km/s) = 4.66876 6.41495 5.61021
#
# Compressibility (1/GPa) = 0.08127199
#
# Stress axis : x y z
#
# Youngs Moduli (GPa) = 49.31342 25.72944 123.64752
#
# Poissons Ratio (x) = -0.28821 0.03726
# Poissons Ratio (y) = -0.55238 0.47976
# Poissons Ratio (z) = 0.01486 0.09983
#
# Static dielectric constant tensor:
#      x y z
#    x 16.502130 8.867710 -11.794560 
#    y 8.867710 7.193840 -7.239810 
#    z -11.794560 -7.239810 11.378680 
# 
# From -- ./inp_files/263375.got.cif
#   From: 2010.05.17/outbox.cif.g08.bks.cpg/sg2_132_cif.got.tgz:263375.got - 2010.06.03 11:33:40.
