data_PCOD9070316
_publ_section_title
;
Structure prediction by ZEFSAII (Michael W. Deem and Ramdas Pophale) SiO2 
 PCOD9070316
Probable space group: P -1
;
_chemical_formula_sum "Si O2"
_cell_formula_units_Z 14
_cell_length_a 8.945257
_cell_length_b 14.633223
_cell_length_c 14.765064
_cell_angle_alpha 149.850947
_cell_angle_beta 53.914053
_cell_angle_gamma 104.614391
_cell_volume 607.165856
_symmetry_space_group_name_H-M "P -1"
_symmetry_group_IT_number 2
_symmetry_cell_setting 'triclinic'
loop_
_space_group_symop_operation_xyz
x,y,z
-x,-y,-z
loop_
_atom_site_type_symbol
_atom_site_label
_atom_site_fract_x
_atom_site_fract_y
_atom_site_fract_z
Si Si1 0.576611 0.333186 0.691746
Si Si2 0.781673 0.522292 0.379376
Si Si3 0.531211 0.792024 0.863200
Si Si4 0.922843 0.138556 0.860163
Si Si5 0.392992 0.165003 0.464578
Si Si6 0.255755 0.373437 0.169255
Si Si7 0.919607 0.257807 0.767277
O O1 0.508206 0.228112 0.550131
O O2 0.654280 0.477772 0.746892
O O3 0.814921 0.106538 0.457664
O O4 0.333275 0.523069 0.997114
O O5 0.617065 0.594045 0.587515
O O6 0.633378 0.722295 0.526998
O O7 0.001233 0.503355 0.324653
O O8 0.895776 0.278066 0.078958
O O9 0.726165 0.683004 0.779158
O O10 0.282697 0.884946 0.077017
O O11 0.500000 0.000000 0.000000
O O12 0.875978 0.288714 0.917362
O O13 0.129818 0.260929 0.667649
O O14 0.558068 0.883932 0.161121
O O15 0.000000 0.000000 0.500000
#
# Coordination Sequence:
#
# PCOD9070316 Si02
#       7
#     2   2   2   2   2   2   2
#     4  12  26  46  75 105 148 186 238 294 358 430
#     4  12  26  46  77 104 146 190 242 297 355 428
#     4  12  24  47  74 103 147 188 238 300 357 421
#     4  12  27  47  71 110 143 192 242 292 361 427
#     4  12  25  49  72 107 145 190 239 298 357 421
#     4  12  25  48  73 111 143 186 243 293 360 427
#     4  12  26  47  74 104 149 188 240 299 354 427
#
# _framework density 23.057950000000002
#
# number of rings (size 3 to 8) (size 9 to 14) (size 15 to 20)
#    0.000    0.000    7.143    2.143    2.000    2.286 
#    0.000    2.143    0.000    0.000    0.000    0.000 
#    0.000    0.000    0.000    0.000    0.000    0.000 
#
# Total GULP energy -78404.083732 kJ/mol
# GULP energy per Si atom -5600.291695 kJ/mol
# Density = 2.300547 g / cm^3
# Si number density = 23.057950 Si / 1000 Ang^3
#
#
#
# Elastic Constant Matrix: (Units=GPa)
#
#
# Indices 1 2 3 4 5 6 
#
# 1 106.5036 4.3439 25.1132 1.9287 -3.8924 10.9619
# 2 4.3439 38.2173 -0.7710 6.3125 -3.5666 6.0350
# 3 25.1132 -0.7710 125.0270 3.7039 -7.1214 3.9221
# 4 1.9287 6.3125 3.7039 39.1919 4.0478 3.7987
# 5 -3.8924 -3.5666 -7.1214 4.0478 53.2381 0.6101
# 6 10.9619 6.0350 3.9221 3.7987 0.6101 26.9742
#
#
#
# Elastic Compliance Matrix: (Units=1/GPa)
#
#
# Indices 1 2 3 4 5 6 
#
# 1 0.010273 -0.000576 -0.001923 0.000085 0.000492 -0.003789
# 2 -0.000576 0.028050 0.000723 -0.004255 0.002321 -0.005600
# 3 -0.001923 0.000723 0.008495 -0.000890 0.001118 -0.000516
# 4 0.000085 -0.004255 -0.000890 0.026788 -0.002404 -0.002671
# 5 0.000492 0.002321 0.001118 -0.002404 0.019319 -0.000980
# 6 -0.003789 -0.005600 -0.000516 -0.002671 -0.000980 0.040339
#
#
# Mechanical properties :
#
#
# Convention : Reuss Voigt Hill
#
# Bulk Modulus (GPa) = 23.11314 36.34669 29.72991
# Shear Modulus (GPa) = 33.06073 39.95161 36.50617
#
# Velocity S-wave (km/s) = 3.79068 4.16704 3.98331
# Velocity P-wave (km/s) = 5.40413 6.24097 5.83757
#
# Compressibility (1/GPa) = 0.04326544
#
# Stress axis : x y z
#
# Youngs Moduli (GPa) = 97.34581 35.65074 117.71478
#
# Poissons Ratio (x) = 0.02054 0.22631
# Poissons Ratio (y) = 0.05609 -0.08507
# Poissons Ratio (z) = 0.18715 -0.02576
#
# Static dielectric constant tensor:
#      x y z
#    x 1.848990 -0.005050 0.025860 
#    y -0.005050 1.801360 -0.010470 
#    z 0.025860 -0.010470 1.914200 
# 
# From -- ./inp_files/315850.got.cif
#   From: 2010.05.17/outbox.cif.g08.bks.cpg/sg2_158_cif.got.tgz:315850.got - 2010.06.03 11:33:40.
