data_PCOD9070681
_publ_section_title
;
Structure prediction by ZEFSAII (Michael W. Deem and Ramdas Pophale) SiO2 
 PCOD9070681
Probable space group: P -1
;
_chemical_formula_sum "Si O2"
_cell_formula_units_Z 14
_cell_length_a 12.327068
_cell_length_b 20.159326
_cell_length_c 14.303351
_cell_angle_alpha 30.714870
_cell_angle_beta 20.164828
_cell_angle_gamma 32.054526
_cell_volume 609.043569
_symmetry_space_group_name_H-M "P -1"
_symmetry_group_IT_number 2
_symmetry_cell_setting 'triclinic'
loop_
_space_group_symop_operation_xyz
x,y,z
-x,-y,-z
loop_
_atom_site_type_symbol
_atom_site_label
_atom_site_fract_x
_atom_site_fract_y
_atom_site_fract_z
Si Si1 0.798032 0.993313 0.841513
Si Si2 0.666326 0.566677 0.545737
Si Si3 0.545220 0.854562 0.384735
Si Si4 0.617951 0.579460 0.889913
Si Si5 0.948484 0.248592 0.499489
Si Si6 0.330433 0.143810 0.500460
Si Si7 0.331133 0.430578 0.860216
O O1 0.148666 0.890884 0.662100
O O2 0.901679 0.132361 0.608055
O O3 0.663826 0.951354 0.099045
O O4 0.500000 0.000000 0.000000
O O5 0.673059 0.706020 0.418196
O O6 0.466415 0.561177 0.621726
O O7 0.001487 0.463567 0.380298
O O8 0.478810 0.488897 0.859362
O O9 0.690653 0.864497 0.359245
O O10 0.481956 0.736656 0.805256
O O11 0.500000 0.500000 0.000000
O O12 0.603944 0.347717 0.672919
O O13 0.048735 0.191307 0.593246
O O14 0.220696 0.323690 0.150770
O O15 0.500000 0.000000 0.500000
O O16 0.000000 0.500000 0.000000
#
# Coordination Sequence:
#
# PCOD9070681 Si02
#       7
#     2   2   2   2   2   2   2
#     4  12  29  50  74 106 150 194 253 312 372 451
#     4  12  25  45  72 105 144 190 250 299 376 433
#     4  12  28  46  77 110 143 202 245 308 380 453
#     4  12  25  45  70 105 149 190 236 305 370 442
#     4  12  27  49  74 109 149 199 245 315 382 437
#     4  12  26  48  74 111 158 193 253 304 378 459
#     4  12  27  47  75 108 146 195 257 313 371 445
#
# _framework density 22.986861000000001
#
# number of rings (size 3 to 8) (size 9 to 14) (size 15 to 20)
#    0.000    0.000    5.714    3.000    4.000    1.714 
#    0.000    0.000    0.000    0.000    0.000    0.000 
#    0.000    0.000    0.000    0.000    0.000    0.000 
#
# Total GULP energy -78121.620261 kJ/mol
# GULP energy per Si atom -5580.115733 kJ/mol
# Density = 2.293454 g / cm^3
# Si number density = 22.986861 Si / 1000 Ang^3
#
#
#
# Elastic Constant Matrix: (Units=GPa)
#
#
# Indices 1 2 3 4 5 6 
#
# 1 84.3819 26.7420 7.3756 -15.8426 -24.6468 3.5353
# 2 26.7420 124.1293 0.3246 -10.3817 -15.4197 33.1283
# 3 7.3756 0.3246 81.5150 7.6467 2.5138 5.8448
# 4 -15.8426 -10.3817 7.6467 47.9598 10.6779 -10.1711
# 5 -24.6468 -15.4197 2.5138 10.6779 48.7117 -12.6647
# 6 3.5353 33.1283 5.8448 -10.1711 -12.6647 41.8621
#
#
#
# Elastic Compliance Matrix: (Units=1/GPa)
#
#
# Indices 1 2 3 4 5 6 
#
# 1 0.015945 -0.003492 -0.002426 0.004311 0.007458 0.005059
# 2 -0.003492 0.011068 0.000992 -0.000700 -0.000480 -0.008917
# 3 -0.002426 0.000992 0.013094 -0.003042 -0.001889 -0.003719
# 4 0.004311 -0.000700 -0.003042 0.024247 -0.001636 0.006011
# 5 0.007458 -0.000480 -0.001889 -0.001636 0.026599 0.007663
# 6 0.005059 -0.008917 -0.003719 0.006011 0.007663 0.034816
#
#
# Mechanical properties :
#
#
# Convention : Reuss Voigt Hill
#
# Bulk Modulus (GPa) = 33.05364 39.87897 36.46631
# Shear Modulus (GPa) = 34.31567 44.74567 39.53067
#
# Velocity S-wave (km/s) = 3.86792 4.41679 4.15143
# Velocity P-wave (km/s) = 5.86160 6.58764 6.23519
#
# Compressibility (1/GPa) = 0.03025385
#
# Stress axis : x y z
#
# Youngs Moduli (GPa) = 62.71398 90.35364 76.37355
#
# Poissons Ratio (x) = 0.31553 0.18528
# Poissons Ratio (y) = 0.21901 -0.07575
# Poissons Ratio (z) = 0.15214 -0.08961
#
# Static dielectric constant tensor:
#      x y z
#    x 1.764610 -0.084120 0.007240 
#    y -0.084120 1.812330 -0.016740 
#    z 0.007240 -0.016740 1.880810 
# 
# From -- ./inp_files/485515.got.cif
#   From: 2010.05.17/outbox.cif.g08.bks.cpg/sg2_243_cif.got.tgz:485515.got - 2010.06.03 11:33:40.
