data_PCOD9070400
_publ_section_title
;
Structure prediction by ZEFSAII (Michael W. Deem and Ramdas Pophale) SiO2 
 PCOD9070400
Probable space group: P -1
;
_chemical_formula_sum "Si O2"
_cell_formula_units_Z 10
_cell_length_a 10.890476
_cell_length_b 7.808459
_cell_length_c 7.672762
_cell_angle_alpha 64.892247
_cell_angle_beta 57.860228
_cell_angle_gamma 47.762766
_cell_volume 406.719138
_symmetry_space_group_name_H-M "P -1"
_symmetry_group_IT_number 2
_symmetry_cell_setting 'triclinic'
loop_
_space_group_symop_operation_xyz
x,y,z
-x,-y,-z
loop_
_atom_site_type_symbol
_atom_site_label
_atom_site_fract_x
_atom_site_fract_y
_atom_site_fract_z
Si Si1 0.165525 0.011385 0.387648
Si Si2 0.765450 0.633608 0.871921
Si Si3 0.920147 0.872688 0.202192
Si Si4 0.520500 0.541944 0.267988
Si Si5 0.443731 0.895893 0.736710
O O1 0.143351 0.234675 0.225814
O O2 0.179407 0.020595 0.583933
O O3 0.336158 0.789090 0.263063
O O4 0.000000 0.000000 0.500000
O O5 0.587820 0.814109 0.815178
O O6 0.915712 0.391727 0.771667
O O7 0.315049 0.439055 0.886411
O O8 0.768098 0.910324 0.170426
O O9 0.000000 0.000000 0.000000
O O10 0.500000 0.500000 0.500000
O O11 0.539615 0.338652 0.227167
O O12 0.500000 0.000000 0.500000
#
# Coordination Sequence:
#
# PCOD9070400 Si02
#       5
#     2   2   2   2   2
#     4  12  27  45  70 105 144 185 234 298 357 408
#     4  12  26  49  73 103 145 192 237 290 352 429
#     4  12  25  48  72 105 140 188 242 287 350 432
#     4  12  24  48  70 106 145 182 234 297 357 417
#     4  12  25  45  77 103 141 191 238 287 353 430
#
# _framework density 24.586994000000001
#
# number of rings (size 3 to 8) (size 9 to 14) (size 15 to 20)
#    0.000    0.000    6.000    3.000    5.600    0.000 
#    0.000    2.000    0.000    0.000    0.000    0.000 
#    0.000    0.000    0.000    0.000    0.000    0.000 
#
# Total GULP energy -55993.607217 kJ/mol
# GULP energy per Si atom -5599.360722 kJ/mol
# Density = 2.453103 g / cm^3
# Si number density = 24.586994 Si / 1000 Ang^3
#
#
#
# Elastic Constant Matrix: (Units=GPa)
#
#
# Indices 1 2 3 4 5 6 
#
# 1 79.4280 14.6837 38.3561 5.8764 -25.7024 -11.3132
# 2 14.6837 87.6517 26.3080 8.4452 -17.9400 -12.8130
# 3 38.3561 26.3080 173.8121 1.5819 -41.2762 11.9905
# 4 5.8764 8.4452 1.5819 38.5465 0.0006 -7.7918
# 5 -25.7024 -17.9400 -41.2762 0.0006 60.3601 1.0471
# 6 -11.3132 -12.8130 11.9905 -7.7918 1.0471 39.9485
#
#
#
# Elastic Compliance Matrix: (Units=1/GPa)
#
#
# Indices 1 2 3 4 5 6 
#
# 1 0.016361 -0.000022 -0.002760 -0.001353 0.004985 0.005060
# 2 -0.000022 0.013281 -0.001630 -0.001973 0.002749 0.004286
# 3 -0.002760 -0.001630 0.007754 -0.000306 0.003708 -0.003789
# 4 -0.001353 -0.001973 -0.000306 0.027499 -0.001450 0.004477
# 5 0.004985 0.002749 0.003708 -0.001450 0.022037 0.000320
# 6 0.005060 0.004286 -0.003789 0.004477 0.000320 0.029842
#
#
# Mechanical properties :
#
#
# Convention : Reuss Voigt Hill
#
# Bulk Modulus (GPa) = 35.00033 55.50974 45.25504
# Shear Modulus (GPa) = 37.00346 45.20729 41.10537
#
# Velocity S-wave (km/s) = 3.88364 4.29262 4.09324
# Velocity P-wave (km/s) = 5.86314 6.86984 6.38636
#
# Compressibility (1/GPa) = 0.02857116
#
# Stress axis : x y z
#
# Youngs Moduli (GPa) = 61.12132 75.29533 128.96630
#
# Poissons Ratio (x) = 0.00166 0.35595
# Poissons Ratio (y) = 0.00135 0.21025
# Poissons Ratio (z) = 0.16870 0.12275
#
# Static dielectric constant tensor:
#      x y z
#    x 2.067130 0.014040 0.076490 
#    y 0.014040 1.993130 -0.005130 
#    z 0.076490 -0.005130 1.964410 
# 
# From -- ./inp_files/375354.got.cif
#   From: 2010.05.17/outbox.cif.g08.bks.cpg/sg2_188_cif.got.tgz:375354.got - 2010.06.03 11:33:40.
