data_PCOD9070341
_publ_section_title
;
Structure prediction by ZEFSAII (Michael W. Deem and Ramdas Pophale) SiO2 
 PCOD9070341
Probable space group: P -1
;
_chemical_formula_sum "Si O2"
_cell_formula_units_Z 12
_cell_length_a 15.001709
_cell_length_b 8.233952
_cell_length_c 8.219149
_cell_angle_alpha 93.925867
_cell_angle_beta 33.229493
_cell_angle_gamma 108.949934
_cell_volume 484.085532
_symmetry_space_group_name_H-M "P -1"
_symmetry_group_IT_number 2
_symmetry_cell_setting 'triclinic'
loop_
_space_group_symop_operation_xyz
x,y,z
-x,-y,-z
loop_
_atom_site_type_symbol
_atom_site_label
_atom_site_fract_x
_atom_site_fract_y
_atom_site_fract_z
Si Si1 0.130693 0.683650 0.911598
Si Si2 0.485368 0.091828 0.699368
Si Si3 0.493522 0.476972 0.810786
Si Si4 0.852716 0.528416 0.832228
Si Si5 0.123343 0.940812 0.421649
Si Si6 0.860779 0.826269 0.308049
O O1 0.995736 0.759820 0.181555
O O2 0.206523 0.612678 0.937920
O O3 0.000000 0.500000 0.000000
O O4 0.304247 0.834431 0.551712
O O5 0.470817 0.282692 0.759893
O O6 0.691095 0.652447 0.467215
O O7 0.500000 0.000000 0.500000
O O8 0.295550 0.941899 0.065134
O O9 0.500000 0.500000 0.000000
O O10 0.322460 0.496693 0.004466
O O11 0.000000 0.500000 0.500000
O O12 0.976161 0.744396 0.710319
O O13 0.215401 0.094604 0.430936
O O14 0.000000 0.000000 0.500000
O O15 0.000000 0.000000 0.000000
#
# Coordination Sequence:
#
# PCOD9070341 Si02
#       6
#     2   2   2   2   2   2
#     4  12  27  50  74 114 161 205 264 331 395 475
#     4  12  26  46  80 116 164 206 265 330 395 472
#     4  12  25  51  81 115 161 213 265 329 400 475
#     4  12  27  46  80 114 155 209 267 330 400 464
#     4  12  24  47  75 112 155 205 262 321 391 471
#     4  12  27  51  80 113 154 209 267 329 400 474
#
# _framework density 24.789006000000001
#
# number of rings (size 3 to 8) (size 9 to 14) (size 15 to 20)
#    0.000    0.000    5.000    5.000    0.000    4.667 
#    0.000    2.500    0.000    0.000    0.000    0.000 
#    0.000    0.000    0.000    0.000    0.000    0.000 
#
# Total GULP energy -67139.897790 kJ/mol
# GULP energy per Si atom -5594.991482 kJ/mol
# Density = 2.473258 g / cm^3
# Si number density = 24.789006 Si / 1000 Ang^3
#
#
#
# Elastic Constant Matrix: (Units=GPa)
#
#
# Indices 1 2 3 4 5 6 
#
# 1 105.4988 54.9643 47.7242 8.0138 -17.8091 1.4440
# 2 54.9643 143.7723 42.7602 -9.0519 2.5834 15.6864
# 3 47.7242 42.7602 182.9339 -3.8972 -13.5076 5.3510
# 4 8.0138 -9.0519 -3.8972 64.3861 9.8835 -4.2359
# 5 -17.8091 2.5834 -13.5076 9.8835 49.8574 2.2058
# 6 1.4440 15.6864 5.3510 -4.2359 2.2058 33.8554
#
#
#
# Elastic Compliance Matrix: (Units=1/GPa)
#
#
# Indices 1 2 3 4 5 6 
#
# 1 0.014415 -0.005315 -0.002231 -0.003417 0.005434 0.001419
# 2 -0.005315 0.009878 -0.000984 0.002198 -0.002948 -0.003728
# 3 -0.002231 -0.000984 0.006369 0.000351 0.000931 -0.000472
# 4 -0.003417 0.002198 0.000351 0.017108 -0.004698 0.001519
# 5 0.005434 -0.002948 0.000931 -0.004698 0.023384 -0.001125
# 6 0.001419 -0.003728 -0.000472 0.001519 -0.001125 0.031542
#
#
# Mechanical properties :
#
#
# Convention : Reuss Voigt Hill
#
# Bulk Modulus (GPa) = 73.52469 80.34471 76.93470
# Shear Modulus (GPa) = 40.22872 48.73688 44.48280
#
# Velocity S-wave (km/s) = 4.03283 4.43885 4.24070
# Velocity P-wave (km/s) = 7.17004 7.66505 7.42167
#
# Compressibility (1/GPa) = 0.01360087
#
# Stress axis : x y z
#
# Youngs Moduli (GPa) = 69.37419 101.23482 157.01993
#
# Poissons Ratio (x) = 0.53803 0.35035
# Poissons Ratio (y) = 0.36870 0.15455
# Poissons Ratio (z) = 0.15479 0.09964
#
# Static dielectric constant tensor:
#      x y z
#    x 1.953220 -0.006350 0.050100 
#    y -0.006350 2.033370 -0.016910 
#    z 0.050100 -0.016910 1.998960 
# 
# From -- ./inp_files/295374.got.cif
#   From: 2010.05.17/outbox.cif.g08.bks.cpg/sg2_148_cif.got.tgz:295374.got - 2010.06.03 11:33:40.
