data_PCOD9070923
_publ_section_title
;
Structure prediction by ZEFSAII (Michael W. Deem and Ramdas Pophale) SiO2 
 PCOD9070923
Probable space group: P -1
;
_chemical_formula_sum "Si O2"
_cell_formula_units_Z 12
_cell_length_a 11.529248
_cell_length_b 20.353873
_cell_length_c 17.261928
_cell_angle_alpha 19.394182
_cell_angle_beta 21.514810
_cell_angle_gamma 30.167713
_cell_volume 490.503696
_symmetry_space_group_name_H-M "P -1"
_symmetry_group_IT_number 2
_symmetry_cell_setting 'triclinic'
loop_
_space_group_symop_operation_xyz
x,y,z
-x,-y,-z
loop_
_atom_site_type_symbol
_atom_site_label
_atom_site_fract_x
_atom_site_fract_y
_atom_site_fract_z
Si Si1 0.201417 0.019989 0.716524
Si Si2 0.443571 0.160893 0.182084
Si Si3 0.865399 0.179216 0.336283
Si Si4 0.134305 0.614615 0.645902
Si Si5 0.652534 0.761038 0.283931
Si Si6 0.140465 0.638518 0.432248
O O1 0.248729 0.868512 0.924959
O O2 0.500000 0.000000 0.500000
O O3 0.161532 0.239678 0.527138
O O4 0.885006 0.959468 0.930480
O O5 0.190065 0.292982 0.230332
O O6 0.267935 0.938588 0.525833
O O7 0.575214 0.248169 0.921404
O O8 0.581127 0.249391 0.486117
O O9 0.000000 0.000000 0.500000
O O10 0.089286 0.380543 0.956796
O O11 0.420907 0.730860 0.387562
O O12 0.189245 0.627696 0.505989
O O13 0.877681 0.585143 0.337871
#
# Coordination Sequence:
#
# PCOD9070923 Si02
#       6
#     2   2   2   2   2   2
#     4  12  29  51  75 112 156 211 253 312 381 457
#     4  12  26  52  78 112 159 200 256 311 384 458
#     4  12  25  47  83 114 155 199 249 323 387 451
#     4  12  27  49  81 118 152 196 254 323 384 451
#     4  12  27  47  80 113 151 199 257 316 386 445
#     4  12  27  49  78 114 156 199 258 311 382 453
#
# _framework density 24.464645999999998
#
# number of rings (size 3 to 8) (size 9 to 14) (size 15 to 20)
#    0.000    0.000    6.667    2.500    2.333    3.333 
#    0.000    0.000    0.000    0.000    0.000    0.000 
#    0.000    0.000    0.000    0.000    0.000    0.000 
#
# Total GULP energy -67193.366107 kJ/mol
# GULP energy per Si atom -5599.447176 kJ/mol
# Density = 2.440896 g / cm^3
# Si number density = 24.464646 Si / 1000 Ang^3
#
#
#
# Elastic Constant Matrix: (Units=GPa)
#
#
# Indices 1 2 3 4 5 6 
#
# 1 91.7082 37.8934 50.1451 -8.3528 16.0110 6.8052
# 2 37.8934 197.8445 24.9206 -4.0669 25.4556 8.0220
# 3 50.1451 24.9206 66.3407 0.3756 15.9619 0.6308
# 4 -8.3528 -4.0669 0.3756 43.7298 10.5984 8.7414
# 5 16.0110 25.4556 15.9619 10.5984 36.3516 3.2986
# 6 6.8052 8.0220 0.6308 8.7414 3.2986 39.7468
#
#
#
# Elastic Compliance Matrix: (Units=1/GPa)
#
#
# Indices 1 2 3 4 5 6 
#
# 1 0.020676 -0.001496 -0.014339 0.005450 -0.002992 -0.003961
# 2 -0.001496 0.005907 -0.000197 0.001346 -0.003700 -0.000922
# 3 -0.014339 -0.000197 0.027191 -0.002362 -0.005070 0.003004
# 4 0.005450 0.001346 -0.002362 0.027719 -0.009802 -0.006450
# 5 -0.002992 -0.003700 -0.005070 -0.009802 0.036459 0.000469
# 6 -0.003961 -0.000922 0.003004 -0.006450 0.000469 0.027355
#
#
# Mechanical properties :
#
#
# Convention : Reuss Voigt Hill
#
# Bulk Modulus (GPa) = 46.06371 64.64573 55.35472
# Shear Modulus (GPa) = 27.08438 40.16126 33.62282
#
# Velocity S-wave (km/s) = 3.33089 4.05607 3.71124
# Velocity P-wave (km/s) = 5.80196 6.95824 6.40624
#
# Compressibility (1/GPa) = 0.02170906
#
# Stress axis : x y z
#
# Youngs Moduli (GPa) = 48.36597 169.29308 36.77695
#
# Poissons Ratio (x) = 0.25331 0.52736
# Poissons Ratio (y) = 0.07237 0.00723
# Poissons Ratio (z) = 0.69354 0.03328
#
# Static dielectric constant tensor:
#      x y z
#    x 2.015570 -0.042000 -0.006320 
#    y -0.042000 1.921850 -0.026270 
#    z -0.006320 -0.026270 1.950880 
# 
# From -- ./inp_files/306800.got.cif
#   From: 2010.05.17/outbox.cif.g08.bks.cpg/sg2_154_cif.got.tgz:306800.got - 2010.06.03 11:33:40.
