data_PCOD9070066
_publ_section_title
;
Structure prediction by ZEFSAII (Michael W. Deem and Ramdas Pophale) SiO2 
 PCOD9070066
Probable space group: P -1
;
_chemical_formula_sum "Si O2"
_cell_formula_units_Z 16
_cell_length_a 19.475088
_cell_length_b 17.370895
_cell_length_c 11.707646
_cell_angle_alpha 31.996263
_cell_angle_beta 158.109555
_cell_angle_gamma 150.739879
_cell_volume 705.407375
_symmetry_space_group_name_H-M "P -1"
_symmetry_group_IT_number 2
_symmetry_cell_setting 'triclinic'
loop_
_space_group_symop_operation_xyz
x,y,z
-x,-y,-z
loop_
_atom_site_type_symbol
_atom_site_label
_atom_site_fract_x
_atom_site_fract_y
_atom_site_fract_z
Si Si1 0.197798 0.998963 0.247612
Si Si2 0.978556 0.163775 0.260491
Si Si3 0.215393 0.527281 0.744124
Si Si4 0.724107 0.145473 0.667696
Si Si5 0.598299 0.136563 0.075911
Si Si6 0.439173 0.357836 0.674621
Si Si7 0.709699 0.654133 0.108476
Si Si8 0.050345 0.660075 0.799711
O O1 0.156778 0.887236 0.213536
O O2 0.309819 0.936562 0.592001
O O3 0.316905 0.183017 0.155332
O O4 0.000000 0.000000 0.000000
O O5 0.208905 0.303279 0.429965
O O6 0.883668 0.196893 0.186494
O O7 0.000000 0.000000 0.500000
O O8 0.840330 0.155778 0.950295
O O9 0.283313 0.685885 0.572667
O O10 0.197746 0.381262 0.820762
O O11 0.000000 0.500000 0.500000
O O12 0.392618 0.573830 0.052471
O O13 0.500000 0.000000 0.500000
O O14 0.773540 0.290026 0.087106
O O15 0.455948 0.205768 0.831636
O O16 0.500000 0.000000 0.000000
O O17 0.500000 0.500000 0.500000
O O18 0.858194 0.660511 0.433545
O O19 0.500000 0.500000 0.000000
O O20 0.000000 0.500000 0.000000
#
# Coordination Sequence:
#
# PCOD9070066 Si02
#       8
#     2   2   2   2   2   2   2   2
#     4  12  26  49  73 106 146 184 248 299 356 434
#     4  12  26  45  72 103 145 185 236 295 357 428
#     4  12  24  45  70 101 139 184 238 290 351 420
#     4  12  26  47  74 104 141 188 241 297 356 426
#     4  12  28  46  75 106 145 192 237 300 365 425
#     4  12  26  47  70 107 144 187 240 293 360 430
#     4  12  26  44  72 103 139 187 236 294 360 421
#     4  12  26  48  70 105 145 186 240 294 362 432
#
# _framework density 22.681927999999999
#
# number of rings (size 3 to 8) (size 9 to 14) (size 15 to 20)
#    0.000    0.000    2.500    7.500    7.000    0.000 
#    0.000    0.000    0.000    0.000    0.000    0.000 
#    0.000    0.000    0.000    0.000    0.000    0.000 
#
# Total GULP energy -89668.179360 kJ/mol
# GULP energy per Si atom -5604.261210 kJ/mol
# Density = 2.263030 g / cm^3
# Si number density = 22.681928 Si / 1000 Ang^3
#
#
#
# Elastic Constant Matrix: (Units=GPa)
#
#
# Indices 1 2 3 4 5 6 
#
# 1 113.7408 17.1228 43.2523 9.8318 -6.0897 -18.1312
# 2 17.1228 89.1128 40.1672 -13.5570 -18.6266 0.6875
# 3 43.2523 40.1672 136.8898 4.0437 -36.9102 -6.1519
# 4 9.8318 -13.5570 4.0437 57.5338 -4.6177 0.3698
# 5 -6.0897 -18.6266 -36.9102 -4.6177 50.9320 4.5938
# 6 -18.1312 0.6875 -6.1519 0.3698 4.5938 65.4219
#
#
#
# Elastic Compliance Matrix: (Units=1/GPa)
#
#
# Indices 1 2 3 4 5 6 
#
# 1 0.010810 -0.001326 -0.003404 -0.002108 -0.002108 0.002850
# 2 -0.001326 0.014145 -0.003010 0.004042 0.003295 -0.001053
# 3 -0.003404 -0.003010 0.011003 -0.000380 0.006461 -0.000329
# 4 -0.002108 0.004042 -0.000380 0.018948 0.002756 -0.000963
# 5 -0.002108 0.003295 0.006461 0.002756 0.025684 -0.001830
# 6 0.002850 -0.001053 -0.000329 -0.000963 -0.001830 0.016189
#
#
# Mechanical properties :
#
#
# Convention : Reuss Voigt Hill
#
# Bulk Modulus (GPa) = 48.83568 60.09201 54.46384
# Shear Modulus (GPa) = 41.98702 50.72427 46.35564
#
# Velocity S-wave (km/s) = 4.30713 4.73412 4.52566
# Velocity P-wave (km/s) = 6.80534 7.51221 7.16749
#
# Compressibility (1/GPa) = 0.02047683
#
# Stress axis : x y z
#
# Youngs Moduli (GPa) = 92.50945 70.69643 90.88777
#
# Poissons Ratio (x) = 0.09372 0.30942
# Poissons Ratio (y) = 0.12264 0.27358
# Poissons Ratio (z) = 0.31494 0.21280
#
# Static dielectric constant tensor:
#      x y z
#    x 1.770500 0.041590 -0.010950 
#    y 0.041590 1.843900 -0.032140 
#    z -0.010950 -0.032140 1.728170 
# 
# From -- ./inp_files/472374.got.cif
#   From: 2010.05.17/outbox.cif.g08.bks.cpg/sg2_237_cif.got.tgz:472374.got - 2010.06.03 11:33:40.
