data_PCOD9070627
_publ_section_title
;
Structure prediction by ZEFSAII (Michael W. Deem and Ramdas Pophale) SiO2 
 PCOD9070627
Probable space group: P -1
;
_chemical_formula_sum "Si O2"
_cell_formula_units_Z 14
_cell_length_a 14.099977
_cell_length_b 5.205112
_cell_length_c 12.418269
_cell_angle_alpha 110.226293
_cell_angle_beta 135.364830
_cell_angle_gamma 69.743586
_cell_volume 593.873364
_symmetry_space_group_name_H-M "P -1"
_symmetry_group_IT_number 2
_symmetry_cell_setting 'triclinic'
loop_
_space_group_symop_operation_xyz
x,y,z
-x,-y,-z
loop_
_atom_site_type_symbol
_atom_site_label
_atom_site_fract_x
_atom_site_fract_y
_atom_site_fract_z
Si Si1 0.013146 0.423350 0.194239
Si Si2 0.595019 0.938007 0.888246
Si Si3 0.705359 0.134193 0.368297
Si Si4 0.281641 0.691876 0.132468
Si Si5 0.100040 0.347328 0.648614
Si Si6 0.647329 0.368535 0.143172
Si Si7 0.187530 0.831850 0.304059
O O1 0.087199 0.599675 0.195022
O O2 0.975398 0.629666 0.295006
O O3 0.107049 0.143265 0.270096
O O4 0.875914 0.328922 0.024474
O O5 0.431365 0.006482 0.763944
O O6 0.635476 0.611337 0.863830
O O7 0.661838 0.091092 0.868481
O O8 0.652123 0.051603 0.061142
O O9 0.668115 0.382963 0.289646
O O10 0.736720 0.198832 0.524728
O O11 0.834470 0.944932 0.390682
O O12 0.285281 0.774282 0.272084
O O13 0.227799 0.512612 0.791409
O O14 0.000000 0.500000 0.500000
O O15 0.500000 0.500000 0.000000
#
# Coordination Sequence:
#
# PCOD9070627 Si02
#       7
#     2   2   2   2   2   2   2
#     4  12  25  46  73 106 145 191 247 300 368 441
#     4  12  26  46  75 107 141 193 247 304 361 439
#     4  12  28  44  73 109 152 185 245 303 377 442
#     4  12  26  48  76 104 141 198 253 297 360 436
#     4  12  25  43  73 108 150 189 238 301 380 439
#     4  12  25  47  74 108 149 194 242 307 371 441
#     4  12  28  48  72 105 150 192 242 310 362 432
#
# _framework density 23.574048999999999
#
# number of rings (size 3 to 8) (size 9 to 14) (size 15 to 20)
#    0.000    0.000    4.286    5.571    2.000    2.286 
#    0.000    0.000    0.000    0.000    0.000    0.000 
#    0.000    0.000    0.000    0.000    0.000    0.000 
#
# Total GULP energy -78484.266600 kJ/mol
# GULP energy per Si atom -5606.019043 kJ/mol
# Density = 2.352039 g / cm^3
# Si number density = 23.574049 Si / 1000 Ang^3
#
#
#
# Elastic Constant Matrix: (Units=GPa)
#
#
# Indices 1 2 3 4 5 6 
#
# 1 98.9375 10.9883 20.9083 -13.3687 -12.8678 21.0025
# 2 10.9883 81.6989 29.7829 -20.3700 3.7949 -1.7308
# 3 20.9083 29.7829 81.3152 -14.3610 -21.3299 -7.9194
# 4 -13.3687 -20.3700 -14.3610 31.2481 2.2633 4.2897
# 5 -12.8678 3.7949 -21.3299 2.2633 50.0714 9.2554
# 6 21.0025 -1.7308 -7.9194 4.2897 9.2554 36.4154
#
#
#
# Elastic Compliance Matrix: (Units=1/GPa)
#
#
# Indices 1 2 3 4 5 6 
#
# 1 0.014261 0.000121 -0.002539 0.006157 0.004251 -0.010577
# 2 0.000121 0.016618 -0.005678 0.008633 -0.003939 -0.000531
# 3 -0.002539 -0.005678 0.017458 0.002343 0.006545 0.003052
# 4 0.006157 0.008633 0.002343 0.042331 0.001491 -0.007997
# 5 0.004251 -0.003939 0.006545 0.001491 0.025540 -0.007883
# 6 -0.010577 -0.000531 0.003052 -0.007997 -0.007883 0.037145
#
#
# Mechanical properties :
#
#
# Convention : Reuss Voigt Hill
#
# Bulk Modulus (GPa) = 31.10867 42.81230 36.96049
# Shear Modulus (GPa) = 27.73794 36.89845 32.31820
#
# Velocity S-wave (km/s) = 3.43393 3.96057 3.70661
# Velocity P-wave (km/s) = 5.38027 6.25420 5.83362
#
# Compressibility (1/GPa) = 0.03214538
#
# Stress axis : x y z
#
# Youngs Moduli (GPa) = 70.12351 60.17591 57.28034
#
# Poissons Ratio (x) = -0.00729 0.14542
# Poissons Ratio (y) = -0.00849 0.32524
# Poissons Ratio (z) = 0.17802 0.34168
#
# Static dielectric constant tensor:
#      x y z
#    x 1.870330 -0.009510 -0.001430 
#    y -0.009510 1.943600 0.015880 
#    z -0.001430 0.015880 1.875730 
# 
# From -- ./inp_files/70509.got.cif
#   From: 2010.05.17/outbox.cif.g08.bks.cpg/sg2_36_cif.got.tgz:70509.got - 2010.06.03 11:33:40.
