data_PCOD9070649
_publ_section_title
;
Structure prediction by ZEFSAII (Michael W. Deem and Ramdas Pophale) SiO2 
 PCOD9070649
Probable space group: P -1
;
_chemical_formula_sum "Si O2"
_cell_formula_units_Z 14
_cell_length_a 14.476229
_cell_length_b 13.795885
_cell_length_c 6.774697
_cell_angle_alpha 109.146055
_cell_angle_beta 117.574990
_cell_angle_gamma 32.364528
_cell_volume 636.301435
_symmetry_space_group_name_H-M "P -1"
_symmetry_group_IT_number 2
_symmetry_cell_setting 'triclinic'
loop_
_space_group_symop_operation_xyz
x,y,z
-x,-y,-z
loop_
_atom_site_type_symbol
_atom_site_label
_atom_site_fract_x
_atom_site_fract_y
_atom_site_fract_z
Si Si1 0.967767 0.920056 0.026502
Si Si2 0.681177 0.608968 0.501231
Si Si3 0.432703 0.764979 0.994456
Si Si4 0.054875 0.260245 0.395183
Si Si5 0.143383 0.328036 0.173052
Si Si6 0.352008 0.030228 0.877356
Si Si7 0.358361 0.531005 0.300463
O O1 0.152333 0.742757 0.212569
O O2 0.783460 0.082348 0.084540
O O3 0.943778 0.846454 0.797361
O O4 0.000000 0.000000 0.000000
O O5 0.705582 0.707756 0.652779
O O6 0.652703 0.555516 0.618691
O O7 0.871752 0.421855 0.454414
O O8 0.517462 0.728979 0.262803
O O9 0.557724 0.574327 0.896138
O O10 0.444007 0.849417 0.908883
O O11 0.058459 0.351110 0.303497
O O12 0.231719 0.122017 0.621942
O O13 0.219783 0.169520 0.021528
O O14 0.000000 0.500000 0.000000
O O15 0.500000 0.000000 0.000000
O O16 0.500000 0.500000 0.500000
#
# Coordination Sequence:
#
# PCOD9070649 Si02
#       7
#     2   2   2   2   2   2   2
#     4  12  28  50  77 109 149 194 249 307 369 438
#     4  12  26  46  78 105 150 195 242 307 368 438
#     4  12  28  49  75 110 149 191 249 304 369 440
#     4  12  26  48  73 109 150 196 245 303 372 436
#     4  12  25  44  72 109 145 194 247 295 369 439
#     4  12  27  43  71 109 152 193 245 302 364 440
#     4  12  29  51  77 110 145 195 251 305 372 438
#
# _framework density 22.00215
#
# number of rings (size 3 to 8) (size 9 to 14) (size 15 to 20)
#    0.000    0.000    4.286    4.714   10.000    2.857 
#    0.000    0.000    0.000    0.000    0.000    0.000 
#    0.000    0.000    0.000    0.000    0.000    0.000 
#
# Total GULP energy -78454.432582 kJ/mol
# GULP energy per Si atom -5603.888042 kJ/mol
# Density = 2.195207 g / cm^3
# Si number density = 22.002150 Si / 1000 Ang^3
#
#
#
# Elastic Constant Matrix: (Units=GPa)
#
#
# Indices 1 2 3 4 5 6 
#
# 1 152.2499 30.1848 51.3314 -5.9263 -5.2732 2.2655
# 2 30.1848 75.6148 33.3474 -20.2205 -7.1245 -9.7790
# 3 51.3314 33.3474 130.7615 -22.5391 4.8656 -3.2475
# 4 -5.9263 -20.2205 -22.5391 42.6291 -3.5977 2.8578
# 5 -5.2732 -7.1245 4.8656 -3.5977 37.7849 -2.9686
# 6 2.2655 -9.7790 -3.2475 2.8578 -2.9686 37.9097
#
#
#
# Elastic Compliance Matrix: (Units=1/GPa)
#
#
# Indices 1 2 3 4 5 6 
#
# 1 0.007984 -0.002383 -0.002821 -0.001366 0.000806 -0.001167
# 2 -0.002383 0.018165 -0.002542 0.007018 0.004436 0.004429
# 3 -0.002821 -0.002542 0.010088 0.003584 -0.001834 -0.000037
# 4 -0.001366 0.007018 0.003584 0.028762 0.003433 0.000300
# 5 0.000806 0.004436 -0.001834 0.003433 0.028205 0.002889
# 6 -0.001167 0.004429 -0.000037 0.000300 0.002889 0.027791
#
#
# Mechanical properties :
#
#
# Convention : Reuss Voigt Hill
#
# Bulk Modulus (GPa) = 48.20574 65.37259 56.78916
# Shear Modulus (GPa) = 34.86709 39.91558 37.39134
#
# Velocity S-wave (km/s) = 3.98516 4.26393 4.12690
# Velocity P-wave (km/s) = 6.56753 7.34968 6.96959
#
# Compressibility (1/GPa) = 0.02074442
#
# Stress axis : x y z
#
# Youngs Moduli (GPa) = 125.25363 55.05089 99.12630
#
# Poissons Ratio (x) = 0.13120 0.27960
# Poissons Ratio (y) = 0.29852 0.25201
# Poissons Ratio (z) = 0.35330 0.13995
#
# Static dielectric constant tensor:
#      x y z
#    x 1.787830 -0.012150 0.004520 
#    y -0.012150 1.836360 0.029440 
#    z 0.004520 0.029440 1.778590 
# 
# From -- ./inp_files/40156.got.cif
#   From: 2010.05.17/outbox.cif.g08.bks.cpg/sg2_21_cif.got.tgz:40156.got - 2010.06.03 11:33:40.
