data_PCOD9070240
_publ_section_title
;
Structure prediction by ZEFSAII (Michael W. Deem and Ramdas Pophale) SiO2 
 PCOD9070240
Probable space group: P -1
;
_chemical_formula_sum "Si O2"
_cell_formula_units_Z 14
_cell_length_a 12.660527
_cell_length_b 7.987951
_cell_length_c 9.103621
_cell_angle_alpha 120.148307
_cell_angle_beta 48.128098
_cell_angle_gamma 107.965074
_cell_volume 592.311975
_symmetry_space_group_name_H-M "P -1"
_symmetry_group_IT_number 2
_symmetry_cell_setting 'triclinic'
loop_
_space_group_symop_operation_xyz
x,y,z
-x,-y,-z
loop_
_atom_site_type_symbol
_atom_site_label
_atom_site_fract_x
_atom_site_fract_y
_atom_site_fract_z
Si Si1 0.398656 0.850590 0.597331
Si Si2 0.114400 0.947440 0.496949
Si Si3 0.141822 0.515381 0.279910
Si Si4 0.896896 0.034975 0.971539
Si Si5 0.849348 0.453916 0.054680
Si Si6 0.391132 0.479038 0.226088
Si Si7 0.360871 0.261731 0.447631
O O1 0.258207 0.979092 0.824066
O O2 0.369883 0.678499 0.430351
O O3 0.494997 0.779539 0.613876
O O4 0.500000 0.000000 0.500000
O O5 0.237258 0.101237 0.478299
O O6 0.188709 0.737553 0.318156
O O7 0.000000 0.000000 0.500000
O O8 0.999730 0.915155 0.716043
O O9 0.255187 0.411745 0.233923
O O10 0.000000 0.500000 0.500000
O O11 0.143761 0.465493 0.083436
O O12 0.856254 0.226670 0.991180
O O13 0.000000 0.000000 0.000000
O O14 0.724548 0.563893 0.309714
O O15 0.000000 0.500000 0.000000
O O16 0.413540 0.321964 0.264197
O O17 0.500000 0.500000 0.000000
#
# Coordination Sequence:
#
# PCOD9070240 Si02
#       7
#     2   2   2   2   2   2   2
#     4  12  28  49  73 106 149 198 247 304 366 447
#     4  12  25  46  73 109 146 187 247 306 367 431
#     4  12  27  46  72 110 148 188 240 307 372 429
#     4  12  26  45  75 105 143 190 251 299 364 434
#     4  12  24  46  77 107 143 193 248 301 365 442
#     4  12  27  47  71 106 146 191 243 304 369 437
#     4  12  26  49  76 109 146 197 251 300 369 444
#
# _framework density 23.636194
#
# number of rings (size 3 to 8) (size 9 to 14) (size 15 to 20)
#    0.000    0.000    4.286    5.571    4.000    2.286 
#    0.000    2.143    0.000    0.000    0.000    0.000 
#    0.000    0.000    0.000    0.000    0.000    0.000 
#
# Total GULP energy -77969.881824 kJ/mol
# GULP energy per Si atom -5569.277273 kJ/mol
# Density = 2.358240 g / cm^3
# Si number density = 23.636194 Si / 1000 Ang^3
#
#
#
# Elastic Constant Matrix: (Units=GPa)
#
#
# Indices 1 2 3 4 5 6 
#
# 1 198.2305 14.3225 72.1165 -26.2235 9.5719 -25.3079
# 2 14.3225 77.9399 27.8427 -10.3304 7.9513 4.2222
# 3 72.1165 27.8427 127.3162 -43.6372 5.6001 -0.4506
# 4 -26.2235 -10.3304 -43.6372 48.8364 -1.0472 0.4695
# 5 9.5719 7.9513 5.6001 -1.0472 55.5322 -16.0702
# 6 -25.3079 4.2222 -0.4506 0.4695 -16.0702 47.8465
#
#
#
# Elastic Compliance Matrix: (Units=1/GPa)
#
#
# Indices 1 2 3 4 5 6 
#
# 1 0.006939 -0.000109 -0.003816 0.000264 0.000291 0.003739
# 2 -0.000109 0.014268 -0.002823 0.000407 -0.002350 -0.002137
# 3 -0.003816 -0.002823 0.014059 0.009919 -0.000743 -0.001984
# 4 0.000264 0.000407 0.009919 0.029556 -0.000635 -0.000307
# 5 0.000291 -0.002350 -0.000743 -0.000635 0.020449 0.007229
# 6 0.003739 -0.002137 -0.001984 -0.000307 0.007229 0.025479
#
#
# Mechanical properties :
#
#
# Convention : Reuss Voigt Hill
#
# Bulk Modulus (GPa) = 45.93579 70.22777 58.08178
# Shear Modulus (GPa) = 38.02200 49.72334 43.87267
#
# Velocity S-wave (km/s) = 4.01513 4.59158 4.31300
# Velocity P-wave (km/s) = 6.40092 7.60833 7.03059
#
# Compressibility (1/GPa) = 0.02176952
#
# Stress axis : x y z
#
# Youngs Moduli (GPa) = 144.11499 70.08457 71.13117
#
# Poissons Ratio (x) = 0.00766 0.27142
# Poissons Ratio (y) = 0.01576 0.20081
# Poissons Ratio (z) = 0.54991 0.19785
#
# Static dielectric constant tensor:
#      x y z
#    x 1.369430 -0.041530 0.038840 
#    y -0.041530 1.906190 0.156460 
#    z 0.038840 0.156460 1.612330 
# 
# From -- ./inp_files/245297.got.cif
#   From: 2010.05.17/outbox.cif.g08.bks.cpg/sg2_123_cif.got.tgz:245297.got - 2010.06.03 11:33:40.
