data_PCOD9070046
_publ_section_title
;
Structure prediction by ZEFSAII (Michael W. Deem and Ramdas Pophale) SiO2 
 PCOD9070046
Probable space group: P -1
;
_chemical_formula_sum "Si O2"
_cell_formula_units_Z 16
_cell_length_a 14.473280
_cell_length_b 9.147398
_cell_length_c 16.708640
_cell_angle_alpha 147.867983
_cell_angle_beta 140.756623
_cell_angle_gamma 40.706103
_cell_volume 709.123102
_symmetry_space_group_name_H-M "P -1"
_symmetry_group_IT_number 2
_symmetry_cell_setting 'triclinic'
loop_
_space_group_symop_operation_xyz
x,y,z
-x,-y,-z
loop_
_atom_site_type_symbol
_atom_site_label
_atom_site_fract_x
_atom_site_fract_y
_atom_site_fract_z
Si Si1 0.614771 0.681066 0.833133
Si Si2 0.167542 0.991712 0.921116
Si Si3 0.014852 0.256186 0.684139
Si Si4 0.429208 0.628928 0.179358
Si Si5 0.878272 0.152899 0.712543
Si Si6 0.263947 0.319776 0.643014
Si Si7 0.152405 0.097339 0.142843
Si Si8 0.349553 0.179049 0.816932
O O1 0.580089 0.562808 0.839542
O O2 0.717957 0.403344 0.725923
O O3 0.460531 0.870637 0.775162
O O4 0.723588 0.887292 0.005665
O O5 0.187951 0.660466 0.762141
O O6 0.989837 0.164113 0.866005
O O7 0.210256 0.034202 0.060803
O O8 0.188535 0.261833 0.794393
O O9 0.967829 0.197641 0.714443
O O10 0.901099 0.561922 0.720899
O O11 0.000000 0.000000 0.500000
O O12 0.582879 0.717996 0.322612
O O13 0.281671 0.907297 0.199864
O O14 0.428103 0.422241 0.006796
O O15 0.843484 0.850177 0.545060
O O16 0.313098 0.189794 0.703947
O O17 0.000000 0.000000 0.000000
#
# Coordination Sequence:
#
# PCOD9070046 Si02
#       8
#     2   2   2   2   2   2   2   2
#     4  12  27  46  75 104 143 190 238 297 352 425
#     4  12  24  47  74 103 142 189 242 294 349 426
#     4  12  26  47  74 112 143 184 236 294 365 426
#     4  12  25  45  75 107 140 185 248 293 351 422
#     4  12  28  46  70 106 147 188 234 296 362 420
#     4  12  26  46  71 105 146 187 235 299 361 419
#     4  12  24  44  78 105 139 189 241 293 348 426
#     4  12  24  46  75 104 140 186 240 297 352 424
#
# _framework density 22.563077
#
# number of rings (size 3 to 8) (size 9 to 14) (size 15 to 20)
#    0.000    0.000    6.250    3.750    1.750    2.000 
#    2.250    0.000    0.000    0.000    0.000    0.000 
#    0.000    0.000    0.000    0.000    0.000    0.000 
#
# Total GULP energy -89670.057578 kJ/mol
# GULP energy per Si atom -5604.378599 kJ/mol
# Density = 2.251172 g / cm^3
# Si number density = 22.563077 Si / 1000 Ang^3
#
#
#
# Elastic Constant Matrix: (Units=GPa)
#
#
# Indices 1 2 3 4 5 6 
#
# 1 103.7614 46.5753 7.4107 -5.5339 17.1540 8.3952
# 2 46.5753 134.9172 32.6107 26.4218 11.5220 -11.6979
# 3 7.4107 32.6107 72.4836 21.6448 9.1613 6.9352
# 4 -5.5339 26.4218 21.6448 37.7604 -5.6627 -6.7318
# 5 17.1540 11.5220 9.1613 -5.6627 31.7342 5.6540
# 6 8.3952 -11.6979 6.9352 -6.7318 5.6540 33.5714
#
#
#
# Elastic Compliance Matrix: (Units=1/GPa)
#
#
# Indices 1 2 3 4 5 6 
#
# 1 0.013278 -0.005586 0.000810 0.004094 -0.003949 -0.003948
# 2 -0.005586 0.012129 -0.002921 -0.007105 -0.002746 0.005264
# 3 0.000810 -0.002921 0.019750 -0.011214 -0.005913 -0.006553
# 4 0.004094 -0.007105 -0.011214 0.040928 0.009954 0.005348
# 5 -0.003949 -0.002746 -0.005913 0.009954 0.038709 -0.003271
# 6 -0.003948 0.005264 -0.006553 0.005348 -0.003271 0.035586
#
#
# Mechanical properties :
#
#
# Convention : Reuss Voigt Hill
#
# Bulk Modulus (GPa) = 33.59894 53.81730 43.70812
# Shear Modulus (GPa) = 26.92579 35.58424 31.25501
#
# Velocity S-wave (km/s) = 3.45825 3.97558 3.72590
# Velocity P-wave (km/s) = 5.55602 6.70652 6.15820
#
# Compressibility (1/GPa) = 0.02976284
#
# Stress axis : x y z
#
# Youngs Moduli (GPa) = 75.31327 82.44850 50.63208
#
# Poissons Ratio (x) = 0.46059 -0.04101
# Poissons Ratio (y) = 0.42073 0.14788
# Poissons Ratio (z) = -0.06100 0.24080
#
# Static dielectric constant tensor:
#      x y z
#    x 1.857090 -0.008090 0.002940 
#    y -0.008090 1.820530 0.013230 
#    z 0.002940 0.013230 1.820760 
# 
# From -- ./inp_files/274629.got.cif
#   From: 2010.05.17/outbox.cif.g08.bks.cpg/sg2_138_cif.got.tgz:274629.got - 2010.06.03 11:33:40.
