data_PCOD9070278
_publ_section_title
;
Structure prediction by ZEFSAII (Michael W. Deem and Ramdas Pophale) SiO2 
 PCOD9070278
Probable space group: P -1
;
_chemical_formula_sum "Si O2"
_cell_formula_units_Z 12
_cell_length_a 8.588651
_cell_length_b 7.751126
_cell_length_c 9.348923
_cell_angle_alpha 72.344988
_cell_angle_beta 98.595470
_cell_angle_gamma 53.162113
_cell_volume 427.523200
_symmetry_space_group_name_H-M "P -1"
_symmetry_group_IT_number 2
_symmetry_cell_setting 'triclinic'
loop_
_space_group_symop_operation_xyz
x,y,z
-x,-y,-z
loop_
_atom_site_type_symbol
_atom_site_label
_atom_site_fract_x
_atom_site_fract_y
_atom_site_fract_z
Si Si1 0.500000 0.000000 0.000000
Si Si2 0.828844 0.477918 0.454964
Si Si3 0.704204 0.476310 0.757668
Si Si4 0.644564 0.114714 0.788398
Si Si5 0.638278 0.226086 0.150553
Si Si6 0.000000 0.500000 0.000000
Si Si7 0.019949 0.152296 0.305725
O O1 0.399107 0.916538 0.916718
O O2 0.705066 0.875589 0.929363
O O3 0.740523 0.486710 0.593138
O O4 0.615191 0.703135 0.276594
O O5 0.945674 0.236839 0.435732
O O6 0.000000 0.500000 0.500000
O O7 0.715343 0.248339 0.831505
O O8 0.467834 0.719304 0.722480
O O9 0.867077 0.458878 0.880924
O O10 0.732425 0.057143 0.655442
O O11 0.880443 0.104215 0.226352
O O12 0.500000 0.500000 0.000000
O O13 0.040468 0.614030 0.840334
#
# Coordination Sequence:
#
# PCOD9070278 Si02
#       7
#     1   2   2   2   2   1   2
#     4  12  26  48  80 122 158 202 274 332 388 484
#     4  12  28  53  79 112 164 217 254 340 412 471
#     4  12  26  50  79 112 167 206 266 330 404 475
#     4  12  29  48  80 121 152 212 272 326 402 486
#     4  12  24  49  77 115 163 207 261 335 398 469
#     4  12  24  46  80 114 152 210 260 330 394 464
#     4  12  27  48  79 116 156 206 272 326 400 478
#
# _framework density 28.068653000000001
#
# number of rings (size 3 to 8) (size 9 to 14) (size 15 to 20)
#    0.000    0.000    6.667    1.500    2.333    6.667 
#    0.000    0.000    0.000    0.000    0.000    0.000 
#    0.000    0.000    0.000    0.000    0.000    0.000 
#
# Total GULP energy -66951.784704 kJ/mol
# GULP energy per Si atom -5579.315392 kJ/mol
# Density = 2.800477 g / cm^3
# Si number density = 28.068653 Si / 1000 Ang^3
#
#
#
# Elastic Constant Matrix: (Units=GPa)
#
#
# Indices 1 2 3 4 5 6 
#
# 1 251.9876 71.5283 54.0399 19.6748 14.7148 19.7861
# 2 71.5283 125.0781 52.3088 36.5825 16.8754 12.5166
# 3 54.0399 52.3088 94.2653 30.5446 -2.1425 10.8123
# 4 19.6748 36.5825 30.5446 66.6108 -13.1065 -4.0668
# 5 14.7148 16.8754 -2.1425 -13.1065 49.6152 19.4603
# 6 19.7861 12.5166 10.8123 -4.0668 19.4603 83.7005
#
#
#
# Elastic Compliance Matrix: (Units=1/GPa)
#
#
# Indices 1 2 3 4 5 6 
#
# 1 0.004984 -0.002087 -0.001767 0.000344 -0.000561 -0.000491
# 2 -0.002087 0.013600 -0.004589 -0.005883 -0.005805 0.000116
# 3 -0.001767 -0.004589 0.015628 -0.003749 0.002421 -0.001660
# 4 0.000344 -0.005883 -0.003749 0.021299 0.007102 0.000666
# 5 -0.000561 -0.005805 0.002421 0.007102 0.026267 -0.005074
# 6 -0.000491 0.000116 -0.001660 0.000666 -0.005074 0.013472
#
#
# Mechanical properties :
#
#
# Convention : Reuss Voigt Hill
#
# Bulk Modulus (GPa) = 57.71798 91.89835 74.80817
# Shear Modulus (GPa) = 42.40405 59.54891 50.97648
#
# Velocity S-wave (km/s) = 3.89102 4.61102 4.26624
# Velocity P-wave (km/s) = 6.38706 7.82051 7.13985
#
# Compressibility (1/GPa) = 0.01732562
#
# Stress axis : x y z
#
# Youngs Moduli (GPa) = 200.62963 73.52908 63.98668
#
# Poissons Ratio (x) = 0.15346 0.11307
# Poissons Ratio (y) = 0.41873 0.29365
# Poissons Ratio (z) = 0.35454 0.33744
#
# Static dielectric constant tensor:
#      x y z
#    x 2.145050 -0.131260 -0.129940 
#    y -0.131260 1.870800 0.193010 
#    z -0.129940 0.193010 2.122490 
# 
# From -- ./inp_files/146476.got.cif
#   From: 2010.05.17/outbox.cif.g08.bks.cpg/sg2_74_cif.got.tgz:146476.got - 2010.06.03 11:33:40.
