data_PCOD9070487
_publ_section_title
;
Structure prediction by ZEFSAII (Michael W. Deem and Ramdas Pophale) SiO2 
 PCOD9070487
Probable space group: P -1
;
_chemical_formula_sum "Si O2"
_cell_formula_units_Z 15
_cell_length_a 9.162191
_cell_length_b 11.354234
_cell_length_c 19.832347
_cell_angle_alpha 32.853516
_cell_angle_beta 41.637313
_cell_angle_gamma 61.362637
_cell_volume 677.531917
_symmetry_space_group_name_H-M "P -1"
_symmetry_group_IT_number 2
_symmetry_cell_setting 'triclinic'
loop_
_space_group_symop_operation_xyz
x,y,z
-x,-y,-z
loop_
_atom_site_type_symbol
_atom_site_label
_atom_site_fract_x
_atom_site_fract_y
_atom_site_fract_z
Si Si1 0.127653 0.184683 0.102730
Si Si2 0.660138 0.614449 0.205795
Si Si3 0.563191 0.720348 0.922002
Si Si4 0.560045 0.943783 0.431195
Si Si5 0.902139 0.370845 0.786462
Si Si6 0.784744 0.291948 0.712797
Si Si7 0.791320 0.082539 0.553391
Si Si8 0.000000 0.000000 0.000000
O O1 0.254084 0.290770 0.078816
O O2 0.186812 0.953602 0.183629
O O3 0.238487 0.358887 0.917864
O O4 0.841653 0.092354 0.249350
O O5 0.515493 0.339984 0.407276
O O6 0.468889 0.733695 0.217049
O O7 0.872947 0.757661 0.114428
O O8 0.678182 0.955491 0.723666
O O9 0.500000 0.500000 0.000000
O O10 0.322356 0.707326 0.047249
O O11 0.402831 0.991906 0.403830
O O12 0.500000 0.000000 0.500000
O O13 0.800169 0.369896 0.747565
O O14 0.003329 0.169064 0.852602
O O15 0.091294 0.634695 0.612135
O O16 0.000000 0.500000 0.500000
O O17 0.000000 0.000000 0.500000
#
# Coordination Sequence:
#
# PCOD9070487 Si02
#       8
#     2   2   2   2   2   2   2   1
#     4  12  26  49  76 110 149 200 250 308 388 449
#     4  12  26  50  75 110 156 192 254 311 382 460
#     4  12  27  46  79 108 149 203 257 308 377 453
#     4  12  30  48  74 110 152 199 254 320 378 451
#     4  12  26  49  77 110 153 195 255 313 382 460
#     4  12  24  48  81 108 146 202 245 311 377 458
#     4  12  27  49  75 108 152 202 257 315 381 456
#     4  12  26  46  76 108 152 198 242 314 382 442
#
# _framework density 22.13918
#
# number of rings (size 3 to 8) (size 9 to 14) (size 15 to 20)
#    0.000    0.000    6.667    2.800    5.600    0.533 
#    0.000    2.667    0.000    0.000    0.000    0.000 
#    0.000    0.000    0.000    0.000    0.000    0.000 
#
# Total GULP energy -83825.997953 kJ/mol
# GULP energy per Si atom -5588.399864 kJ/mol
# Density = 2.208879 g / cm^3
# Si number density = 22.139180 Si / 1000 Ang^3
#
#
#
# Elastic Constant Matrix: (Units=GPa)
#
#
# Indices 1 2 3 4 5 6 
#
# 1 141.1332 13.0607 31.7434 16.5261 -15.5106 13.4556
# 2 13.0607 49.6855 10.0692 8.7542 -13.2238 7.5689
# 3 31.7434 10.0692 129.2982 19.4328 4.2774 3.5435
# 4 16.5261 8.7542 19.4328 45.7573 8.1548 -0.1287
# 5 -15.5106 -13.2238 4.2774 8.1548 40.7399 -2.2195
# 6 13.4556 7.5689 3.5435 -0.1287 -2.2195 40.0762
#
#
#
# Elastic Compliance Matrix: (Units=1/GPa)
#
#
# Indices 1 2 3 4 5 6 
#
# 1 0.008486 0.000074 -0.001689 -0.003066 0.003909 -0.002507
# 2 0.000074 0.024392 -0.001235 -0.005786 0.009013 -0.004042
# 3 -0.001689 -0.001235 0.008683 -0.002584 -0.001441 -0.000055
# 4 -0.003066 -0.005786 -0.002584 0.026596 -0.007989 0.001994
# 5 0.003909 0.009013 -0.001441 -0.007989 0.030644 -0.001216
# 6 -0.002507 -0.004042 -0.000055 0.001994 -0.001216 0.026502
#
#
# Mechanical properties :
#
#
# Convention : Reuss Voigt Hill
#
# Bulk Modulus (GPa) = 27.88666 47.76262 37.82464
# Shear Modulus (GPa) = 34.97591 42.99760 38.98676
#
# Velocity S-wave (km/s) = 3.97901 4.41176 4.20096
# Velocity P-wave (km/s) = 5.80805 6.89726 6.37595
#
# Compressibility (1/GPa) = 0.03585944
#
# Stress axis : x y z
#
# Youngs Moduli (GPa) = 117.83867 40.99778 115.17358
#
# Poissons Ratio (x) = -0.00304 0.19453
# Poissons Ratio (y) = -0.00873 0.14229
# Poissons Ratio (z) = 0.19904 0.05065
#
# Static dielectric constant tensor:
#      x y z
#    x 1.836840 -0.033140 0.020040 
#    y -0.033140 1.821210 -0.021340 
#    z 0.020040 -0.021340 1.814600 
# 
# From -- ./inp_files/256138.got.cif
#   From: 2010.05.17/outbox.cif.g08.bks.cpg/sg2_129_cif.got.tgz:256138.got - 2010.06.03 11:33:40.
