data_PCOD9070754
_publ_section_title
;
Structure prediction by ZEFSAII (Michael W. Deem and Ramdas Pophale) SiO2 
 PCOD9070754
Probable space group: P -1
;
_chemical_formula_sum "Si O2"
_cell_formula_units_Z 16
_cell_length_a 9.456172
_cell_length_b 5.263361
_cell_length_c 15.011916
_cell_angle_alpha 88.677615
_cell_angle_beta 93.529243
_cell_angle_gamma 110.276737
_cell_volume 699.529564
_symmetry_space_group_name_H-M "P -1"
_symmetry_group_IT_number 2
_symmetry_cell_setting 'triclinic'
loop_
_space_group_symop_operation_xyz
x,y,z
-x,-y,-z
loop_
_atom_site_type_symbol
_atom_site_label
_atom_site_fract_x
_atom_site_fract_y
_atom_site_fract_z
Si Si1 0.284564 0.288938 0.146253
Si Si2 0.718294 0.314657 0.710397
Si Si3 0.017254 0.825778 0.226293
Si Si4 0.591543 0.018755 0.270503
Si Si5 0.743241 0.609003 0.340418
Si Si6 0.871938 0.604681 0.035495
Si Si7 0.392861 0.676133 0.487584
Si Si8 0.569842 0.149063 0.090158
O O1 0.328123 0.559349 0.203979
O O2 0.438090 0.243411 0.125308
O O3 0.163842 0.086920 0.210230
O O4 0.191373 0.271354 0.050876
O O5 0.892858 0.368104 0.736327
O O6 0.580297 0.024081 0.707889
O O7 0.695956 0.396156 0.608705
O O8 0.899490 0.801761 0.300823
O O9 0.937959 0.764680 0.127418
O O10 0.642348 0.802892 0.329476
O O11 0.684678 0.337383 0.280400
O O12 0.607998 0.965095 0.167628
O O13 0.726846 0.458010 0.436364
O O14 0.724354 0.370819 0.065710
O O15 0.000000 0.500000 0.000000
O O16 0.500000 0.500000 0.500000
O O17 0.500000 0.000000 0.500000
O O18 0.500000 0.000000 0.000000
#
# Coordination Sequence:
#
# PCOD9070754 Si02
#       8
#     2   2   2   2   2   2   2   2
#     4  12  27  48  72 108 153 207 255 313 380 457
#     4  12  26  48  78 108 152 192 256 322 380 459
#     4  12  28  45  73 107 157 198 248 315 390 457
#     4  12  25  48  77 106 151 192 264 303 375 446
#     4  12  27  49  77 113 142 205 247 317 379 455
#     4  12  25  46  69 105 150 198 257 307 388 443
#     4  12  26  49  82 113 147 196 261 320 384 457
#     4  12  26  44  74 109 146 206 264 315 369 456
#
# _framework density 22.872515
#
# number of rings (size 3 to 8) (size 9 to 14) (size 15 to 20)
#    0.000    0.000    6.250    3.000    7.000    0.500 
#    0.000    0.625    0.000    0.000    0.000    0.000 
#    0.000    0.000    0.000    0.000    0.000    0.000 
#
# Total GULP energy -89196.828732 kJ/mol
# GULP energy per Si atom -5574.801796 kJ/mol
# Density = 2.282046 g / cm^3
# Si number density = 22.872515 Si / 1000 Ang^3
#
#
#
# Elastic Constant Matrix: (Units=GPa)
#
#
# Indices 1 2 3 4 5 6 
#
# 1 122.4625 34.3322 38.6794 -15.9184 -16.6491 13.3251
# 2 34.3322 57.0897 -12.2305 -13.0096 2.8453 12.3494
# 3 38.6794 -12.2305 123.4956 -21.0446 9.0333 -5.2758
# 4 -15.9184 -13.0096 -21.0446 39.2922 7.9611 -9.8226
# 5 -16.6491 2.8453 9.0333 7.9611 39.5422 -12.5390
# 6 13.3251 12.3494 -5.2758 -9.8226 -12.5390 37.0807
#
#
#
# Elastic Compliance Matrix: (Units=1/GPa)
#
#
# Indices 1 2 3 4 5 6 
#
# 1 0.014282 -0.011252 -0.006853 -0.003496 0.009017 -0.000237
# 2 -0.011252 0.031043 0.009335 0.011860 -0.013520 -0.006397
# 3 -0.006853 0.009335 0.013413 0.009406 -0.008204 0.000979
# 4 -0.003496 0.011860 0.009406 0.036273 -0.010260 0.004784
# 5 0.009017 -0.013520 -0.008204 -0.010260 0.037151 0.009940
# 6 -0.000237 -0.006397 0.000979 0.004784 0.009940 0.033952
#
#
# Mechanical properties :
#
#
# Convention : Reuss Voigt Hill
#
# Bulk Modulus (GPa) = 24.27250 47.17891 35.72570
# Shear Modulus (GPa) = 25.33110 39.33413 32.33261
#
# Velocity S-wave (km/s) = 3.33151 4.15144 3.76387
# Velocity P-wave (km/s) = 5.04319 6.60689 5.87727
#
# Compressibility (1/GPa) = 0.04119889
#
# Stress axis : x y z
#
# Youngs Moduli (GPa) = 70.01854 32.21337 74.55404
#
# Poissons Ratio (x) = 0.36246 0.51092
# Poissons Ratio (y) = 0.78783 -0.69597
# Poissons Ratio (z) = 0.47983 -0.30072
#
# Static dielectric constant tensor:
#      x y z
#    x 1.967440 0.007160 -0.063230 
#    y 0.007160 2.142190 -0.089850 
#    z -0.063230 -0.089850 1.903180 
# 
# From -- ./inp_files/106727.got.cif
#   From: 2010.05.17/outbox.cif.g08.bks.cpg/sg2_54_cif.got.tgz:106727.got - 2010.06.03 11:33:40.
