data_PCOD9070348
_publ_section_title
;
Structure prediction by ZEFSAII (Michael W. Deem and Ramdas Pophale) SiO2 
 PCOD9070348
Probable space group: P -1
;
_chemical_formula_sum "Si O2"
_cell_formula_units_Z 12
_cell_length_a 10.182849
_cell_length_b 8.338440
_cell_length_c 11.331397
_cell_angle_alpha 110.757359
_cell_angle_beta 141.151349
_cell_angle_gamma 88.668422
_cell_volume 509.245699
_symmetry_space_group_name_H-M "P -1"
_symmetry_group_IT_number 2
_symmetry_cell_setting 'triclinic'
loop_
_space_group_symop_operation_xyz
x,y,z
-x,-y,-z
loop_
_atom_site_type_symbol
_atom_site_label
_atom_site_fract_x
_atom_site_fract_y
_atom_site_fract_z
Si Si1 0.237865 0.786026 0.000522
Si Si2 0.934572 0.144616 0.558982
Si Si3 0.756565 0.534432 0.725818
Si Si4 0.412534 0.906307 0.537482
Si Si5 0.251676 0.674098 0.715378
Si Si6 0.665515 0.549395 0.935486
O O1 0.274582 0.779625 0.884289
O O2 0.971893 0.676467 0.833922
O O3 0.364866 0.662580 0.112807
O O4 0.364661 0.998714 0.196132
O O5 0.783534 0.037133 0.536588
O O6 0.771780 0.203763 0.377927
O O7 0.000000 0.000000 0.500000
O O8 0.157336 0.323777 0.807316
O O9 0.500000 0.500000 0.500000
O O10 0.725838 0.319810 0.631388
O O11 0.774557 0.592114 0.891201
O O12 0.500000 0.000000 0.500000
O O13 0.443697 0.595808 0.804364
O O14 0.000000 0.500000 0.500000
#
# Coordination Sequence:
#
# PCOD9070348 Si02
#       6
#     2   2   2   2   2   2
#     4  12  25  46  78 105 150 197 243 302 373 428
#     4  12  28  47  73 109 148 190 245 307 364 434
#     4  12  26  48  74 110 149 190 248 307 359 439
#     4  12  25  45  73 107 142 191 248 294 365 436
#     4  12  26  46  74 110 145 192 251 294 367 443
#     4  12  24  47  76 102 151 195 236 305 368 426
#
# _framework density 23.564264999999999
#
# number of rings (size 3 to 8) (size 9 to 14) (size 15 to 20)
#    0.000    0.000    5.000    5.000    2.333    6.000 
#    0.000    0.000    0.000    0.000    0.000    0.000 
#    0.000    0.000    0.000    0.000    0.000    0.000 
#
# Total GULP energy -67145.798446 kJ/mol
# GULP energy per Si atom -5595.483204 kJ/mol
# Density = 2.351063 g / cm^3
# Si number density = 23.564265 Si / 1000 Ang^3
#
#
#
# Elastic Constant Matrix: (Units=GPa)
#
#
# Indices 1 2 3 4 5 6 
#
# 1 176.4404 36.3644 59.4601 -1.3878 -0.5177 -20.4021
# 2 36.3644 46.2620 38.8699 -17.6794 13.2420 -8.4536
# 3 59.4601 38.8699 126.2342 -1.2482 3.2206 -7.5092
# 4 -1.3878 -17.6794 -1.2482 45.7435 -0.3275 7.0125
# 5 -0.5177 13.2420 3.2206 -0.3275 53.9869 -4.3517
# 6 -20.4021 -8.4536 -7.5092 7.0125 -4.3517 30.4183
#
#
#
# Elastic Compliance Matrix: (Units=1/GPa)
#
#
# Indices 1 2 3 4 5 6 
#
# 1 0.007866 -0.005294 -0.001898 -0.002485 0.001808 0.004168
# 2 -0.005294 0.043912 -0.010560 0.016321 -0.010024 0.000849
# 3 -0.001898 -0.010560 0.011976 -0.003781 0.001825 -0.000118
# 4 -0.002485 0.016321 -0.003781 0.028770 -0.004052 -0.005277
# 5 0.001808 -0.010024 0.001825 -0.004052 0.021094 0.002829
# 6 0.004168 0.000849 -0.000118 -0.005277 0.002829 0.037498
#
#
# Mechanical properties :
#
#
# Convention : Reuss Voigt Hill
#
# Bulk Modulus (GPa) = 35.39799 68.70280 52.05039
# Shear Modulus (GPa) = 25.50547 40.31257 32.90902
#
# Velocity S-wave (km/s) = 3.29352 4.14061 3.74112
# Velocity P-wave (km/s) = 5.43301 7.21653 6.38733
#
# Compressibility (1/GPa) = 0.02825019
#
# Stress axis : x y z
#
# Youngs Moduli (GPa) = 127.12957 22.77298 83.49897
#
# Poissons Ratio (x) = 0.12057 0.15845
# Poissons Ratio (y) = 0.67308 0.88173
# Poissons Ratio (z) = 0.24125 0.24048
#
# Static dielectric constant tensor:
#      x y z
#    x 1.912330 -0.039630 -0.014350 
#    y -0.039630 2.129340 0.015620 
#    z -0.014350 0.015620 1.904750 
# 
# From -- ./inp_files/233032.got.cif
#   From: 2010.05.17/outbox.cif.g08.bks.cpg/sg2_117_cif.got.tgz:233032.got - 2010.06.03 11:33:40.
