data_PCOD9070968
_publ_section_title
;
Structure prediction by ZEFSAII (Michael W. Deem and Ramdas Pophale) SiO2 
 PCOD9070968
Probable space group: P -1
;
_chemical_formula_sum "Si O2"
_cell_formula_units_Z 14
_cell_length_a 4.922717
_cell_length_b 8.930000
_cell_length_c 13.599840
_cell_angle_alpha 104.549519
_cell_angle_beta 79.400741
_cell_angle_gamma 79.708617
_cell_volume 552.686530
_symmetry_space_group_name_H-M "P -1"
_symmetry_group_IT_number 2
_symmetry_cell_setting 'triclinic'
loop_
_space_group_symop_operation_xyz
x,y,z
-x,-y,-z
loop_
_atom_site_type_symbol
_atom_site_label
_atom_site_fract_x
_atom_site_fract_y
_atom_site_fract_z
Si Si1 0.706175 0.626228 0.565795
Si Si2 0.526026 0.882968 0.073794
Si Si3 0.489301 0.295805 0.618000
Si Si4 0.854622 0.882329 0.719864
Si Si5 0.059951 0.096925 0.606463
Si Si6 0.134531 0.657616 0.001096
Si Si7 0.274812 0.606851 0.762124
O O1 0.505615 0.648372 0.486756
O O2 0.779892 0.792533 0.614322
O O3 0.548011 0.601086 0.673172
O O4 0.000000 0.500000 0.500000
O O5 0.357506 0.738437 0.059777
O O6 0.854504 0.798931 0.044589
O O7 0.407022 0.003732 0.189634
O O8 0.500000 0.000000 0.000000
O O9 0.790801 0.249476 0.643160
O O10 0.255746 0.427183 0.713943
O O11 0.353220 0.146424 0.595475
O O12 0.025644 0.744911 0.757496
O O13 0.048277 0.994608 0.686869
O O14 0.000000 0.000000 0.500000
O O15 0.287283 0.633292 0.880469
O O16 0.000000 0.500000 0.000000
#
# Coordination Sequence:
#
# PCOD9070968 Si02
#       7
#     2   2   2   2   2   2   2
#     4  12  25  48  75 115 154 204 255 310 371 473
#     4  12  27  53  80 116 152 200 262 336 382 465
#     4  12  27  47  72 105 154 193 250 300 378 444
#     4  12  28  44  80 108 154 197 259 304 393 439
#     4  12  27  46  68 108 151 198 240 314 368 450
#     4  12  30  54  80 113 159 202 264 325 398 460
#     4  12  28  47  80 106 151 205 257 308 387 463
#
# _framework density 25.330815999999999
#
# number of rings (size 3 to 8) (size 9 to 14) (size 15 to 20)
#    0.000    0.000    4.286    4.286    8.000    0.000 
#    0.000    0.000    0.000    0.000    0.000    0.000 
#    0.000    0.000    0.000    0.000    0.000    0.000 
#
# Total GULP energy -78344.321009 kJ/mol
# GULP energy per Si atom -5596.022929 kJ/mol
# Density = 2.527316 g / cm^3
# Si number density = 25.330816 Si / 1000 Ang^3
#
#
#
# Elastic Constant Matrix: (Units=GPa)
#
#
# Indices 1 2 3 4 5 6 
#
# 1 114.3588 13.7467 21.5949 14.8834 -13.1262 1.5138
# 2 13.7467 84.5539 31.0087 25.9969 -5.4243 -3.4938
# 3 21.5949 31.0087 139.9714 41.8317 -19.1820 -4.7860
# 4 14.8834 25.9969 41.8317 34.4555 -4.1860 -10.9254
# 5 -13.1262 -5.4243 -19.1820 -4.1860 34.1125 -1.8474
# 6 1.5138 -3.4938 -4.7860 -10.9254 -1.8474 36.2161
#
#
#
# Elastic Compliance Matrix: (Units=1/GPa)
#
#
# Indices 1 2 3 4 5 6 
#
# 1 0.009689 -0.000145 0.000276 -0.004521 0.003220 -0.001582
# 2 -0.000145 0.015609 0.000474 -0.012887 0.000989 -0.002263
# 3 0.000276 0.000474 0.012263 -0.015648 0.005005 -0.002811
# 4 -0.004521 -0.012887 -0.015648 0.064336 -0.003822 0.016091
# 5 0.003220 0.000989 0.005005 -0.003822 0.033119 0.001159
# 6 -0.001582 -0.002263 -0.002811 0.016091 0.001159 0.032002
#
#
# Mechanical properties :
#
#
# Convention : Reuss Voigt Hill
#
# Bulk Modulus (GPa) = 25.79344 52.39830 39.09587
# Shear Modulus (GPa) = 27.97496 39.12572 33.55034
#
# Velocity S-wave (km/s) = 3.32683 3.93439 3.64330
# Velocity P-wave (km/s) = 4.99618 6.43193 5.75897
#
# Compressibility (1/GPa) = 0.03876954
#
# Stress axis : x y z
#
# Youngs Moduli (GPa) = 103.21355 64.06668 81.54471
#
# Poissons Ratio (x) = 0.00930 -0.02247
# Poissons Ratio (y) = 0.01498 -0.03866
# Poissons Ratio (z) = -0.02844 -0.03037
#
# Static dielectric constant tensor:
#      x y z
#    x 1.984540 0.104470 0.002760 
#    y 0.104470 2.264260 0.016990 
#    z 0.002760 0.016990 1.970960 
# 
# From -- ./inp_files/480610.got.cif
#   From: 2010.05.17/outbox.cif.g08.bks.cpg/sg2_241_cif.got.tgz:480610.got - 2010.06.03 11:33:40.
