data_PCOD9070840
_publ_section_title
;
Structure prediction by ZEFSAII (Michael W. Deem and Ramdas Pophale) SiO2 
 PCOD9070840
Probable space group: P -1
;
_chemical_formula_sum "Si O2"
_cell_formula_units_Z 12
_cell_length_a 15.054022
_cell_length_b 18.604142
_cell_length_c 9.203555
_cell_angle_alpha 40.825256
_cell_angle_beta 41.015546
_cell_angle_gamma 21.017662
_cell_volume 591.489302
_symmetry_space_group_name_H-M "P -1"
_symmetry_group_IT_number 2
_symmetry_cell_setting 'triclinic'
loop_
_space_group_symop_operation_xyz
x,y,z
-x,-y,-z
loop_
_atom_site_type_symbol
_atom_site_label
_atom_site_fract_x
_atom_site_fract_y
_atom_site_fract_z
Si Si1 0.792938 0.827912 0.911330
Si Si2 0.000395 0.727733 0.488661
Si Si3 0.517651 0.464451 0.861679
Si Si4 0.085081 0.437781 0.322816
Si Si5 0.656904 0.123917 0.116106
Si Si6 0.964438 0.909827 0.763572
O O1 0.824643 0.919854 0.817181
O O2 0.902202 0.764659 0.712004
O O3 0.944169 0.630548 0.113939
O O4 0.500000 0.000000 0.000000
O O5 0.277563 0.590549 0.368186
O O6 0.991379 0.626039 0.554809
O O7 0.820391 0.941043 0.307564
O O8 0.241698 0.671732 0.819135
O O9 0.500000 0.500000 0.000000
O O10 0.606786 0.279703 0.001913
O O11 0.386590 0.251013 0.229143
O O12 0.000000 0.500000 0.500000
O O13 0.811605 0.026328 0.924274
O O14 0.000000 0.000000 0.500000
#
# Coordination Sequence:
#
# PCOD9070840 Si02
#       6
#     2   2   2   2   2   2
#     4  12  27  47  69 106 144 183 239 293 348 416
#     4  12  26  43  75 102 141 189 232 291 353 417
#     4  12  26  47  73 107 143 183 237 287 352 420
#     4  12  25  47  73 102 142 187 239 292 348 415
#     4  12  25  49  72 103 141 186 239 286 353 415
#     4  12  28  46  74 106 143 187 232 293 350 417
#
# _framework density 20.287773000000001
#
# number of rings (size 3 to 8) (size 9 to 14) (size 15 to 20)
#    0.000    0.000    3.333    6.500    7.000    1.333 
#    0.000    0.000    0.000    0.000    0.000    0.000 
#    0.000    0.000    0.000    0.000    0.000    0.000 
#
# Total GULP energy -67262.693090 kJ/mol
# GULP energy per Si atom -5605.224424 kJ/mol
# Density = 2.024160 g / cm^3
# Si number density = 20.287773 Si / 1000 Ang^3
#
#
#
# Elastic Constant Matrix: (Units=GPa)
#
#
# Indices 1 2 3 4 5 6 
#
# 1 152.5292 57.1701 65.7999 -6.7540 -13.6456 14.0793
# 2 57.1701 116.3990 71.3960 9.5555 2.1793 0.9882
# 3 65.7999 71.3960 156.0774 3.1385 16.1796 12.0950
# 4 -6.7540 9.5555 3.1385 38.9080 1.9183 -15.9004
# 5 -13.6456 2.1793 16.1796 1.9183 56.1898 3.4772
# 6 14.0793 0.9882 12.0950 -15.9004 3.4772 50.6654
#
#
#
# Elastic Compliance Matrix: (Units=1/GPa)
#
#
# Indices 1 2 3 4 5 6 
#
# 1 0.009454 -0.003115 -0.002816 0.001844 0.003260 -0.001539
# 2 -0.003115 0.013303 -0.004785 -0.003120 0.000165 0.000758
# 3 -0.002816 -0.004785 0.010260 -0.000604 -0.003337 -0.001534
# 4 0.001844 -0.003120 -0.000604 0.030720 -0.000888 0.009394
# 5 0.003260 0.000165 -0.003337 -0.000888 0.019681 -0.001742
# 6 -0.001539 0.000758 -0.001534 0.009394 -0.001742 0.023584
#
#
# Mechanical properties :
#
#
# Convention : Reuss Voigt Hill
#
# Bulk Modulus (GPa) = 86.32706 90.41529 88.37117
# Shear Modulus (GPa) = 37.79383 44.52861 41.16122
#
# Velocity S-wave (km/s) = 4.32080 4.69000 4.50918
# Velocity P-wave (km/s) = 8.21803 8.60182 8.41212
#
# Compressibility (1/GPa) = 0.01158385
#
# Stress axis : x y z
#
# Youngs Moduli (GPa) = 105.77423 75.17195 97.46368
#
# Poissons Ratio (x) = 0.23418 0.27450
# Poissons Ratio (y) = 0.32951 0.46636
# Poissons Ratio (z) = 0.29790 0.35970
#
# Static dielectric constant tensor:
#      x y z
#    x 1.679390 0.002170 -0.008050 
#    y 0.002170 1.672090 0.000590 
#    z -0.008050 0.000590 1.665310 
# 
# From -- ./inp_files/16956.got.cif
#   From: 2010.05.17/outbox.cif.g08.bks.cpg/sg2_9_cif.got.tgz:16956.got - 2010.06.03 11:33:40.
