data_PCOD9070077
_publ_section_title
;
Structure prediction by ZEFSAII (Michael W. Deem and Ramdas Pophale) SiO2 
 PCOD9070077
Probable space group: P -1
;
_chemical_formula_sum "Si O2"
_cell_formula_units_Z 15
_cell_length_a 14.827821
_cell_length_b 12.242660
_cell_length_c 13.794100
_cell_angle_alpha 49.880974
_cell_angle_beta 160.375775
_cell_angle_gamma 131.250866
_cell_volume 629.580513
_symmetry_space_group_name_H-M "P -1"
_symmetry_group_IT_number 2
_symmetry_cell_setting 'triclinic'
loop_
_space_group_symop_operation_xyz
x,y,z
-x,-y,-z
loop_
_atom_site_type_symbol
_atom_site_label
_atom_site_fract_x
_atom_site_fract_y
_atom_site_fract_z
Si Si1 0.457713 0.863175 0.463362
Si Si2 0.000000 0.500000 0.000000
Si Si3 0.584669 0.145403 0.061328
Si Si4 0.082407 0.115169 0.700096
Si Si5 0.153653 0.549979 0.374489
Si Si6 0.786607 0.580468 0.285854
Si Si7 0.417441 0.568217 0.222805
Si Si8 0.056242 0.173232 0.166674
O O1 0.307326 0.715255 0.450125
O O2 0.722461 0.834441 0.689750
O O3 0.500000 0.000000 0.500000
O O4 0.240197 0.880935 0.150902
O O5 0.722705 0.419706 0.823923
O O6 0.067393 0.334332 0.128418
O O7 0.532510 0.277945 0.868114
O O8 0.896787 0.161825 0.400301
O O9 0.389989 0.126731 0.968060
O O10 0.500000 0.000000 0.000000
O O11 0.118858 0.247659 0.737565
O O12 0.933331 0.954348 0.672707
O O13 0.211950 0.454431 0.578210
O O14 0.831309 0.527885 0.038867
O O15 0.301105 0.494201 0.460161
O O16 0.000000 0.500000 0.500000
O O17 0.500000 0.500000 0.000000
#
# Coordination Sequence:
#
# PCOD9070077 Si02
#       8
#     2   1   2   2   2   2   2   2
#     4  12  27  49  73 105 143 196 247 300 374 440
#     4  12  26  48  72 106 144 190 254 294 368 418
#     4  12  24  46  71 102 137 189 229 286 363 430
#     4  12  26  47  68 107 146 178 241 294 364 430
#     4  12  24  48  71 103 143 185 239 297 367 430
#     4  12  26  43  75 106 142 191 240 300 367 435
#     4  12  24  45  72 103 144 186 236 300 355 441
#     4  12  28  47  73 108 146 191 245 314 363 435
#
# _framework density 23.825388
#
# number of rings (size 3 to 8) (size 9 to 14) (size 15 to 20)
#    0.000    0.000    5.333    4.000    3.733    3.200 
#    0.000    0.000    0.000    0.000    0.000    0.000 
#    0.000    0.000    0.000    0.000    0.000    0.000 
#
# Total GULP energy -83771.969637 kJ/mol
# GULP energy per Si atom -5584.797976 kJ/mol
# Density = 2.377116 g / cm^3
# Si number density = 23.825388 Si / 1000 Ang^3
#
#
#
# Elastic Constant Matrix: (Units=GPa)
#
#
# Indices 1 2 3 4 5 6 
#
# 1 84.1924 45.9443 1.7464 -9.8095 31.3366 -7.9208
# 2 45.9443 211.1182 16.9426 -13.8226 19.2973 -11.2821
# 3 1.7464 16.9426 79.4945 -2.5973 24.0692 -16.6308
# 4 -9.8095 -13.8226 -2.5973 37.2445 -6.2518 -1.2386
# 5 31.3366 19.2973 24.0692 -6.2518 35.7179 -3.1976
# 6 -7.9208 -11.2821 -16.6308 -1.2386 -3.1976 51.0668
#
#
#
# Elastic Compliance Matrix: (Units=1/GPa)
#
#
# Indices 1 2 3 4 5 6 
#
# 1 0.022429 -0.003124 0.007932 0.001625 -0.022694 0.003990
# 2 -0.003124 0.005547 -0.001238 0.001305 0.000845 0.000422
# 3 0.007932 -0.001238 0.019725 0.000017 -0.019025 0.006190
# 4 0.001625 0.001305 0.000017 0.028304 0.002939 0.001417
# 5 -0.022694 0.000845 -0.019025 0.002939 0.060277 -0.005684
# 6 0.003990 0.000422 0.006190 0.001417 -0.005684 0.021989
#
#
# Mechanical properties :
#
#
# Convention : Reuss Voigt Hill
#
# Bulk Modulus (GPa) = 18.23456 56.00795 37.12126
# Shear Modulus (GPa) = 29.51423 45.48395 37.49909
#
# Velocity S-wave (km/s) = 3.52344 4.37401 3.97156
# Velocity P-wave (km/s) = 4.92167 7.00486 6.05355
#
# Compressibility (1/GPa) = 0.05484093
#
# Stress axis : x y z
#
# Youngs Moduli (GPa) = 44.58513 180.28820 50.69706
#
# Poissons Ratio (x) = 0.56317 -0.40213
# Poissons Ratio (y) = 0.13927 0.06278
# Poissons Ratio (z) = -0.35365 0.22325
#
# Static dielectric constant tensor:
#      x y z
#    x 1.872610 -0.049260 -0.113450 
#    y -0.049260 1.820290 -0.235320 
#    z -0.113450 -0.235320 1.504850 
# 
# From -- ./inp_files/521201.got.cif
#   From: 2010.05.17/outbox.cif.g08.bks.cpg/sg2_261_cif.got.tgz:521201.got - 2010.06.03 11:33:40.
