data_PCOD9070044
_publ_section_title
;
Structure prediction by ZEFSAII (Michael W. Deem and Ramdas Pophale) SiO2 
 PCOD9070044
Probable space group: P -1
;
_chemical_formula_sum "Si O2"
_cell_formula_units_Z 14
_cell_length_a 9.597180
_cell_length_b 5.596379
_cell_length_c 18.653297
_cell_angle_alpha 68.315004
_cell_angle_beta 58.705064
_cell_angle_gamma 105.384679
_cell_volume 650.376445
_symmetry_space_group_name_H-M "P -1"
_symmetry_group_IT_number 2
_symmetry_cell_setting 'triclinic'
loop_
_space_group_symop_operation_xyz
x,y,z
-x,-y,-z
loop_
_atom_site_type_symbol
_atom_site_label
_atom_site_fract_x
_atom_site_fract_y
_atom_site_fract_z
Si Si1 0.496435 0.584492 0.280374
Si Si2 0.578119 0.371690 0.431042
Si Si3 0.387717 0.266860 0.191110
Si Si4 0.975969 0.361002 0.703258
Si Si5 0.281354 0.687273 0.091686
Si Si6 0.930034 0.642972 0.561392
Si Si7 0.773215 0.263660 0.061764
O O1 0.538786 0.440360 0.352899
O O2 0.411160 0.375098 0.254526
O O3 0.309512 0.583690 0.355070
O O4 0.677365 0.926169 0.164092
O O5 0.500000 0.500000 0.500000
O O6 0.818039 0.596437 0.349207
O O7 0.500000 0.000000 0.500000
O O8 0.331529 0.443896 0.130918
O O9 0.599483 0.321687 0.112929
O O10 0.194245 0.919562 0.269003
O O11 0.869648 0.331100 0.808778
O O12 0.018080 0.652389 0.614597
O O13 0.204365 0.700526 0.033612
O O14 0.500000 0.000000 0.000000
O O15 0.000000 0.500000 0.500000
O O16 0.000000 0.000000 0.500000
O O17 0.000000 0.500000 0.000000
#
# Coordination Sequence:
#
# PCOD9070044 Si02
#       7
#     2   2   2   2   2   2   2
#     4  12  27  49  74 114 156 198 265 328 390 476
#     4  12  32  54  79 117 161 210 264 332 409 467
#     4  12  24  47  77 106 157 199 262 317 392 462
#     4  12  27  46  78 110 151 206 259 325 394 475
#     4  12  24  48  72 115 151 202 262 316 395 473
#     4  12  24  44  77 110 144 195 257 321 383 453
#     4  12  29  46  76 113 157 208 256 324 397 477
#
# _framework density 21.525997
#
# number of rings (size 3 to 8) (size 9 to 14) (size 15 to 20)
#    0.000    0.000    5.714    3.000    8.000    0.571 
#    0.000    0.000    0.000    0.000    0.000    0.000 
#    0.000    0.000    0.000    0.000    0.000    0.000 
#
# Total GULP energy -78089.539199 kJ/mol
# GULP energy per Si atom -5577.824229 kJ/mol
# Density = 2.147700 g / cm^3
# Si number density = 21.525997 Si / 1000 Ang^3
#
#
#
# Elastic Constant Matrix: (Units=GPa)
#
#
# Indices 1 2 3 4 5 6 
#
# 1 158.9910 50.2617 84.1338 -8.0981 12.4601 23.7877
# 2 50.2617 108.1465 74.5851 3.6233 6.2547 4.6814
# 3 84.1338 74.5851 148.4209 28.0925 12.7402 2.6568
# 4 -8.0981 3.6233 28.0925 30.0493 -5.2533 2.8161
# 5 12.4601 6.2547 12.7402 -5.2533 64.6694 -0.8248
# 6 23.7877 4.6814 2.6568 2.8161 -0.8248 38.8990
#
#
#
# Elastic Compliance Matrix: (Units=1/GPa)
#
#
# Indices 1 2 3 4 5 6 
#
# 1 0.013901 0.001075 -0.011134 0.014953 0.000512 -0.008941
# 2 0.001075 0.015340 -0.009874 0.008049 0.000878 -0.002393
# 3 -0.011134 -0.009874 0.022770 -0.024431 -0.003266 0.008141
# 4 0.014953 0.008049 -0.024431 0.061420 0.005980 -0.012764
# 5 0.000512 0.000878 -0.003266 0.005980 0.016405 -0.000281
# 6 -0.008941 -0.002393 0.008141 -0.012764 -0.000281 0.031826
#
#
# Mechanical properties :
#
#
# Convention : Reuss Voigt Hill
#
# Bulk Modulus (GPa) = 82.34311 92.61327 87.47819
# Shear Modulus (GPa) = 24.32175 40.49542 32.40859
#
# Velocity S-wave (km/s) = 3.36501 4.34202 3.88436
# Velocity P-wave (km/s) = 7.30983 8.26165 7.80027
#
# Compressibility (1/GPa) = 0.01214431
#
# Stress axis : x y z
#
# Youngs Moduli (GPa) = 71.93624 65.18850 43.91743
#
# Poissons Ratio (x) = -0.07006 0.48899
# Poissons Ratio (y) = -0.07732 0.43364
# Poissons Ratio (z) = 0.80096 0.64367
#
# Static dielectric constant tensor:
#      x y z
#    x 1.898680 -0.185920 0.268600 
#    y -0.185920 1.945600 -0.283260 
#    z 0.268600 -0.283260 2.339890 
# 
# From -- ./inp_files/37654.got.cif
#   From: 2010.05.17/outbox.cif.g08.bks.cpg/sg2_19_cif.got.tgz:37654.got - 2010.06.03 11:33:40.
