data_PCOD9070128
_publ_section_title
;
Structure prediction by ZEFSAII (Michael W. Deem and Ramdas Pophale) SiO2 
 PCOD9070128
Probable space group: P -1
;
_chemical_formula_sum "Si O2"
_cell_formula_units_Z 14
_cell_length_a 9.294830
_cell_length_b 8.830115
_cell_length_c 11.249239
_cell_angle_alpha 116.226652
_cell_angle_beta 55.382780
_cell_angle_gamma 128.968680
_cell_volume 585.561919
_symmetry_space_group_name_H-M "P -1"
_symmetry_group_IT_number 2
_symmetry_cell_setting 'triclinic'
loop_
_space_group_symop_operation_xyz
x,y,z
-x,-y,-z
loop_
_atom_site_type_symbol
_atom_site_label
_atom_site_fract_x
_atom_site_fract_y
_atom_site_fract_z
Si Si1 0.558452 0.354671 0.987530
Si Si2 0.225468 0.034381 0.897785
Si Si3 0.035339 0.616864 0.152963
Si Si4 0.579438 0.797679 0.382623
Si Si5 0.683425 0.280634 0.326537
Si Si6 0.980840 0.000615 0.651469
Si Si7 0.567175 0.646268 0.701578
O O1 0.573303 0.392210 0.133008
O O2 0.500000 0.500000 0.000000
O O3 0.367132 0.139619 0.979768
O O4 0.772586 0.373223 0.866491
O O5 0.372596 0.172875 0.769386
O O6 0.207155 0.828309 0.814852
O O7 0.000000 0.000000 0.000000
O O8 0.064609 0.835446 0.213416
O O9 0.843590 0.503116 0.293250
O O10 0.000000 0.500000 0.000000
O O11 0.395786 0.806705 0.535643
O O12 0.497324 0.571517 0.382288
O O13 0.801273 0.943243 0.380696
O O14 0.484315 0.236309 0.329683
O O15 0.796900 0.780324 0.685042
O O16 0.000000 0.000000 0.500000
#
# Coordination Sequence:
#
# PCOD9070128 Si02
#       7
#     2   2   2   2   2   2   2
#     4  12  25  45  71 107 146 191 250 312 369 447
#     4  12  28  47  74 105 150 198 246 309 383 448
#     4  12  26  45  75 112 152 196 255 316 376 446
#     4  12  25  50  72 109 155 192 244 315 380 449
#     4  12  25  45  74 105 145 198 244 304 376 439
#     4  12  25  43  75 110 145 194 257 310 374 454
#     4  12  24  45  77 107 145 195 247 306 375 444
#
# _framework density 23.908657999999999
#
# number of rings (size 3 to 8) (size 9 to 14) (size 15 to 20)
#    0.000    0.000    5.714    4.286    4.000    1.143 
#    0.000    0.714    0.000    0.000    0.000    0.000 
#    0.000    0.000    0.000    0.000    0.000    0.000 
#
# Total GULP energy -78162.646578 kJ/mol
# GULP energy per Si atom -5583.046184 kJ/mol
# Density = 2.385424 g / cm^3
# Si number density = 23.908658 Si / 1000 Ang^3
#
#
#
# Elastic Constant Matrix: (Units=GPa)
#
#
# Indices 1 2 3 4 5 6 
#
# 1 89.3592 23.2823 14.8169 2.3565 -19.5902 18.4705
# 2 23.2823 93.8698 6.8153 -12.6845 -15.2175 12.8645
# 3 14.8169 6.8153 95.2811 -9.8378 5.0061 3.1502
# 4 2.3565 -12.6845 -9.8378 46.3364 2.6830 -0.1225
# 5 -19.5902 -15.2175 5.0061 2.6830 37.0164 -11.1581
# 6 18.4705 12.8645 3.1502 -0.1225 -11.1581 42.4356
#
#
#
# Elastic Compliance Matrix: (Units=1/GPa)
#
#
# Indices 1 2 3 4 5 6 
#
# 1 0.014343 -0.002172 -0.002495 -0.002214 0.006045 -0.003816
# 2 -0.002172 0.012439 -0.000318 0.003259 0.003181 -0.001956
# 3 -0.002495 -0.000318 0.011372 0.002646 -0.003342 -0.000533
# 4 -0.002214 0.003259 0.002646 0.023267 -0.002088 -0.000703
# 5 0.006045 0.003181 -0.003342 -0.002088 0.033793 0.005532
# 6 -0.003816 -0.001956 -0.000533 -0.000703 0.005532 0.027311
#
#
# Mechanical properties :
#
#
# Convention : Reuss Voigt Hill
#
# Bulk Modulus (GPa) = 35.48177 40.92657 38.20417
# Shear Modulus (GPa) = 35.23831 40.73072 37.98451
#
# Velocity S-wave (km/s) = 3.84327 4.13194 3.99022
# Velocity P-wave (km/s) = 5.87938 6.31815 6.10271
#
# Compressibility (1/GPa) = 0.02818349
#
# Stress axis : x y z
#
# Youngs Moduli (GPa) = 69.72050 80.39174 87.93192
#
# Poissons Ratio (x) = 0.17465 0.21940
# Poissons Ratio (y) = 0.15147 0.02796
# Poissons Ratio (z) = 0.17396 0.02556
#
# Static dielectric constant tensor:
#      x y z
#    x 1.983360 -0.149940 -0.039120 
#    y -0.149940 2.156250 0.058080 
#    z -0.039120 0.058080 2.074620 
# 
# From -- ./inp_files/293614.got.cif
#   From: 2010.05.17/outbox.cif.g08.bks.cpg/sg2_147_cif.got.tgz:293614.got - 2010.06.03 11:33:40.
