data_PCOD9070529
_publ_section_title
;
Structure prediction by ZEFSAII (Michael W. Deem and Ramdas Pophale) SiO2 
 PCOD9070529
Probable space group: P -1
;
_chemical_formula_sum "Si O2"
_cell_formula_units_Z 16
_cell_length_a 9.686163
_cell_length_b 18.810888
_cell_length_c 19.475455
_cell_angle_alpha 154.493484
_cell_angle_beta 153.624533
_cell_angle_gamma 37.264173
_cell_volume 677.331999
_symmetry_space_group_name_H-M "P -1"
_symmetry_group_IT_number 2
_symmetry_cell_setting 'triclinic'
loop_
_space_group_symop_operation_xyz
x,y,z
-x,-y,-z
loop_
_atom_site_type_symbol
_atom_site_label
_atom_site_fract_x
_atom_site_fract_y
_atom_site_fract_z
Si Si1 0.816390 0.129639 0.316617
Si Si2 0.237902 0.984047 0.155328
Si Si3 0.401317 0.334664 0.770569
Si Si4 0.636166 0.456479 0.314204
Si Si5 0.398199 0.727016 0.350245
Si Si6 0.720284 0.878054 0.176625
Si Si7 0.420194 0.383779 0.299923
Si Si8 0.109953 0.847105 0.115765
O O1 0.550734 0.204046 0.217497
O O2 0.034431 0.293031 0.572422
O O3 0.720832 0.029418 0.255065
O O4 0.003507 0.005237 0.245707
O O5 0.339258 0.145215 0.386816
O O6 0.565484 0.930421 0.224295
O O7 0.075935 0.858581 0.029073
O O8 0.000000 0.000000 0.000000
O O9 0.511522 0.324807 0.731909
O O10 0.532490 0.177518 0.730822
O O11 0.500000 0.500000 0.000000
O O12 0.420479 0.566640 0.268068
O O13 0.564966 0.475455 0.378787
O O14 0.000000 0.500000 0.500000
O O15 0.524633 0.267004 0.085200
O O16 0.062961 0.807060 0.270903
O O17 0.500000 0.500000 0.500000
O O18 0.061771 0.320305 0.076330
#
# Coordination Sequence:
#
# PCOD9070529 Si02
#       8
#     2   2   2   2   2   2   2   2
#     4  12  24  49  79 105 152 197 260 322 375 456
#     4  12  28  47  77 113 151 200 257 319 394 465
#     4  12  26  48  79 113 151 203 258 320 390 461
#     4  12  28  47  74 108 160 204 252 316 394 465
#     4  12  26  51  74 113 160 200 258 321 392 472
#     4  12  27  48  76 112 148 206 256 323 391 455
#     4  12  28  46  73 112 149 203 259 315 386 460
#     4  12  25  49  76 106 149 198 264 316 379 458
#
# _framework density 23.622094000000001
#
# number of rings (size 3 to 8) (size 9 to 14) (size 15 to 20)
#    0.000    0.000    3.750    5.250    8.750    0.000 
#    0.000    0.000    0.000    0.000    0.000    0.000 
#    0.000    0.000    0.000    0.000    0.000    0.000 
#
# Total GULP energy -89562.696221 kJ/mol
# GULP energy per Si atom -5597.668514 kJ/mol
# Density = 2.356833 g / cm^3
# Si number density = 23.622094 Si / 1000 Ang^3
#
#
#
# Elastic Constant Matrix: (Units=GPa)
#
#
# Indices 1 2 3 4 5 6 
#
# 1 169.6587 35.5873 52.6496 6.6983 -6.9404 26.2909
# 2 35.5873 106.7991 15.8921 -9.5973 -2.8979 3.8826
# 3 52.6496 15.8921 142.9376 -0.6061 -9.3605 -2.0562
# 4 6.6983 -9.5973 -0.6061 32.7640 -4.6809 -2.1204
# 5 -6.9404 -2.8979 -9.3605 -4.6809 46.7656 -0.9025
# 6 26.2909 3.8826 -2.0562 -2.1204 -0.9025 38.1979
#
#
#
# Elastic Compliance Matrix: (Units=1/GPa)
#
#
# Indices 1 2 3 4 5 6 
#
# 1 0.008296 -0.002375 -0.002879 -0.002802 0.000116 -0.005777
# 2 -0.002375 0.010510 -0.000225 0.003701 0.000639 0.000775
# 3 -0.002879 -0.000225 0.008211 0.001032 0.001355 0.002536
# 4 -0.002802 0.003701 0.001032 0.032908 0.003382 0.003515
# 5 0.000116 0.000639 0.001355 0.003382 0.022062 0.000637
# 6 -0.005777 0.000775 0.002536 0.003515 0.000637 0.030423
#
#
# Mechanical properties :
#
#
# Convention : Reuss Voigt Hill
#
# Bulk Modulus (GPa) = 62.26904 69.73926 66.00415
# Shear Modulus (GPa) = 38.84333 44.56326 41.70329
#
# Velocity S-wave (km/s) = 4.05948 4.34811 4.20627
# Velocity P-wave (km/s) = 6.95631 7.40237 7.18280
#
# Compressibility (1/GPa) = 0.01605935
#
# Stress axis : x y z
#
# Youngs Moduli (GPa) = 120.53479 95.14778 121.78502
#
# Poissons Ratio (x) = 0.22595 0.35065
# Poissons Ratio (y) = 0.28624 0.02742
# Poissons Ratio (z) = 0.34705 0.02142
#
# Static dielectric constant tensor:
#      x y z
#    x 1.932710 0.056880 -0.077450 
#    y 0.056880 1.990510 -0.094890 
#    z -0.077450 -0.094890 2.060580 
# 
# From -- ./inp_files/562109.got.cif
#   From: 2010.05.17/outbox.cif.g08.bks.cpg/sg2_282_cif.got.tgz:562109.got - 2010.06.03 11:33:40.
