data_PCOD9070388
_publ_section_title
;
Structure prediction by ZEFSAII (Michael W. Deem and Ramdas Pophale) SiO2 
 PCOD9070388
Probable space group: P -1
;
_chemical_formula_sum "Si O2"
_cell_formula_units_Z 13
_cell_length_a 14.870508
_cell_length_b 10.698972
_cell_length_c 8.958349
_cell_angle_alpha 52.261332
_cell_angle_beta 138.579736
_cell_angle_gamma 150.469377
_cell_volume 461.175121
_symmetry_space_group_name_H-M "P -1"
_symmetry_group_IT_number 2
_symmetry_cell_setting 'triclinic'
loop_
_space_group_symop_operation_xyz
x,y,z
-x,-y,-z
loop_
_atom_site_type_symbol
_atom_site_label
_atom_site_fract_x
_atom_site_fract_y
_atom_site_fract_z
Si Si1 0.214012 0.873582 0.332426
Si Si2 0.000000 0.500000 0.000000
Si Si3 0.458935 0.324011 0.749312
Si Si4 0.092048 0.307114 0.138307
Si Si5 0.419769 0.564737 0.741194
Si Si6 0.495095 0.043393 0.137023
Si Si7 0.978914 0.113070 0.658119
O O1 0.417860 0.141381 0.305398
O O2 0.310468 0.844979 0.597497
O O3 0.075601 0.876299 0.252304
O O4 0.035432 0.664242 0.134668
O O5 0.267035 0.767568 0.111086
O O6 0.948458 0.645944 0.791672
O O7 0.418769 0.461895 0.660905
O O8 0.245861 0.077355 0.573552
O O9 0.673081 0.507755 0.777491
O O10 0.497145 0.234035 0.994107
O O11 0.972371 0.030389 0.181326
O O12 0.500000 0.500000 0.000000
O O13 0.182257 0.388492 0.639398
O O14 0.500000 0.000000 0.000000
#
# Coordination Sequence:
#
# PCOD9070388 Si02
#       7
#     2   1   2   2   2   2   2
#     4  12  27  48  77 111 151 191 246 311 370 437
#     4  12  28  48  72 102 154 194 250 296 368 444
#     4  12  26  48  74 108 150 194 248 302 368 442
#     4  12  25  48  76 110 148 197 245 310 369 434
#     4  12  26  47  75 113 147 189 249 308 372 435
#     4  12  27  50  70 109 147 196 245 300 369 440
#     4  12  24  47  80 110 144 193 251 310 366 435
#
# _framework density 28.188858
#
# number of rings (size 3 to 8) (size 9 to 14) (size 15 to 20)
#    0.000    0.000    6.154    3.231    4.308    1.231 
#    0.000    0.000    0.000    0.000    0.000    0.000 
#    0.000    0.000    0.000    0.000    0.000    0.000 
#
# Total GULP energy -72760.262208 kJ/mol
# GULP energy per Si atom -5596.943247 kJ/mol
# Density = 2.812470 g / cm^3
# Si number density = 28.188858 Si / 1000 Ang^3
#
#
#
# Elastic Constant Matrix: (Units=GPa)
#
#
# Indices 1 2 3 4 5 6 
#
# 1 111.7303 17.6850 7.4955 3.6244 18.1493 20.1354
# 2 17.6850 93.6501 35.8294 29.7350 -3.6547 21.8308
# 3 7.4955 35.8294 174.6850 0.9183 -14.1273 7.4576
# 4 3.6244 29.7350 0.9183 46.4589 0.8643 15.0121
# 5 18.1493 -3.6547 -14.1273 0.8643 47.1537 -6.2342
# 6 20.1354 21.8308 7.4576 15.0121 -6.2342 47.7132
#
#
#
# Elastic Compliance Matrix: (Units=1/GPa)
#
#
# Indices 1 2 3 4 5 6 
#
# 1 0.010911 -0.001528 -0.000362 0.001881 -0.005137 -0.005112
# 2 -0.001528 0.015651 -0.002908 -0.008819 0.000669 -0.003200
# 3 -0.000362 -0.002908 0.006469 0.001666 0.001846 0.000189
# 4 0.001881 -0.008819 0.001666 0.029127 -0.002300 -0.006484
# 5 -0.005137 0.000669 0.001846 -0.002300 0.024559 0.005506
# 6 -0.005112 -0.003200 0.000189 -0.006484 0.005506 0.027310
#
#
# Mechanical properties :
#
#
# Convention : Reuss Voigt Hill
#
# Bulk Modulus (GPa) = 42.66963 55.78723 49.22843
# Shear Modulus (GPa) = 38.04186 49.53553 43.78870
#
# Velocity S-wave (km/s) = 3.67759 4.19653 3.94560
# Velocity P-wave (km/s) = 5.76219 6.58139 6.18536
#
# Compressibility (1/GPa) = 0.02343587
#
# Stress axis : x y z
#
# Youngs Moduli (GPa) = 91.65166 63.89316 154.58379
#
# Poissons Ratio (x) = 0.09764 0.05593
# Poissons Ratio (y) = 0.14006 0.44946
# Poissons Ratio (z) = 0.03316 0.18577
#
# Static dielectric constant tensor:
#      x y z
#    x 1.681890 0.002050 0.087160 
#    y 0.002050 2.095010 -0.005210 
#    z 0.087160 -0.005210 2.310760 
# 
# From -- ./inp_files/174364.got.cif
#   From: 2010.05.17/outbox.cif.g08.bks.cpg/sg2_88_cif.got.tgz:174364.got - 2010.06.03 11:33:40.
