data_PCOD9070277
_publ_section_title
;
Structure prediction by ZEFSAII (Michael W. Deem and Ramdas Pophale) SiO2 
 PCOD9070277
Probable space group: P -1
;
_chemical_formula_sum "Si O2"
_cell_formula_units_Z 13
_cell_length_a 9.147375
_cell_length_b 9.234644
_cell_length_c 11.933107
_cell_angle_alpha 42.579153
_cell_angle_beta 117.404959
_cell_angle_gamma 91.375824
_cell_volume 515.613749
_symmetry_space_group_name_H-M "P -1"
_symmetry_group_IT_number 2
_symmetry_cell_setting 'triclinic'
loop_
_space_group_symop_operation_xyz
x,y,z
-x,-y,-z
loop_
_atom_site_type_symbol
_atom_site_label
_atom_site_fract_x
_atom_site_fract_y
_atom_site_fract_z
Si Si1 0.324866 0.223174 0.968991
Si Si2 0.131860 0.951698 0.966342
Si Si3 0.829019 0.515741 0.007299
Si Si4 0.787054 0.412328 0.479472
Si Si5 0.000000 0.000000 0.500000
Si Si6 0.586725 0.620032 0.661089
Si Si7 0.278929 0.163870 0.605566
O O1 0.290279 0.017670 0.018583
O O2 0.216238 0.310240 0.998890
O O3 0.238582 0.457146 0.722533
O O4 0.553673 0.093996 0.133285
O O5 0.988187 0.152765 0.711366
O O6 0.240703 0.665411 0.135688
O O7 0.000000 0.000000 0.000000
O O8 0.889007 0.243300 0.231336
O O9 0.629891 0.650866 0.787110
O O10 0.000000 0.500000 0.000000
O O11 0.613265 0.359568 0.452039
O O12 0.777651 0.603771 0.462191
O O13 0.114854 0.126692 0.520190
O O14 0.621268 0.788506 0.492422
#
# Coordination Sequence:
#
# PCOD9070277 Si02
#       7
#     2   2   2   2   1   2   2
#     4  12  28  49  77 116 156 213 265 322 407 473
#     4  12  24  46  80 113 154 206 264 324 402 465
#     4  12  28  54  76 114 162 209 270 322 396 481
#     4  12  26  48  80 119 158 202 270 334 389 476
#     4  12  28  48  80 110 164 208 258 328 400 466
#     4  12  26  49  81 116 157 210 264 332 395 470
#     4  12  25  51  79 115 162 207 264 331 397 471
#
# _framework density 25.212672999999999
#
# number of rings (size 3 to 8) (size 9 to 14) (size 15 to 20)
#    0.000    0.000    4.615    5.077    4.308    3.077 
#    0.000    0.000    0.000    0.000    0.000    0.000 
#    0.000    0.000    0.000    0.000    0.000    0.000 
#
# Total GULP energy -72729.306200 kJ/mol
# GULP energy per Si atom -5594.562015 kJ/mol
# Density = 2.515529 g / cm^3
# Si number density = 25.212673 Si / 1000 Ang^3
#
#
#
# Elastic Constant Matrix: (Units=GPa)
#
#
# Indices 1 2 3 4 5 6 
#
# 1 71.3045 76.3176 7.9914 13.3749 -4.5747 22.5421
# 2 76.3176 135.3444 48.5202 24.8287 6.0054 25.0343
# 3 7.9914 48.5202 105.7783 16.0057 2.8063 -0.2473
# 4 13.3749 24.8287 16.0057 44.8985 6.3890 9.6137
# 5 -4.5747 6.0054 2.8063 6.3890 47.8070 7.3955
# 6 22.5421 25.0343 -0.2473 9.6137 7.3955 50.9591
#
#
#
# Elastic Compliance Matrix: (Units=1/GPa)
#
#
# Indices 1 2 3 4 5 6 
#
# 1 0.046574 -0.028408 0.009433 -0.001140 0.008810 -0.007664
# 2 -0.028408 0.027670 -0.010019 -0.002551 -0.005292 0.000174
# 3 0.009433 -0.010019 0.013692 -0.002601 0.001538 0.001083
# 4 -0.001140 -0.002551 -0.002601 0.025921 -0.002673 -0.002757
# 5 0.008810 -0.005292 0.001538 -0.002673 0.023338 -0.004172
# 6 -0.007664 0.000174 0.001083 -0.002757 -0.004172 0.024059
#
#
# Mechanical properties :
#
#
# Convention : Reuss Voigt Hill
#
# Bulk Modulus (GPa) = 33.39127 64.23175 48.81151
# Shear Modulus (GPa) = 21.81266 40.70612 31.25939
#
# Velocity S-wave (km/s) = 2.94453 4.02246 3.52494
# Velocity P-wave (km/s) = 4.98326 6.86330 5.99741
#
# Compressibility (1/GPa) = 0.02994795
#
# Stress axis : x y z
#
# Youngs Moduli (GPa) = 21.47104 36.14087 73.03484
#
# Poissons Ratio (x) = 1.02669 -0.68893
# Poissons Ratio (y) = 0.60995 0.73173
# Poissons Ratio (z) = -0.20253 0.36209
#
# Static dielectric constant tensor:
#      x y z
#    x 1.976580 -0.033420 -0.012200 
#    y -0.033420 1.985420 0.042250 
#    z -0.012200 0.042250 1.974370 
# 
# From -- ./inp_files/183711.got.cif
#   From: 2010.05.17/outbox.cif.g08.bks.cpg/sg2_92_cif.got.tgz:183711.got - 2010.06.03 11:33:40.
