data_PCOD9070512
_publ_section_title
;
Structure prediction by ZEFSAII (Michael W. Deem and Ramdas Pophale) SiO2 
 PCOD9070512
Probable space group: P -1
;
_chemical_formula_sum "Si O2"
_cell_formula_units_Z 16
_cell_length_a 8.722287
_cell_length_b 12.333017
_cell_length_c 14.295016
_cell_angle_alpha 138.660299
_cell_angle_beta 134.470023
_cell_angle_gamma 52.176821
_cell_volume 712.302789
_symmetry_space_group_name_H-M "P -1"
_symmetry_group_IT_number 2
_symmetry_cell_setting 'triclinic'
loop_
_space_group_symop_operation_xyz
x,y,z
-x,-y,-z
loop_
_atom_site_type_symbol
_atom_site_label
_atom_site_fract_x
_atom_site_fract_y
_atom_site_fract_z
Si Si1 0.453806 0.836038 0.427465
Si Si2 0.760554 0.485533 0.351938
Si Si3 0.843665 0.227305 0.900097
Si Si4 0.409999 0.761754 0.017946
Si Si5 0.315606 0.068675 0.041642
Si Si6 0.823727 0.166962 0.520205
Si Si7 0.568957 0.342139 0.361597
Si Si8 0.090280 0.424203 0.890151
O O1 0.642894 0.673378 0.398182
O O2 0.251524 0.788279 0.253042
O O3 0.381087 0.856632 0.517771
O O4 0.500000 0.000000 0.500000
O O5 0.728590 0.364529 0.173403
O O6 0.644158 0.405665 0.336404
O O7 0.000000 0.500000 0.500000
O O8 0.662245 0.209022 0.887161
O O9 0.887192 0.413160 0.053666
O O10 0.066280 0.094773 0.919442
O O11 0.666517 0.685394 0.066876
O O12 0.352670 0.937991 0.056183
O O13 0.366718 0.248725 0.204289
O O14 0.500000 0.000000 0.000000
O O15 0.751409 0.212692 0.412700
O O16 0.929752 0.317826 0.704432
O O17 0.000000 0.000000 0.500000
O O18 0.500000 0.500000 0.500000
O O19 0.000000 0.500000 0.000000
#
# Coordination Sequence:
#
# PCOD9070512 Si02
#       8
#     2   2   2   2   2   2   2   2
#     4  12  30  49  71 109 153 191 244 305 374 441
#     4  12  29  49  74 106 152 195 242 304 372 445
#     4  12  28  45  77 105 146 196 244 303 369 434
#     4  12  27  47  73 111 146 191 248 302 371 438
#     4  12  27  48  76 107 148 194 251 306 359 437
#     4  12  28  45  77 111 146 193 246 306 366 432
#     4  12  27  49  75 107 148 196 249 299 368 437
#     4  12  24  49  76 102 143 194 250 301 358 435
#
# _framework density 22.462357000000001
#
# number of rings (size 3 to 8) (size 9 to 14) (size 15 to 20)
#    0.000    0.000    5.000    3.000   12.250    0.000 
#    0.000    0.000    0.000    0.000    0.000    0.000 
#    0.000    0.000    0.000    0.000    0.000    0.000 
#
# Total GULP energy -89610.638591 kJ/mol
# GULP energy per Si atom -5600.664912 kJ/mol
# Density = 2.241123 g / cm^3
# Si number density = 22.462357 Si / 1000 Ang^3
#
#
#
# Elastic Constant Matrix: (Units=GPa)
#
#
# Indices 1 2 3 4 5 6 
#
# 1 70.3871 29.5318 5.1980 -0.7856 4.5986 7.3355
# 2 29.5318 144.7505 1.1254 -0.6104 14.6685 3.2308
# 3 5.1980 1.1254 64.0600 3.1359 11.0529 2.6676
# 4 -0.7856 -0.6104 3.1359 43.2084 5.4152 11.6767
# 5 4.5986 14.6685 11.0529 5.4152 36.6637 0.1181
# 6 7.3355 3.2308 2.6676 11.6767 0.1181 48.4403
#
#
#
# Elastic Compliance Matrix: (Units=1/GPa)
#
#
# Indices 1 2 3 4 5 6 
#
# 1 0.015894 -0.003119 -0.001089 0.001040 -0.000563 -0.002388
# 2 -0.003119 0.007850 0.000619 0.000435 -0.003000 -0.000183
# 3 -0.001089 0.000619 0.016608 -0.000398 -0.005057 -0.000683
# 4 0.001040 0.000435 -0.000398 0.025383 -0.003913 -0.006274
# 5 -0.000563 -0.003000 -0.005057 -0.003913 0.030643 0.001432
# 6 -0.002388 -0.000183 -0.000683 -0.006274 0.001432 0.022564
#
#
# Mechanical properties :
#
#
# Convention : Reuss Voigt Hill
#
# Bulk Modulus (GPa) = 30.14505 38.98977 34.56741
# Shear Modulus (GPa) = 36.44857 41.88530 39.16694
#
# Velocity S-wave (km/s) = 4.03258 4.32289 4.18026
# Velocity P-wave (km/s) = 5.92720 6.50477 6.22269
#
# Compressibility (1/GPa) = 0.03317295
#
# Stress axis : x y z
#
# Youngs Moduli (GPa) = 62.91824 127.38985 60.21080
#
# Poissons Ratio (x) = 0.39738 0.06558
# Poissons Ratio (y) = 0.19627 -0.03728
# Poissons Ratio (z) = 0.06853 -0.07887
#
# Static dielectric constant tensor:
#      x y z
#    x 3.256420 0.835030 0.942000 
#    y 0.835030 2.312920 0.537100 
#    z 0.942000 0.537100 2.438680 
# 
# From -- ./inp_files/501040.got.cif
#   From: 2010.05.17/outbox.cif.g08.bks.cpg/sg2_251_cif.got.tgz:501040.got - 2010.06.03 11:33:40.
