data_PCOD9070504
_publ_section_title
;
Structure prediction by ZEFSAII (Michael W. Deem and Ramdas Pophale) SiO2 
 PCOD9070504
Probable space group: P -1
;
_chemical_formula_sum "Si O2"
_cell_formula_units_Z 14
_cell_length_a 11.721126
_cell_length_b 9.011425
_cell_length_c 16.608956
_cell_angle_alpha 55.686008
_cell_angle_beta 23.510991
_cell_angle_gamma 50.169902
_cell_volume 535.838455
_symmetry_space_group_name_H-M "P -1"
_symmetry_group_IT_number 2
_symmetry_cell_setting 'triclinic'
loop_
_space_group_symop_operation_xyz
x,y,z
-x,-y,-z
loop_
_atom_site_type_symbol
_atom_site_label
_atom_site_fract_x
_atom_site_fract_y
_atom_site_fract_z
Si Si1 0.157976 0.556806 0.051708
Si Si2 0.000000 0.000000 0.000000
Si Si3 0.448179 0.848985 0.140163
Si Si4 0.198793 0.524928 0.542541
Si Si5 0.000000 0.500000 0.500000
Si Si6 0.271333 0.883714 0.684493
Si Si7 0.612149 0.754926 0.237105
Si Si8 0.809634 0.943858 0.480663
O O1 0.006806 0.518768 0.242529
O O2 0.910777 0.588320 0.130103
O O3 0.192600 0.761284 0.970569
O O4 0.455656 0.366403 0.896251
O O5 0.071110 0.948698 0.873329
O O6 0.627446 0.820361 0.116667
O O7 0.085136 0.926248 0.368059
O O8 0.500000 0.000000 0.000000
O O9 0.518232 0.341274 0.381174
O O10 0.327108 0.684182 0.443152
O O11 0.019462 0.568475 0.561237
O O12 0.151760 0.271502 0.500344
O O13 0.500000 0.000000 0.500000
O O14 0.127163 0.944330 0.671215
O O15 0.529143 0.931357 0.302157
#
# Coordination Sequence:
#
# PCOD9070504 Si02
#       8
#     2   1   2   2   1   2   2   2
#     4  12  27  48  77 114 151 203 256 321 382 462
#     4  12  26  46  78 112 154 198 264 314 378 456
#     4  12  29  46  69 116 156 190 250 325 393 450
#     4  12  25  50  78 109 149 201 261 311 387 462
#     4  12  26  44  78 104 148 190 256 314 374 460
#     4  12  24  49  74 112 150 200 261 307 383 464
#     4  12  26  50  81 106 148 209 260 313 387 461
#     4  12  26  48  75 109 147 201 251 319 379 467
#
# _framework density 26.127278
#
# number of rings (size 3 to 8) (size 9 to 14) (size 15 to 20)
#    0.000    0.000    5.714    3.000    6.000    0.000 
#    2.571    1.429    0.000    0.000    0.000    0.000 
#    0.000    0.000    0.000    0.000    0.000    0.000 
#
# Total GULP energy -78058.900528 kJ/mol
# GULP energy per Si atom -5575.635752 kJ/mol
# Density = 2.606781 g / cm^3
# Si number density = 26.127278 Si / 1000 Ang^3
#
#
#
# Elastic Constant Matrix: (Units=GPa)
#
#
# Indices 1 2 3 4 5 6 
#
# 1 132.0057 9.1085 30.2205 -0.7427 32.2525 -30.2498
# 2 9.1085 175.2498 44.5219 19.7611 21.5816 -8.2833
# 3 30.2205 44.5219 137.4476 7.2755 35.5802 -17.3908
# 4 -0.7427 19.7611 7.2755 57.9791 -7.2818 9.8875
# 5 32.2525 21.5816 35.5802 -7.2818 51.4419 -9.2915
# 6 -30.2498 -8.2833 -17.3908 9.8875 -9.2915 46.0538
#
#
#
# Elastic Compliance Matrix: (Units=1/GPa)
#
#
# Indices 1 2 3 4 5 6 
#
# 1 0.010384 0.000717 -0.000116 -0.001880 -0.005891 0.006121
# 2 0.000717 0.006674 -0.001399 -0.002602 -0.002431 0.001211
# 3 -0.000116 -0.001399 0.009695 -0.001913 -0.005854 0.002563
# 4 -0.001880 -0.002602 -0.001913 0.019989 0.005407 -0.005626
# 5 -0.005891 -0.002431 -0.005854 0.005407 0.028624 -0.001904
# 6 0.006121 0.001211 0.002563 -0.005626 -0.001904 0.027744
#
#
# Mechanical properties :
#
#
# Convention : Reuss Voigt Hill
#
# Bulk Modulus (GPa) = 39.75192 68.04500 53.89846
# Shear Modulus (GPa) = 44.21154 55.15178 49.68166
#
# Velocity S-wave (km/s) = 4.11805 4.59943 4.36538
# Velocity P-wave (km/s) = 6.15296 7.36929 6.78842
#
# Compressibility (1/GPa) = 0.02515602
#
# Stress axis : x y z
#
# Youngs Moduli (GPa) = 96.30176 149.82621 103.14391
#
# Poissons Ratio (x) = -0.10738 0.01199
# Poissons Ratio (y) = -0.06902 0.14432
# Poissons Ratio (z) = 0.01119 0.20964
#
# Static dielectric constant tensor:
#      x y z
#    x 1.971470 0.072110 -0.107910 
#    y 0.072110 1.963130 -0.076750 
#    z -0.107910 -0.076750 2.121950 
# 
# From -- ./inp_files/206016.got.cif
#   From: 2010.05.17/outbox.cif.g08.bks.cpg/sg2_104_cif.got.tgz:206016.got - 2010.06.03 11:33:40.
