data_PCOD9070435
_publ_section_title
;
Structure prediction by ZEFSAII (Michael W. Deem and Ramdas Pophale) SiO2 
 PCOD9070435
Probable space group: P -1
;
_chemical_formula_sum "Si O2"
_cell_formula_units_Z 12
_cell_length_a 8.352792
_cell_length_b 9.258489
_cell_length_c 12.648615
_cell_angle_alpha 55.156360
_cell_angle_beta 43.749308
_cell_angle_gamma 77.379448
_cell_volume 521.617092
_symmetry_space_group_name_H-M "P -1"
_symmetry_group_IT_number 2
_symmetry_cell_setting 'triclinic'
loop_
_space_group_symop_operation_xyz
x,y,z
-x,-y,-z
loop_
_atom_site_type_symbol
_atom_site_label
_atom_site_fract_x
_atom_site_fract_y
_atom_site_fract_z
Si Si1 0.067698 0.190393 0.318133
Si Si2 0.535939 0.132722 0.525582
Si Si3 0.412026 0.480964 0.429835
Si Si4 0.228870 0.939429 0.950658
Si Si5 0.396228 0.218054 0.943191
Si Si6 0.870804 0.445413 0.748132
O O1 0.188386 0.375289 0.255265
O O2 0.824305 0.223622 0.374801
O O3 0.228380 0.178879 0.144049
O O4 0.000000 0.000000 0.500000
O O5 0.392430 0.271132 0.502681
O O6 0.427503 0.024126 0.730013
O O7 0.500000 0.000000 0.500000
O O8 0.500000 0.500000 0.500000
O O9 0.619098 0.624480 0.198687
O O10 0.148114 0.507571 0.545634
O O11 0.335613 0.037907 0.970971
O O12 0.151236 0.716164 0.087419
O O13 0.000000 0.000000 0.000000
O O14 0.669977 0.328406 0.808911
#
# Coordination Sequence:
#
# PCOD9070435 Si02
#       6
#     2   2   2   2   2   2
#     4  12  29  50  71 107 152 194 244 304 366 434
#     4  12  27  46  74 105 151 189 247 304 363 432
#     4  12  24  49  73 110 143 194 246 303 365 434
#     4  12  24  48  74 111 145 190 247 300 363 440
#     4  12  27  45  75 109 149 194 244 297 370 437
#     4  12  26  47  76 105 150 191 246 306 362 436
#
# _framework density 23.005382000000001
#
# number of rings (size 3 to 8) (size 9 to 14) (size 15 to 20)
#    0.000    0.000    5.000    3.500    4.667    2.000 
#    0.000    0.000    0.000    0.000    0.000    0.000 
#    0.000    0.000    0.000    0.000    0.000    0.000 
#
# Total GULP energy -67105.191605 kJ/mol
# GULP energy per Si atom -5592.099300 kJ/mol
# Density = 2.295302 g / cm^3
# Si number density = 23.005382 Si / 1000 Ang^3
#
#
#
# Elastic Constant Matrix: (Units=GPa)
#
#
# Indices 1 2 3 4 5 6 
#
# 1 88.0190 19.6654 19.8159 10.1800 -1.8298 26.8787
# 2 19.6654 179.7937 59.8362 -4.5515 29.0859 22.8876
# 3 19.8159 59.8362 171.7128 11.1552 33.0822 9.2363
# 4 10.1800 -4.5515 11.1552 43.8327 -8.7902 6.0899
# 5 -1.8298 29.0859 33.0822 -8.7902 44.7289 -8.8602
# 6 26.8787 22.8876 9.2363 6.0899 -8.8602 31.2978
#
#
#
# Elastic Compliance Matrix: (Units=1/GPa)
#
#
# Indices 1 2 3 4 5 6 
#
# 1 0.015896 0.000655 -0.000693 -0.001964 -0.002471 -0.014244
# 2 0.000655 0.007809 -0.001440 0.001014 -0.005281 -0.007541
# 3 -0.000693 -0.001440 0.007797 -0.002890 -0.005769 -0.001724
# 4 -0.001964 0.001014 -0.002890 0.025540 0.006133 -0.001435
# 5 -0.002471 -0.005281 -0.005769 0.006133 0.034376 0.016224
# 6 -0.014244 -0.007541 -0.001724 -0.001435 0.016224 0.055079
#
#
# Mechanical properties :
#
#
# Convention : Reuss Voigt Hill
#
# Bulk Modulus (GPa) = 35.02925 70.90672 52.96798
# Shear Modulus (GPa) = 31.45274 46.65241 39.05257
#
# Velocity S-wave (km/s) = 3.70157 4.50810 4.12459
# Velocity P-wave (km/s) = 5.79037 7.61485 6.76440
#
# Compressibility (1/GPa) = 0.02854757
#
# Stress axis : x y z
#
# Youngs Moduli (GPa) = 62.90794 128.05121 128.25164
#
# Poissons Ratio (x) = -0.08388 0.08888
# Poissons Ratio (y) = -0.04121 0.18464
# Poissons Ratio (z) = 0.04360 0.18435
#
# Static dielectric constant tensor:
#      x y z
#    x 1.917900 0.032430 0.001260 
#    y 0.032430 1.684220 0.001890 
#    z 0.001260 0.001890 1.906270 
# 
# From -- ./inp_files/173619.got.cif
#   From: 2010.05.17/outbox.cif.g08.bks.cpg/sg2_87_cif.got.tgz:173619.got - 2010.06.03 11:33:40.
