data_PCOD9070251
_publ_section_title
;
Structure prediction by ZEFSAII (Michael W. Deem and Ramdas Pophale) SiO2 
 PCOD9070251
Probable space group: P -1
;
_chemical_formula_sum "Si O2"
_cell_formula_units_Z 14
_cell_length_a 10.477331
_cell_length_b 10.050004
_cell_length_c 10.649317
_cell_angle_alpha 127.590391
_cell_angle_beta 41.963518
_cell_angle_gamma 139.177904
_cell_volume 487.269353
_symmetry_space_group_name_H-M "P -1"
_symmetry_group_IT_number 2
_symmetry_cell_setting 'triclinic'
loop_
_space_group_symop_operation_xyz
x,y,z
-x,-y,-z
loop_
_atom_site_type_symbol
_atom_site_label
_atom_site_fract_x
_atom_site_fract_y
_atom_site_fract_z
Si Si1 0.846530 0.313906 0.911428
Si Si2 0.808697 0.022800 0.592646
Si Si3 0.543665 0.657633 0.745810
Si Si4 0.138282 0.671504 0.607372
Si Si5 0.273858 0.284744 0.094451
Si Si6 0.114780 0.850406 0.964217
Si Si7 0.630977 0.776552 0.346094
O O1 0.810531 0.143397 0.940036
O O2 0.890912 0.243534 0.707762
O O3 0.655501 0.351904 0.034531
O O4 0.000000 0.500000 0.000000
O O5 0.589553 0.826001 0.709270
O O6 0.744659 0.969756 0.465947
O O7 0.000000 0.000000 0.500000
O O8 0.727683 0.711499 0.749882
O O9 0.467759 0.436289 0.627639
O O10 0.408159 0.753010 0.431464
O O11 0.000000 0.500000 0.500000
O O12 0.972786 0.754434 0.778336
O O13 0.155821 0.700686 0.767046
O O14 0.272354 0.087921 0.943984
O O15 0.500000 0.500000 0.000000
O O16 0.850483 0.793819 0.128935
#
# Coordination Sequence:
#
# PCOD9070251 Si02
#       7
#     2   2   2   2   2   2   2
#     4  12  25  47  81 119 160 211 259 338 430 487
#     4  12  24  46  77 123 166 207 268 340 416 512
#     4  12  24  47  77 115 168 208 270 338 418 488
#     4  12  29  52  81 117 158 229 287 336 408 485
#     4  12  28  55  82 114 166 224 280 347 407 486
#     4  12  27  56  81 120 170 211 275 352 419 494
#     4  12  26  51  82 124 167 218 274 346 417 504
#
# _framework density 28.731542999999999
#
# number of rings (size 3 to 8) (size 9 to 14) (size 15 to 20)
#    0.000    0.000    5.714    3.000    2.000    1.714 
#    5.143    0.000    0.000    0.000    0.000    0.000 
#    0.000    0.000    0.000    0.000    0.000    0.000 
#
# Total GULP energy -78054.546693 kJ/mol
# GULP energy per Si atom -5575.324764 kJ/mol
# Density = 2.866615 g / cm^3
# Si number density = 28.731543 Si / 1000 Ang^3
#
#
#
# Elastic Constant Matrix: (Units=GPa)
#
#
# Indices 1 2 3 4 5 6 
#
# 1 145.9959 30.0299 58.0222 -12.4639 -18.7431 38.3803
# 2 30.0299 173.9445 71.6200 29.1844 6.0474 17.8940
# 3 58.0222 71.6200 186.7154 33.5382 4.2978 26.4560
# 4 -12.4639 29.1844 33.5382 60.4946 6.5959 9.7127
# 5 -18.7431 6.0474 4.2978 6.5959 65.8679 1.3676
# 6 38.3803 17.8940 26.4560 9.7127 1.3676 50.0276
#
#
#
# Elastic Compliance Matrix: (Units=1/GPa)
#
#
# Indices 1 2 3 4 5 6 
#
# 1 0.011117 -0.000865 -0.003053 0.005305 0.003071 -0.007719
# 2 -0.000865 0.007179 -0.001985 -0.002424 -0.000525 -0.000369
# 3 -0.003053 -0.001985 0.007824 -0.003871 -0.000803 -0.000312
# 4 0.005305 -0.002424 -0.003871 0.021814 -0.000088 -0.005388
# 5 0.003071 -0.000525 -0.000803 -0.000088 0.016210 -0.002170
# 6 -0.007719 -0.000369 -0.000312 -0.005388 -0.002170 0.027313
#
#
# Mechanical properties :
#
#
# Convention : Reuss Voigt Hill
#
# Bulk Modulus (GPa) = 69.86060 91.77778 80.81919
# Shear Modulus (GPa) = 46.28226 58.41028 52.34627
#
# Velocity S-wave (km/s) = 4.01790 4.51374 4.27301
# Velocity P-wave (km/s) = 6.77439 7.69270 7.24810
#
# Compressibility (1/GPa) = 0.01431422
#
# Stress axis : x y z
#
# Youngs Moduli (GPa) = 89.95307 139.30364 127.81627
#
# Poissons Ratio (x) = 0.12051 0.39017
# Poissons Ratio (y) = 0.07782 0.25369
# Poissons Ratio (z) = 0.27459 0.27649
#
# Static dielectric constant tensor:
#      x y z
#    x 1.688600 0.162720 -0.269450 
#    y 0.162720 2.748660 -0.271920 
#    z -0.269450 -0.271920 2.238740 
# 
# From -- ./inp_files/426624.got.cif
#   From: 2010.05.17/outbox.cif.g08.bks.cpg/sg2_214_cif.got.tgz:426624.got - 2010.06.03 11:33:40.
