data_PCOD9070380
_publ_section_title
;
Structure prediction by ZEFSAII (Michael W. Deem and Ramdas Pophale) SiO2 
 PCOD9070380
Probable space group: P -1
;
_chemical_formula_sum "Si O2"
_cell_formula_units_Z 12
_cell_length_a 8.407301
_cell_length_b 13.593884
_cell_length_c 4.794611
_cell_angle_alpha 88.781928
_cell_angle_beta 89.648635
_cell_angle_gamma 127.274759
_cell_volume 435.815620
_symmetry_space_group_name_H-M "P -1"
_symmetry_group_IT_number 2
_symmetry_cell_setting 'triclinic'
loop_
_space_group_symop_operation_xyz
x,y,z
-x,-y,-z
loop_
_atom_site_type_symbol
_atom_site_label
_atom_site_fract_x
_atom_site_fract_y
_atom_site_fract_z
Si Si1 0.574639 0.656734 0.316042
Si Si2 0.839054 0.024136 0.947303
Si Si3 0.801674 0.466124 0.362680
Si Si4 0.507790 0.186523 0.424008
Si Si5 0.844127 0.163556 0.453665
Si Si6 0.769471 0.603642 0.829191
O O1 0.826124 0.547651 0.103266
O O2 0.591441 0.779504 0.344723
O O3 0.673696 0.638740 0.567040
O O4 0.648720 0.633542 0.044820
O O5 0.649425 0.912498 0.787176
O O6 0.073767 0.861344 0.274445
O O7 0.788378 0.059916 0.232277
O O8 0.000000 0.000000 0.000000
O O9 0.657377 0.323799 0.278880
O O10 0.670305 0.461851 0.637234
O O11 0.000000 0.500000 0.500000
O O12 0.651124 0.155303 0.536836
O O13 0.002381 0.292138 0.292527
#
# Coordination Sequence:
#
# PCOD9070380 Si02
#       6
#     2   2   2   2   2   2
#     4   7  15  31  67 110 161 182 248 304 380 446
#     4  12  29  49  72 108 153 201 253 320 385 447
#     4   8  13  31  69 112 159 186 251 308 380 452
#     4   9  20  42  76 112 146 198 254 311 378 445
#     4  12  24  47  79 109 149 194 264 314 374 458
#     4   8  15  33  66 114 145 201 234 312 376 444
#
# _framework density 27.534582
#
# number of rings (size 3 to 8) (size 9 to 14) (size 15 to 20)
#    2.000    0.333    1.667    1.500    0.000    2.667 
#    0.000    0.000    0.000   44.000    0.000    0.000 
#    0.000    4.000    0.000    0.000    0.000    3.000 
#
# Total GULP energy -67193.015906 kJ/mol
# GULP energy per Si atom -5599.417992 kJ/mol
# Density = 2.747191 g / cm^3
# Si number density = 27.534582 Si / 1000 Ang^3
#
#
#
# Elastic Constant Matrix: (Units=GPa)
#
#
# Indices 1 2 3 4 5 6 
#
# 1 177.1497 51.2075 55.5588 1.6917 -2.3225 -16.6616
# 2 51.2075 115.5819 34.6423 1.2904 0.6972 -14.5271
# 3 55.5588 34.6423 206.2162 -14.7913 10.3196 -24.4983
# 4 1.6917 1.2904 -14.7913 57.9699 -12.5277 -2.8358
# 5 -2.3225 0.6972 10.3196 -12.5277 44.7265 4.5328
# 6 -16.6616 -14.5271 -24.4983 -2.8358 4.5328 57.5471
#
#
#
# Elastic Compliance Matrix: (Units=1/GPa)
#
#
# Indices 1 2 3 4 5 6 
#
# 1 0.006897 -0.002548 -0.001400 -0.000348 0.000553 0.000697
# 2 -0.002548 0.010233 -0.000866 -0.000377 -0.000348 0.001486
# 3 -0.001400 -0.000866 0.005767 0.001368 -0.001209 0.001994
# 4 -0.000348 -0.000377 0.001368 0.018704 0.004817 0.000929
# 5 0.000553 -0.000348 -0.001209 0.004817 0.024235 -0.002114
# 6 0.000697 0.001486 0.001994 0.000929 -0.002114 0.019015
#
#
# Mechanical properties :
#
#
# Convention : Reuss Voigt Hill
#
# Bulk Modulus (GPa) = 75.35601 86.86279 81.10940
# Shear Modulus (GPa) = 50.55539 55.88465 53.22002
#
# Velocity S-wave (km/s) = 4.28959 4.51001 4.40118
# Velocity P-wave (km/s) = 7.20842 7.66391 7.43965
#
# Compressibility (1/GPa) = 0.01327034
#
# Stress axis : x y z
#
# Youngs Moduli (GPa) = 144.99953 97.72143 173.38900
#
# Poissons Ratio (x) = 0.24897 0.24273
# Poissons Ratio (y) = 0.36942 0.15011
# Poissons Ratio (z) = 0.20299 0.08460
#
# Static dielectric constant tensor:
#      x y z
#    x 2.084180 0.093620 -0.079440 
#    y 0.093620 2.344440 0.026480 
#    z -0.079440 0.026480 2.115050 
# 
# From -- ./inp_files/33220.got.cif
#   From: 2010.05.17/outbox.cif.g08.bks.cpg/sg2_17_cif.got.tgz:33220.got - 2010.06.03 11:33:40.
