data_PCOD9070057
_publ_section_title
;
Structure prediction by ZEFSAII (Michael W. Deem and Ramdas Pophale) SiO2 
 PCOD9070057
Probable space group: P -1
;
_chemical_formula_sum "Si O2"
_cell_formula_units_Z 11
_cell_length_a 8.669799
_cell_length_b 5.234679
_cell_length_c 16.428360
_cell_angle_alpha 110.983511
_cell_angle_beta 36.708585
_cell_angle_gamma 96.547828
_cell_volume 395.602623
_symmetry_space_group_name_H-M "P -1"
_symmetry_group_IT_number 2
_symmetry_cell_setting 'triclinic'
loop_
_space_group_symop_operation_xyz
x,y,z
-x,-y,-z
loop_
_atom_site_type_symbol
_atom_site_label
_atom_site_fract_x
_atom_site_fract_y
_atom_site_fract_z
Si Si1 0.262342 0.424856 0.038387
Si Si2 0.500000 0.000000 0.000000
Si Si3 0.554846 0.193604 0.327018
Si Si4 0.467902 0.443152 0.773750
Si Si5 0.807652 0.970707 0.349565
Si Si6 0.041875 0.378269 0.352933
O O1 0.992843 0.660114 0.209150
O O2 0.500000 0.500000 0.000000
O O3 0.312858 0.490801 0.931225
O O4 0.354222 0.088962 0.980613
O O5 0.759890 0.760202 0.821717
O O6 0.650148 0.338205 0.225396
O O7 0.253691 0.390383 0.503319
O O8 0.531724 0.878052 0.284273
O O9 0.763077 0.165874 0.309418
O O10 0.767829 0.482929 0.660097
O O11 0.500000 0.000000 0.500000
O O12 0.951854 0.091159 0.374931
#
# Coordination Sequence:
#
# PCOD9070057 Si02
#       6
#     2   1   2   2   2   2
#     4  12  26  50  83 116 154 213 280 327 390 494
#     4  12  24  44  82 118 142 208 286 332 364 468
#     4  12  29  49  75 124 173 203 254 350 415 464
#     4  12  28  50  81 119 160 217 265 330 409 483
#     4  12  28  51  83 120 163 212 268 337 406 476
#     4  12  24  50  81 115 157 216 278 316 389 491
#
# _framework density 27.805683999999999
#
# number of rings (size 3 to 8) (size 9 to 14) (size 15 to 20)
#    0.000    0.000    3.636    4.909    0.000    4.364 
#    0.000    0.000    0.000    0.000    0.000    0.000 
#    0.000    0.000    0.000    0.000    0.000    0.000 
#
# Total GULP energy -61330.518846 kJ/mol
# GULP energy per Si atom -5575.501713 kJ/mol
# Density = 2.774240 g / cm^3
# Si number density = 27.805684 Si / 1000 Ang^3
#
#
#
# Elastic Constant Matrix: (Units=GPa)
#
#
# Indices 1 2 3 4 5 6 
#
# 1 122.5548 69.3498 57.7212 10.8824 8.9271 -0.3505
# 2 69.3498 177.5402 69.2883 2.4722 17.4175 -17.1871
# 3 57.7212 69.2883 188.3802 10.9570 -2.9950 -14.5027
# 4 10.8824 2.4722 10.9570 39.3307 -2.4841 -3.5251
# 5 8.9271 17.4175 -2.9950 -2.4841 43.4642 2.0487
# 6 -0.3505 -17.1871 -14.5027 -3.5251 2.0487 82.3195
#
#
#
# Elastic Compliance Matrix: (Units=1/GPa)
#
#
# Indices 1 2 3 4 5 6 
#
# 1 0.011536 -0.003627 -0.002161 -0.002540 -0.001155 -0.001169
# 2 -0.003627 0.008175 -0.001882 0.000977 -0.002674 0.001468
# 3 -0.002161 -0.001882 0.006802 -0.001015 0.001575 0.000714
# 4 -0.002540 0.000977 -0.001015 0.026546 0.001525 0.001113
# 5 -0.001155 -0.002674 0.001575 0.001525 0.024551 -0.000831
# 6 -0.001169 0.001468 0.000714 0.001113 -0.000831 0.012643
#
#
# Mechanical properties :
#
#
# Convention : Reuss Voigt Hill
#
# Bulk Modulus (GPa) = 89.50665 97.91042 93.70854
# Shear Modulus (GPa) = 45.73846 52.49728 49.11787
#
# Velocity S-wave (km/s) = 4.06018 4.34983 4.20750
# Velocity P-wave (km/s) = 7.36478 7.77926 7.57485
#
# Compressibility (1/GPa) = 0.01117235
#
# Stress axis : x y z
#
# Youngs Moduli (GPa) = 86.68191 122.33085 147.02122
#
# Poissons Ratio (x) = 0.44373 0.31776
# Poissons Ratio (y) = 0.31442 0.27663
# Poissons Ratio (z) = 0.18735 0.23017
#
# Static dielectric constant tensor:
#      x y z
#    x 2.189330 -0.012830 0.059870 
#    y -0.012830 2.458070 -0.316070 
#    z 0.059870 -0.316070 2.154530 
# 
# From -- ./inp_files/553690.got.cif
#   From: 2010.05.17/outbox.cif.g08.bks.cpg/sg2_277_cif.got.tgz:553690.got - 2010.06.03 11:33:40.
