data_PCOD9070587
_publ_section_title
;
Structure prediction by ZEFSAII (Michael W. Deem and Ramdas Pophale) SiO2 
 PCOD9070587
Probable space group: P -1
;
_chemical_formula_sum "Si O2"
_cell_formula_units_Z 15
_cell_length_a 17.629329
_cell_length_b 9.065092
_cell_length_c 8.737602
_cell_angle_alpha 45.906366
_cell_angle_beta 137.954790
_cell_angle_gamma 120.706351
_cell_volume 671.589833
_symmetry_space_group_name_H-M "P -1"
_symmetry_group_IT_number 2
_symmetry_cell_setting 'triclinic'
loop_
_space_group_symop_operation_xyz
x,y,z
-x,-y,-z
loop_
_atom_site_type_symbol
_atom_site_label
_atom_site_fract_x
_atom_site_fract_y
_atom_site_fract_z
Si Si1 0.108735 0.569876 0.517701
Si Si2 0.589617 0.140110 0.179436
Si Si3 0.376422 0.917610 0.152324
Si Si4 0.697792 0.411747 0.947665
Si Si5 0.592819 0.359293 0.327012
Si Si6 0.781745 0.820442 0.625956
Si Si7 0.000000 0.000000 0.000000
Si Si8 0.775033 0.700666 0.362788
O O1 0.208017 0.595982 0.772390
O O2 0.140741 0.396480 0.565890
O O3 0.000000 0.500000 0.500000
O O4 0.076868 0.788800 0.240984
O O5 0.473243 0.023634 0.118340
O O6 0.583834 0.345393 0.916727
O O7 0.631900 0.206653 0.361676
O O8 0.685942 0.996613 0.355581
O O9 0.436982 0.785429 0.471598
O O10 0.296641 0.106162 0.951966
O O11 0.299776 0.756319 0.062158
O O12 0.716825 0.629233 0.741920
O O13 0.689339 0.516666 0.402502
O O14 0.500000 0.500000 0.000000
O O15 0.819720 0.771775 0.543567
O O16 0.889288 0.887390 0.836150
#
# Coordination Sequence:
#
# PCOD9070587 Si02
#       8
#     2   2   2   2   2   2   1   2
#     4  12  27  49  79 107 141 194 251 317 382 449
#     4  12  26  44  73 110 154 201 245 299 367 452
#     4  12  27  45  74 109 157 201 245 308 364 445
#     4  12  25  47  72 108 150 197 251 301 376 438
#     4  12  26  44  70 111 154 203 250 298 363 441
#     4  12  27  46  77 108 149 199 252 310 372 449
#     4  12  24  52  76 102 146 192 250 312 386 428
#     4  12  26  49  74 110 150 192 255 305 375 453
#
# _framework density 22.335061
#
# number of rings (size 3 to 8) (size 9 to 14) (size 15 to 20)
#    0.000    0.000    8.000    0.800    3.733    2.133 
#    0.000    1.333    0.000    0.000    0.000    0.000 
#    0.000    0.000    0.000    0.000    0.000    0.000 
#
# Total GULP energy -83561.576211 kJ/mol
# GULP energy per Si atom -5570.771747 kJ/mol
# Density = 2.228423 g / cm^3
# Si number density = 22.335061 Si / 1000 Ang^3
#
#
#
# Elastic Constant Matrix: (Units=GPa)
#
#
# Indices 1 2 3 4 5 6 
#
# 1 128.7949 59.0671 55.9181 -9.7409 -4.6893 -7.7056
# 2 59.0671 159.4641 44.9097 1.9002 -2.2327 -5.5985
# 3 55.9181 44.9097 103.8600 -15.5489 -12.5665 -4.3977
# 4 -9.7409 1.9002 -15.5489 34.2715 3.6150 3.8404
# 5 -4.6893 -2.2327 -12.5665 3.6150 25.9296 -6.4164
# 6 -7.7056 -5.5985 -4.3977 3.8404 -6.4164 42.3602
#
#
#
# Elastic Compliance Matrix: (Units=1/GPa)
#
#
# Indices 1 2 3 4 5 6 
#
# 1 0.011212 -0.002829 -0.004641 0.001163 -0.000375 0.001022
# 2 -0.002829 0.008010 -0.002330 -0.002298 -0.000524 0.000431
# 3 -0.004641 -0.002330 0.014547 0.004740 0.005539 0.000767
# 4 0.001163 -0.002298 0.004740 0.032433 -0.002952 -0.002988
# 5 -0.000375 -0.000524 0.005539 -0.002952 0.043348 0.007271
# 6 0.001022 0.000431 0.000767 -0.002988 0.007271 0.025302
#
#
# Mechanical properties :
#
#
# Convention : Reuss Voigt Hill
#
# Bulk Modulus (GPa) = 70.57607 79.10095 74.83851
# Shear Modulus (GPa) = 31.41172 35.99387 33.70279
#
# Velocity S-wave (km/s) = 3.75425 4.01876 3.88875
# Velocity P-wave (km/s) = 7.10351 7.55158 7.33097
#
# Compressibility (1/GPa) = 0.01416911
#
# Stress axis : x y z
#
# Youngs Moduli (GPa) = 89.18743 124.83964 68.74371
#
# Poissons Ratio (x) = 0.35321 0.31906
# Poissons Ratio (y) = 0.25234 0.16015
# Poissons Ratio (z) = 0.41394 0.29083
#
# Static dielectric constant tensor:
#      x y z
#    x 1.859140 0.001210 -0.039000 
#    y 0.001210 1.911650 0.026690 
#    z -0.039000 0.026690 1.874340 
# 
# From -- ./inp_files/327242.got.cif
#   From: 2010.05.17/outbox.cif.g08.bks.cpg/sg2_164_cif.got.tgz:327242.got - 2010.06.03 11:33:40.
