data_PCOD9070659
_publ_section_title
;
Structure prediction by ZEFSAII (Michael W. Deem and Ramdas Pophale) SiO2 
 PCOD9070659
Probable space group: P -1
;
_chemical_formula_sum "Si O2"
_cell_formula_units_Z 16
_cell_length_a 9.524290
_cell_length_b 14.160987
_cell_length_c 8.518487
_cell_angle_alpha 44.640466
_cell_angle_beta 67.494973
_cell_angle_gamma 65.524721
_cell_volume 727.763954
_symmetry_space_group_name_H-M "P -1"
_symmetry_group_IT_number 2
_symmetry_cell_setting 'triclinic'
loop_
_space_group_symop_operation_xyz
x,y,z
-x,-y,-z
loop_
_atom_site_type_symbol
_atom_site_label
_atom_site_fract_x
_atom_site_fract_y
_atom_site_fract_z
Si Si1 0.822895 0.510344 0.720941
Si Si2 0.882683 0.660712 0.056807
Si Si3 0.321017 0.715804 0.097051
Si Si4 0.970554 0.138900 0.449576
Si Si5 0.369164 0.739549 0.420134
Si Si6 0.300662 0.202670 0.737858
Si Si7 0.357912 0.454388 0.919534
Si Si8 0.851823 0.984740 0.183984
O O1 0.782383 0.394978 0.760535
O O2 0.776665 0.659270 0.487976
O O3 0.716442 0.512820 0.917741
O O4 0.001102 0.460200 0.756700
O O5 0.783125 0.771058 0.088674
O O6 0.767067 0.596363 0.076420
O O7 0.988462 0.738002 0.814803
O O8 0.351064 0.724598 0.259119
O O9 0.485536 0.662951 0.004586
O O10 0.232651 0.864608 0.899979
O O11 0.793271 0.177291 0.539039
O O12 0.084077 0.112380 0.582846
O O13 0.000000 0.000000 0.500000
O O14 0.516517 0.805110 0.313586
O O15 0.400330 0.588417 0.664087
O O16 0.260657 0.077072 0.808299
O O17 0.000000 0.000000 0.000000
#
# Coordination Sequence:
#
# PCOD9070659 Si02
#       8
#     2   2   2   2   2   2   2   2
#     4  12  25  44  75 109 146 188 247 300 359 429
#     4  12  26  45  74 108 147 190 245 300 364 429
#     4  12  25  47  74 103 149 192 239 298 362 432
#     4  12  27  49  74 106 148 194 241 297 367 434
#     4  12  26  48  76 103 149 192 242 299 366 430
#     4  12  27  47  75 111 144 191 245 297 364 437
#     4  12  25  46  73 111 144 191 242 307 364 425
#     4  12  27  48  74 108 145 191 242 298 362 433
#
# _framework density 21.985150999999998
#
# number of rings (size 3 to 8) (size 9 to 14) (size 15 to 20)
#    0.000    0.000    5.000    5.250    1.750    1.500 
#    0.000    1.875    0.000    0.000    0.000    0.000 
#    0.000    0.000    0.000    0.000    0.000    0.000 
#
# Total GULP energy -89740.145279 kJ/mol
# GULP energy per Si atom -5608.759080 kJ/mol
# Density = 2.193511 g / cm^3
# Si number density = 21.985151 Si / 1000 Ang^3
#
#
#
# Elastic Constant Matrix: (Units=GPa)
#
#
# Indices 1 2 3 4 5 6 
#
# 1 112.0461 43.3190 8.5963 3.1798 -10.6315 -6.3284
# 2 43.3190 94.2517 3.5674 -1.8857 -10.5558 -11.9320
# 3 8.5963 3.5674 50.0854 6.9756 -0.8202 -1.2631
# 4 3.1798 -1.8857 6.9756 36.9931 -2.4150 0.0538
# 5 -10.6315 -10.5558 -0.8202 -2.4150 30.0817 -1.8581
# 6 -6.3284 -11.9320 -1.2631 0.0538 -1.8581 50.2417
#
#
#
# Elastic Compliance Matrix: (Units=1/GPa)
#
#
# Indices 1 2 3 4 5 6 
#
# 1 0.011134 -0.004798 -0.001415 -0.000794 0.002168 0.000308
# 2 -0.004798 0.013570 -0.000208 0.001357 0.003338 0.002735
# 3 -0.001415 -0.000208 0.020759 -0.003823 -0.000297 0.000287
# 4 -0.000794 0.001357 -0.003823 0.028044 0.002354 0.000183
# 5 0.002168 0.003338 -0.000297 0.002354 0.035508 0.002369
# 6 0.000308 0.002735 0.000287 0.000183 0.002369 0.020687
#
#
# Mechanical properties :
#
#
# Convention : Reuss Voigt Hill
#
# Bulk Modulus (GPa) = 30.65656 40.81651 35.73654
# Shear Modulus (GPa) = 32.59073 36.85667 34.72370
#
# Velocity S-wave (km/s) = 3.85437 4.09887 3.97850
# Velocity P-wave (km/s) = 5.81229 6.40365 6.11512
#
# Compressibility (1/GPa) = 0.03261945
#
# Stress axis : x y z
#
# Youngs Moduli (GPa) = 89.81445 73.69081 48.17294
#
# Poissons Ratio (x) = 0.35355 0.06819
# Poissons Ratio (y) = 0.43091 0.01004
# Poissons Ratio (z) = 0.12713 0.01536
#
# Static dielectric constant tensor:
#      x y z
#    x 1.779280 -0.009290 0.024760 
#    y -0.009290 1.773990 0.006170 
#    z 0.024760 0.006170 1.781480 
# 
# From -- ./inp_files/205026.got.cif
#   From: 2010.05.17/outbox.cif.g08.bks.cpg/sg2_103_cif.got.tgz:205026.got - 2010.06.03 11:33:40.
