data_PCOD9070531
_publ_section_title
;
Structure prediction by ZEFSAII (Michael W. Deem and Ramdas Pophale) SiO2 
 PCOD9070531
Probable space group: P -1
;
_chemical_formula_sum "Si O2"
_cell_formula_units_Z 12
_cell_length_a 13.206077
_cell_length_b 22.899896
_cell_length_c 7.216827
_cell_angle_alpha 137.470972
_cell_angle_beta 49.988424
_cell_angle_gamma 160.912920
_cell_volume 468.094878
_symmetry_space_group_name_H-M "P -1"
_symmetry_group_IT_number 2
_symmetry_cell_setting 'triclinic'
loop_
_space_group_symop_operation_xyz
x,y,z
-x,-y,-z
loop_
_atom_site_type_symbol
_atom_site_label
_atom_site_fract_x
_atom_site_fract_y
_atom_site_fract_z
Si Si1 0.253413 0.280912 0.723662
Si Si2 0.687676 0.382449 0.515292
Si Si3 0.250147 0.223500 0.185911
Si Si4 0.684030 0.156405 0.318574
Si Si5 0.793916 0.041252 0.014838
Si Si6 0.269630 0.636751 0.152972
O O1 0.388950 0.270493 0.612861
O O2 0.264640 0.285637 0.501010
O O3 0.500000 0.500000 0.000000
O O4 0.923705 0.105410 0.802284
O O5 0.028110 0.395370 0.397886
O O6 0.794150 0.419296 0.683367
O O7 0.526795 0.206895 0.182237
O O8 0.087868 0.181709 0.118232
O O9 0.563026 0.353111 0.079279
O O10 0.000000 0.000000 0.000000
O O11 0.733223 0.105203 0.277059
O O12 0.538564 0.157191 0.580475
O O13 0.500000 0.000000 0.000000
O O14 0.000000 0.500000 0.000000
#
# Coordination Sequence:
#
# PCOD9070531 Si02
#       6
#     2   2   2   2   2   2
#     4  12  25  47  81 115 155 200 266 327 387 460
#     4  12  24  49  79 111 158 212 253 333 397 460
#     4  12  27  47  83 116 155 211 267 321 393 471
#     4  12  28  49  79 113 156 212 265 317 406 475
#     4  12  26  50  82 117 157 205 270 326 390 473
#     4  12  28  48  76 118 164 207 260 327 402 473
#
# _framework density 25.635828
#
# number of rings (size 3 to 8) (size 9 to 14) (size 15 to 20)
#    0.000    0.000    6.667    3.000    0.000    2.000 
#    0.000    1.667    0.000    0.000    0.000    0.000 
#    0.000    0.000    0.000    0.000    0.000    0.000 
#
# Total GULP energy -67174.381727 kJ/mol
# GULP energy per Si atom -5597.865144 kJ/mol
# Density = 2.557748 g / cm^3
# Si number density = 25.635828 Si / 1000 Ang^3
#
#
#
# Elastic Constant Matrix: (Units=GPa)
#
#
# Indices 1 2 3 4 5 6 
#
# 1 194.5908 25.3695 66.9762 -3.6086 10.5658 30.6013
# 2 25.3695 85.8645 39.6006 5.6586 10.5906 -0.5608
# 3 66.9762 39.6006 176.2589 12.1213 18.1240 -3.6320
# 4 -3.6086 5.6586 12.1213 46.9535 -5.6327 -2.5071
# 5 10.5658 10.5906 18.1240 -5.6327 59.4140 6.6250
# 6 30.6013 -0.5608 -3.6320 -2.5071 6.6250 38.5402
#
#
#
# Elastic Compliance Matrix: (Units=1/GPa)
#
#
# Indices 1 2 3 4 5 6 
#
# 1 0.007146 -0.001025 -0.002738 0.001124 0.000519 -0.005963
# 2 -0.001025 0.013319 -0.002321 -0.001237 -0.001713 0.001003
# 3 -0.002738 -0.002321 0.007636 -0.001973 -0.001958 0.003068
# 4 0.001124 -0.001237 -0.001973 0.022367 0.002756 -0.000115
# 5 0.000519 -0.001713 -0.001958 0.002756 0.018303 -0.003588
# 6 -0.005963 0.001003 0.003068 -0.000115 -0.003588 0.031594
#
#
# Mechanical properties :
#
#
# Convention : Reuss Voigt Hill
#
# Bulk Modulus (GPa) = 62.77072 80.06741 71.41907
# Shear Modulus (GPa) = 42.42914 50.63274 46.53094
#
# Velocity S-wave (km/s) = 4.07267 4.44901 4.26499
# Velocity P-wave (km/s) = 6.83039 7.59552 7.22309
#
# Compressibility (1/GPa) = 0.01593099
#
# Stress axis : x y z
#
# Youngs Moduli (GPa) = 139.94779 75.08112 130.96420
#
# Poissons Ratio (x) = 0.07698 0.35862
# Poissons Ratio (y) = 0.14348 0.30396
# Poissons Ratio (z) = 0.38322 0.17426
#
# Static dielectric constant tensor:
#      x y z
#    x 2.166150 0.105720 -0.043590 
#    y 0.105720 2.234150 -0.132350 
#    z -0.043590 -0.132350 2.028060 
# 
# From -- ./inp_files/320632.got.cif
#   From: 2010.05.17/outbox.cif.g08.bks.cpg/sg2_161_cif.got.tgz:320632.got - 2010.06.03 11:33:40.
