data_PCOD9070850
_publ_section_title
;
Structure prediction by ZEFSAII (Michael W. Deem and Ramdas Pophale) SiO2 
 PCOD9070850
Probable space group: P -1
;
_chemical_formula_sum "Si O2"
_cell_formula_units_Z 16
_cell_length_a 13.886949
_cell_length_b 13.531085
_cell_length_c 9.731565
_cell_angle_alpha 91.604599
_cell_angle_beta 67.436746
_cell_angle_gamma 33.502384
_cell_volume 681.123413
_symmetry_space_group_name_H-M "P -1"
_symmetry_group_IT_number 2
_symmetry_cell_setting 'triclinic'
loop_
_space_group_symop_operation_xyz
x,y,z
-x,-y,-z
loop_
_atom_site_type_symbol
_atom_site_label
_atom_site_fract_x
_atom_site_fract_y
_atom_site_fract_z
Si Si1 0.261443 0.277230 0.934206
Si Si2 0.792311 0.032325 0.967766
Si Si3 0.023309 0.415739 0.346523
Si Si4 0.284439 0.985850 0.279146
Si Si5 0.594754 0.512047 0.363629
Si Si6 0.560289 0.076625 0.308891
Si Si7 0.673654 0.358883 0.033483
Si Si8 0.829096 0.960042 0.360517
O O1 0.433205 0.226394 0.829607
O O2 0.419116 0.047471 0.778837
O O3 0.000000 0.500000 0.000000
O O4 0.191170 0.321092 0.133140
O O5 0.706773 0.093652 0.858516
O O6 0.097559 0.743339 0.798021
O O7 0.743644 0.188047 0.040662
O O8 0.638399 0.090607 0.152450
O O9 0.728839 0.658436 0.468474
O O10 0.000000 0.500000 0.500000
O O11 0.150982 0.200467 0.302414
O O12 0.128294 0.087750 0.502461
O O13 0.500000 0.500000 0.500000
O O14 0.423968 0.752760 0.509855
O O15 0.540279 0.534755 0.235243
O O16 0.762011 0.916585 0.317158
O O17 0.500000 0.500000 0.000000
O O18 0.933132 0.191414 0.844890
#
# Coordination Sequence:
#
# PCOD9070850 Si02
#       8
#     2   2   2   2   2   2   2   2
#     4  12  28  49  73 106 147 184 240 299 351 426
#     4  12  25  47  75 103 143 191 237 293 356 424
#     4  12  25  47  74 102 143 187 235 296 357 419
#     4  12  27  46  73 107 143 188 237 295 358 424
#     4  12  25  49  75 103 144 190 241 296 356 419
#     4  12  26  47  73 104 141 190 238 287 361 423
#     4  12  28  47  71 108 149 186 237 298 352 425
#     4  12  28  46  72 107 144 188 240 291 360 425
#
# _framework density 23.490603
#
# number of rings (size 3 to 8) (size 9 to 14) (size 15 to 20)
#    0.000    0.000    5.000    4.500    7.000    3.000 
#    0.000    0.000    0.000    0.000    0.000    0.000 
#    0.000    0.000    0.000    0.000    0.000    0.000 
#
# Total GULP energy -89733.483400 kJ/mol
# GULP energy per Si atom -5608.342713 kJ/mol
# Density = 2.343714 g / cm^3
# Si number density = 23.490603 Si / 1000 Ang^3
#
#
#
# Elastic Constant Matrix: (Units=GPa)
#
#
# Indices 1 2 3 4 5 6 
#
# 1 85.3702 -8.4261 14.2425 -0.2185 14.0765 -22.4084
# 2 -8.4261 46.3234 -1.3258 1.6026 1.5534 -12.8874
# 3 14.2425 -1.3258 91.5448 -11.0336 6.4863 -0.8086
# 4 -0.2185 1.6026 -11.0336 47.1073 -9.0082 -3.8348
# 5 14.0765 1.5534 6.4863 -9.0082 40.1431 -8.0134
# 6 -22.4084 -12.8874 -0.8086 -3.8348 -8.0134 36.9375
#
#
#
# Elastic Compliance Matrix: (Units=1/GPa)
#
#
# Indices 1 2 3 4 5 6 
#
# 1 0.016144 0.006089 -0.002129 -0.000383 -0.003425 0.011089
# 2 0.006089 0.026240 -0.000420 -0.000033 -0.000552 0.012717
# 3 -0.002129 -0.000420 0.011593 0.002483 -0.000771 -0.001094
# 4 -0.000383 -0.000033 0.002483 0.023163 0.005618 0.003434
# 5 -0.003425 -0.000552 -0.000771 0.005618 0.028409 0.004459
# 6 0.011089 0.012717 -0.001094 0.003434 0.004459 0.039537
#
#
# Mechanical properties :
#
#
# Convention : Reuss Voigt Hill
#
# Bulk Modulus (GPa) = 16.37798 25.80218 21.09008
# Shear Modulus (GPa) = 31.57382 39.42075 35.49728
#
# Velocity S-wave (km/s) = 3.67018 4.10097 3.89154
# Velocity P-wave (km/s) = 4.99475 5.78202 5.40275
#
# Compressibility (1/GPa) = 0.06105760
#
# Stress axis : x y z
#
# Youngs Moduli (GPa) = 61.94111 38.10913 86.25842
#
# Poissons Ratio (x) = -0.23204 0.18365
# Poissons Ratio (y) = -0.37715 0.03622
# Poissons Ratio (z) = 0.13188 0.01600
#
# Static dielectric constant tensor:
#      x y z
#    x 1.875450 -0.030500 0.007490 
#    y -0.030500 1.908270 0.009860 
#    z 0.007490 0.009860 1.824870 
# 
# From -- ./inp_files/39379.got.cif
#   From: 2010.05.17/outbox.cif.g08.bks.cpg/sg2_20_cif.got.tgz:39379.got - 2010.06.03 11:33:40.
