data_PCOD9070365
_publ_section_title
;
Structure prediction by ZEFSAII (Michael W. Deem and Ramdas Pophale) SiO2 
 PCOD9070365
Probable space group: P -1
;
_chemical_formula_sum "Si O2"
_cell_formula_units_Z 14
_cell_length_a 20.909691
_cell_length_b 11.416090
_cell_length_c 14.928096
_cell_angle_alpha 29.239719
_cell_angle_beta 19.382997
_cell_angle_gamma 29.825655
_cell_volume 555.571955
_symmetry_space_group_name_H-M "P -1"
_symmetry_group_IT_number 2
_symmetry_cell_setting 'triclinic'
loop_
_space_group_symop_operation_xyz
x,y,z
-x,-y,-z
loop_
_atom_site_type_symbol
_atom_site_label
_atom_site_fract_x
_atom_site_fract_y
_atom_site_fract_z
Si Si1 0.375565 0.150452 0.193037
Si Si2 0.949721 0.274947 0.339954
Si Si3 0.534107 0.534632 0.656473
Si Si4 0.994165 0.004336 0.729815
Si Si5 0.713893 0.969558 0.285546
Si Si6 0.713733 0.547244 0.709031
Si Si7 0.351821 0.343756 0.765394
O O1 0.294194 0.347764 0.249108
O O2 0.207259 0.027985 0.464338
O O3 0.554665 0.939096 0.139816
O O4 0.456782 0.290003 0.912995
O O5 0.720303 0.442519 0.541944
O O6 0.979386 0.200184 0.245773
O O7 0.119698 0.405334 0.057942
O O8 0.000000 0.000000 0.500000
O O9 0.334592 0.754516 0.792629
O O10 0.629896 0.632391 0.380660
O O11 0.873654 0.278710 0.670339
O O12 0.874953 0.944311 0.012189
O O13 0.500000 0.000000 0.500000
O O14 0.752037 0.758753 0.451552
O O15 0.500000 0.500000 0.000000
O O16 0.500000 0.500000 0.500000
#
# Coordination Sequence:
#
# PCOD9070365 Si02
#       7
#     2   2   2   2   2   2   2
#     4  12  26  48  74 116 151 193 254 311 380 440
#     4  12  28  51  78 111 151 202 254 308 381 451
#     4  12  26  48  78 105 155 197 248 312 375 448
#     4  12  28  47  77 112 152 196 250 314 373 453
#     4  12  25  44  79 108 145 198 249 305 375 443
#     4  12  24  47  77 109 149 196 249 308 374 445
#     4  12  27  48  75 112 153 197 252 314 375 453
#
# _framework density 25.199256999999999
#
# number of rings (size 3 to 8) (size 9 to 14) (size 15 to 20)
#    0.000    0.000    5.714    3.429    4.000    4.000 
#    0.000    0.000    0.000    0.000    0.000    0.000 
#    0.000    0.000    0.000    0.000    0.000    0.000 
#
# Total GULP energy -78501.786148 kJ/mol
# GULP energy per Si atom -5607.270439 kJ/mol
# Density = 2.514190 g / cm^3
# Si number density = 25.199257 Si / 1000 Ang^3
#
#
#
# Elastic Constant Matrix: (Units=GPa)
#
#
# Indices 1 2 3 4 5 6 
#
# 1 61.7131 25.5837 34.0038 -0.9528 0.2317 -7.6254
# 2 25.5837 169.6451 28.5859 -4.9985 22.4939 -24.6668
# 3 34.0038 28.5859 169.0734 -10.2911 0.7001 -12.7065
# 4 -0.9528 -4.9985 -10.2911 44.4133 -8.8514 7.0457
# 5 0.2317 22.4939 0.7001 -8.8514 52.4057 -12.0027
# 6 -7.6254 -24.6668 -12.7065 7.0457 -12.0027 47.7616
#
#
#
# Elastic Compliance Matrix: (Units=1/GPa)
#
#
# Indices 1 2 3 4 5 6 
#
# 1 0.019188 -0.002293 -0.003412 -0.000623 0.001149 0.001352
# 2 -0.002293 0.007019 -0.000542 -0.000278 -0.002461 0.002537
# 3 -0.003412 -0.000542 0.006847 0.001425 0.000612 0.000941
# 4 -0.000623 -0.000278 0.001425 0.023908 0.003570 -0.002493
# 5 0.001149 -0.002461 0.000612 0.003570 0.021641 0.003987
# 6 0.001352 0.002537 0.000941 -0.002493 0.003987 0.024084
#
#
# Mechanical properties :
#
#
# Convention : Reuss Voigt Hill
#
# Bulk Modulus (GPa) = 48.63721 64.08648 56.36184
# Shear Modulus (GPa) = 40.97200 49.73332 45.35266
#
# Velocity S-wave (km/s) = 4.03665 4.44734 4.24696
# Velocity P-wave (km/s) = 6.40851 7.20131 6.81645
#
# Compressibility (1/GPa) = 0.02056039
#
# Stress axis : x y z
#
# Youngs Moduli (GPa) = 52.11612 142.47549 146.04122
#
# Poissons Ratio (x) = 0.32667 0.49835
# Poissons Ratio (y) = 0.11949 0.07909
# Poissons Ratio (z) = 0.17784 0.07716
#
# Static dielectric constant tensor:
#      x y z
#    x 2.095520 0.173200 0.020470 
#    y 0.173200 2.225980 0.020530 
#    z 0.020470 0.020530 1.930650 
# 
# From -- ./inp_files/400188.got.cif
#   From: 2010.05.17/outbox.cif.g08.bks.cpg/sg2_201_cif.got.tgz:400188.got - 2010.06.03 11:33:40.
