data_PCOD9070732
_publ_section_title
;
Structure prediction by ZEFSAII (Michael W. Deem and Ramdas Pophale) SiO2 
 PCOD9070732
Probable space group: P -1
;
_chemical_formula_sum "Si O2"
_cell_formula_units_Z 16
_cell_length_a 14.089693
_cell_length_b 6.590939
_cell_length_c 13.808547
_cell_angle_alpha 89.273582
_cell_angle_beta 41.534967
_cell_angle_gamma 67.267867
_cell_volume 699.449247
_symmetry_space_group_name_H-M "P -1"
_symmetry_group_IT_number 2
_symmetry_cell_setting 'triclinic'
loop_
_space_group_symop_operation_xyz
x,y,z
-x,-y,-z
loop_
_atom_site_type_symbol
_atom_site_label
_atom_site_fract_x
_atom_site_fract_y
_atom_site_fract_z
Si Si1 0.677928 0.291744 0.313135
Si Si2 0.090837 0.664749 0.204803
Si Si3 0.692625 0.258933 0.832003
Si Si4 0.850312 0.506800 0.053335
Si Si5 0.274654 0.921616 0.528403
Si Si6 0.462618 0.951671 0.711547
Si Si7 0.088267 0.311228 0.341597
Si Si8 0.722827 0.443071 0.605833
O O1 0.500000 0.500000 0.500000
O O2 0.768741 0.396921 0.183880
O O3 0.784316 0.131984 0.325912
O O4 0.625813 0.146815 0.286619
O O5 0.201427 0.767508 0.152562
O O6 0.163777 0.413356 0.208422
O O7 0.083840 0.634067 0.096997
O O8 0.895976 0.850976 0.391784
O O9 0.745663 0.347936 0.697575
O O10 0.760439 0.977742 0.754236
O O11 0.500000 0.500000 0.000000
O O12 0.696536 0.781915 0.135974
O O13 0.000000 0.500000 0.000000
O O14 0.346853 0.688281 0.404785
O O15 0.409587 0.994419 0.441941
O O16 0.586364 0.735806 0.694644
O O17 0.000000 0.500000 0.500000
O O18 0.916840 0.345336 0.424168
#
# Coordination Sequence:
#
# PCOD9070732 Si02
#       8
#     2   2   2   2   2   2   2   2
#     4  12  26  47  74 109 148 198 254 307 379 459
#     4  12  28  48  74 108 152 197 251 315 386 451
#     4  12  30  46  74 111 157 199 251 319 390 458
#     4  12  31  49  74 115 156 200 249 316 390 456
#     4  12  25  46  79 107 145 194 258 314 374 453
#     4  12  26  46  77 108 150 194 256 313 380 451
#     4  12  25  49  77 107 146 200 257 310 377 458
#     4  12  25  45  76 109 142 192 254 310 375 458
#
# _framework density 22.875140999999999
#
# number of rings (size 3 to 8) (size 9 to 14) (size 15 to 20)
#    0.000    0.000    6.250    2.250    8.750    2.500 
#    0.000    0.000    0.000    0.000    0.000    0.000 
#    0.000    0.000    0.000    0.000    0.000    0.000 
#
# Total GULP energy -89412.802480 kJ/mol
# GULP energy per Si atom -5588.300155 kJ/mol
# Density = 2.282308 g / cm^3
# Si number density = 22.875141 Si / 1000 Ang^3
#
#
#
# Elastic Constant Matrix: (Units=GPa)
#
#
# Indices 1 2 3 4 5 6 
#
# 1 99.6123 27.5014 24.9652 0.3857 7.7254 14.5125
# 2 27.5014 143.2076 54.1515 17.9915 3.6717 -6.2215
# 3 24.9652 54.1515 90.2256 20.7101 0.0178 8.2805
# 4 0.3857 17.9915 20.7101 47.7291 -9.7172 -12.7342
# 5 7.7254 3.6717 0.0178 -9.7172 37.4259 -1.7671
# 6 14.5125 -6.2215 8.2805 -12.7342 -1.7671 43.3405
#
#
#
# Elastic Compliance Matrix: (Units=1/GPa)
#
#
# Indices 1 2 3 4 5 6 
#
# 1 0.011728 -0.001633 -0.001839 -0.000257 -0.002515 -0.003988
# 2 -0.001633 0.009547 -0.005378 -0.000655 -0.000638 0.002727
# 3 -0.001839 -0.005378 0.016935 -0.007014 -0.001182 -0.005501
# 4 -0.000257 -0.000655 -0.007014 0.028556 0.008009 0.010049
# 5 -0.002515 -0.000638 -0.001182 0.008009 0.029595 0.004536
# 6 -0.003988 0.002727 -0.005501 0.010049 0.004536 0.028988
#
#
# Mechanical properties :
#
#
# Convention : Reuss Voigt Hill
#
# Bulk Modulus (GPa) = 48.75863 60.69798 54.72830
# Shear Modulus (GPa) = 33.35842 40.79425 37.07634
#
# Velocity S-wave (km/s) = 3.82289 4.22755 4.03030
# Velocity P-wave (km/s) = 6.39119 7.10082 6.75533
#
# Compressibility (1/GPa) = 0.02050919
#
# Stress axis : x y z
#
# Youngs Moduli (GPa) = 85.26704 104.74350 59.04877
#
# Poissons Ratio (x) = 0.17106 0.10861
# Poissons Ratio (y) = 0.13926 0.31756
# Poissons Ratio (z) = 0.15684 0.56331
#
# Static dielectric constant tensor:
#      x y z
#    x 1.914140 0.013980 -0.022600 
#    y 0.013980 1.946060 0.056670 
#    z -0.022600 0.056670 1.869580 
# 
# From -- ./inp_files/399015.got.cif
#   From: 2010.05.17/outbox.cif.g08.bks.cpg/sg2_200_cif.got.tgz:399015.got - 2010.06.03 11:33:40.
