data_PCOD9070686
_publ_section_title
;
Structure prediction by ZEFSAII (Michael W. Deem and Ramdas Pophale) SiO2 
 PCOD9070686
Probable space group: P -1
;
_chemical_formula_sum "Si O2"
_cell_formula_units_Z 12
_cell_length_a 13.401701
_cell_length_b 9.676989
_cell_length_c 5.097765
_cell_angle_alpha 123.523650
_cell_angle_beta 72.710923
_cell_angle_gamma 89.452487
_cell_volume 513.564262
_symmetry_space_group_name_H-M "P -1"
_symmetry_group_IT_number 2
_symmetry_cell_setting 'triclinic'
loop_
_space_group_symop_operation_xyz
x,y,z
-x,-y,-z
loop_
_atom_site_type_symbol
_atom_site_label
_atom_site_fract_x
_atom_site_fract_y
_atom_site_fract_z
Si Si1 0.422229 0.397384 0.584869
Si Si2 0.556232 0.057359 0.266710
Si Si3 0.015996 0.295712 0.778675
Si Si4 0.893075 0.218720 0.286786
Si Si5 0.274094 0.432416 0.235698
Si Si6 0.803532 0.885573 0.911170
O O1 0.500000 0.500000 0.500000
O O2 0.513447 0.255999 0.503156
O O3 0.349210 0.367221 0.361020
O O4 0.340144 0.454901 0.946812
O O5 0.500000 0.000000 0.500000
O O6 0.500000 0.000000 0.000000
O O7 0.681561 0.987397 0.079458
O O8 0.132235 0.197835 0.483615
O O9 0.935706 0.250982 0.573961
O O10 0.983332 0.230607 0.013453
O O11 0.000000 0.500000 0.000000
O O12 0.799634 0.382476 0.458300
O O13 0.859651 0.038173 0.114959
O O14 0.207255 0.283647 0.092805
#
# Coordination Sequence:
#
# PCOD9070686 Si02
#       6
#     2   2   2   2   2   2
#     4  12  25  47  72 107 150 200 254 307 365 449
#     4  12  25  45  71 107 147 196 248 300 371 441
#     4  12  27  50  79 107 151 197 246 314 382 444
#     4  12  28  49  76 116 146 195 255 308 378 452
#     4  12  26  46  77 106 152 200 244 310 383 433
#     4  12  27  48  79 108 154 197 252 312 374 450
#
# _framework density 23.366115000000001
#
# number of rings (size 3 to 8) (size 9 to 14) (size 15 to 20)
#    0.000    0.000    5.000    4.000    0.000    5.333 
#    0.000    0.000    0.000    0.000    0.000    0.000 
#    0.000    0.000    0.000    0.000    0.000    0.000 
#
# Total GULP energy -67107.450861 kJ/mol
# GULP energy per Si atom -5592.287572 kJ/mol
# Density = 2.331293 g / cm^3
# Si number density = 23.366115 Si / 1000 Ang^3
#
#
#
# Elastic Constant Matrix: (Units=GPa)
#
#
# Indices 1 2 3 4 5 6 
#
# 1 107.0001 55.1290 69.8155 8.5950 -12.2967 20.6596
# 2 55.1290 187.7804 75.5312 15.6674 -16.4917 19.5779
# 3 69.8155 75.5312 152.9913 3.2950 -22.4612 18.8221
# 4 8.5950 15.6674 3.2950 43.7782 -2.0507 -0.1753
# 5 -12.2967 -16.4917 -22.4612 -2.0507 52.3743 -0.7604
# 6 20.6596 19.5779 18.8221 -0.1753 -0.7604 43.1928
#
#
#
# Elastic Compliance Matrix: (Units=1/GPa)
#
#
# Indices 1 2 3 4 5 6 
#
# 1 0.014561 -0.001531 -0.005281 -0.001904 0.000540 -0.003968
# 2 -0.001531 0.007169 -0.002517 -0.002048 0.000718 -0.001416
# 3 -0.005281 -0.002517 0.010653 0.001252 0.002572 -0.000925
# 4 -0.001904 -0.002048 0.001252 0.023879 0.000401 0.001397
# 5 0.000540 0.000718 0.002572 0.000401 0.020545 -0.001341
# 6 -0.003968 -0.001416 -0.000925 0.001397 -0.001341 0.026077
#
#
# Mechanical properties :
#
#
# Convention : Reuss Voigt Hill
#
# Bulk Modulus (GPa) = 72.85305 94.30257 83.57781
# Shear Modulus (GPa) = 39.64591 44.35546 42.00069
#
# Velocity S-wave (km/s) = 4.12360 4.36165 4.24430
# Velocity P-wave (km/s) = 7.34294 8.11244 7.73726
#
# Compressibility (1/GPa) = 0.01372626
#
# Stress axis : x y z
#
# Youngs Moduli (GPa) = 68.67602 139.49562 93.86979
#
# Poissons Ratio (x) = 0.21356 0.49568
# Poissons Ratio (y) = 0.10514 0.23626
# Poissons Ratio (z) = 0.36264 0.35109
#
# Static dielectric constant tensor:
#      x y z
#    x 1.796160 0.071490 0.136430 
#    y 0.071490 1.759970 -0.012980 
#    z 0.136430 -0.012980 1.748650 
# 
# From -- ./inp_files/61242.got.cif
#   From: 2010.05.17/outbox.cif.g08.bks.cpg/sg2_31_cif.got.tgz:61242.got - 2010.06.03 11:33:40.
