data_PCOD9070617
_publ_section_title
;
Structure prediction by ZEFSAII (Michael W. Deem and Ramdas Pophale) SiO2 
 PCOD9070617
Probable space group: P -1
;
_chemical_formula_sum "Si O2"
_cell_formula_units_Z 14
_cell_length_a 10.048475
_cell_length_b 13.075527
_cell_length_c 4.933612
_cell_angle_alpha 84.584164
_cell_angle_beta 115.633826
_cell_angle_gamma 96.955991
_cell_volume 579.482436
_symmetry_space_group_name_H-M "P -1"
_symmetry_group_IT_number 2
_symmetry_cell_setting 'triclinic'
loop_
_space_group_symop_operation_xyz
x,y,z
-x,-y,-z
loop_
_atom_site_type_symbol
_atom_site_label
_atom_site_fract_x
_atom_site_fract_y
_atom_site_fract_z
Si Si1 0.189462 0.357306 0.849721
Si Si2 0.669145 0.530558 0.537391
Si Si3 0.530567 0.882922 0.130616
Si Si4 0.155911 0.643317 0.559078
Si Si5 0.228917 0.769404 0.092687
Si Si6 0.905965 0.028931 0.160866
Si Si7 0.697726 0.848857 0.819839
O O1 0.301227 0.378898 0.686792
O O2 0.022348 0.377821 0.614154
O O3 0.242605 0.431328 0.125935
O O4 0.198954 0.242233 0.006582
O O5 0.500000 0.500000 0.500000
O O6 0.747031 0.440641 0.471361
O O7 0.339839 0.127440 0.528400
O O8 0.389806 0.824496 0.168258
O O9 0.553596 0.822565 0.885946
O O10 0.500000 0.000000 0.000000
O O11 0.199989 0.670218 0.898980
O O12 0.197230 0.742578 0.381664
O O13 0.120138 0.852624 0.882354
O O14 0.000000 0.000000 0.500000
O O15 0.759834 0.953380 0.999995
O O16 0.000000 0.000000 0.000000
#
# Coordination Sequence:
#
# PCOD9070617 Si02
#       7
#     2   2   2   2   2   2   2
#     4  12  26  50  77 108 148 192 247 307 378 445
#     4  12  28  49  78 112 147 189 245 310 378 450
#     4  12  26  45  69 103 150 202 242 301 370 429
#     4  12  27  49  77 108 147 195 247 309 374 441
#     4  12  26  44  73 106 148 191 251 297 369 440
#     4  12  25  43  69 104 147 191 243 299 357 439
#     4  12  26  43  73 103 147 193 246 299 370 435
#
# _framework density 24.159490999999999
#
# number of rings (size 3 to 8) (size 9 to 14) (size 15 to 20)
#    0.000    0.000    1.429    8.571    8.000    0.000 
#    0.000    0.000    0.000    0.000    0.000    0.000 
#    0.000    0.000    0.000    0.000    0.000    0.000 
#
# Total GULP energy -78353.928893 kJ/mol
# GULP energy per Si atom -5596.709207 kJ/mol
# Density = 2.410450 g / cm^3
# Si number density = 24.159491 Si / 1000 Ang^3
#
#
#
# Elastic Constant Matrix: (Units=GPa)
#
#
# Indices 1 2 3 4 5 6 
#
# 1 121.9257 23.7307 19.5042 3.2375 -8.1977 2.6470
# 2 23.7307 90.5589 15.5782 -8.2742 3.9671 -11.9178
# 3 19.5042 15.5782 135.8503 -6.0556 -15.4579 4.5105
# 4 3.2375 -8.2742 -6.0556 44.2949 3.6869 -5.6974
# 5 -8.1977 3.9671 -15.4579 3.6869 39.2134 -0.6208
# 6 2.6470 -11.9178 4.5105 -5.6974 -0.6208 42.7826
#
#
#
# Elastic Compliance Matrix: (Units=1/GPa)
#
#
# Indices 1 2 3 4 5 6 
#
# 1 0.009051 -0.002653 -0.000796 -0.001611 0.001976 -0.001401
# 2 -0.002653 0.012955 -0.001407 0.003196 -0.002652 0.004309
# 3 -0.000796 -0.001407 0.008046 0.000500 0.003084 -0.001080
# 4 -0.001611 0.003196 0.000500 0.024109 -0.002665 0.004109
# 5 0.001976 -0.002652 0.003084 -0.002665 0.027631 -0.001140
# 6 -0.001401 0.004309 -0.001080 0.004109 -0.001140 0.025305
#
#
# Mechanical properties :
#
#
# Convention : Reuss Voigt Hill
#
# Bulk Modulus (GPa) = 49.16320 51.77346 50.46833
# Shear Modulus (GPa) = 40.45639 44.55964 42.50802
#
# Velocity S-wave (km/s) = 4.09657 4.29930 4.19916
# Velocity P-wave (km/s) = 6.53984 6.79130 6.66675
#
# Compressibility (1/GPa) = 0.02034042
#
# Stress axis : x y z
#
# Youngs Moduli (GPa) = 110.47958 77.18971 124.29133
#
# Poissons Ratio (x) = 0.20480 0.09890
# Poissons Ratio (y) = 0.29312 0.17488
# Poissons Ratio (z) = 0.08791 0.10861
#
# Static dielectric constant tensor:
#      x y z
#    x 1.977070 0.016410 -0.016370 
#    y 0.016410 1.974440 -0.040460 
#    z -0.016370 -0.040460 1.836440 
# 
# From -- ./inp_files/28513.got.cif
#   From: 2010.05.17/outbox.cif.g08.bks.cpg/sg2_15_cif.got.tgz:28513.got - 2010.06.03 11:33:40.
