data_PCOD9070864
_publ_section_title
;
Structure prediction by ZEFSAII (Michael W. Deem and Ramdas Pophale) SiO2 
 PCOD9070864
Probable space group: P -1
;
_chemical_formula_sum "Si O2"
_cell_formula_units_Z 14
_cell_length_a 12.858800
_cell_length_b 8.919881
_cell_length_c 17.748934
_cell_angle_alpha 29.820000
_cell_angle_beta 142.449004
_cell_angle_gamma 134.879954
_cell_volume 615.929765
_symmetry_space_group_name_H-M "P -1"
_symmetry_group_IT_number 2
_symmetry_cell_setting 'triclinic'
loop_
_space_group_symop_operation_xyz
x,y,z
-x,-y,-z
loop_
_atom_site_type_symbol
_atom_site_label
_atom_site_fract_x
_atom_site_fract_y
_atom_site_fract_z
Si Si1 0.664837 0.219352 0.519249
Si Si2 0.634451 0.753838 0.156898
Si Si3 0.513676 0.423422 0.628801
Si Si4 0.031928 0.684868 0.695562
Si Si5 0.573105 0.284209 0.076160
Si Si6 0.967214 0.847145 0.197893
Si Si7 0.897341 0.485842 0.864430
O O1 0.678807 0.525344 0.345545
O O2 0.625435 0.356921 0.516914
O O3 0.852509 0.096652 0.679543
O O4 0.500000 0.000000 0.500000
O O5 0.807758 0.827838 0.175021
O O6 0.508348 0.580416 0.103336
O O7 0.500000 0.000000 0.000000
O O8 0.500000 0.500000 0.500000
O O9 0.691868 0.503997 0.740958
O O10 0.477611 0.067551 0.781313
O O11 0.228098 0.686159 0.829164
O O12 0.014787 0.425097 0.733016
O O13 0.944913 0.676879 0.732497
O O14 0.000000 0.000000 0.500000
O O15 0.500000 0.500000 0.000000
O O16 0.932645 0.150362 0.001747
O O17 0.000000 0.500000 0.000000
#
# Coordination Sequence:
#
# PCOD9070864 Si02
#       7
#     2   2   2   2   2   2   2
#     4  12  28  46  73 111 148 193 245 312 375 444
#     4  12  26  49  75 106 149 193 248 311 379 437
#     4  12  26  49  72 107 150 196 248 307 372 452
#     4  12  28  47  76 112 150 201 249 305 375 455
#     4  12  25  47  75 104 142 195 248 299 369 450
#     4  12  26  50  73 110 151 198 247 308 373 455
#     4  12  27  48  76 111 151 200 255 313 376 442
#
# _framework density 22.729866000000001
#
# number of rings (size 3 to 8) (size 9 to 14) (size 15 to 20)
#    0.000    0.000    4.286    4.286    8.000    2.286 
#    0.000    0.000    0.000    0.000    0.000    0.000 
#    0.000    0.000    0.000    0.000    0.000    0.000 
#
# Total GULP energy -77965.955267 kJ/mol
# GULP energy per Si atom -5568.996805 kJ/mol
# Density = 2.267813 g / cm^3
# Si number density = 22.729866 Si / 1000 Ang^3
#
#
#
# Elastic Constant Matrix: (Units=GPa)
#
#
# Indices 1 2 3 4 5 6 
#
# 1 89.4850 31.5189 13.4233 7.3597 5.2729 -10.6378
# 2 31.5189 80.4000 4.8069 13.9316 11.2020 8.3965
# 3 13.4233 4.8069 85.2497 9.1664 16.9249 6.3999
# 4 7.3597 13.9316 9.1664 48.9747 5.0453 12.7562
# 5 5.2729 11.2020 16.9249 5.0453 51.7760 11.5655
# 6 -10.6378 8.3965 6.3999 12.7562 11.5655 45.4137
#
#
#
# Elastic Compliance Matrix: (Units=1/GPa)
#
#
# Indices 1 2 3 4 5 6 
#
# 1 0.014259 -0.005682 -0.002047 -0.001446 -0.000582 0.005234
# 2 -0.005682 0.015711 0.000970 -0.002781 -0.002189 -0.003034
# 3 -0.002047 0.000970 0.013029 -0.001743 -0.003862 -0.001022
# 4 -0.001446 -0.002781 -0.001743 0.023335 0.000440 -0.006246
# 5 -0.000582 -0.002189 -0.003862 0.000440 0.022174 -0.004958
# 6 0.005234 -0.003034 -0.001022 -0.006246 -0.004958 0.026968
#
#
# Mechanical properties :
#
#
# Convention : Reuss Voigt Hill
#
# Bulk Modulus (GPa) = 33.91980 39.40366 36.66173
# Shear Modulus (GPa) = 36.01788 42.92525 39.47157
#
# Velocity S-wave (km/s) = 3.98503 4.35040 4.17172
# Velocity P-wave (km/s) = 6.01077 6.52747 6.27444
#
# Compressibility (1/GPa) = 0.02948131
#
# Stress axis : x y z
#
# Youngs Moduli (GPa) = 70.13138 63.64882 76.75358
#
# Poissons Ratio (x) = 0.36168 0.15709
# Poissons Ratio (y) = 0.39851 -0.07447
# Poissons Ratio (z) = 0.14353 -0.06175
#
# Static dielectric constant tensor:
#      x y z
#    x 2.310400 -0.274940 0.230320 
#    y -0.274940 2.123240 -0.134700 
#    z 0.230320 -0.134700 1.860470 
# 
# From -- ./inp_files/566393.got.cif
#   From: 2010.05.17/outbox.cif.g08.bks.cpg/sg2_284_cif.got.tgz:566393.got - 2010.06.03 11:33:40.
