data_PCOD9070347
_publ_section_title
;
Structure prediction by ZEFSAII (Michael W. Deem and Ramdas Pophale) SiO2 
 PCOD9070347
Probable space group: P -1
;
_chemical_formula_sum "Si O2"
_cell_formula_units_Z 14
_cell_length_a 13.877032
_cell_length_b 10.269362
_cell_length_c 8.848494
_cell_angle_alpha 68.110034
_cell_angle_beta 31.361670
_cell_angle_gamma 57.497335
_cell_volume 542.741341
_symmetry_space_group_name_H-M "P -1"
_symmetry_group_IT_number 2
_symmetry_cell_setting 'triclinic'
loop_
_space_group_symop_operation_xyz
x,y,z
-x,-y,-z
loop_
_atom_site_type_symbol
_atom_site_label
_atom_site_fract_x
_atom_site_fract_y
_atom_site_fract_z
Si Si1 0.339919 0.430880 0.307852
Si Si2 0.703559 0.111249 0.994899
Si Si3 0.054828 0.289059 0.814887
Si Si4 0.667754 0.506711 0.384716
Si Si5 0.332438 0.202348 0.912355
Si Si6 0.034800 0.724186 0.408835
Si Si7 0.246544 0.950081 0.708115
O O1 0.406254 0.484668 0.349233
O O2 0.229994 0.568671 0.276532
O O3 0.147650 0.409198 0.637772
O O4 0.516321 0.259201 0.098959
O O5 0.911622 0.132858 0.682701
O O6 0.707325 0.944379 0.028116
O O7 0.670158 0.141702 0.207820
O O8 0.978827 0.286189 0.747930
O O9 0.237985 0.118806 0.674068
O O10 0.872618 0.343085 0.154806
O O11 0.500000 0.500000 0.500000
O O12 0.715461 0.649030 0.198299
O O13 0.585591 0.130087 0.614616
O O14 0.178688 0.259620 0.237509
O O15 0.000000 0.000000 0.000000
#
# Coordination Sequence:
#
# PCOD9070347 Si02
#       7
#     2   2   2   2   2   2   2
#     4  12  25  48  78 106 149 197 246 311 366 446
#     4  12  25  49  74 111 147 198 250 307 375 440
#     4  12  25  48  75 106 152 196 245 306 372 446
#     4  12  26  47  76 110 143 195 261 302 367 445
#     4  12  26  48  75 108 148 195 247 311 366 443
#     4  12  28  49  74 113 156 196 244 306 382 441
#     4  12  24  47  76 102 146 194 251 308 364 436
#
# _framework density 25.794975999999998
#
# number of rings (size 3 to 8) (size 9 to 14) (size 15 to 20)
#    0.000    0.000    5.714    4.714    2.000    0.571 
#    0.000    0.000    0.000    0.000    0.000    0.000 
#    0.000    0.000    0.000    0.000    0.000    0.000 
#
# Total GULP energy -78265.632540 kJ/mol
# GULP energy per Si atom -5590.402324 kJ/mol
# Density = 2.573627 g / cm^3
# Si number density = 25.794976 Si / 1000 Ang^3
#
#
#
# Elastic Constant Matrix: (Units=GPa)
#
#
# Indices 1 2 3 4 5 6 
#
# 1 66.3276 17.1541 15.3030 1.8889 -11.1641 -8.7497
# 2 17.1541 100.4097 40.4854 4.9813 4.1966 -18.4872
# 3 15.3030 40.4854 156.7721 -1.1175 -11.5701 6.4542
# 4 1.8889 4.9813 -1.1175 39.2115 9.2801 -2.7759
# 5 -11.1641 4.1966 -11.5701 9.2801 32.0914 -6.8305
# 6 -8.7497 -18.4872 6.4542 -2.7759 -6.8305 30.1481
#
#
#
# Elastic Compliance Matrix: (Units=1/GPa)
#
#
# Indices 1 2 3 4 5 6 
#
# 1 0.017959 -0.001826 -0.000948 -0.002140 0.008023 0.005916
# 2 -0.001826 0.013361 -0.003741 -0.000719 -0.001824 0.007985
# 3 -0.000948 -0.003741 0.007751 -0.000036 0.002168 -0.003741
# 4 -0.002140 -0.000719 -0.000036 0.027742 -0.008790 -0.000492
# 5 0.008023 -0.001824 0.002168 -0.008790 0.039401 0.008863
# 6 0.005916 0.007985 -0.003741 -0.000492 0.008863 0.042547
#
#
# Mechanical properties :
#
#
# Convention : Reuss Voigt Hill
#
# Bulk Modulus (GPa) = 38.39890 52.15495 45.27692
# Shear Modulus (GPa) = 29.33041 36.99466 33.16254
#
# Velocity S-wave (km/s) = 3.37569 3.79117 3.58944
# Velocity P-wave (km/s) = 5.48746 6.27908 5.89657
#
# Compressibility (1/GPa) = 0.02604241
#
# Stress axis : x y z
#
# Youngs Moduli (GPa) = 55.68103 74.84211 129.01511
#
# Poissons Ratio (x) = 0.13664 0.12235
# Poissons Ratio (y) = 0.10166 0.48261
# Poissons Ratio (z) = 0.05280 0.27997
#
# Static dielectric constant tensor:
#      x y z
#    x 2.031160 0.053020 -0.054600 
#    y 0.053020 2.048360 -0.028010 
#    z -0.054600 -0.028010 2.038000 
# 
# From -- ./inp_files/306655.got.cif
#   From: 2010.05.17/outbox.cif.g08.bks.cpg/sg2_154_cif.got.tgz:306655.got - 2010.06.03 11:33:40.
