data_PCOD9070271
_publ_section_title
;
Structure prediction by ZEFSAII (Michael W. Deem and Ramdas Pophale) SiO2 
 PCOD9070271
Probable space group: P -1
;
_chemical_formula_sum "Si O2"
_cell_formula_units_Z 14
_cell_length_a 5.234296
_cell_length_b 12.089537
_cell_length_c 9.321969
_cell_angle_alpha 89.853829
_cell_angle_beta 74.907667
_cell_angle_gamma 65.880229
_cell_volume 516.201311
_symmetry_space_group_name_H-M "P -1"
_symmetry_group_IT_number 2
_symmetry_cell_setting 'triclinic'
loop_
_space_group_symop_operation_xyz
x,y,z
-x,-y,-z
loop_
_atom_site_type_symbol
_atom_site_label
_atom_site_fract_x
_atom_site_fract_y
_atom_site_fract_z
Si Si1 0.000000 0.000000 0.000000
Si Si2 0.807565 0.403185 0.904307
Si Si3 0.488493 0.837632 0.803691
Si Si4 0.500000 0.500000 0.500000
Si Si5 0.687119 0.818782 0.087891
Si Si6 0.794977 0.930310 0.543472
Si Si7 0.676597 0.266827 0.675074
Si Si8 0.936050 0.572558 0.667550
O O1 0.146108 0.913439 0.831097
O O2 0.161765 0.089707 0.929144
O O3 0.734578 0.310866 0.819521
O O4 0.060920 0.318759 0.973971
O O5 0.920453 0.478364 0.783382
O O6 0.500000 0.500000 0.000000
O O7 0.682718 0.899455 0.708221
O O8 0.648234 0.698091 0.726892
O O9 0.472342 0.854434 0.981135
O O10 0.519053 0.384407 0.598538
O O11 0.226124 0.592441 0.638395
O O12 0.514533 0.807281 0.254849
O O13 0.006875 0.804579 0.438438
O O14 0.500000 0.000000 0.500000
O O15 0.000000 0.000000 0.500000
O O16 0.000000 0.500000 0.500000
#
# Coordination Sequence:
#
# PCOD9070271 Si02
#       8
#     1   2   2   1   2   2   2   2
#     4  12  28  52  76 110 156 210 274 330 402 492
#     4  12  27  45  77 115 158 202 261 328 415 500
#     4  12  29  50  79 115 158 213 271 340 411 494
#     4  12  24  46  80 108 164 200 272 328 410 492
#     4  12  28  48  79 109 163 210 268 335 410 490
#     4  12  31  53  85 118 162 218 285 346 417 497
#     4  12  27  51  77 120 157 214 267 346 415 494
#     4  12  25  49  76 113 154 202 258 333 410 496
#
# _framework density 27.121200999999999
#
# number of rings (size 3 to 8) (size 9 to 14) (size 15 to 20)
#    0.000    0.000    4.286    3.857   10.000    3.429 
#    0.000    0.000    0.000    0.000    0.000    0.000 
#    0.000    0.000    0.000    0.000    0.000    0.000 
#
# Total GULP energy -77963.306780 kJ/mol
# GULP energy per Si atom -5568.807627 kJ/mol
# Density = 2.705947 g / cm^3
# Si number density = 27.121201 Si / 1000 Ang^3
#
#
#
# Elastic Constant Matrix: (Units=GPa)
#
#
# Indices 1 2 3 4 5 6 
#
# 1 95.9501 30.8179 38.4664 -21.0630 -25.5295 13.2665
# 2 30.8179 129.9252 64.9511 -11.9044 -18.9486 7.0628
# 3 38.4664 64.9511 169.6915 -7.7574 -60.0007 5.9412
# 4 -21.0630 -11.9044 -7.7574 81.9803 -5.9974 -19.7857
# 5 -25.5295 -18.9486 -60.0007 -5.9974 58.2388 -3.7066
# 6 13.2665 7.0628 5.9412 -19.7857 -3.7066 35.2315
#
#
#
# Elastic Compliance Matrix: (Units=1/GPa)
#
#
# Indices 1 2 3 4 5 6 
#
# 1 0.013508 -0.001903 -0.000292 0.002950 0.005148 -0.002457
# 2 -0.001903 0.009927 -0.003913 0.000315 -0.001642 -0.000609
# 3 -0.000292 -0.003913 0.011110 0.001366 0.010241 0.000866
# 4 0.002950 0.000315 0.001366 0.015354 0.004876 0.007731
# 5 0.005148 -0.001642 0.010241 0.004876 0.030110 0.002570
# 6 -0.002457 -0.000609 0.000866 0.007731 0.002570 0.033897
#
#
# Mechanical properties :
#
#
# Convention : Reuss Voigt Hill
#
# Bulk Modulus (GPa) = 44.78749 73.78193 59.28471
# Shear Modulus (GPa) = 37.43497 52.51221 44.97359
#
# Velocity S-wave (km/s) = 3.71925 4.40501 4.07657
# Velocity P-wave (km/s) = 5.91552 7.28942 6.63811
#
# Compressibility (1/GPa) = 0.02232766
#
# Stress axis : x y z
#
# Youngs Moduli (GPa) = 74.03193 100.73677 90.00672
#
# Poissons Ratio (x) = 0.19172 0.02630
# Poissons Ratio (y) = 0.14090 0.35221
# Poissons Ratio (z) = 0.02164 0.39420
#
# Static dielectric constant tensor:
#      x y z
#    x 1.480730 0.397400 0.035360 
#    y 0.397400 1.973410 0.047190 
#    z 0.035360 0.047190 1.994260 
# 
# From -- ./inp_files/361981.got.cif
#   From: 2010.05.17/outbox.cif.g08.bks.cpg/sg2_181_cif.got.tgz:361981.got - 2010.06.03 11:33:40.
