data_PCOD9070688
_publ_section_title
;
Structure prediction by ZEFSAII (Michael W. Deem and Ramdas Pophale) SiO2 
 PCOD9070688
Probable space group: P -1
;
_chemical_formula_sum "Si O2"
_cell_formula_units_Z 16
_cell_length_a 8.595714
_cell_length_b 15.065950
_cell_length_c 8.908859
_cell_angle_alpha 69.778144
_cell_angle_beta 129.308481
_cell_angle_gamma 80.199939
_cell_volume 707.157370
_symmetry_space_group_name_H-M "P -1"
_symmetry_group_IT_number 2
_symmetry_cell_setting 'triclinic'
loop_
_space_group_symop_operation_xyz
x,y,z
-x,-y,-z
loop_
_atom_site_type_symbol
_atom_site_label
_atom_site_fract_x
_atom_site_fract_y
_atom_site_fract_z
Si Si1 0.208816 0.931924 0.287309
Si Si2 0.666751 0.803987 0.436451
Si Si3 0.803026 0.978211 0.462290
Si Si4 0.336926 0.525479 0.527373
Si Si5 0.598754 0.808478 0.067046
Si Si6 0.137533 0.739437 0.464822
Si Si7 0.001213 0.534875 0.807993
Si Si8 0.535810 0.615086 0.014645
O O1 0.469955 0.861068 0.413673
O O2 0.162717 0.843311 0.390295
O O3 0.193687 0.012985 0.361834
O O4 0.000000 0.000000 0.000000
O O5 0.811026 0.866595 0.487130
O O6 0.513497 0.827709 0.176166
O O7 0.847408 0.670188 0.634970
O O8 0.000000 0.000000 0.500000
O O9 0.553493 0.079931 0.186620
O O10 0.500000 0.500000 0.500000
O O11 0.254373 0.649124 0.456358
O O12 0.131155 0.507486 0.355035
O O13 0.453288 0.446406 0.789251
O O14 0.586967 0.710268 0.038270
O O15 0.867466 0.774314 0.273307
O O16 0.286096 0.676636 0.740335
O O17 0.261803 0.471864 0.927482
O O18 0.000000 0.500000 0.000000
#
# Coordination Sequence:
#
# PCOD9070688 Si02
#       8
#     2   2   2   2   2   2   2   2
#     4  12  26  48  73 113 155 194 259 318 385 457
#     4  12  26  46  76 109 155 200 249 324 383 451
#     4  12  27  51  78 112 147 202 260 316 389 458
#     4  12  25  45  71 112 153 201 255 314 383 461
#     4  12  25  49  80 107 151 197 259 313 387 456
#     4  12  26  47  77 110 150 205 250 315 385 455
#     4  12  26  47  74 114 159 204 260 313 386 468
#     4  12  25  50  76 110 158 203 255 318 386 461
#
# _framework density 22.625798
#
# number of rings (size 3 to 8) (size 9 to 14) (size 15 to 20)
#    0.000    0.000    3.750    6.750    0.000    2.000 
#    0.000    0.000    0.000    0.000    0.000    0.000 
#    0.000    0.000    0.000    0.000    0.000    0.000 
#
# Total GULP energy -89651.399429 kJ/mol
# GULP energy per Si atom -5603.212464 kJ/mol
# Density = 2.257430 g / cm^3
# Si number density = 22.625798 Si / 1000 Ang^3
#
#
#
# Elastic Constant Matrix: (Units=GPa)
#
#
# Indices 1 2 3 4 5 6 
#
# 1 85.4219 5.3628 34.8217 11.4801 6.0353 -17.0497
# 2 5.3628 150.1005 34.8132 16.2296 -2.4247 -2.8582
# 3 34.8217 34.8132 159.2060 20.7972 -6.4337 -8.3384
# 4 11.4801 16.2296 20.7972 38.1691 3.6567 -3.8138
# 5 6.0353 -2.4247 -6.4337 3.6567 45.8567 6.2603
# 6 -17.0497 -2.8582 -8.3384 -3.8138 6.2603 47.3953
#
#
#
# Elastic Compliance Matrix: (Units=1/GPa)
#
#
# Indices 1 2 3 4 5 6 
#
# 1 0.014273 0.000422 -0.002782 -0.002210 -0.002733 0.004854
# 2 0.000422 0.007233 -0.001329 -0.002499 0.000325 0.000110
# 3 -0.002782 -0.001329 0.007618 -0.002924 0.001624 -0.000190
# 4 -0.002210 -0.002499 -0.002924 0.029921 -0.002818 0.001320
# 5 -0.002733 0.000325 0.001624 -0.002818 0.023178 -0.003966
# 6 0.004854 0.000110 -0.000190 0.001320 -0.003966 0.023448
#
#
# Mechanical properties :
#
#
# Convention : Reuss Voigt Hill
#
# Bulk Modulus (GPa) = 45.98226 60.52488 53.25357
# Shear Modulus (GPa) = 41.56425 47.59959 44.58192
#
# Velocity S-wave (km/s) = 4.29071 4.59167 4.44374
# Velocity P-wave (km/s) = 6.70179 7.41078 7.06518
#
# Compressibility (1/GPa) = 0.02174752
#
# Stress axis : x y z
#
# Youngs Moduli (GPa) = 70.06299 138.25951 131.27347
#
# Poissons Ratio (x) = -0.05841 0.36516
# Poissons Ratio (y) = -0.02960 0.17442
# Poissons Ratio (z) = 0.19489 0.18370
#
# Static dielectric constant tensor:
#      x y z
#    x 2.369640 -0.234830 -0.028820 
#    y -0.234830 1.964330 0.042520 
#    z -0.028820 0.042520 1.807850 
# 
# From -- ./inp_files/206528.got.cif
#   From: 2010.05.17/outbox.cif.g08.bks.cpg/sg2_104_cif.got.tgz:206528.got - 2010.06.03 11:33:40.
