data_PCOD9070339
_publ_section_title
;
Structure prediction by ZEFSAII (Michael W. Deem and Ramdas Pophale) SiO2 
 PCOD9070339
Probable space group: P -1
;
_chemical_formula_sum "Si O2"
_cell_formula_units_Z 16
_cell_length_a 11.682272
_cell_length_b 8.580238
_cell_length_c 9.432432
_cell_angle_alpha 65.426553
_cell_angle_beta 122.650002
_cell_angle_gamma 103.776580
_cell_volume 723.854924
_symmetry_space_group_name_H-M "P -1"
_symmetry_group_IT_number 2
_symmetry_cell_setting 'triclinic'
loop_
_space_group_symop_operation_xyz
x,y,z
-x,-y,-z
loop_
_atom_site_type_symbol
_atom_site_label
_atom_site_fract_x
_atom_site_fract_y
_atom_site_fract_z
Si Si1 0.960295 0.859323 0.802250
Si Si2 0.833720 0.741482 0.471054
Si Si3 0.245142 0.302705 0.066895
Si Si4 0.360894 0.962095 0.839146
Si Si5 0.533104 0.147657 0.350398
Si Si6 0.735041 0.366970 0.589574
Si Si7 0.973740 0.747262 0.288275
Si Si8 0.231242 0.671677 0.057772
O O1 0.900661 0.832285 0.616635
O O2 0.839526 0.832194 0.842700
O O3 0.025883 0.046029 0.794589
O O4 0.072728 0.715372 0.954685
O O5 0.749324 0.572427 0.522405
O O6 0.951169 0.694443 0.455884
O O7 0.735268 0.874921 0.280451
O O8 0.393871 0.230256 0.171529
O O9 0.251093 0.480222 0.089095
O O10 0.153779 0.325462 0.858168
O O11 0.389633 0.923661 0.708001
O O12 0.289418 0.802771 0.931000
O O13 0.500000 0.000000 0.000000
O O14 0.625007 0.290446 0.437251
O O15 0.500000 0.000000 0.500000
O O16 0.704474 0.304792 0.752484
O O17 0.883524 0.305564 0.662443
#
# Coordination Sequence:
#
# PCOD9070339 Si02
#       8
#     2   2   2   2   2   2   2   2
#     4  12  24  47  75 110 143 194 241 301 366 431
#     4  12  26  46  74 110 146 190 242 306 361 428
#     4  12  26  47  73 105 148 192 245 296 362 435
#     4  12  28  50  75 103 151 194 242 293 371 436
#     4  12  29  48  75 109 148 192 244 298 362 434
#     4  12  27  47  75 109 149 190 245 300 363 429
#     4  12  25  43  76 107 147 189 245 300 363 427
#     4  12  27  47  75 105 147 194 240 301 365 431
#
# _framework density 22.103876
#
# number of rings (size 3 to 8) (size 9 to 14) (size 15 to 20)
#    0.000    0.000    3.750    6.000    7.000    1.000 
#    0.000    0.000    0.000    0.000    0.000    0.000 
#    0.000    0.000    0.000    0.000    0.000    0.000 
#
# Total GULP energy -89683.127197 kJ/mol
# GULP energy per Si atom -5605.195450 kJ/mol
# Density = 2.205357 g / cm^3
# Si number density = 22.103876 Si / 1000 Ang^3
#
#
#
# Elastic Constant Matrix: (Units=GPa)
#
#
# Indices 1 2 3 4 5 6 
#
# 1 92.5730 21.6909 19.6570 0.5476 -9.8894 0.9274
# 2 21.6909 75.3254 13.9562 6.6611 0.9032 -4.1545
# 3 19.6570 13.9562 58.2432 12.9208 -15.7100 11.3005
# 4 0.5476 6.6611 12.9208 44.6258 -0.1004 -0.6923
# 5 -9.8894 0.9032 -15.7100 -0.1004 47.6235 6.6779
# 6 0.9274 -4.1545 11.3005 -0.6923 6.6779 14.2634
#
#
#
# Elastic Compliance Matrix: (Units=1/GPa)
#
#
# Indices 1 2 3 4 5 6 
#
# 1 0.012386 -0.003040 -0.003434 0.001306 0.001441 0.000419
# 2 -0.003040 0.016094 -0.006399 -0.000334 -0.004754 0.012164
# 3 -0.003434 -0.006399 0.032741 -0.008993 0.015110 -0.035091
# 4 0.001306 -0.000334 -0.008993 0.025193 -0.004047 0.010060
# 5 0.001441 -0.004754 0.015110 -0.004047 0.030264 -0.027815
# 6 0.000419 0.012164 -0.035091 0.010060 -0.027815 0.114938
#
#
# Mechanical properties :
#
#
# Convention : Reuss Voigt Hill
#
# Bulk Modulus (GPa) = 28.18856 37.41664 32.80260
# Shear Modulus (GPa) = 18.57450 32.69170 25.63310
#
# Velocity S-wave (km/s) = 2.90199 3.84995 3.40908
# Velocity P-wave (km/s) = 4.89991 6.06030 5.51073
#
# Compressibility (1/GPa) = 0.03547538
#
# Stress axis : x y z
#
# Youngs Moduli (GPa) = 80.73764 62.13434 30.54296
#
# Poissons Ratio (x) = 0.18889 0.10488
# Poissons Ratio (y) = 0.24545 0.19543
# Poissons Ratio (z) = 0.27725 0.39757
#
# Static dielectric constant tensor:
#      x y z
#    x 1.803720 0.001950 -0.009820 
#    y 0.001950 1.767900 -0.008680 
#    z -0.009820 -0.008680 1.800680 
# 
# From -- ./inp_files/242690.got.cif
#   From: 2010.05.17/outbox.cif.g08.bks.cpg/sg2_122_cif.got.tgz:242690.got - 2010.06.03 11:33:40.
