data_PCOD9070761
_publ_section_title
;
Structure prediction by ZEFSAII (Michael W. Deem and Ramdas Pophale) SiO2 
 PCOD9070761
Probable space group: P -1
;
_chemical_formula_sum "Si O2"
_cell_formula_units_Z 16
_cell_length_a 9.936869
_cell_length_b 11.340405
_cell_length_c 17.746808
_cell_angle_alpha 147.570234
_cell_angle_beta 43.094357
_cell_angle_gamma 125.098512
_cell_volume 728.016593
_symmetry_space_group_name_H-M "P -1"
_symmetry_group_IT_number 2
_symmetry_cell_setting 'triclinic'
loop_
_space_group_symop_operation_xyz
x,y,z
-x,-y,-z
loop_
_atom_site_type_symbol
_atom_site_label
_atom_site_fract_x
_atom_site_fract_y
_atom_site_fract_z
Si Si1 0.025083 0.859569 0.650107
Si Si2 0.284476 0.497217 0.052922
Si Si3 0.836128 0.699823 0.152362
Si Si4 0.477901 0.653869 0.373199
Si Si5 0.799841 0.885597 0.019195
Si Si6 0.511358 0.732075 0.578865
Si Si7 0.133410 0.007141 0.376523
Si Si8 0.645997 0.798954 0.866333
O O1 0.250735 0.750631 0.503054
O O2 0.850017 0.757942 0.711639
O O3 0.039388 0.099990 0.809098
O O4 0.967535 0.898969 0.607943
O O5 0.211329 0.748346 0.195703
O O6 0.500000 0.500000 0.000000
O O7 0.283680 0.358376 0.902756
O O8 0.170189 0.356068 0.083392
O O9 0.665605 0.755621 0.314724
O O10 0.000000 0.500000 0.000000
O O11 0.506257 0.675179 0.462229
O O12 0.477577 0.409386 0.206440
O O13 0.653643 0.065748 0.222364
O O14 0.708838 0.849239 0.953524
O O15 0.000000 0.000000 0.000000
O O16 0.500000 0.500000 0.500000
O O17 0.706248 0.832799 0.580440
O O18 0.000000 0.000000 0.500000
O O19 0.500000 0.000000 0.000000
#
# Coordination Sequence:
#
# PCOD9070761 Si02
#       8
#     2   2   2   2   2   2   2   2
#     4  12  26  47  71 108 146 188 243 295 364 436
#     4  12  26  47  74 106 146 188 246 300 361 437
#     4  12  25  46  72 105 143 185 240 294 362 429
#     4  12  27  46  74 105 147 192 239 300 362 433
#     4  12  27  47  76 105 143 190 243 297 361 430
#     4  12  27  49  71 107 147 190 243 301 365 432
#     4  12  28  46  73 107 149 191 238 301 369 431
#     4  12  26  48  75 104 143 193 244 297 357 429
#
# _framework density 21.977520999999999
#
# number of rings (size 3 to 8) (size 9 to 14) (size 15 to 20)
#    0.000    0.000    2.500    7.500    5.250    0.000 
#    0.000    0.000    0.000    0.000    0.000    0.000 
#    0.000    0.000    0.000    0.000    0.000    0.000 
#
# Total GULP energy -89487.832098 kJ/mol
# GULP energy per Si atom -5592.989506 kJ/mol
# Density = 2.192750 g / cm^3
# Si number density = 21.977521 Si / 1000 Ang^3
#
#
#
# Elastic Constant Matrix: (Units=GPa)
#
#
# Indices 1 2 3 4 5 6 
#
# 1 153.9145 34.7848 18.3176 -5.4274 33.6378 -14.5722
# 2 34.7848 116.6003 1.6916 5.5621 13.4965 7.1729
# 3 18.3176 1.6916 39.2309 2.9641 13.4571 -7.4817
# 4 -5.4274 5.5621 2.9641 47.0785 0.4958 8.2732
# 5 33.6378 13.4965 13.4571 0.4958 48.3378 -1.4318
# 6 -14.5722 7.1729 -7.4817 8.2732 -1.4318 47.7078
#
#
#
# Elastic Compliance Matrix: (Units=1/GPa)
#
#
# Indices 1 2 3 4 5 6 
#
# 1 0.008494 -0.002149 -0.001887 0.000996 -0.004727 0.002307
# 2 -0.002149 0.009536 0.000822 -0.001092 -0.001439 -0.001815
# 3 -0.001887 0.000822 0.029783 -0.002863 -0.007052 0.004256
# 4 0.000996 -0.001092 -0.002863 0.022342 0.000065 -0.003853
# 5 -0.004727 -0.001439 -0.007052 0.000065 0.026296 -0.001556
# 6 0.002307 -0.001815 0.004256 -0.003853 -0.001556 0.023227
#
#
# Mechanical properties :
#
#
# Convention : Reuss Voigt Hill
#
# Bulk Modulus (GPa) = 24.16349 46.59263 35.37806
# Shear Modulus (GPa) = 35.73978 45.62159 40.68069
#
# Velocity S-wave (km/s) = 4.03699 4.56107 4.30701
# Velocity P-wave (km/s) = 5.72261 6.99885 6.39266
#
# Compressibility (1/GPa) = 0.04138474
#
# Stress axis : x y z
#
# Youngs Moduli (GPa) = 117.72912 104.86917 33.57644
#
# Poissons Ratio (x) = 0.22535 0.06336
# Poissons Ratio (y) = 0.25298 -0.02760
# Poissons Ratio (z) = 0.22216 -0.08620
#
# Static dielectric constant tensor:
#      x y z
#    x 1.532570 -0.282150 1.037720 
#    y -0.282150 1.493500 1.238770 
#    z 1.037720 1.238770 -3.226680 
# 
# From -- ./inp_files/381481.got.cif
#   From: 2010.05.17/outbox.cif.g08.bks.cpg/sg2_191_cif.got.tgz:381481.got - 2010.06.03 11:33:40.
