data_PCOD9070929
_publ_section_title
;
Structure prediction by ZEFSAII (Michael W. Deem and Ramdas Pophale) SiO2 
 PCOD9070929
Probable space group: P -1
;
_chemical_formula_sum "Si O2"
_cell_formula_units_Z 16
_cell_length_a 15.565573
_cell_length_b 6.754882
_cell_length_c 19.868048
_cell_angle_alpha 126.270736
_cell_angle_beta 154.483141
_cell_angle_gamma 61.432978
_cell_volume 716.125663
_symmetry_space_group_name_H-M "P -1"
_symmetry_group_IT_number 2
_symmetry_cell_setting 'triclinic'
loop_
_space_group_symop_operation_xyz
x,y,z
-x,-y,-z
loop_
_atom_site_type_symbol
_atom_site_label
_atom_site_fract_x
_atom_site_fract_y
_atom_site_fract_z
Si Si1 0.483692 0.780107 0.842699
Si Si2 0.311275 0.282814 0.834816
Si Si3 0.130129 0.386697 0.868112
Si Si4 0.179460 0.350338 0.608311
Si Si5 0.746539 0.022135 0.520230
Si Si6 0.643888 0.802311 0.544872
Si Si7 0.446429 0.253969 0.269276
Si Si8 0.950680 0.080425 0.056169
O O1 0.375232 0.538269 0.757927
O O2 0.455551 0.760279 0.738265
O O3 0.288057 0.150465 0.474473
O O4 0.719517 0.775476 0.022293
O O5 0.183120 0.363852 0.822250
O O6 0.193362 0.269760 0.678576
O O7 0.396897 0.024636 0.854815
O O8 0.500000 0.500000 0.000000
O O9 0.899513 0.269703 0.695712
O O10 0.155673 0.672653 0.966351
O O11 0.000000 0.500000 0.500000
O O12 0.149059 0.113624 0.491525
O O13 0.541887 0.082577 0.355356
O O14 0.511505 0.529977 0.399246
O O15 0.842866 0.851058 0.741700
O O16 0.500000 0.000000 0.500000
O O17 0.209963 0.147897 0.074654
O O18 0.000000 0.000000 0.000000
#
# Coordination Sequence:
#
# PCOD9070929 Si02
#       8
#     2   2   2   2   2   2   2   2
#     4  12  25  48  70 109 145 197 244 304 370 437
#     4  12  26  45  71 106 146 195 250 301 368 443
#     4  12  27  46  77 107 151 197 249 307 371 445
#     4  12  27  42  72 106 148 194 243 299 368 439
#     4  12  26  49  73 112 147 191 247 307 372 442
#     4  12  29  50  80 111 146 197 251 307 376 442
#     4  12  26  50  81 106 155 190 247 313 367 445
#     4  12  29  51  79 113 149 198 249 308 377 442
#
# _framework density 22.342448000000001
#
# number of rings (size 3 to 8) (size 9 to 14) (size 15 to 20)
#    0.000    0.000    5.000    4.125    8.750    2.500 
#    0.000    0.000    0.000    0.000    0.000    0.000 
#    0.000    0.000    0.000    0.000    0.000    0.000 
#
# Total GULP energy -89595.720064 kJ/mol
# GULP energy per Si atom -5599.732504 kJ/mol
# Density = 2.229160 g / cm^3
# Si number density = 22.342448 Si / 1000 Ang^3
#
#
#
# Elastic Constant Matrix: (Units=GPa)
#
#
# Indices 1 2 3 4 5 6 
#
# 1 97.1508 34.7480 13.7774 5.7891 -23.1114 -3.0024
# 2 34.7480 120.5702 42.1270 7.0332 -16.2375 -13.0071
# 3 13.7774 42.1270 103.8375 13.1072 1.5474 3.6965
# 4 5.7891 7.0332 13.1072 44.2875 8.7836 -2.6405
# 5 -23.1114 -16.2375 1.5474 8.7836 43.6329 0.3622
# 6 -3.0024 -13.0071 3.6965 -2.6405 0.3622 36.0128
#
#
#
# Elastic Compliance Matrix: (Units=1/GPa)
#
#
# Indices 1 2 3 4 5 6 
#
# 1 0.012944 -0.002570 -0.000463 -0.002419 0.006404 -0.000043
# 2 -0.002570 0.011519 -0.004465 -0.000539 0.003156 0.004333
# 3 -0.000463 -0.004465 0.011967 -0.002600 -0.001783 -0.003053
# 4 -0.002419 -0.000539 -0.002600 0.025140 -0.006466 0.001779
# 5 0.006404 0.003156 -0.001783 -0.006466 0.028841 0.001093
# 6 -0.000043 0.004333 -0.003053 0.001779 0.001093 0.029762
#
#
# Mechanical properties :
#
#
# Convention : Reuss Voigt Hill
#
# Bulk Modulus (GPa) = 46.65698 55.87370 51.26534
# Shear Modulus (GPa) = 35.13353 40.18038 37.65696
#
# Velocity S-wave (km/s) = 3.96978 4.24534 4.10987
# Velocity P-wave (km/s) = 6.47613 7.00662 6.74659
#
# Compressibility (1/GPa) = 0.02143302
#
# Stress axis : x y z
#
# Youngs Moduli (GPa) = 77.25357 86.81522 83.56303
#
# Poissons Ratio (x) = 0.22309 0.03873
# Poissons Ratio (y) = 0.19852 0.37314
# Poissons Ratio (z) = 0.03580 0.38766
#
# Static dielectric constant tensor:
#      x y z
#    x 1.850190 0.006630 0.027040 
#    y 0.006630 1.771880 -0.013750 
#    z 0.027040 -0.013750 1.886550 
# 
# From -- ./inp_files/612934.got.cif
#   From: 2010.05.17/outbox.cif.g08.bks.cpg/sg2_307_cif.got.tgz:612934.got - 2010.06.03 11:33:40.
