data_PCOD9070762
_publ_section_title
;
Structure prediction by ZEFSAII (Michael W. Deem and Ramdas Pophale) SiO2 
 PCOD9070762
Probable space group: P -1
;
_chemical_formula_sum "Si O2"
_cell_formula_units_Z 11
_cell_length_a 4.983693
_cell_length_b 17.403725
_cell_length_c 8.543842
_cell_angle_alpha 139.122669
_cell_angle_beta 96.940602
_cell_angle_gamma 95.426950
_cell_volume 461.277694
_symmetry_space_group_name_H-M "P -1"
_symmetry_group_IT_number 2
_symmetry_cell_setting 'triclinic'
loop_
_space_group_symop_operation_xyz
x,y,z
-x,-y,-z
loop_
_atom_site_type_symbol
_atom_site_label
_atom_site_fract_x
_atom_site_fract_y
_atom_site_fract_z
Si Si1 0.799798 0.584080 0.602289
Si Si2 0.663569 0.087783 0.006587
Si Si3 0.294856 0.230405 0.329152
Si Si4 0.576445 0.638857 0.155327
Si Si5 0.500000 0.000000 0.500000
Si Si6 0.113292 0.731061 0.125180
O O1 0.500000 0.500000 0.500000
O O2 0.772818 0.644559 0.529835
O O3 0.000000 0.500000 0.500000
O O4 0.928106 0.695317 0.901020
O O5 0.525006 0.200615 0.185931
O O6 0.994596 0.129649 0.136030
O O7 0.605641 0.035207 0.747010
O O8 0.500000 0.000000 0.000000
O O9 0.423882 0.260547 0.555974
O O10 0.888796 0.681344 0.170522
O O11 0.500000 0.500000 0.000000
O O12 0.649398 0.340500 0.953935
O O13 0.734808 0.125208 0.647144
#
# Coordination Sequence:
#
# PCOD9070762 Si02
#       6
#     2   2   2   2   1   2
#     4  12  25  46  72 106 147 191 248 314 378 452
#     4  12  27  48  74 110 151 204 254 316 379 462
#     4  12  25  47  71 107 146 193 255 305 383 455
#     4  12  26  48  76 111 152 200 261 323 391 460
#     4  12  28  50  78 112 166 198 266 314 398 470
#     4  12  27  47  74 113 149 204 253 315 397 460
#
# _framework density 23.846806999999998
#
# number of rings (size 3 to 8) (size 9 to 14) (size 15 to 20)
#    0.000    0.000    1.818    8.727    2.545    2.909 
#    0.000    0.000    0.000    0.000    0.000    0.000 
#    0.000    0.000    0.000    0.000    0.000    0.000 
#
# Total GULP energy -61329.014096 kJ/mol
# GULP energy per Si atom -5575.364918 kJ/mol
# Density = 2.379253 g / cm^3
# Si number density = 23.846807 Si / 1000 Ang^3
#
#
#
# Elastic Constant Matrix: (Units=GPa)
#
#
# Indices 1 2 3 4 5 6 
#
# 1 127.5383 23.1771 26.4599 20.2462 25.7122 6.1237
# 2 23.1771 118.9671 26.3209 13.7607 11.2166 19.0203
# 3 26.4599 26.3209 149.8611 -10.0340 37.5870 16.8793
# 4 20.2462 13.7607 -10.0340 51.4501 5.5314 14.8831
# 5 25.7122 11.2166 37.5870 5.5314 33.1564 8.5079
# 6 6.1237 19.0203 16.8793 14.8831 8.5079 39.6704
#
#
#
# Elastic Compliance Matrix: (Units=1/GPa)
#
#
# Indices 1 2 3 4 5 6 
#
# 1 0.009963 -0.001131 -0.000264 -0.003475 -0.006955 0.001912
# 2 -0.001131 0.009591 -0.001226 -0.001387 0.000128 -0.003409
# 3 -0.000264 -0.001226 0.010374 0.004548 -0.011101 -0.003111
# 4 -0.003475 -0.001387 0.004548 0.025179 -0.003789 -0.009368
# 5 -0.006955 0.000128 -0.011101 -0.003789 0.049622 -0.003485
# 6 0.001912 -0.003409 -0.003111 -0.009368 -0.003485 0.032133
#
#
# Mechanical properties :
#
#
# Convention : Reuss Voigt Hill
#
# Bulk Modulus (GPa) = 40.50737 60.92022 50.71380
# Shear Modulus (GPa) = 33.25997 46.21595 39.73796
#
# Velocity S-wave (km/s) = 3.73867 4.40709 4.08657
# Velocity P-wave (km/s) = 5.97162 7.17625 6.60147
#
# Compressibility (1/GPa) = 0.02468687
#
# Stress axis : x y z
#
# Youngs Moduli (GPa) = 100.37077 104.26920 96.39395
#
# Poissons Ratio (x) = 0.11788 0.02546
# Poissons Ratio (y) = 0.11347 0.11816
# Poissons Ratio (z) = 0.02651 0.12781
#
# Static dielectric constant tensor:
#      x y z
#    x 1.879210 -0.013710 -0.064370 
#    y -0.013710 1.919570 0.026430 
#    z -0.064370 0.026430 1.944750 
# 
# From -- ./inp_files/137036.got.cif
#   From: 2010.05.17/outbox.cif.g08.bks.cpg/sg2_69_cif.got.tgz:137036.got - 2010.06.03 11:33:40.
