data_PCOD9070371
_publ_section_title
;
Structure prediction by ZEFSAII (Michael W. Deem and Ramdas Pophale) SiO2 
 PCOD9070371
Probable space group: P -1
;
_chemical_formula_sum "Si O2"
_cell_formula_units_Z 10
_cell_length_a 7.510354
_cell_length_b 6.476338
_cell_length_c 14.074652
_cell_angle_alpha 100.705694
_cell_angle_beta 41.906349
_cell_angle_gamma 120.120018
_cell_volume 374.049236
_symmetry_space_group_name_H-M "P -1"
_symmetry_group_IT_number 2
_symmetry_cell_setting 'triclinic'
loop_
_space_group_symop_operation_xyz
x,y,z
-x,-y,-z
loop_
_atom_site_type_symbol
_atom_site_label
_atom_site_fract_x
_atom_site_fract_y
_atom_site_fract_z
Si Si1 0.264678 0.664616 0.330604
Si Si2 0.847956 0.719382 0.346703
Si Si3 0.096359 0.693481 0.041721
Si Si4 0.745692 0.748466 0.812399
Si Si5 0.058020 0.870843 0.897532
O O1 0.379728 0.495415 0.223944
O O2 0.000000 0.500000 0.500000
O O3 0.942646 0.006313 0.336843
O O4 0.574718 0.925902 0.263548
O O5 0.500000 0.500000 0.500000
O O6 0.906601 0.676458 0.211647
O O7 0.092477 0.712094 0.319020
O O8 0.950277 0.373220 0.068150
O O9 0.466099 0.799050 0.927759
O O10 0.092242 0.943040 0.016620
O O11 0.848154 0.721226 0.873590
#
# Coordination Sequence:
#
# PCOD9070371 Si02
#       5
#     2   2   2   2   2
#     4  12  29  49  75 113 155 202 253 312 384 445
#     4  12  27  50  77 114 157 197 254 311 380 457
#     4  12  26  48  81 115 149 202 254 310 380 451
#     4  12  27  51  80 111 152 199 256 316 370 454
#     4  12  24  47  78 111 151 195 253 311 374 452
#
# _framework density 26.734445000000001
#
# number of rings (size 3 to 8) (size 9 to 14) (size 15 to 20)
#    0.000    0.000    4.000    5.400    2.800    8.000 
#    0.000    0.000    0.000    0.000    0.000    0.000 
#    0.000    0.000    0.000    0.000    0.000    0.000 
#
# Total GULP energy -56090.019509 kJ/mol
# GULP energy per Si atom -5609.001951 kJ/mol
# Density = 2.667360 g / cm^3
# Si number density = 26.734445 Si / 1000 Ang^3
#
#
#
# Elastic Constant Matrix: (Units=GPa)
#
#
# Indices 1 2 3 4 5 6 
#
# 1 232.0640 57.5406 83.0459 -20.8053 0.3309 -37.7896
# 2 57.5406 172.9346 35.3666 -29.4039 5.0678 -8.5634
# 3 83.0459 35.3666 159.4014 -47.8220 3.2231 -11.3648
# 4 -20.8053 -29.4039 -47.8220 58.4454 3.6712 -0.4254
# 5 0.3309 5.0678 3.2231 3.6712 57.6254 -8.8288
# 6 -37.7896 -8.5634 -11.3648 -0.4254 -8.8288 67.3599
#
#
#
# Elastic Compliance Matrix: (Units=1/GPa)
#
#
# Indices 1 2 3 4 5 6 
#
# 1 0.006109 -0.001482 -0.002978 -0.001035 0.000761 0.002830
# 2 -0.001482 0.006783 0.000215 0.003112 -0.000801 -0.000018
# 3 -0.002978 0.000215 0.009978 0.007277 -0.001031 -0.000049
# 4 -0.001035 0.003112 0.007277 0.024399 -0.002088 0.000923
# 5 0.000761 -0.000801 -0.001031 -0.002088 0.017993 0.002496
# 6 0.002830 -0.000018 -0.000049 0.000923 0.002496 0.016756
#
#
# Mechanical properties :
#
#
# Convention : Reuss Voigt Hill
#
# Bulk Modulus (GPa) = 69.53597 101.81178 85.67387
# Shear Modulus (GPa) = 52.46583 62.58260 57.52421
#
# Velocity S-wave (km/s) = 4.43480 4.84353 4.64366
# Velocity P-wave (km/s) = 7.23115 8.33337 7.80175
#
# Compressibility (1/GPa) = 0.01438105
#
# Stress axis : x y z
#
# Youngs Moduli (GPa) = 163.68553 147.42386 100.22373
#
# Poissons Ratio (x) = 0.21845 0.29848
# Poissons Ratio (y) = 0.24255 -0.02159
# Poissons Ratio (z) = 0.48748 -0.03176
#
# Static dielectric constant tensor:
#      x y z
#    x 2.021210 -0.038260 0.030480 
#    y -0.038260 2.159830 0.012260 
#    z 0.030480 0.012260 1.974970 
# 
# From -- ./inp_files/132737.got.cif
#   From: 2010.05.17/outbox.cif.g08.bks.cpg/sg2_67_cif.got.tgz:132737.got - 2010.06.03 11:33:40.
