data_PCOD9070941
_publ_section_title
;
Structure prediction by ZEFSAII (Michael W. Deem and Ramdas Pophale) SiO2 
 PCOD9070941
Probable space group: P -1
;
_chemical_formula_sum "Si O2"
_cell_formula_units_Z 16
_cell_length_a 12.014276
_cell_length_b 17.883206
_cell_length_c 8.475295
_cell_angle_alpha 131.026413
_cell_angle_beta 33.465211
_cell_angle_gamma 134.376532
_cell_volume 705.299214
_symmetry_space_group_name_H-M "P -1"
_symmetry_group_IT_number 2
_symmetry_cell_setting 'triclinic'
loop_
_space_group_symop_operation_xyz
x,y,z
-x,-y,-z
loop_
_atom_site_type_symbol
_atom_site_label
_atom_site_fract_x
_atom_site_fract_y
_atom_site_fract_z
Si Si1 0.588073 0.027612 0.111996
Si Si2 0.378151 0.474201 0.273541
Si Si3 0.179124 0.609132 0.880071
Si Si4 0.419637 0.667556 0.000825
Si Si5 0.802377 0.856674 0.694564
Si Si6 0.863935 0.063670 0.329946
Si Si7 0.028391 0.707389 0.639863
Si Si8 0.011043 0.755852 0.073493
O O1 0.387376 0.004724 0.437714
O O2 0.761868 0.146100 0.083013
O O3 0.500000 0.000000 0.000000
O O4 0.711535 0.948343 0.896440
O O5 0.328350 0.573835 0.535533
O O6 0.152326 0.375942 0.371415
O O7 0.500000 0.500000 0.000000
O O8 0.515745 0.433176 0.177066
O O9 0.316968 0.665351 0.946614
O O10 0.059652 0.677369 0.030147
O O11 0.000000 0.500000 0.000000
O O12 0.239788 0.675316 0.344284
O O13 0.636323 0.771281 0.888241
O O14 0.031305 0.902973 0.575411
O O15 0.839520 0.800178 0.414635
O O16 0.900227 0.172498 0.343879
O O17 0.000000 0.000000 0.000000
O O18 0.940145 0.703151 0.914935
#
# Coordination Sequence:
#
# PCOD9070941 Si02
#       8
#     2   2   2   2   2   2   2   2
#     4  12  26  47  74 106 147 189 240 296 357 427
#     4  12  28  46  74 106 143 191 243 303 364 422
#     4  12  26  49  75 104 142 193 243 295 363 427
#     4  12  25  48  77 101 145 190 244 298 359 434
#     4  12  25  48  73 107 142 193 240 289 365 431
#     4  12  27  46  75 106 146 193 240 294 359 435
#     4  12  27  49  69 108 150 185 241 301 360 433
#     4  12  28  45  75 109 149 189 240 304 360 431
#
# _framework density 22.685409
#
# number of rings (size 3 to 8) (size 9 to 14) (size 15 to 20)
#    0.000    0.000    5.000    4.500    7.000    3.000 
#    0.000    0.000    0.000    0.000    0.000    0.000 
#    0.000    0.000    0.000    0.000    0.000    0.000 
#
# Total GULP energy -89702.361337 kJ/mol
# GULP energy per Si atom -5606.397584 kJ/mol
# Density = 2.263378 g / cm^3
# Si number density = 22.685409 Si / 1000 Ang^3
#
#
#
# Elastic Constant Matrix: (Units=GPa)
#
#
# Indices 1 2 3 4 5 6 
#
# 1 67.5977 -8.1896 4.1270 8.1072 -0.1794 -10.0773
# 2 -8.1896 78.9911 21.4136 -0.6501 -17.3800 -18.6263
# 3 4.1270 21.4136 127.1121 -2.4398 4.2470 1.1056
# 4 8.1072 -0.6501 -2.4398 32.9013 3.7958 5.5856
# 5 -0.1794 -17.3800 4.2470 3.7958 38.8284 6.0622
# 6 -10.0773 -18.6263 1.1056 5.5856 6.0622 26.2919
#
#
#
# Elastic Compliance Matrix: (Units=1/GPa)
#
#
# Indices 1 2 3 4 5 6 
#
# 1 0.018163 0.005476 -0.001796 -0.006712 0.001515 0.011993
# 2 0.005476 0.019472 -0.003924 -0.004702 0.007227 0.015391
# 3 -0.001796 -0.003924 0.008733 0.001910 -0.002328 -0.003704
# 4 -0.006712 -0.004702 0.001910 0.034651 -0.003785 -0.012473
# 5 0.001515 0.007227 -0.002328 -0.003785 0.029658 -0.000236
# 6 0.011993 0.015391 -0.003704 -0.012473 -0.000236 0.056395
#
#
# Mechanical properties :
#
#
# Convention : Reuss Voigt Hill
#
# Bulk Modulus (GPa) = 21.79535 34.26700 28.03117
# Shear Modulus (GPa) = 27.34448 36.69430 32.01939
#
# Velocity S-wave (km/s) = 3.47562 4.02621 3.76101
# Velocity P-wave (km/s) = 5.07298 6.06234 5.58959
#
# Compressibility (1/GPa) = 0.04588136
#
# Stress axis : x y z
#
# Youngs Moduli (GPa) = 55.05574 51.35640 114.50767
#
# Poissons Ratio (x) = -0.28124 0.20566
# Poissons Ratio (y) = -0.30150 0.44929
# Poissons Ratio (z) = 0.09888 0.20150
#
# Static dielectric constant tensor:
#      x y z
#    x 1.850590 0.034840 0.010920 
#    y 0.034840 1.826650 -0.021070 
#    z 0.010920 -0.021070 1.838060 
# 
# From -- ./inp_files/107200.got.cif
#   From: 2010.05.17/outbox.cif.g08.bks.cpg/sg2_54_cif.got.tgz:107200.got - 2010.06.03 11:33:40.
