data_PCOD9070607
_publ_section_title
;
Structure prediction by ZEFSAII (Michael W. Deem and Ramdas Pophale) SiO2 
 PCOD9070607
Probable space group: P -1
;
_chemical_formula_sum "Si O2"
_cell_formula_units_Z 12
_cell_length_a 5.169968
_cell_length_b 13.163352
_cell_length_c 9.047748
_cell_angle_alpha 58.962454
_cell_angle_beta 70.179132
_cell_angle_gamma 65.176678
_cell_volume 472.846236
_symmetry_space_group_name_H-M "P -1"
_symmetry_group_IT_number 2
_symmetry_cell_setting 'triclinic'
loop_
_space_group_symop_operation_xyz
x,y,z
-x,-y,-z
loop_
_atom_site_type_symbol
_atom_site_label
_atom_site_fract_x
_atom_site_fract_y
_atom_site_fract_z
Si Si1 0.330211 0.968706 0.915579
Si Si2 0.378318 0.493189 0.863932
Si Si3 0.207155 0.779248 0.679035
Si Si4 0.795873 0.727847 0.018865
Si Si5 0.211990 0.160514 0.535340
Si Si6 0.943740 0.373080 0.655348
O O1 0.489697 0.824111 0.969317
O O2 0.335758 0.047572 0.709041
O O3 0.500000 0.000000 0.000000
O O4 0.000000 0.000000 0.000000
O O5 0.266138 0.635097 0.726406
O O6 0.633560 0.419966 0.757922
O O7 0.500000 0.500000 0.000000
O O8 0.176666 0.404233 0.961870
O O9 0.513196 0.803817 0.607461
O O10 0.032892 0.785077 0.860652
O O11 0.988135 0.862639 0.539086
O O12 0.842037 0.699924 0.202962
O O13 0.006931 0.275206 0.584006
O O14 0.000000 0.500000 0.500000
#
# Coordination Sequence:
#
# PCOD9070607 Si02
#       6
#     2   2   2   2   2   2
#     4  12  27  50  79 110 151 194 252 313 367 443
#     4  12  25  46  73 110 153 196 249 306 380 444
#     4  12  27  47  74 109 155 194 248 309 374 442
#     4  12  28  46  76 107 148 205 246 303 385 443
#     4  12  27  48  74 113 147 198 252 312 362 441
#     4  12  25  42  74 109 144 193 248 304 371 444
#
# _framework density 25.378229000000001
#
# number of rings (size 3 to 8) (size 9 to 14) (size 15 to 20)
#    0.000    0.000    5.000    4.500    2.333    2.667 
#    0.000    0.000    0.000    0.000    0.000    0.000 
#    0.000    0.000    0.000    0.000    0.000    0.000 
#
# Total GULP energy -67343.367355 kJ/mol
# GULP energy per Si atom -5611.947280 kJ/mol
# Density = 2.532047 g / cm^3
# Si number density = 25.378229 Si / 1000 Ang^3
#
#
#
# Elastic Constant Matrix: (Units=GPa)
#
#
# Indices 1 2 3 4 5 6 
#
# 1 113.2036 15.0944 37.3475 17.4764 9.2291 -9.3443
# 2 15.0944 104.3603 33.4667 -3.2399 3.4610 -19.4069
# 3 37.3475 33.4667 145.2249 -3.9918 14.9007 -8.1008
# 4 17.4764 -3.2399 -3.9918 42.6308 -10.8313 5.7277
# 5 9.2291 3.4610 14.9007 -10.8313 58.7012 6.5625
# 6 -9.3443 -19.4069 -8.1008 5.7277 6.5625 45.2939
#
#
#
# Elastic Compliance Matrix: (Units=1/GPa)
#
#
# Indices 1 2 3 4 5 6 
#
# 1 0.011028 -0.000379 -0.002503 -0.005776 -0.002450 0.002750
# 2 -0.000379 0.011170 -0.002176 0.000079 -0.000522 0.004384
# 3 -0.002503 -0.002176 0.008205 0.001285 -0.001330 0.000049
# 4 -0.005776 0.000079 0.001285 0.028310 0.006409 -0.005437
# 5 -0.002450 -0.000522 -0.001330 0.006409 0.019486 -0.004601
# 6 0.002750 0.004384 0.000049 -0.005437 -0.004601 0.025887
#
#
# Mechanical properties :
#
#
# Convention : Reuss Voigt Hill
#
# Bulk Modulus (GPa) = 49.29173 59.40068 54.34620
# Shear Modulus (GPa) = 41.33415 47.78385 44.55900
#
# Velocity S-wave (km/s) = 4.04012 4.34391 4.19477
# Velocity P-wave (km/s) = 6.42094 6.97254 6.70242
#
# Compressibility (1/GPa) = 0.02028738
#
# Stress axis : x y z
#
# Youngs Moduli (GPa) = 90.67536 89.52575 121.86955
#
# Poissons Ratio (x) = 0.03394 0.30502
# Poissons Ratio (y) = 0.03438 0.26523
# Poissons Ratio (z) = 0.22694 0.19484
#
# Static dielectric constant tensor:
#      x y z
#    x 2.031620 -0.017840 -0.014120 
#    y -0.017840 1.997950 0.047530 
#    z -0.014120 0.047530 1.998080 
# 
# From -- ./inp_files/20312.got.cif
#   From: 2010.05.17/outbox.cif.g08.bks.cpg/sg2_11_cif.got.tgz:20312.got - 2010.06.03 11:33:40.
