data_PCOD9070207
_publ_section_title
;
Structure prediction by ZEFSAII (Michael W. Deem and Ramdas Pophale) SiO2 
 PCOD9070207
Probable space group: P -1
;
_chemical_formula_sum "Si O2"
_cell_formula_units_Z 16
_cell_length_a 23.947811
_cell_length_b 8.430376
_cell_length_c 7.567725
_cell_angle_alpha 143.642273
_cell_angle_beta 45.704722
_cell_angle_gamma 136.438980
_cell_volume 599.029427
_symmetry_space_group_name_H-M "P -1"
_symmetry_group_IT_number 2
_symmetry_cell_setting 'triclinic'
loop_
_space_group_symop_operation_xyz
x,y,z
-x,-y,-z
loop_
_atom_site_type_symbol
_atom_site_label
_atom_site_fract_x
_atom_site_fract_y
_atom_site_fract_z
Si Si1 0.789841 0.257736 0.974816
Si Si2 0.962162 0.990267 0.804552
Si Si3 0.410733 0.691233 0.764021
Si Si4 0.108614 0.566536 0.739930
Si Si5 0.712306 0.310379 0.686699
Si Si6 0.138406 0.112153 0.715376
Si Si7 0.343146 0.202208 0.910326
Si Si8 0.489143 0.319255 0.099899
O O1 0.823163 0.125771 0.621470
O O2 0.857709 0.316201 0.036922
O O3 0.795148 0.579733 0.219763
O O4 0.705436 0.020067 0.028975
O O5 0.930870 0.773306 0.515246
O O6 0.891262 0.859935 0.997298
O O7 0.051346 0.021742 0.715683
O O8 0.956254 0.296912 0.059086
O O9 0.414368 0.426979 0.407062
O O10 0.463599 0.689457 0.824526
O O11 0.324241 0.685006 0.034320
O O12 0.454565 0.986495 0.823102
O O13 0.194599 0.679283 0.536635
O O14 0.655059 0.010449 0.445651
O O15 0.706641 0.592169 0.853132
O O16 0.436752 0.432964 0.946549
#
# Coordination Sequence:
#
# PCOD9070207 Si02
#       8
#     2   2   2   2   2   2   2   2
#     4  11  22  37  58  84 112 143 180 223 274 327
#     4  11  24  41  59  80 109 143 180 226 275 324
#     4   9  15  23  38  62  96 139 175 203 250 314
#     4  11  22  37  58  84 112 143 180 223 274 327
#     4  10  18  29  45  70 106 140 172 216 266 311
#     4  11  24  41  59  80 109 143 180 226 275 324
#     4  10  18  29  45  70 106 140 172 216 266 311
#     4   9  15  23  38  62  96 139 175 203 250 314
#
# _framework density 26.709873000000002
#
# number of rings (size 3 to 8) (size 9 to 14) (size 15 to 20)
#    0.000    1.750    0.000    9.000    0.000    5.000 
#    0.000    0.000    0.000    0.000    0.000    0.000 
#    0.000   20.000    0.000    0.000    0.000    0.000 
#
# Total GULP energy -89697.765591 kJ/mol
# GULP energy per Si atom -5606.110349 kJ/mol
# Density = 2.664908 g / cm^3
# Si number density = 26.709873 Si / 1000 Ang^3
#
#
#
# Elastic Constant Matrix: (Units=GPa)
#
#
# Indices 1 2 3 4 5 6 
#
# 1 69.2450 9.7396 22.9282 0.4306 5.2893 15.1392
# 2 9.7396 155.3528 26.3186 7.4625 8.5064 8.6417
# 3 22.9282 26.3186 142.6964 0.8201 -8.7672 6.0422
# 4 0.4306 7.4625 0.8201 53.1022 4.4350 -3.7998
# 5 5.2893 8.5064 -8.7672 4.4350 26.9628 -4.8498
# 6 15.1392 8.6417 6.0422 -3.7998 -4.8498 26.0262
#
#
#
# Elastic Compliance Matrix: (Units=1/GPa)
#
#
# Indices 1 2 3 4 5 6 
#
# 1 0.018375 0.000367 -0.002943 -0.000416 -0.006665 -0.011430
# 2 0.000367 0.007033 -0.001419 -0.000918 -0.003129 -0.002937
# 3 -0.002943 -0.001419 0.007934 -0.000144 0.003814 0.001031
# 4 -0.000416 -0.000918 -0.000144 0.019373 -0.002327 0.002975
# 5 -0.006665 -0.003129 0.003814 -0.002327 0.043115 0.011725
# 6 -0.011430 -0.002937 0.001031 0.002975 0.011725 0.048427
#
#
# Mechanical properties :
#
#
# Convention : Reuss Voigt Hill
#
# Bulk Modulus (GPa) = 39.44370 53.91855 46.68112
# Shear Modulus (GPa) = 31.11437 41.77210 36.44324
#
# Velocity S-wave (km/s) = 3.41677 3.95893 3.69780
# Velocity P-wave (km/s) = 5.51047 6.41312 5.97885
#
# Compressibility (1/GPa) = 0.02535259
#
# Stress axis : x y z
#
# Youngs Moduli (GPa) = 54.42152 142.18434 126.03964
#
# Poissons Ratio (x) = -0.05224 0.37098
# Poissons Ratio (y) = -0.01999 0.17883
# Poissons Ratio (z) = 0.16018 0.20174
#
# Static dielectric constant tensor:
#      x y z
#    x 2.125360 -0.012810 -0.002690 
#    y -0.012810 2.122780 -0.055080 
#    z -0.002690 -0.055080 1.950670 
# 
# From -- ./inp_files/358473.got.cif
#   From: 2010.05.17/outbox.cif.g08.bks.cpg/sg2_180_cif.got.tgz:358473.got - 2010.06.03 11:33:40.
