data_PCOD9070733
_publ_section_title
;
Structure prediction by ZEFSAII (Michael W. Deem and Ramdas Pophale) SiO2 
 PCOD9070733
Probable space group: P -1
;
_chemical_formula_sum "Si O2"
_cell_formula_units_Z 16
_cell_length_a 12.359717
_cell_length_b 16.829449
_cell_length_c 9.277329
_cell_angle_alpha 57.684626
_cell_angle_beta 51.631165
_cell_angle_gamma 26.498397
_cell_volume 673.843094
_symmetry_space_group_name_H-M "P -1"
_symmetry_group_IT_number 2
_symmetry_cell_setting 'triclinic'
loop_
_space_group_symop_operation_xyz
x,y,z
-x,-y,-z
loop_
_atom_site_type_symbol
_atom_site_label
_atom_site_fract_x
_atom_site_fract_y
_atom_site_fract_z
Si Si1 0.026665 0.638249 0.063880
Si Si2 0.260764 0.376741 0.595646
Si Si3 0.099635 0.285653 0.237135
Si Si4 0.716765 0.149672 0.661218
Si Si5 0.589347 0.370893 0.942880
Si Si6 0.314666 0.985737 0.932506
Si Si7 0.893316 0.215297 0.581271
Si Si8 0.680461 0.135689 0.243636
O O1 0.976110 0.643960 0.931807
O O2 0.335877 0.464579 0.999914
O O3 0.886895 0.637056 0.269889
O O4 0.901146 0.809955 0.051662
O O5 0.058603 0.567727 0.649077
O O6 0.497612 0.239393 0.648733
O O7 0.405778 0.308545 0.389410
O O8 0.030253 0.216113 0.377198
O O9 0.404860 0.129163 0.156786
O O10 0.672830 0.282739 0.616106
O O11 0.724721 0.076844 0.862135
O O12 0.000000 0.000000 0.500000
O O13 0.744423 0.337461 0.725814
O O14 0.500000 0.500000 0.000000
O O15 0.750785 0.195907 0.059037
O O16 0.327063 0.936244 0.809036
O O17 0.110599 0.021174 0.660256
#
# Coordination Sequence:
#
# PCOD9070733 Si02
#       8
#     2   2   2   2   2   2   2   2
#     4  12  27  48  77 107 148 200 255 311 368 443
#     4  12  27  47  76 110 153 196 251 308 377 439
#     4  12  27  48  78 111 150 195 254 313 370 442
#     4  12  25  45  76 109 144 194 248 307 365 438
#     4  12  27  45  72 109 151 196 245 303 377 443
#     4  12  27  47  78 106 150 200 248 303 376 446
#     4  12  26  45  74 109 150 194 248 306 372 441
#     4  12  27  48  73 109 154 197 246 305 375 448
#
# _framework density 23.744402000000001
#
# number of rings (size 3 to 8) (size 9 to 14) (size 15 to 20)
#    0.000    0.000    3.750    5.625    1.750    9.000 
#    0.000    0.000    0.000    0.000    0.000    0.000 
#    0.000    0.000    0.000    0.000    0.000    0.000 
#
# Total GULP energy -89628.257425 kJ/mol
# GULP energy per Si atom -5601.766089 kJ/mol
# Density = 2.369036 g / cm^3
# Si number density = 23.744402 Si / 1000 Ang^3
#
#
#
# Elastic Constant Matrix: (Units=GPa)
#
#
# Indices 1 2 3 4 5 6 
#
# 1 88.1048 8.4110 16.5559 -3.5824 -0.1273 4.1715
# 2 8.4110 66.9592 4.0211 16.2698 2.6004 -0.8622
# 3 16.5559 4.0211 109.2103 17.6851 -6.6303 -1.1544
# 4 -3.5824 16.2698 17.6851 34.1392 7.8623 2.2246
# 5 -0.1273 2.6004 -6.6303 7.8623 50.7846 8.2887
# 6 4.1715 -0.8622 -1.1544 2.2246 8.2887 47.2676
#
#
#
# Elastic Compliance Matrix: (Units=1/GPa)
#
#
# Indices 1 2 3 4 5 6 
#
# 1 0.012249 -0.002327 -0.002446 0.003874 -0.000562 -0.001267
# 2 -0.002327 0.017424 0.001278 -0.009402 0.000578 0.000896
# 3 -0.002446 0.001278 0.010763 -0.007010 0.002350 0.000420
# 4 0.003874 -0.009402 -0.007010 0.039350 -0.006282 -0.001435
# 5 -0.000562 0.000578 0.002350 -0.006282 0.021487 -0.003355
# 6 -0.001267 0.000896 0.000420 -0.001435 -0.003355 0.021950
#
#
# Mechanical properties :
#
#
# Convention : Reuss Voigt Hill
#
# Bulk Modulus (GPa) = 29.90010 35.80557 32.85283
# Shear Modulus (GPa) = 35.37050 42.12404 38.74727
#
# Velocity S-wave (km/s) = 3.86377 4.21653 4.04400
# Velocity P-wave (km/s) = 5.70305 6.23040 5.97254
#
# Compressibility (1/GPa) = 0.03344471
#
# Stress axis : x y z
#
# Youngs Moduli (GPa) = 81.64202 57.39366 92.91385
#
# Poissons Ratio (x) = 0.13358 0.22726
# Poissons Ratio (y) = 0.19001 -0.11877
# Poissons Ratio (z) = 0.19969 -0.07337
#
# Static dielectric constant tensor:
#      x y z
#    x 1.949450 0.031940 0.058370 
#    y 0.031940 1.944280 0.042570 
#    z 0.058370 0.042570 1.869200 
# 
# From -- ./inp_files/279189.got.cif
#   From: 2010.05.17/outbox.cif.g08.bks.cpg/sg2_140_cif.got.tgz:279189.got - 2010.06.03 11:33:40.
