data_PCOD9070907
_publ_section_title
;
Structure prediction by ZEFSAII (Michael W. Deem and Ramdas Pophale) SiO2 
 PCOD9070907
Probable space group: P -1
;
_chemical_formula_sum "Si O2"
_cell_formula_units_Z 16
_cell_length_a 14.949969
_cell_length_b 8.470516
_cell_length_c 8.972400
_cell_angle_alpha 84.505560
_cell_angle_beta 139.712266
_cell_angle_gamma 106.795177
_cell_volume 688.954045
_symmetry_space_group_name_H-M "P -1"
_symmetry_group_IT_number 2
_symmetry_cell_setting 'triclinic'
loop_
_space_group_symop_operation_xyz
x,y,z
-x,-y,-z
loop_
_atom_site_type_symbol
_atom_site_label
_atom_site_fract_x
_atom_site_fract_y
_atom_site_fract_z
Si Si1 0.847302 0.863231 0.873447
Si Si2 0.093773 0.145722 0.497897
Si Si3 0.384753 0.721912 0.647291
Si Si4 0.310141 0.286209 0.016909
Si Si5 0.314945 0.053917 0.578581
Si Si6 0.390861 0.652662 0.987614
Si Si7 0.845153 0.500855 0.858937
Si Si8 0.902148 0.375058 0.258941
O O1 0.807787 0.814116 0.999926
O O2 0.716969 0.918258 0.636324
O O3 0.834962 0.683878 0.804765
O O4 0.000000 0.000000 0.000000
O O5 0.172266 0.068358 0.480819
O O6 0.989821 0.255895 0.320143
O O7 0.225646 0.258180 0.757004
O O8 0.000000 0.000000 0.500000
O O9 0.553461 0.780764 0.805799
O O10 0.375267 0.611262 0.794876
O O11 0.282050 0.628202 0.389152
O O12 0.336746 0.875656 0.629616
O O13 0.380947 0.490131 0.091271
O O14 0.457322 0.199360 0.805259
O O15 0.254803 0.713633 0.855419
O O16 0.858754 0.465937 0.054344
O O17 0.000000 0.500000 0.000000
O O18 0.000000 0.500000 0.500000
#
# Coordination Sequence:
#
# PCOD9070907 Si02
#       8
#     2   2   2   2   2   2   2   2
#     4  12  27  51  74 112 155 197 257 327 393 462
#     4  12  26  47  76 111 152 206 260 318 384 454
#     4  12  28  48  77 113 157 202 260 314 387 461
#     4  12  27  48  77 111 152 202 257 319 391 463
#     4  12  28  48  76 111 158 208 257 318 384 461
#     4  12  25  49  78 111 156 199 260 321 383 462
#     4  12  26  47  79 111 152 202 254 318 392 458
#     4  12  25  47  79 115 150 200 258 317 388 467
#
# _framework density 23.223609
#
# number of rings (size 3 to 8) (size 9 to 14) (size 15 to 20)
#    0.000    0.000    3.750    5.250    5.250    2.500 
#    0.000    0.000    0.000    0.000    0.000    0.000 
#    0.000    0.000    0.000    0.000    0.000    0.000 
#
# Total GULP energy -89476.393822 kJ/mol
# GULP energy per Si atom -5592.274614 kJ/mol
# Density = 2.317075 g / cm^3
# Si number density = 23.223609 Si / 1000 Ang^3
#
#
#
# Elastic Constant Matrix: (Units=GPa)
#
#
# Indices 1 2 3 4 5 6 
#
# 1 143.8651 47.9570 40.1705 -1.0219 13.0809 -0.2892
# 2 47.9570 129.8745 32.9919 -8.2399 3.3629 9.7323
# 3 40.1705 32.9919 123.0333 0.0472 3.6485 19.7389
# 4 -1.0219 -8.2399 0.0472 35.8196 -0.5710 5.1540
# 5 13.0809 3.3629 3.6485 -0.5710 44.6977 -13.5176
# 6 -0.2892 9.7323 19.7389 5.1540 -13.5176 33.1576
#
#
#
# Elastic Compliance Matrix: (Units=1/GPa)
#
#
# Indices 1 2 3 4 5 6 
#
# 1 0.008656 -0.002734 -0.002316 -0.000648 -0.001636 0.001690
# 2 -0.002734 0.009381 -0.001172 0.002461 -0.000597 -0.002705
# 3 -0.002316 -0.001172 0.010352 0.000595 -0.002128 -0.006798
# 4 -0.000648 0.002461 0.000595 0.029344 -0.001569 -0.006283
# 5 -0.001636 -0.000597 -0.002128 -0.001569 0.026868 0.012625
# 6 0.001690 -0.002705 -0.006798 -0.006283 0.012625 0.041139
#
#
# Mechanical properties :
#
#
# Convention : Reuss Voigt Hill
#
# Bulk Modulus (GPa) = 62.71042 71.00132 66.85587
# Shear Modulus (GPa) = 34.84365 41.11186 37.97775
#
# Velocity S-wave (km/s) = 3.87764 4.21201 4.04828
# Velocity P-wave (km/s) = 6.86365 7.36845 7.12052
#
# Compressibility (1/GPa) = 0.01594631
#
# Stress axis : x y z
#
# Youngs Moduli (GPa) = 115.52280 106.59522 96.60054
#
# Poissons Ratio (x) = 0.29139 0.22370
# Poissons Ratio (y) = 0.31579 0.11325
# Poissons Ratio (z) = 0.26752 0.12496
#
# Static dielectric constant tensor:
#      x y z
#    x 1.949420 0.015750 -0.074140 
#    y 0.015750 1.755020 0.023170 
#    z -0.074140 0.023170 1.900850 
# 
# From -- ./inp_files/298628.got.cif
#   From: 2010.05.17/outbox.cif.g08.bks.cpg/sg2_150_cif.got.tgz:298628.got - 2010.06.03 11:33:40.
