data_PCOD9070139
_publ_section_title
;
Structure prediction by ZEFSAII (Michael W. Deem and Ramdas Pophale) SiO2 
 PCOD9070139
Probable space group: P -1
;
_chemical_formula_sum "Si O2"
_cell_formula_units_Z 14
_cell_length_a 12.931722
_cell_length_b 6.451831
_cell_length_c 10.645877
_cell_angle_alpha 107.206217
_cell_angle_beta 106.792021
_cell_angle_gamma 41.267768
_cell_volume 556.501368
_symmetry_space_group_name_H-M "P -1"
_symmetry_group_IT_number 2
_symmetry_cell_setting 'triclinic'
loop_
_space_group_symop_operation_xyz
x,y,z
-x,-y,-z
loop_
_atom_site_type_symbol
_atom_site_label
_atom_site_fract_x
_atom_site_fract_y
_atom_site_fract_z
Si Si1 0.636824 0.068405 0.733767
Si Si2 0.651861 0.535499 0.462665
Si Si3 0.934059 0.449998 0.854989
Si Si4 0.230424 0.046651 0.745357
Si Si5 0.922995 0.404819 0.387940
Si Si6 0.768741 0.296287 0.731760
Si Si7 0.458213 0.820132 0.009756
O O1 0.526234 0.163848 0.596036
O O2 0.658648 0.295680 0.769464
O O3 0.553969 0.100798 0.833689
O O4 0.817169 0.738696 0.767752
O O5 0.793963 0.469059 0.439461
O O6 0.672689 0.516858 0.615897
O O7 0.688443 0.235540 0.374020
O O8 0.834011 0.393120 0.858489
O O9 0.074483 0.160577 0.765828
O O10 0.000000 0.500000 0.000000
O O11 0.175533 0.349416 0.716947
O O12 0.324853 0.958112 0.887188
O O13 0.000000 0.500000 0.500000
O O14 0.075357 0.047816 0.331564
O O15 0.500000 0.500000 0.000000
O O16 0.500000 0.000000 0.000000
#
# Coordination Sequence:
#
# PCOD9070139 Si02
#       7
#     2   2   2   2   2   2   2
#     4  12  28  48  75 115 154 205 256 335 410 470
#     4  12  26  48  77 113 153 204 265 327 398 482
#     4  12  27  48  72 109 155 207 261 325 404 473
#     4  12  24  46  79 109 150 207 267 321 398 478
#     4  12  24  45  78 112 151 206 260 320 398 484
#     4  12  27  47  77 112 159 199 266 328 400 483
#     4  12  28  50  78 116 160 210 272 333 402 484
#
# _framework density 25.157171000000002
#
# number of rings (size 3 to 8) (size 9 to 14) (size 15 to 20)
#    0.000    0.000    7.143    2.571    2.000    2.286 
#    0.000    0.000    0.000    0.000    0.000    0.000 
#    0.000    0.000    0.000    0.000    0.000    0.000 
#
# Total GULP energy -78095.355501 kJ/mol
# GULP energy per Si atom -5578.239679 kJ/mol
# Density = 2.509991 g / cm^3
# Si number density = 25.157171 Si / 1000 Ang^3
#
#
#
# Elastic Constant Matrix: (Units=GPa)
#
#
# Indices 1 2 3 4 5 6 
#
# 1 169.4328 34.1895 44.1956 -17.5945 3.1892 35.4883
# 2 34.1895 112.7272 60.1254 -26.9794 20.1751 2.7837
# 3 44.1956 60.1254 150.3271 -32.8813 17.6435 10.2362
# 4 -17.5945 -26.9794 -32.8813 53.4399 3.0509 -0.3243
# 5 3.1892 20.1751 17.6435 3.0509 47.8560 -2.4125
# 6 35.4883 2.7837 10.2362 -0.3243 -2.4125 34.6060
#
#
#
# Elastic Compliance Matrix: (Units=1/GPa)
#
#
# Indices 1 2 3 4 5 6 
#
# 1 0.008288 -0.001446 -0.001010 0.001332 -0.000063 -0.008077
# 2 -0.001446 0.012849 -0.003377 0.004185 -0.004282 0.001189
# 3 -0.001010 -0.003377 0.009558 0.003969 -0.002369 -0.001648
# 4 0.001332 0.004185 0.003969 0.023973 -0.004996 -0.003000
# 5 -0.000063 -0.004282 -0.002369 -0.004996 0.024036 0.002738
# 6 -0.008077 0.001189 -0.001648 -0.003000 0.002738 0.037734
#
#
# Mechanical properties :
#
#
# Convention : Reuss Voigt Hill
#
# Bulk Modulus (GPa) = 52.54732 78.83424 65.69078
# Shear Modulus (GPa) = 37.18928 46.77881 41.98405
#
# Velocity S-wave (km/s) = 3.84901 4.31683 4.08961
# Velocity P-wave (km/s) = 6.37857 7.50009 6.96195
#
# Compressibility (1/GPa) = 0.01903047
#
# Stress axis : x y z
#
# Youngs Moduli (GPa) = 120.65103 77.82443 104.62250
#
# Poissons Ratio (x) = 0.11251 0.10565
# Poissons Ratio (y) = 0.17443 0.35333
# Poissons Ratio (z) = 0.12183 0.26283
#
# Static dielectric constant tensor:
#      x y z
#    x 2.286070 -0.004880 0.101440 
#    y -0.004880 2.166570 0.071240 
#    z 0.101440 0.071240 1.959010 
# 
# From -- ./inp_files/71542.got.cif
#   From: 2010.05.17/outbox.cif.g08.bks.cpg/sg2_36_cif.got.tgz:71542.got - 2010.06.03 11:33:40.
