data_PCOD9070545
_publ_section_title
;
Structure prediction by ZEFSAII (Michael W. Deem and Ramdas Pophale) SiO2 
 PCOD9070545
Probable space group: P -1
;
_chemical_formula_sum "Si O2"
_cell_formula_units_Z 12
_cell_length_a 9.773134
_cell_length_b 15.216358
_cell_length_c 15.415314
_cell_angle_alpha 151.302521
_cell_angle_beta 140.830223
_cell_angle_gamma 27.564195
_cell_volume 509.355182
_symmetry_space_group_name_H-M "P -1"
_symmetry_group_IT_number 2
_symmetry_cell_setting 'triclinic'
loop_
_space_group_symop_operation_xyz
x,y,z
-x,-y,-z
loop_
_atom_site_type_symbol
_atom_site_label
_atom_site_fract_x
_atom_site_fract_y
_atom_site_fract_z
Si Si1 0.779178 0.159824 0.703211
Si Si2 0.889662 0.383233 0.613092
Si Si3 0.235184 0.998039 0.073248
Si Si4 0.096652 0.446356 0.603488
Si Si5 0.804422 0.570085 0.048530
Si Si6 0.648232 0.111182 0.149237
O O1 0.447137 0.271779 0.640361
O O2 0.738203 0.391960 0.852395
O O3 0.977543 0.885369 0.518458
O O4 0.004134 0.072946 0.818356
O O5 0.547773 0.632665 0.672906
O O6 0.988432 0.349364 0.531546
O O7 0.040084 0.455761 0.809034
O O8 0.505308 0.861304 0.152772
O O9 0.380799 0.829380 0.913993
O O10 0.079462 0.273619 0.208363
O O11 0.000000 0.000000 0.000000
O O12 0.000000 0.500000 0.500000
O O13 0.000000 0.500000 0.000000
O O14 0.500000 0.000000 0.000000
#
# Coordination Sequence:
#
# PCOD9070545 Si02
#       6
#     2   2   2   2   2   2
#     4  12  27  47  77 108 149 200 241 308 380 433
#     4  12  27  49  77 109 154 191 254 310 366 454
#     4  12  25  44  76 106 148 195 248 305 371 442
#     4  12  28  50  73 110 151 194 254 311 370 448
#     4  12  25  48  74 112 149 194 249 300 373 448
#     4  12  24  50  74 110 148 199 248 304 377 440
#
# _framework density 23.559197000000001
#
# number of rings (size 3 to 8) (size 9 to 14) (size 15 to 20)
#    0.000    0.000    6.667    2.000    4.667    2.000 
#    3.000    0.000    0.000    0.000    0.000    0.000 
#    0.000    0.000    0.000    0.000    0.000    0.000 
#
# Total GULP energy -66962.160869 kJ/mol
# GULP energy per Si atom -5580.180072 kJ/mol
# Density = 2.350558 g / cm^3
# Si number density = 23.559197 Si / 1000 Ang^3
#
#
#
# Elastic Constant Matrix: (Units=GPa)
#
#
# Indices 1 2 3 4 5 6 
#
# 1 90.9540 3.8063 17.2839 -8.9304 -13.1192 8.3868
# 2 3.8063 171.4772 6.0589 4.0787 -7.9499 -3.4815
# 3 17.2839 6.0589 106.5181 15.4692 5.4271 7.4640
# 4 -8.9304 4.0787 15.4692 48.1161 14.9055 -3.7407
# 5 -13.1192 -7.9499 5.4271 14.9055 26.9834 4.3024
# 6 8.3868 -3.4815 7.4640 -3.7407 4.3024 19.5629
#
#
#
# Elastic Compliance Matrix: (Units=1/GPa)
#
#
# Indices 1 2 3 4 5 6 
#
# 1 0.013126 0.000004 -0.002101 0.000216 0.007720 -0.006482
# 2 0.000004 0.005989 -0.000335 -0.001096 0.002365 0.000462
# 3 -0.002101 -0.000335 0.010612 -0.003927 -0.000470 -0.003856
# 4 0.000216 -0.001096 -0.003927 0.028114 -0.016590 0.010235
# 5 0.007720 0.002365 -0.000470 -0.016590 0.053585 -0.017666
# 6 -0.006482 0.000462 -0.003856 0.010235 -0.017666 0.061291
#
#
# Mechanical properties :
#
#
# Convention : Reuss Voigt Hill
#
# Bulk Modulus (GPa) = 40.21907 47.02748 43.62327
# Shear Modulus (GPa) = 26.90076 41.71916 34.30996
#
# Velocity S-wave (km/s) = 3.38277 4.21268 3.82033
# Velocity P-wave (km/s) = 5.68912 6.60810 6.16575
#
# Compressibility (1/GPa) = 0.02486383
#
# Stress axis : x y z
#
# Youngs Moduli (GPa) = 76.18528 166.98545 94.22873
#
# Poissons Ratio (x) = -0.00067 0.19793
# Poissons Ratio (y) = -0.00031 0.03157
# Poissons Ratio (z) = 0.16003 0.05594
#
# Static dielectric constant tensor:
#      x y z
#    x 1.894990 -0.001390 0.006170 
#    y -0.001390 2.026770 0.021820 
#    z 0.006170 0.021820 1.940870 
# 
# From -- ./inp_files/354486.got.cif
#   From: 2010.05.17/outbox.cif.g08.bks.cpg/sg2_178_cif.got.tgz:354486.got - 2010.06.03 11:33:40.
