data_PCOD9070100
_publ_section_title
;
Structure prediction by ZEFSAII (Michael W. Deem and Ramdas Pophale) SiO2 
 PCOD9070100
Probable space group: P -1
;
_chemical_formula_sum "Si O2"
_cell_formula_units_Z 12
_cell_length_a 9.887089
_cell_length_b 13.379210
_cell_length_c 10.096166
_cell_angle_alpha 112.742344
_cell_angle_beta 151.233425
_cell_angle_gamma 55.312280
_cell_volume 506.762666
_symmetry_space_group_name_H-M "P -1"
_symmetry_group_IT_number 2
_symmetry_cell_setting 'triclinic'
loop_
_space_group_symop_operation_xyz
x,y,z
-x,-y,-z
loop_
_atom_site_type_symbol
_atom_site_label
_atom_site_fract_x
_atom_site_fract_y
_atom_site_fract_z
Si Si1 0.845419 0.181907 0.283868
Si Si2 0.929793 0.560023 0.826299
Si Si3 0.310498 0.429129 0.829938
Si Si4 0.760325 0.037530 0.691706
Si Si5 0.707231 0.847680 0.113833
Si Si6 0.799204 0.276214 0.770093
O O1 0.063707 0.048093 0.329708
O O2 0.097617 0.198508 0.601442
O O3 0.613794 0.283027 0.024326
O O4 0.579956 0.183173 0.155360
O O5 0.555743 0.603350 0.499773
O O6 0.154979 0.461050 0.858364
O O7 0.000000 0.500000 0.000000
O O8 0.008433 0.673942 0.950110
O O9 0.000000 0.500000 0.500000
O O10 0.500000 0.500000 0.000000
O O11 0.500000 0.000000 0.500000
O O12 0.697395 0.176795 0.681061
O O13 0.000000 0.000000 0.000000
O O14 0.969679 0.784503 0.190261
O O15 0.500000 0.000000 0.000000
#
# Coordination Sequence:
#
# PCOD9070100 Si02
#       6
#     2   2   2   2   2   2
#     4  12  27  48  73 105 147 189 243 308 366 443
#     4  12  27  49  76 108 151 195 250 309 371 442
#     4  12  28  49  75 106 146 200 250 302 369 444
#     4  12  28  45  72 106 148 194 242 299 370 441
#     4  12  24  45  74 110 143 182 241 300 378 436
#     4  12  26  45  78 107 144 189 244 307 369 444
#
# _framework density 23.679722999999999
#
# number of rings (size 3 to 8) (size 9 to 14) (size 15 to 20)
#    0.000    0.000    1.667    8.000    9.333    0.000 
#    0.000    0.000    0.000    0.000    0.000    0.000 
#    0.000    0.000    0.000    0.000    0.000    0.000 
#
# Total GULP energy -67064.297392 kJ/mol
# GULP energy per Si atom -5588.691449 kJ/mol
# Density = 2.362583 g / cm^3
# Si number density = 23.679723 Si / 1000 Ang^3
#
#
#
# Elastic Constant Matrix: (Units=GPa)
#
#
# Indices 1 2 3 4 5 6 
#
# 1 97.6110 0.1817 13.5937 4.6275 17.5417 0.3952
# 2 0.1817 74.2779 4.2350 3.3098 9.7177 8.4409
# 3 13.5937 4.2350 141.9579 15.4806 18.6450 2.6930
# 4 4.6275 3.3098 15.4806 40.1958 7.2768 2.4346
# 5 17.5417 9.7177 18.6450 7.2768 47.2357 9.3679
# 6 0.3952 8.4409 2.6930 2.4346 9.3679 44.6754
#
#
#
# Elastic Compliance Matrix: (Units=1/GPa)
#
#
# Indices 1 2 3 4 5 6 
#
# 1 0.011065 0.000473 -0.000505 -0.000423 -0.004086 0.000723
# 2 0.000473 0.014062 -0.000023 -0.000615 -0.002550 -0.002091
# 3 -0.000505 -0.000023 0.007687 -0.002459 -0.002504 0.000204
# 4 -0.000423 -0.000615 -0.002459 0.026450 -0.002700 -0.000607
# 5 -0.004086 -0.002550 -0.002504 -0.002700 0.025516 -0.004534
# 6 0.000723 -0.002091 0.000204 -0.000607 -0.004534 0.023744
#
#
# Mechanical properties :
#
#
# Convention : Reuss Voigt Hill
#
# Bulk Modulus (GPa) = 30.57739 38.87417 34.72578
# Shear Modulus (GPa) = 41.82875 46.14381 43.98628
#
# Velocity S-wave (km/s) = 4.20746 4.41916 4.31461
# Velocity P-wave (km/s) = 6.04521 6.51850 6.28631
#
# Compressibility (1/GPa) = 0.03270390
#
# Stress axis : x y z
#
# Youngs Moduli (GPa) = 90.37099 71.11468 130.09812
#
# Poissons Ratio (x) = -0.03363 0.06567
# Poissons Ratio (y) = -0.04274 0.00301
# Poissons Ratio (z) = 0.04561 0.00164
#
# Static dielectric constant tensor:
#      x y z
#    x 1.831060 -0.024140 -0.002400 
#    y -0.024140 2.299130 -0.132440 
#    z -0.002400 -0.132440 1.939610 
# 
# From -- ./inp_files/180957.got.cif
#   From: 2010.05.17/outbox.cif.g08.bks.cpg/sg2_91_cif.got.tgz:180957.got - 2010.06.03 11:33:40.
