data_PCOD9070311
_publ_section_title
;
Structure prediction by ZEFSAII (Michael W. Deem and Ramdas Pophale) SiO2 
 PCOD9070311
Probable space group: P -1
;
_chemical_formula_sum "Si O2"
_cell_formula_units_Z 13
_cell_length_a 13.015553
_cell_length_b 9.835295
_cell_length_c 12.048151
_cell_angle_alpha 58.146436
_cell_angle_beta 35.206889
_cell_angle_gamma 39.361628
_cell_volume 540.650751
_symmetry_space_group_name_H-M "P -1"
_symmetry_group_IT_number 2
_symmetry_cell_setting 'triclinic'
loop_
_space_group_symop_operation_xyz
x,y,z
-x,-y,-z
loop_
_atom_site_type_symbol
_atom_site_label
_atom_site_fract_x
_atom_site_fract_y
_atom_site_fract_z
Si Si1 0.984639 0.370079 0.659518
Si Si2 0.801427 0.049893 0.069245
Si Si3 0.500000 0.500000 0.000000
Si Si4 0.339661 0.332634 0.500894
Si Si5 0.861479 0.226974 0.458531
Si Si6 0.394025 0.876346 0.413490
Si Si7 0.857087 0.748423 0.981644
O O1 0.697620 0.511046 0.863605
O O2 0.000000 0.500000 0.500000
O O3 0.111270 0.361245 0.661794
O O4 0.151565 0.121192 0.568328
O O5 0.566434 0.134187 0.310046
O O6 0.915361 0.838902 0.987300
O O7 0.683691 0.249280 0.002296
O O8 0.000000 0.000000 0.000000
O O9 0.278162 0.558171 0.430718
O O10 0.436546 0.269268 0.567136
O O11 0.681398 0.239717 0.531262
O O12 0.000000 0.000000 0.500000
O O13 0.045060 0.227310 0.226496
O O14 0.564987 0.883890 0.182867
O O15 0.000000 0.500000 0.000000
#
# Coordination Sequence:
#
# PCOD9070311 Si02
#       7
#     2   2   1   2   2   2   2
#     4  12  24  47  73 114 154 199 264 329 395 468
#     4  12  28  47  79 120 154 208 271 328 401 479
#     4  12  26  46  80 110 162 202 266 334 400 470
#     4  12  25  48  78 114 155 209 259 333 392 477
#     4  12  29  50  76 114 161 207 261 327 402 475
#     4  12  26  49  79 110 162 205 265 325 400 482
#     4  12  27  50  76 115 158 213 263 323 400 487
#
# _framework density 24.045097999999999
#
# number of rings (size 3 to 8) (size 9 to 14) (size 15 to 20)
#    0.000    0.000    4.615    4.615    6.462    0.615 
#    0.000    0.000    0.000    0.000    0.000    0.000 
#    0.000    0.000    0.000    0.000    0.000    0.000 
#
# Total GULP energy -72601.733965 kJ/mol
# GULP energy per Si atom -5584.748767 kJ/mol
# Density = 2.399037 g / cm^3
# Si number density = 24.045098 Si / 1000 Ang^3
#
#
#
# Elastic Constant Matrix: (Units=GPa)
#
#
# Indices 1 2 3 4 5 6 
#
# 1 128.6258 53.1244 27.2232 8.8267 -41.0385 -1.3836
# 2 53.1244 158.1883 10.1960 -8.6409 2.3151 -6.0903
# 3 27.2232 10.1960 78.3398 -8.6966 -25.2038 -9.5455
# 4 8.8267 -8.6409 -8.6966 37.0600 0.9673 1.2369
# 5 -41.0385 2.3151 -25.2038 0.9673 44.5364 5.5802
# 6 -1.3836 -6.0903 -9.5455 1.2369 5.5802 46.8612
#
#
#
# Elastic Compliance Matrix: (Units=1/GPa)
#
#
# Indices 1 2 3 4 5 6 
#
# 1 0.015117 -0.005602 -0.000823 -0.005402 0.014122 -0.001988
# 2 -0.005602 0.008571 -0.000623 0.003300 -0.006217 0.001475
# 3 -0.000823 -0.000623 0.016446 0.003623 0.008231 0.002169
# 4 -0.005402 0.003300 0.003623 0.029967 -0.003834 0.000673
# 5 0.014122 -0.006217 0.008231 -0.003834 0.040969 -0.003492
# 6 -0.001988 0.001475 0.002169 0.000673 -0.003492 0.022312
#
#
# Mechanical properties :
#
#
# Convention : Reuss Voigt Hill
#
# Bulk Modulus (GPa) = 38.40308 60.69345 49.54826
# Shear Modulus (GPa) = 32.01877 43.99888 38.00883
#
# Velocity S-wave (km/s) = 3.65309 4.28231 3.98015
# Velocity P-wave (km/s) = 5.81372 7.05317 6.46323
#
# Compressibility (1/GPa) = 0.02603958
#
# Stress axis : x y z
#
# Youngs Moduli (GPa) = 66.14872 116.67110 60.80328
#
# Poissons Ratio (x) = 0.65361 0.05003
# Poissons Ratio (y) = 0.37058 0.03787
# Poissons Ratio (z) = 0.05442 0.07266
#
# Static dielectric constant tensor:
#      x y z
#    x 1.897830 -0.008890 0.031770 
#    y -0.008890 1.938350 0.007970 
#    z 0.031770 0.007970 2.047430 
# 
# From -- ./inp_files/263744.got.cif
#   From: 2010.05.17/outbox.cif.g08.bks.cpg/sg2_132_cif.got.tgz:263744.got - 2010.06.03 11:33:40.
