data_PCOD9070448
_publ_section_title
;
Structure prediction by ZEFSAII (Michael W. Deem and Ramdas Pophale) SiO2 
 PCOD9070448
Probable space group: P -1
;
_chemical_formula_sum "Si O2"
_cell_formula_units_Z 15
_cell_length_a 7.541708
_cell_length_b 8.966491
_cell_length_c 21.842312
_cell_angle_alpha 51.101834
_cell_angle_beta 135.914864
_cell_angle_gamma 145.767032
_cell_volume 575.898016
_symmetry_space_group_name_H-M "P -1"
_symmetry_group_IT_number 2
_symmetry_cell_setting 'triclinic'
loop_
_space_group_symop_operation_xyz
x,y,z
-x,-y,-z
loop_
_atom_site_type_symbol
_atom_site_label
_atom_site_fract_x
_atom_site_fract_y
_atom_site_fract_z
Si Si1 0.333347 0.519818 0.513603
Si Si2 0.500000 0.000000 0.500000
Si Si3 0.436140 0.776246 0.645877
Si Si4 0.339836 0.799661 0.747488
Si Si5 0.503282 0.386609 0.808555
Si Si6 0.574552 0.316455 0.711123
Si Si7 0.784547 0.142284 0.088555
Si Si8 0.603141 0.769158 0.939998
O O1 0.500000 0.500000 0.500000
O O2 0.410581 0.418536 0.614395
O O3 0.907007 0.323909 0.451895
O O4 0.469254 0.798446 0.494802
O O5 0.290371 0.032160 0.388210
O O6 0.478801 0.905292 0.686711
O O7 0.388770 0.535292 0.718765
O O8 0.564379 0.793183 0.852390
O O9 0.957184 0.500748 0.725807
O O10 0.332296 0.007063 0.720125
O O11 0.662885 0.379354 0.788150
O O12 0.810490 0.573886 0.887464
O O13 0.213307 0.081386 0.835215
O O14 0.620760 0.191630 0.087853
O O15 0.500000 0.000000 0.000000
O O16 0.500000 0.500000 0.000000
O O17 0.000000 0.000000 0.000000
#
# Coordination Sequence:
#
# PCOD9070448 Si02
#       8
#     2   1   2   2   2   2   2   2
#     4  12  27  49  75 111 158 205 262 324 391 456
#     4  12  28  48  74 112 158 200 272 318 396 462
#     4  12  30  45  77 112 154 204 265 318 389 460
#     4  12  27  48  75 112 149 200 261 307 390 469
#     4  12  26  49  75 106 154 199 251 319 377 473
#     4  12  24  48  76 103 151 205 251 312 383 460
#     4  12  28  49  75 110 151 198 246 316 403 459
#     4  12  26  47  78 110 147 191 250 318 381 463
#
# _framework density 26.046278000000001
#
# number of rings (size 3 to 8) (size 9 to 14) (size 15 to 20)
#    0.000    0.000    5.333    3.200    7.467    1.067 
#    0.000    0.000    0.000    0.000    0.000    0.000 
#    0.000    0.000    0.000    0.000    0.000    0.000 
#
# Total GULP energy -83833.845321 kJ/mol
# GULP energy per Si atom -5588.923021 kJ/mol
# Density = 2.598700 g / cm^3
# Si number density = 26.046278 Si / 1000 Ang^3
#
#
#
# Elastic Constant Matrix: (Units=GPa)
#
#
# Indices 1 2 3 4 5 6 
#
# 1 94.1709 23.6033 9.2555 10.6881 -17.3429 -26.4007
# 2 23.6033 142.5466 23.4346 -16.9038 0.7111 -25.3570
# 3 9.2555 23.4346 150.2583 -7.0310 -20.5147 -11.3718
# 4 10.6881 -16.9038 -7.0310 48.4720 -7.6095 6.4778
# 5 -17.3429 0.7111 -20.5147 -7.6095 43.2983 4.4370
# 6 -26.4007 -25.3570 -11.3718 6.4778 4.4370 45.0619
#
#
#
# Elastic Compliance Matrix: (Units=1/GPa)
#
#
# Indices 1 2 3 4 5 6 
#
# 1 0.014446 -0.001561 0.000369 -0.004017 0.004480 0.007814
# 2 -0.001561 0.008319 -0.000992 0.002487 -0.001130 0.003270
# 3 0.000369 -0.000992 0.007431 0.001110 0.003777 0.001002
# 4 -0.004017 0.002487 0.001110 0.023684 0.003491 -0.004422
# 5 0.004480 -0.001130 0.003777 0.003491 0.027337 -0.000252
# 6 0.007814 0.003270 0.001002 -0.004422 -0.000252 0.029523
#
#
# Mechanical properties :
#
#
# Convention : Reuss Voigt Hill
#
# Bulk Modulus (GPa) = 38.71933 55.50697 47.11315
# Shear Modulus (GPa) = 40.41474 49.41195 44.91335
#
# Velocity S-wave (km/s) = 3.94337 4.36028 4.15705
# Velocity P-wave (km/s) = 5.96921 6.83422 6.41631
#
# Compressibility (1/GPa) = 0.02582690
#
# Stress axis : x y z
#
# Youngs Moduli (GPa) = 69.22442 120.20580 134.57924
#
# Poissons Ratio (x) = 0.18767 -0.04962
# Poissons Ratio (y) = 0.10808 0.13346
# Poissons Ratio (z) = -0.02552 0.11921
#
# Static dielectric constant tensor:
#      x y z
#    x 2.111270 0.010080 -0.000850 
#    y 0.010080 1.939840 -0.026560 
#    z -0.000850 -0.026560 2.058090 
# 
# From -- ./inp_files/606693.got.cif
#   From: 2010.05.17/outbox.cif.g08.bks.cpg/sg2_304_cif.got.tgz:606693.got - 2010.06.03 11:33:40.
