data_PCOD9070242
_publ_section_title
;
Structure prediction by ZEFSAII (Michael W. Deem and Ramdas Pophale) SiO2 
 PCOD9070242
Probable space group: P -1
;
_chemical_formula_sum "Si O2"
_cell_formula_units_Z 16
_cell_length_a 11.638884
_cell_length_b 14.509699
_cell_length_c 8.285631
_cell_angle_alpha 62.322137
_cell_angle_beta 33.170217
_cell_angle_gamma 72.683626
_cell_volume 665.859573
_symmetry_space_group_name_H-M "P -1"
_symmetry_group_IT_number 2
_symmetry_cell_setting 'triclinic'
loop_
_space_group_symop_operation_xyz
x,y,z
-x,-y,-z
loop_
_atom_site_type_symbol
_atom_site_label
_atom_site_fract_x
_atom_site_fract_y
_atom_site_fract_z
Si Si1 0.396711 0.678336 0.294821
Si Si2 0.938165 0.111441 0.031105
Si Si3 0.791862 0.812612 0.873300
Si Si4 0.216885 0.298002 0.717821
Si Si5 0.896076 0.434957 0.015098
Si Si6 0.499500 0.962052 0.215240
Si Si7 0.208343 0.837248 0.176376
Si Si8 0.438452 0.519583 0.871098
O O1 0.275673 0.659378 0.623301
O O2 0.266602 0.732262 0.272426
O O3 0.442171 0.563814 0.290873
O O4 0.621241 0.758741 0.986525
O O5 0.736948 0.089292 0.407508
O O6 0.866599 0.170000 0.912030
O O7 0.139310 0.189892 0.804418
O O8 0.000000 0.000000 0.000000
O O9 0.012102 0.866303 0.489123
O O10 0.835199 0.721910 0.016473
O O11 0.669009 0.884409 0.070173
O O12 0.458176 0.356639 0.371293
O O13 0.074449 0.382170 0.761994
O O14 0.782484 0.493195 0.961977
O O15 0.000000 0.500000 0.000000
O O16 0.500000 0.000000 0.000000
O O17 0.593512 0.065222 0.124628
O O18 0.500000 0.500000 0.000000
#
# Coordination Sequence:
#
# PCOD9070242 Si02
#       8
#     2   2   2   2   2   2   2   2
#     4  12  25  45  73 108 143 195 251 304 377 456
#     4  12  29  49  74 112 153 199 244 315 389 449
#     4  12  24  46  77 108 143 196 255 307 373 450
#     4  12  26  47  76 103 147 197 251 308 375 456
#     4  12  24  49  75 106 147 198 260 310 372 446
#     4  12  24  48  75 107 147 196 253 307 379 456
#     4  12  27  45  76 110 152 190 250 318 378 450
#     4  12  30  44  73 110 153 199 248 316 381 452
#
# _framework density 24.029091999999999
#
# number of rings (size 3 to 8) (size 9 to 14) (size 15 to 20)
#    0.000    0.000    5.000    4.875    3.500    0.500 
#    0.000    0.000    0.000    0.000    0.000    0.000 
#    0.000    0.000    0.000    0.000    0.000    0.000 
#
# Total GULP energy -89476.491921 kJ/mol
# GULP energy per Si atom -5592.280745 kJ/mol
# Density = 2.397440 g / cm^3
# Si number density = 24.029092 Si / 1000 Ang^3
#
#
#
# Elastic Constant Matrix: (Units=GPa)
#
#
# Indices 1 2 3 4 5 6 
#
# 1 184.8159 26.6645 18.8181 -4.1830 -2.3398 -13.0515
# 2 26.6645 87.6218 23.2673 -3.2054 -21.4127 -4.9247
# 3 18.8181 23.2673 43.6393 -9.4315 -1.1896 -2.3483
# 4 -4.1830 -3.2054 -9.4315 35.6663 2.6436 -13.6606
# 5 -2.3398 -21.4127 -1.1896 2.6436 34.1524 -5.7031
# 6 -13.0515 -4.9247 -2.3483 -13.6606 -5.7031 39.4729
#
#
#
# Elastic Compliance Matrix: (Units=1/GPa)
#
#
# Indices 1 2 3 4 5 6 
#
# 1 0.005915 -0.001287 -0.001557 0.000948 -0.000195 0.002003
# 2 -0.001287 0.016620 -0.008017 -0.000607 0.010514 0.002480
# 3 -0.001557 -0.008017 0.029648 0.008200 -0.004324 0.002462
# 4 0.000948 -0.000607 0.008200 0.035221 -0.000614 0.012826
# 5 -0.000195 0.010514 -0.004324 -0.000614 0.036773 0.006090
# 6 0.002003 0.002480 0.002462 0.012826 0.006090 0.031770
#
#
# Mechanical properties :
#
#
# Convention : Reuss Voigt Hill
#
# Bulk Modulus (GPa) = 32.82999 50.39744 41.61371
# Shear Modulus (GPa) = 26.62062 38.34681 32.48372
#
# Velocity S-wave (km/s) = 3.33205 3.99914 3.68074
# Velocity P-wave (km/s) = 5.33813 6.50717 5.95142
#
# Compressibility (1/GPa) = 0.03045996
#
# Stress axis : x y z
#
# Youngs Moduli (GPa) = 169.04902 60.16915 33.72890
#
# Poissons Ratio (x) = 0.07744 0.05253
# Poissons Ratio (y) = 0.21757 0.27042
# Poissons Ratio (z) = 0.26327 0.48240
#
# Static dielectric constant tensor:
#      x y z
#    x 2.014690 -0.019730 -0.019560 
#    y -0.019730 1.981340 0.002900 
#    z -0.019560 0.002900 1.993910 
# 
# From -- ./inp_files/272297.got.cif
#   From: 2010.05.17/outbox.cif.g08.bks.cpg/sg2_137_cif.got.tgz:272297.got - 2010.06.03 11:33:40.
