data_PCOD9070166
_publ_section_title
;
Structure prediction by ZEFSAII (Michael W. Deem and Ramdas Pophale) SiO2 
 PCOD9070166
Probable space group: P -1
;
_chemical_formula_sum "Si O2"
_cell_formula_units_Z 15
_cell_length_a 11.046579
_cell_length_b 13.343168
_cell_length_c 6.647756
_cell_angle_alpha 65.581501
_cell_angle_beta 71.144855
_cell_angle_gamma 43.964556
_cell_volume 618.872926
_symmetry_space_group_name_H-M "P -1"
_symmetry_group_IT_number 2
_symmetry_cell_setting 'triclinic'
loop_
_space_group_symop_operation_xyz
x,y,z
-x,-y,-z
loop_
_atom_site_type_symbol
_atom_site_label
_atom_site_fract_x
_atom_site_fract_y
_atom_site_fract_z
Si Si1 0.659241 0.603665 0.363560
Si Si2 0.000000 0.500000 0.000000
Si Si3 0.092203 0.058355 0.345422
Si Si4 0.102499 0.626197 0.919594
Si Si5 0.672400 0.160481 0.937938
Si Si6 0.173773 0.342032 0.458313
Si Si7 0.666652 0.412055 0.836995
Si Si8 0.327213 0.026186 0.585011
O O1 0.825453 0.496066 0.204049
O O2 0.494039 0.722847 0.213549
O O3 0.682180 0.680578 0.461664
O O4 0.638777 0.498671 0.577226
O O5 0.935522 0.651130 0.028887
O O6 0.844333 0.615510 0.801570
O O7 0.241714 0.018507 0.442765
O O8 0.938936 0.236342 0.274478
O O9 0.176036 0.987707 0.143609
O O10 0.000000 0.000000 0.500000
O O11 0.205473 0.591861 0.090586
O O12 0.726557 0.252144 0.898640
O O13 0.632024 0.100229 0.187564
O O14 0.188272 0.201429 0.582604
O O15 0.000000 0.500000 0.500000
O O16 0.500000 0.500000 0.000000
O O17 0.500000 0.000000 0.500000
#
# Coordination Sequence:
#
# PCOD9070166 Si02
#       8
#     2   1   2   2   2   2   2   2
#     4  12  26  46  76 112 145 195 257 309 373 455
#     4  12  24  46  72 108 140 192 240 310 364 434
#     4  12  28  50  75 109 157 197 253 316 389 455
#     4  12  26  45  79 106 149 193 250 308 375 442
#     4  12  30  47  76 112 157 201 254 313 388 454
#     4  12  26  45  77 106 146 191 258 300 373 446
#     4  12  27  46  78 108 146 194 251 309 374 447
#     4  12  30  50  76 111 158 205 252 318 388 454
#
# _framework density 24.237608999999999
#
# number of rings (size 3 to 8) (size 9 to 14) (size 15 to 20)
#    0.000    0.000    5.333    2.800    9.333    5.333 
#    0.000    0.000    0.000    0.000    0.000    0.000 
#    0.000    0.000    0.000    0.000    0.000    0.000 
#
# Total GULP energy -83688.161263 kJ/mol
# GULP energy per Si atom -5579.210751 kJ/mol
# Density = 2.418244 g / cm^3
# Si number density = 24.237609 Si / 1000 Ang^3
#
#
#
# Elastic Constant Matrix: (Units=GPa)
#
#
# Indices 1 2 3 4 5 6 
#
# 1 102.6367 25.0652 15.2062 9.5237 19.5434 42.2496
# 2 25.0652 96.7244 27.1068 -0.6398 1.5563 40.5901
# 3 15.2062 27.1068 136.4408 -13.1257 1.1718 18.0900
# 4 9.5237 -0.6398 -13.1257 45.2570 8.1074 -9.7320
# 5 19.5434 1.5563 1.1718 8.1074 45.6868 0.2858
# 6 42.2496 40.5901 18.0900 -9.7320 0.2858 54.5199
#
#
#
# Elastic Compliance Matrix: (Units=1/GPa)
#
#
# Indices 1 2 3 4 5 6 
#
# 1 0.017928 0.002671 -0.000876 -0.006417 -0.006494 -0.016702
# 2 0.002671 0.016093 -0.001986 -0.003776 -0.000882 -0.014061
# 3 -0.000876 -0.001986 0.008075 0.002521 -0.000212 -0.000071
# 4 -0.006417 -0.003776 0.002521 0.027027 -0.002061 0.011783
# 5 -0.006494 -0.000882 -0.000212 -0.002061 0.025035 0.005260
# 6 -0.016702 -0.014061 -0.000071 0.011783 0.005260 0.043853
#
#
# Mechanical properties :
#
#
# Convention : Reuss Voigt Hill
#
# Bulk Modulus (GPa) = 23.97288 52.28423 38.12856
# Shear Modulus (GPa) = 32.83021 46.98766 39.90893
#
# Velocity S-wave (km/s) = 3.68437 4.40776 4.06220
# Velocity P-wave (km/s) = 5.29260 6.89368 6.14551
#
# Compressibility (1/GPa) = 0.04171381
#
# Stress axis : x y z
#
# Youngs Moduli (GPa) = 55.77837 62.13774 123.83706
#
# Poissons Ratio (x) = -0.16595 0.10845
# Poissons Ratio (y) = -0.14896 0.24598
# Poissons Ratio (z) = 0.04885 0.12342
#
# Static dielectric constant tensor:
#      x y z
#    x 2.338830 -0.077650 -0.255940 
#    y -0.077650 1.853750 0.250330 
#    z -0.255940 0.250330 1.816450 
# 
# From -- ./inp_files/69100.got.cif
#   From: 2010.05.17/outbox.cif.g08.bks.cpg/sg2_35_cif.got.tgz:69100.got - 2010.06.03 11:33:40.
