data_PCOD9070944
_publ_section_title
;
Structure prediction by ZEFSAII (Michael W. Deem and Ramdas Pophale) SiO2 
 PCOD9070944
Probable space group: P -1
;
_chemical_formula_sum "Si O2"
_cell_formula_units_Z 16
_cell_length_a 13.885588
_cell_length_b 9.889530
_cell_length_c 14.040250
_cell_angle_alpha 129.926212
_cell_angle_beta 42.743974
_cell_angle_gamma 97.323188
_cell_volume 753.336926
_symmetry_space_group_name_H-M "P -1"
_symmetry_group_IT_number 2
_symmetry_cell_setting 'triclinic'
loop_
_space_group_symop_operation_xyz
x,y,z
-x,-y,-z
loop_
_atom_site_type_symbol
_atom_site_label
_atom_site_fract_x
_atom_site_fract_y
_atom_site_fract_z
Si Si1 0.870669 0.698665 0.948482
Si Si2 0.166773 0.164947 0.560422
Si Si3 0.471335 0.915559 0.383948
Si Si4 0.869127 0.746963 0.757975
Si Si5 0.521446 0.482796 0.733334
Si Si6 0.096984 0.891819 0.168794
Si Si7 0.504009 0.129135 0.965686
Si Si8 0.878771 0.048862 0.200110
O O1 0.928608 0.725313 0.814635
O O2 0.026222 0.436895 0.756246
O O3 0.670373 0.766848 0.118677
O O4 0.829144 0.889389 0.138335
O O5 0.039129 0.099016 0.653574
O O6 0.297287 0.114795 0.533079
O O7 0.309081 0.016167 0.301106
O O8 0.444804 0.728967 0.333921
O O9 0.500000 0.000000 0.500000
O O10 0.000000 0.500000 0.500000
O O11 0.880023 0.914533 0.762009
O O12 0.665660 0.822480 0.946109
O O13 0.698145 0.326661 0.462715
O O14 0.312600 0.648520 0.914146
O O15 0.535641 0.642556 0.861885
O O16 0.000334 0.941703 0.159362
O O17 0.500000 0.000000 0.000000
O O18 0.000000 0.000000 0.000000
#
# Coordination Sequence:
#
# PCOD9070944 Si02
#       8
#     2   2   2   2   2   2   2   2
#     4  12  26  46  76 109 145 199 244 312 371 442
#     4  12  28  47  78 112 150 196 253 304 379 446
#     4  12  25  48  73 111 149 193 248 310 375 440
#     4  12  26  48  75 105 153 193 251 304 373 445
#     4  12  27  47  75 106 156 189 251 311 373 440
#     4  12  26  48  75 111 145 200 243 315 375 439
#     4  12  27  49  74 111 151 200 249 306 369 452
#     4  12  27  46  74 110 148 193 258 307 375 441
#
# _framework density 21.238835999999999
#
# number of rings (size 3 to 8) (size 9 to 14) (size 15 to 20)
#    0.000    0.000    7.500    1.500    3.500    3.500 
#    0.000    0.000    0.000    0.000    0.000    0.000 
#    0.000    0.000    0.000    0.000    0.000    0.000 
#
# Total GULP energy -89321.795741 kJ/mol
# GULP energy per Si atom -5582.612234 kJ/mol
# Density = 2.119050 g / cm^3
# Si number density = 21.238836 Si / 1000 Ang^3
#
#
#
# Elastic Constant Matrix: (Units=GPa)
#
#
# Indices 1 2 3 4 5 6 
#
# 1 114.4300 50.8669 65.9523 3.3212 -3.7939 -0.9538
# 2 50.8669 124.7674 65.0339 -11.2516 -2.2386 0.4321
# 3 65.9523 65.0339 149.9407 -11.8449 -11.2073 -6.8742
# 4 3.3212 -11.2516 -11.8449 43.4698 2.2175 -2.3628
# 5 -3.7939 -2.2386 -11.2073 2.2175 45.2015 3.9566
# 6 -0.9538 0.4321 -6.8742 -2.3628 3.9566 38.2666
#
#
#
# Elastic Compliance Matrix: (Units=1/GPa)
#
#
# Indices 1 2 3 4 5 6 
#
# 1 0.012846 -0.003133 -0.004564 -0.003072 -0.000001 -0.000654
# 2 -0.003133 0.011257 -0.003402 0.002223 -0.000604 -0.000617
# 3 -0.004564 -0.003402 0.010554 0.002349 0.001794 0.001780
# 4 -0.003072 0.002223 0.002349 0.024608 -0.000942 0.001937
# 5 -0.000001 -0.000604 0.001794 -0.000942 0.022767 -0.002083
# 6 -0.000654 -0.000617 0.001780 0.001937 -0.002083 0.026778
#
#
# Mechanical properties :
#
#
# Convention : Reuss Voigt Hill
#
# Bulk Modulus (GPa) = 80.26852 83.64937 81.95895
# Shear Modulus (GPa) = 36.99274 39.20658 38.09966
#
# Velocity S-wave (km/s) = 4.17796 4.30115 4.24000
# Velocity P-wave (km/s) = 7.81979 8.00857 7.91474
#
# Compressibility (1/GPa) = 0.01245818
#
# Stress axis : x y z
#
# Youngs Moduli (GPa) = 77.84603 88.82975 94.75146
#
# Poissons Ratio (x) = 0.27829 0.43246
# Poissons Ratio (y) = 0.24388 0.32239
# Poissons Ratio (z) = 0.35530 0.30224
#
# Static dielectric constant tensor:
#      x y z
#    x 1.816980 -0.004690 -0.009060 
#    y -0.004690 1.830300 -0.058150 
#    z -0.009060 -0.058150 1.761580 
# 
# From -- ./inp_files/530123.got.cif
#   From: 2010.05.17/outbox.cif.g08.bks.cpg/sg2_266_cif.got.tgz:530123.got - 2010.06.03 11:33:40.
