data_PCOD9070136
_publ_section_title
;
Structure prediction by ZEFSAII (Michael W. Deem and Ramdas Pophale) SiO2 
 PCOD9070136
Probable space group: P -1
;
_chemical_formula_sum "Si O2"
_cell_formula_units_Z 14
_cell_length_a 12.218208
_cell_length_b 8.720062
_cell_length_c 9.584264
_cell_angle_alpha 58.452093
_cell_angle_beta 131.290047
_cell_angle_gamma 96.437984
_cell_volume 608.990760
_symmetry_space_group_name_H-M "P -1"
_symmetry_group_IT_number 2
_symmetry_cell_setting 'triclinic'
loop_
_space_group_symop_operation_xyz
x,y,z
-x,-y,-z
loop_
_atom_site_type_symbol
_atom_site_label
_atom_site_fract_x
_atom_site_fract_y
_atom_site_fract_z
Si Si1 0.146040 0.907777 0.563349
Si Si2 0.373616 0.483661 0.004018
Si Si3 0.785070 0.771675 0.071479
Si Si4 0.702383 0.818615 0.312444
Si Si5 0.111267 0.898385 0.967180
Si Si6 0.036619 0.548683 0.167748
Si Si7 0.440238 0.649066 0.250087
O O1 0.221689 0.676311 0.748259
O O2 0.273816 0.998551 0.678575
O O3 0.000000 0.000000 0.500000
O O4 0.053731 0.982870 0.304049
O O5 0.363002 0.275187 0.076996
O O6 0.500000 0.500000 0.000000
O O7 0.438376 0.505313 0.196249
O O8 0.762974 0.788895 0.214724
O O9 0.912506 0.603834 0.164838
O O10 0.820423 0.957823 0.968199
O O11 0.825514 0.639779 0.580303
O O12 0.540028 0.783047 0.224905
O O13 0.089533 0.730387 0.117031
O O14 0.258163 0.784530 0.046128
O O15 0.000000 0.500000 0.000000
O O16 0.500000 0.500000 0.500000
#
# Coordination Sequence:
#
# PCOD9070136 Si02
#       7
#     2   2   2   2   2   2   2
#     4  12  24  45  78 107 144 193 250 304 358 442
#     4  12  27  46  71 110 150 191 248 309 367 431
#     4  12  27  44  74 107 146 191 250 304 358 440
#     4  12  25  44  79 107 141 199 243 302 368 436
#     4  12  26  47  76 111 146 195 247 301 367 443
#     4  12  25  47  72 110 150 191 238 309 374 435
#     4  12  26  49  73 105 153 194 240 303 381 437
#
# _framework density 22.988852999999999
#
# number of rings (size 3 to 8) (size 9 to 14) (size 15 to 20)
#    0.000    0.000    7.143    2.571    4.000    1.143 
#    2.571    0.714    0.000    0.000    0.000    0.000 
#    0.000    0.000    0.000    0.000    0.000    0.000 
#
# Total GULP energy -78041.479551 kJ/mol
# GULP energy per Si atom -5574.391397 kJ/mol
# Density = 2.293653 g / cm^3
# Si number density = 22.988853 Si / 1000 Ang^3
#
#
#
# Elastic Constant Matrix: (Units=GPa)
#
#
# Indices 1 2 3 4 5 6 
#
# 1 117.3405 44.6332 23.0215 4.8841 -2.0736 4.1571
# 2 44.6332 175.7312 28.5023 16.5911 -18.4439 39.1326
# 3 23.0215 28.5023 74.3776 1.6982 -14.7865 -6.2264
# 4 4.8841 16.5911 1.6982 31.3026 6.5776 -4.3172
# 5 -2.0736 -18.4439 -14.7865 6.5776 19.8071 0.3949
# 6 4.1571 39.1326 -6.2264 -4.3172 0.3949 47.4803
#
#
#
# Elastic Compliance Matrix: (Units=1/GPa)
#
#
# Indices 1 2 3 4 5 6 
#
# 1 0.010004 -0.002951 -0.002705 0.001207 -0.004148 0.001346
# 2 -0.002951 0.011061 -0.001545 -0.009241 0.012106 -0.010001
# 3 -0.002705 -0.001545 0.017578 -0.001723 0.011902 0.003559
# 4 0.001207 -0.009241 -0.001723 0.043460 -0.024425 0.011440
# 5 -0.004148 0.012106 0.011902 -0.024425 0.078539 -0.010928
# 6 0.001346 -0.010001 0.003559 0.011440 -0.010928 0.030784
#
#
# Mechanical properties :
#
#
# Convention : Reuss Voigt Hill
#
# Bulk Modulus (GPa) = 41.25342 62.19591 51.72467
# Shear Modulus (GPa) = 23.37455 37.80415 30.58935
#
# Velocity S-wave (km/s) = 3.19215 4.05959 3.65172
# Velocity P-wave (km/s) = 5.61875 7.00623 6.35050
#
# Compressibility (1/GPa) = 0.02424042
#
# Stress axis : x y z
#
# Youngs Moduli (GPa) = 99.95724 90.40940 56.89079
#
# Poissons Ratio (x) = 0.26682 0.15390
# Poissons Ratio (y) = 0.29500 0.08788
# Poissons Ratio (z) = 0.27040 0.13966
#
# Static dielectric constant tensor:
#      x y z
#    x 2.002680 -0.022010 -0.034290 
#    y -0.022010 1.933720 0.042050 
#    z -0.034290 0.042050 1.885050 
# 
# From -- ./inp_files/242763.got.cif
#   From: 2010.05.17/outbox.cif.g08.bks.cpg/sg2_122_cif.got.tgz:242763.got - 2010.06.03 11:33:40.
