data_PCOD9070501
_publ_section_title
;
Structure prediction by ZEFSAII (Michael W. Deem and Ramdas Pophale) SiO2 
 PCOD9070501
Probable space group: P -1
;
_chemical_formula_sum "Si O2"
_cell_formula_units_Z 16
_cell_length_a 17.148595
_cell_length_b 17.235085
_cell_length_c 8.565185
_cell_angle_alpha 138.699967
_cell_angle_beta 32.743853
_cell_angle_gamma 148.623391
_cell_volume 707.954549
_symmetry_space_group_name_H-M "P -1"
_symmetry_group_IT_number 2
_symmetry_cell_setting 'triclinic'
loop_
_space_group_symop_operation_xyz
x,y,z
-x,-y,-z
loop_
_atom_site_type_symbol
_atom_site_label
_atom_site_fract_x
_atom_site_fract_y
_atom_site_fract_z
Si Si1 0.839788 0.399260 0.388685
Si Si2 0.019223 0.732678 0.610326
Si Si3 0.808493 0.850142 0.148900
Si Si4 0.508951 0.373723 0.859803
Si Si5 0.367917 0.860011 0.395483
Si Si6 0.000564 0.263819 0.727678
Si Si7 0.374075 0.360353 0.384860
Si Si8 0.699801 0.913722 0.738677
O O1 0.681747 0.385652 0.534713
O O2 0.743058 0.282985 0.518692
O O3 0.967104 0.571388 0.488259
O O4 0.938809 0.354094 0.046292
O O5 0.214034 0.854310 0.549537
O O6 0.019580 0.744937 0.439743
O O7 0.864375 0.746123 0.950487
O O8 0.676685 0.779402 0.116341
O O9 0.712582 0.878478 0.485210
O O10 0.000000 0.000000 0.000000
O O11 0.500000 0.500000 0.000000
O O12 0.509899 0.383194 0.057165
O O13 0.500000 0.000000 0.500000
O O14 0.505390 0.868240 0.053057
O O15 0.209063 0.345921 0.555666
O O16 0.861702 0.090711 0.759155
O O17 0.500000 0.500000 0.500000
O O18 0.280529 0.198728 0.373263
#
# Coordination Sequence:
#
# PCOD9070501 Si02
#       8
#     2   2   2   2   2   2   2   2
#     4  12  27  48  78 107 152 198 249 315 374 453
#     4  12  28  50  75 109 150 198 255 311 376 446
#     4  12  26  46  78 109 148 196 252 308 374 447
#     4  12  24  49  73 110 149 193 253 308 373 442
#     4  12  29  49  73 113 153 197 247 311 384 448
#     4  12  27  50  75 112 150 200 251 308 378 450
#     4  12  27  46  76 112 154 195 253 311 374 447
#     4  12  27  47  76 113 151 199 249 310 379 452
#
# _framework density 22.60032
#
# number of rings (size 3 to 8) (size 9 to 14) (size 15 to 20)
#    0.000    0.000    6.250    1.875    7.000    1.500 
#    0.000    0.000    0.000    0.000    0.000    0.000 
#    0.000    0.000    0.000    0.000    0.000    0.000 
#
# Total GULP energy -89553.475095 kJ/mol
# GULP energy per Si atom -5597.092193 kJ/mol
# Density = 2.254888 g / cm^3
# Si number density = 22.600320 Si / 1000 Ang^3
#
#
#
# Elastic Constant Matrix: (Units=GPa)
#
#
# Indices 1 2 3 4 5 6 
#
# 1 104.1519 36.7755 26.3026 0.2005 -12.0471 26.1095
# 2 36.7755 118.2834 11.1406 10.8464 1.7719 7.1237
# 3 26.3026 11.1406 134.5457 13.9796 -1.9145 19.3014
# 4 0.2005 10.8464 13.9796 36.0477 0.1876 1.2042
# 5 -12.0471 1.7719 -1.9145 0.1876 41.3556 -7.7720
# 6 26.1095 7.1237 19.3014 1.2042 -7.7720 47.4285
#
#
#
# Elastic Compliance Matrix: (Units=1/GPa)
#
#
# Indices 1 2 3 4 5 6 
#
# 1 0.013059 -0.003788 -0.001595 0.001857 0.002841 -0.005552
# 2 -0.003788 0.009893 0.000161 -0.003023 -0.001436 0.000375
# 3 -0.001595 0.000161 0.008428 -0.003219 -0.000553 -0.002585
# 4 0.001857 -0.003023 -0.003219 0.029885 0.000395 0.000048
# 5 0.002841 -0.001436 -0.000553 0.000395 0.025618 0.003065
# 6 -0.005552 0.000375 -0.002585 0.000048 0.003065 0.025637
#
#
# Mechanical properties :
#
#
# Convention : Reuss Voigt Hill
#
# Bulk Modulus (GPa) = 47.76519 56.15761 51.96140
# Shear Modulus (GPa) = 38.47821 43.81717 41.14769
#
# Velocity S-wave (km/s) = 4.13068 4.40794 4.27156
# Velocity P-wave (km/s) = 6.62802 7.12802 6.88256
#
# Compressibility (1/GPa) = 0.02093575
#
# Stress axis : x y z
#
# Youngs Moduli (GPa) = 76.57712 101.08138 118.64761
#
# Poissons Ratio (x) = 0.38292 0.18926
# Poissons Ratio (y) = 0.29009 -0.01913
# Poissons Ratio (z) = 0.12215 -0.01630
#
# Static dielectric constant tensor:
#      x y z
#    x 1.883810 -0.012220 -0.001410 
#    y -0.012220 1.930040 0.023080 
#    z -0.001410 0.023080 1.816670 
# 
# From -- ./inp_files/336789.got.cif
#   From: 2010.05.17/outbox.cif.g08.bks.cpg/sg2_169_cif.got.tgz:336789.got - 2010.06.03 11:33:40.
