data_PCOD9070580
_publ_section_title
;
Structure prediction by ZEFSAII (Michael W. Deem and Ramdas Pophale) SiO2 
 PCOD9070580
Probable space group: P -1
;
_chemical_formula_sum "Si O2"
_cell_formula_units_Z 14
_cell_length_a 14.370324
_cell_length_b 9.530369
_cell_length_c 8.744224
_cell_angle_alpha 30.255758
_cell_angle_beta 109.159370
_cell_angle_gamma 119.832326
_cell_volume 509.133660
_symmetry_space_group_name_H-M "P -1"
_symmetry_group_IT_number 2
_symmetry_cell_setting 'triclinic'
loop_
_space_group_symop_operation_xyz
x,y,z
-x,-y,-z
loop_
_atom_site_type_symbol
_atom_site_label
_atom_site_fract_x
_atom_site_fract_y
_atom_site_fract_z
Si Si1 0.659806 0.692887 0.466066
Si Si2 0.447128 0.703775 0.859754
Si Si3 0.211861 0.952236 0.239954
Si Si4 0.257474 0.841315 0.693544
Si Si5 0.903037 0.707665 0.299534
Si Si6 0.604034 0.075711 0.834680
Si Si7 0.892778 0.703521 0.653888
O O1 0.602796 0.380623 0.622746
O O2 0.782739 0.744277 0.522698
O O3 0.644699 0.842342 0.477380
O O4 0.653631 0.950091 0.111659
O O5 0.319878 0.640936 0.858172
O O6 0.500000 0.000000 0.500000
O O7 0.490534 0.810856 0.955893
O O8 0.500000 0.500000 0.000000
O O9 0.216922 0.970705 0.407235
O O10 0.114737 0.612454 0.480728
O O11 0.314757 0.901780 0.280781
O O12 0.197111 0.209323 0.886909
O O13 0.157142 0.602628 0.973423
O O14 0.919325 0.668336 0.524715
O O15 0.000000 0.000000 0.000000
O O16 0.000000 0.000000 0.500000
#
# Coordination Sequence:
#
# PCOD9070580 Si02
#       7
#     2   2   2   2   2   2   2
#     4  12  26  51  77 115 164 208 270 328 414 478
#     4  12  29  50  84 124 162 210 276 337 410 487
#     4  12  25  47  80 108 157 208 266 331 404 480
#     4  12  30  50  84 123 164 214 278 345 408 483
#     4  12  27  49  76 114 154 216 271 328 406 485
#     4  12  24  51  80 110 159 215 257 335 400 489
#     4  12  28  51  79 117 167 213 273 343 409 481
#
# _framework density 27.497689999999999
#
# number of rings (size 3 to 8) (size 9 to 14) (size 15 to 20)
#    0.000    0.000    5.714    2.143    8.000    1.714 
#    0.000    0.000    0.000    0.000    0.000    0.000 
#    0.000    0.000    0.000    0.000    0.000    0.000 
#
# Total GULP energy -78210.000605 kJ/mol
# GULP energy per Si atom -5586.428615 kJ/mol
# Density = 2.743510 g / cm^3
# Si number density = 27.497690 Si / 1000 Ang^3
#
#
#
# Elastic Constant Matrix: (Units=GPa)
#
#
# Indices 1 2 3 4 5 6 
#
# 1 80.9065 25.6315 9.8786 -4.7082 -3.8852 -16.6330
# 2 25.6315 219.1113 71.9214 -0.2457 -15.8146 2.5001
# 3 9.8786 71.9214 141.4630 -19.7824 3.4589 -14.8808
# 4 -4.7082 -0.2457 -19.7824 62.5649 -11.9812 -5.0727
# 5 -3.8852 -15.8146 3.4589 -11.9812 43.5308 7.1449
# 6 -16.6330 2.5001 -14.8808 -5.0727 7.1449 40.5660
#
#
#
# Elastic Compliance Matrix: (Units=1/GPa)
#
#
# Indices 1 2 3 4 5 6 
#
# 1 0.014377 -0.002107 0.001040 0.001918 -0.000132 0.006669
# 2 -0.002107 0.006190 -0.003533 -0.001011 0.002576 -0.003121
# 3 0.001040 -0.003533 0.009811 0.003205 -0.001905 0.004980
# 4 0.001918 -0.001011 0.003205 0.018188 0.003964 0.003601
# 5 -0.000132 0.002576 -0.001905 0.003964 0.025957 -0.004988
# 6 0.006669 -0.003121 0.004980 0.003601 -0.004988 0.030733
#
#
# Mechanical properties :
#
#
# Convention : Reuss Voigt Hill
#
# Bulk Modulus (GPa) = 47.21570 72.92710 60.07140
# Shear Modulus (GPa) = 41.14683 51.60229 46.37456
#
# Velocity S-wave (km/s) = 3.87250 4.33668 4.11114
# Velocity P-wave (km/s) = 6.09943 7.18710 6.66549
#
# Compressibility (1/GPa) = 0.02117940
#
# Stress axis : x y z
#
# Youngs Moduli (GPa) = 69.55697 161.54245 101.92491
#
# Poissons Ratio (x) = 0.34031 -0.10601
# Poissons Ratio (y) = 0.14653 0.36008
# Poissons Ratio (z) = -0.07234 0.57070
#
# Static dielectric constant tensor:
#      x y z
#    x 2.182350 0.198370 -0.075850 
#    y 0.198370 2.152160 -0.014170 
#    z -0.075850 -0.014170 2.220810 
# 
# From -- ./inp_files/328296.got.cif
#   From: 2010.05.17/outbox.cif.g08.bks.cpg/sg2_165_cif.got.tgz:328296.got - 2010.06.03 11:33:40.
