data_PCOD9070559
_publ_section_title
;
Structure prediction by ZEFSAII (Michael W. Deem and Ramdas Pophale) SiO2 
 PCOD9070559
Probable space group: P -1
;
_chemical_formula_sum "Si O2"
_cell_formula_units_Z 16
_cell_length_a 14.718707
_cell_length_b 7.475299
_cell_length_c 8.149210
_cell_angle_alpha 53.425200
_cell_angle_beta 107.324769
_cell_angle_gamma 120.585444
_cell_volume 619.865283
_symmetry_space_group_name_H-M "P -1"
_symmetry_group_IT_number 2
_symmetry_cell_setting 'triclinic'
loop_
_space_group_symop_operation_xyz
x,y,z
-x,-y,-z
loop_
_atom_site_type_symbol
_atom_site_label
_atom_site_fract_x
_atom_site_fract_y
_atom_site_fract_z
Si Si1 0.995537 0.747342 0.931660
Si Si2 0.600728 0.111575 0.870385
Si Si3 0.156111 0.216098 0.573540
Si Si4 0.246433 0.515472 0.007172
Si Si5 0.253168 0.952947 0.534264
Si Si6 0.095141 0.645709 0.346125
Si Si7 0.661741 0.667498 0.123972
Si Si8 0.504677 0.693450 0.539405
O O1 0.943858 0.017038 0.278115
O O2 0.056714 0.784081 0.116747
O O3 0.873598 0.678036 0.928813
O O4 0.000000 0.500000 0.000000
O O5 0.560309 0.167419 0.647510
O O6 0.687477 0.357613 0.865627
O O7 0.500000 0.000000 0.000000
O O8 0.650207 0.919542 0.985641
O O9 0.124769 0.437218 0.397230
O O10 0.246081 0.309643 0.711791
O O11 0.191421 0.828402 0.405911
O O12 0.243224 0.738254 0.774418
O O13 0.201777 0.113093 0.508421
O O14 0.309418 0.399929 0.998759
O O15 0.000000 0.500000 0.500000
O O16 0.624721 0.881365 0.522085
O O17 0.553606 0.454956 0.251141
O O18 0.500000 0.500000 0.500000
#
# Coordination Sequence:
#
# PCOD9070559 Si02
#       8
#     2   2   2   2   2   2   2   2
#     4  12  26  52  81 110 154 207 253 315 386 451
#     4  12  24  50  79 106 154 200 249 312 381 451
#     4  12  25  50  79 107 155 202 248 317 381 447
#     4  12  25  51  73 113 156 190 257 319 368 454
#     4  12  24  52  76 111 156 195 253 322 370 456
#     4  12  27  50  77 113 154 199 257 314 379 453
#     4  12  26  49  76 110 154 196 249 319 373 451
#     4  12  25  52  81 110 153 205 251 312 388 452
#
# _framework density 25.812061
#
# number of rings (size 3 to 8) (size 9 to 14) (size 15 to 20)
#    0.000    0.000    8.750    0.000    0.000    7.000 
#    4.500    6.250    0.000    0.000    0.000    0.000 
#    0.000    0.000    0.000    0.000    0.000    0.000 
#
# Total GULP energy -90082.184370 kJ/mol
# GULP energy per Si atom -5630.136523 kJ/mol
# Density = 2.575331 g / cm^3
# Si number density = 25.812061 Si / 1000 Ang^3
#
#
#
# Elastic Constant Matrix: (Units=GPa)
#
#
# Indices 1 2 3 4 5 6 
#
# 1 177.6457 73.1210 52.8918 -4.8814 -8.4782 1.8642
# 2 73.1210 199.6204 67.1619 4.2083 -11.7056 35.7767
# 3 52.8918 67.1619 115.1885 1.9740 8.0698 14.8641
# 4 -4.8814 4.2083 1.9740 37.5855 6.7026 -1.2350
# 5 -8.4782 -11.7056 8.0698 6.7026 42.3457 -5.8866
# 6 1.8642 35.7767 14.8641 -1.2350 -5.8866 55.3379
#
#
#
# Elastic Compliance Matrix: (Units=1/GPa)
#
#
# Indices 1 2 3 4 5 6 
#
# 1 0.007333 -0.002141 -0.002496 0.001130 0.001449 0.001987
# 2 -0.002141 0.007682 -0.003109 -0.001455 0.001978 -0.003882
# 3 -0.002496 -0.003109 0.012115 0.000030 -0.003891 -0.001574
# 4 0.001130 -0.001455 0.000030 0.027738 -0.004427 0.001043
# 5 0.001449 0.001978 -0.003891 -0.004427 0.026229 0.002409
# 6 0.001987 -0.003882 -0.001574 0.001043 0.002409 0.021216
#
#
# Mechanical properties :
#
#
# Convention : Reuss Voigt Hill
#
# Bulk Modulus (GPa) = 85.92182 97.64489 91.78335
# Shear Modulus (GPa) = 41.08984 47.00581 44.04782
#
# Velocity S-wave (km/s) = 3.99417 4.27204 4.13544
# Velocity P-wave (km/s) = 7.39128 7.88955 7.64448
#
# Compressibility (1/GPa) = 0.01163849
#
# Stress axis : x y z
#
# Youngs Moduli (GPa) = 136.36801 130.17254 82.54078
#
# Poissons Ratio (x) = 0.27874 0.20602
# Poissons Ratio (y) = 0.29201 0.25659
# Poissons Ratio (z) = 0.34037 0.40466
#
# Static dielectric constant tensor:
#      x y z
#    x 1.981420 -0.018910 0.002610 
#    y -0.018910 1.982940 -0.005840 
#    z 0.002610 -0.005840 2.018260 
# 
# From -- ./inp_files/330699.got.cif
#   From: 2010.05.17/outbox.cif.g08.bks.cpg/sg2_166_cif.got.tgz:330699.got - 2010.06.03 11:33:40.
