data_PCOD9070122
_publ_section_title
;
Structure prediction by ZEFSAII (Michael W. Deem and Ramdas Pophale) SiO2 
 PCOD9070122
Probable space group: P -1
;
_chemical_formula_sum "Si O2"
_cell_formula_units_Z 16
_cell_length_a 12.185330
_cell_length_b 8.303019
_cell_length_c 16.409112
_cell_angle_alpha 68.318292
_cell_angle_beta 144.611672
_cell_angle_gamma 133.416107
_cell_volume 622.351665
_symmetry_space_group_name_H-M "P -1"
_symmetry_group_IT_number 2
_symmetry_cell_setting 'triclinic'
loop_
_space_group_symop_operation_xyz
x,y,z
-x,-y,-z
loop_
_atom_site_type_symbol
_atom_site_label
_atom_site_fract_x
_atom_site_fract_y
_atom_site_fract_z
Si Si1 0.849043 0.858480 0.723114
Si Si2 0.956598 0.348700 0.079013
Si Si3 0.259447 0.009509 0.520214
Si Si4 0.461770 0.277885 0.040959
Si Si5 0.363230 0.474299 0.740292
Si Si6 0.524429 0.183016 0.392836
Si Si7 0.982164 0.416164 0.270996
Si Si8 0.367012 0.089610 0.761136
O O1 0.760073 0.953459 0.711888
O O2 0.818097 0.657806 0.790300
O O3 0.718071 0.819919 0.564012
O O4 0.170728 0.043894 0.871336
O O5 0.011309 0.440222 0.187570
O O6 0.623228 0.125562 0.916093
O O7 0.000000 0.500000 0.000000
O O8 0.448832 0.974830 0.612481
O O9 0.947952 0.734837 0.376916
O O10 0.300082 0.073398 0.628282
O O11 0.459863 0.291816 0.134933
O O12 0.724447 0.359968 0.149846
O O13 0.500000 0.500000 0.000000
O O14 0.382889 0.594426 0.647401
O O15 0.438321 0.322079 0.800833
O O16 0.749068 0.333501 0.571698
O O17 0.887634 0.167768 0.298423
#
# Coordination Sequence:
#
# PCOD9070122 Si02
#       8
#     2   2   2   2   2   2   2   2
#     4  12  28  48  77 111 154 202 255 318 384 442
#     4  12  29  50  74 114 157 199 251 319 385 448
#     4  12  25  47  76 111 154 197 258 310 373 457
#     4  12  24  46  77 110 146 202 261 313 365 456
#     4  12  24  45  76 112 149 197 262 304 376 453
#     4  12  27  47  74 113 154 201 249 319 381 450
#     4  12  25  48  81 104 153 205 256 307 379 454
#     4  12  26  47  77 113 153 201 253 314 376 455
#
# _framework density 25.708936000000001
#
# number of rings (size 3 to 8) (size 9 to 14) (size 15 to 20)
#    0.000    0.000    5.000    4.500    3.500    1.000 
#    2.250    0.000    0.000    0.000    0.000    0.000 
#    0.000    0.000    0.000    0.000    0.000    0.000 
#
# Total GULP energy -89524.544187 kJ/mol
# GULP energy per Si atom -5595.284012 kJ/mol
# Density = 2.565042 g / cm^3
# Si number density = 25.708936 Si / 1000 Ang^3
#
#
#
# Elastic Constant Matrix: (Units=GPa)
#
#
# Indices 1 2 3 4 5 6 
#
# 1 157.3876 28.5638 53.1445 -22.7293 0.2816 -22.2083
# 2 28.5638 68.6153 21.4190 -30.2974 -1.1228 -1.7423
# 3 53.1445 21.4190 115.5036 -25.9391 -6.4940 -9.4340
# 4 -22.7293 -30.2974 -25.9391 55.2718 2.6855 0.3146
# 5 0.2816 -1.1228 -6.4940 2.6855 57.0660 -7.6205
# 6 -22.2083 -1.7423 -9.4340 0.3146 -7.6205 37.7155
#
#
#
# Elastic Compliance Matrix: (Units=1/GPa)
#
#
# Indices 1 2 3 4 5 6 
#
# 1 0.008446 -0.002082 -0.002949 0.000920 0.000093 0.004150
# 2 -0.002082 0.019939 -0.000596 0.009807 -0.000204 -0.000577
# 3 -0.002949 -0.000596 0.011107 0.003605 0.001263 0.001239
# 4 0.000920 0.009807 0.003605 0.025548 -0.000389 0.001604
# 5 0.000093 -0.000204 0.001263 -0.000389 0.018221 0.004046
# 6 0.004150 -0.000577 0.001239 0.001604 0.004046 0.030046
#
#
# Mechanical properties :
#
#
# Convention : Reuss Voigt Hill
#
# Bulk Modulus (GPa) = 35.41374 60.86236 48.13805
# Shear Modulus (GPa) = 37.32088 45.90260 41.61174
#
# Velocity S-wave (km/s) = 3.81421 4.23007 4.02751
# Velocity P-wave (km/s) = 5.76215 6.89804 6.35552
#
# Compressibility (1/GPa) = 0.02823763
#
# Stress axis : x y z
#
# Youngs Moduli (GPa) = 118.40282 50.15264 90.03445
#
# Poissons Ratio (x) = 0.10443 0.26552
# Poissons Ratio (y) = 0.24655 0.05362
# Poissons Ratio (z) = 0.34919 0.02987
#
# Static dielectric constant tensor:
#      x y z
#    x 2.058250 0.188720 -0.120230 
#    y 0.188720 1.905440 -0.302830 
#    z -0.120230 -0.302830 2.162380 
# 
# From -- ./inp_files/286112.got.cif
#   From: 2010.05.17/outbox.cif.g08.bks.cpg/sg2_144_cif.got.tgz:286112.got - 2010.06.03 11:33:40.
