data_PCOD9070025
_publ_section_title
;
Structure prediction by ZEFSAII (Michael W. Deem and Ramdas Pophale) SiO2 
 PCOD9070025
Probable space group: P -1
;
_chemical_formula_sum "Si O2"
_cell_formula_units_Z 15
_cell_length_a 10.890059
_cell_length_b 8.683193
_cell_length_c 9.093574
_cell_angle_alpha 129.203175
_cell_angle_beta 79.593197
_cell_angle_gamma 109.383839
_cell_volume 628.068645
_symmetry_space_group_name_H-M "P -1"
_symmetry_group_IT_number 2
_symmetry_cell_setting 'triclinic'
loop_
_space_group_symop_operation_xyz
x,y,z
-x,-y,-z
loop_
_atom_site_type_symbol
_atom_site_label
_atom_site_fract_x
_atom_site_fract_y
_atom_site_fract_z
Si Si1 0.432332 0.672003 0.562822
Si Si2 0.654972 0.919469 0.453489
Si Si3 0.500000 0.000000 0.000000
Si Si4 0.381831 0.241475 0.966411
Si Si5 0.273031 0.589154 0.281269
Si Si6 0.871630 0.987056 0.927153
Si Si7 0.890226 0.822410 0.499727
Si Si8 0.017062 0.549788 0.853787
O O1 0.500000 0.500000 0.500000
O O2 0.522949 0.816824 0.506828
O O3 0.300208 0.576237 0.442534
O O4 0.430530 0.824803 0.787499
O O5 0.642353 0.856637 0.248259
O O6 0.757711 0.819098 0.445792
O O7 0.703348 0.168219 0.614123
O O8 0.499258 0.188045 0.992342
O O9 0.371405 0.477001 0.114509
O O10 0.259818 0.126815 0.029731
O O11 0.126265 0.469106 0.192460
O O12 0.881015 0.884313 0.706986
O O13 0.881382 0.225811 0.043693
O O14 0.000000 0.000000 0.000000
O O15 0.928617 0.614007 0.342285
O O16 0.000000 0.000000 0.500000
O O17 0.000000 0.500000 0.000000
#
# Coordination Sequence:
#
# PCOD9070025 Si02
#       8
#     2   2   1   2   2   2   2   2
#     4  12  28  50  77 111 146 193 250 307 374 436
#     4  12  27  49  76 105 151 193 245 309 367 444
#     4  12  26  48  76 104 152 186 246 310 364 436
#     4  12  27  47  75 109 148 195 245 302 371 438
#     4  12  25  46  77 107 147 192 249 298 371 440
#     4  12  26  45  74 108 149 192 245 304 366 434
#     4  12  24  44  75 107 146 192 245 303 365 436
#     4  12  25  46  74 110 147 194 243 302 367 441
#
# _framework density 23.882739999999998
#
# number of rings (size 3 to 8) (size 9 to 14) (size 15 to 20)
#    0.000    0.000    6.667    2.800    0.000    4.267 
#    0.000    0.000    0.000    0.000    0.000    0.000 
#    0.000    0.000    0.000    0.000    0.000    0.000 
#
# Total GULP energy -83850.292106 kJ/mol
# GULP energy per Si atom -5590.019474 kJ/mol
# Density = 2.382838 g / cm^3
# Si number density = 23.882740 Si / 1000 Ang^3
#
#
#
# Elastic Constant Matrix: (Units=GPa)
#
#
# Indices 1 2 3 4 5 6 
#
# 1 62.4726 6.6605 49.3643 -17.0054 9.1099 -18.5071
# 2 6.6605 101.5809 61.5886 2.3084 -6.4678 0.2198
# 3 49.3643 61.5886 216.4035 -16.8699 3.4564 -12.5003
# 4 -17.0054 2.3084 -16.8699 64.7119 -20.6089 -1.8337
# 5 9.1099 -6.4678 3.4564 -20.6089 39.9661 0.1200
# 6 -18.5071 0.2198 -12.5003 -1.8337 0.1200 53.7341
#
#
#
# Elastic Compliance Matrix: (Units=1/GPa)
#
#
# Indices 1 2 3 4 5 6 
#
# 1 0.023346 0.001152 -0.004877 0.004205 -0.002566 0.007051
# 2 0.001152 0.012229 -0.003851 -0.000599 0.001743 -0.000573
# 3 -0.004877 -0.003851 0.006880 0.000735 0.000273 -0.000039
# 4 0.004205 -0.000599 0.000735 0.019715 0.009040 0.002274
# 5 -0.002566 0.001743 0.000273 0.009040 0.030528 -0.000587
# 6 0.007051 -0.000573 -0.000039 0.002274 -0.000587 0.021111
#
#
# Mechanical properties :
#
#
# Convention : Reuss Voigt Hill
#
# Bulk Modulus (GPa) = 36.62584 68.40929 52.51756
# Shear Modulus (GPa) = 36.21567 49.20531 42.71049
#
# Velocity S-wave (km/s) = 3.89832 4.54396 4.23347
# Velocity P-wave (km/s) = 5.96921 7.49908 6.77745
#
# Compressibility (1/GPa) = 0.02730313
#
# Stress axis : x y z
#
# Youngs Moduli (GPa) = 42.83471 81.76973 145.34389
#
# Poissons Ratio (x) = -0.09421 0.70888
# Poissons Ratio (y) = -0.04935 0.55971
# Poissons Ratio (z) = 0.20892 0.31489
#
# Static dielectric constant tensor:
#      x y z
#    x 2.031760 0.035050 0.003330 
#    y 0.035050 1.992190 0.062940 
#    z 0.003330 0.062940 1.856470 
# 
# From -- ./inp_files/241453.got.cif
#   From: 2010.05.17/outbox.cif.g08.bks.cpg/sg2_121_cif.got.tgz:241453.got - 2010.06.03 11:33:40.
