data_PCOD9070288
_publ_section_title
;
Structure prediction by ZEFSAII (Michael W. Deem and Ramdas Pophale) SiO2 
 PCOD9070288
Probable space group: P -1
;
_chemical_formula_sum "Si O2"
_cell_formula_units_Z 14
_cell_length_a 9.231600
_cell_length_b 17.881241
_cell_length_c 8.556974
_cell_angle_alpha 55.408706
_cell_angle_beta 32.257536
_cell_angle_gamma 57.974233
_cell_volume 616.561613
_symmetry_space_group_name_H-M "P -1"
_symmetry_group_IT_number 2
_symmetry_cell_setting 'triclinic'
loop_
_space_group_symop_operation_xyz
x,y,z
-x,-y,-z
loop_
_atom_site_type_symbol
_atom_site_label
_atom_site_fract_x
_atom_site_fract_y
_atom_site_fract_z
Si Si1 0.825458 0.742994 0.940956
Si Si2 0.605165 0.263842 0.409185
Si Si3 0.473073 0.095252 0.538100
Si Si4 0.084158 0.877880 0.152685
Si Si5 0.452490 0.602567 0.983575
Si Si6 0.505275 0.062554 0.073614
Si Si7 0.009571 0.329988 0.446562
O O1 0.664316 0.838215 0.910513
O O2 0.929223 0.673825 0.789230
O O3 0.097775 0.765236 0.754732
O O4 0.611085 0.700876 0.301026
O O5 0.472084 0.177366 0.563712
O O6 0.647748 0.333214 0.147894
O O7 0.175117 0.081554 0.760955
O O8 0.593114 0.003016 0.624642
O O9 0.657363 0.123553 0.195931
O O10 0.026604 0.774886 0.358818
O O11 0.192709 0.918946 0.165034
O O12 0.730804 0.638580 0.741567
O O13 0.500000 0.500000 0.000000
O O14 0.249980 0.612850 0.304412
O O15 0.500000 0.000000 0.000000
#
# Coordination Sequence:
#
# PCOD9070288 Si02
#       7
#     2   2   2   2   2   2   2
#     4  12  27  46  71 104 152 200 234 288 370 430
#     4  12  24  48  72 105 146 191 236 300 370 432
#     4  12  25  45  69  99 147 191 252 303 341 413
#     4  12  24  47  68 100 142 199 243 297 357 416
#     4  12  26  49  82 113 136 179 245 305 361 446
#     4  12  27  44  67 108 148 196 255 302 340 413
#     4  12  24  48  75 106 147 191 236 293 373 438
#
# _framework density 22.706572000000001
#
# number of rings (size 3 to 8) (size 9 to 14) (size 15 to 20)
#    0.000    0.000    4.286    6.429    0.000    2.857 
#    0.000    4.286    0.000    0.000    0.000    0.000 
#    0.000    0.000    0.000    0.000    0.000    0.000 
#
# Total GULP energy -78385.606579 kJ/mol
# GULP energy per Si atom -5598.971899 kJ/mol
# Density = 2.265489 g / cm^3
# Si number density = 22.706572 Si / 1000 Ang^3
#
#
#
# Elastic Constant Matrix: (Units=GPa)
#
#
# Indices 1 2 3 4 5 6 
#
# 1 -163.4235 186.1078 159.9797 -404.1141 -69.6616 212.4912
# 2 186.1078 29.1372 -40.0992 187.8673 7.3565 -67.4091
# 3 159.9797 -40.0992 73.6887 173.5603 -7.0872 -67.7798
# 4 -404.1141 187.8673 173.5603 -509.7274 -39.0596 267.5347
# 5 -69.6616 7.3565 -7.0872 -39.0596 43.2465 26.5443
# 6 212.4912 -67.4091 -67.7798 267.5347 26.5443 -103.5007
#
#
#
# Elastic Compliance Matrix: (Units=1/GPa)
#
#
# Indices 1 2 3 4 5 6 
#
# 1 0.008807 -0.003392 -0.000193 -0.007840 0.006530 0.001827
# 2 -0.003392 0.015861 0.000397 0.001269 0.001564 -0.013873
# 3 -0.000193 0.000397 0.009525 -0.000608 0.005036 -0.007173
# 4 -0.007840 0.001269 -0.000608 0.013331 -0.010292 0.015297
# 5 0.006530 0.001564 0.005036 -0.010292 0.030806 -0.009614
# 6 0.001827 -0.013873 -0.007173 0.015297 -0.009614 0.044895
#
#
# Mechanical properties :
#
#
# Convention : Reuss Voigt Hill
#
# Bulk Modulus (GPa) = 35.95024 61.26431 48.60728
# Shear Modulus (GPa) = 36.00370 -138.43539 -51.21584
#
# Velocity S-wave (km/s) = 3.98629 -7.81661 -4.75442
# Velocity P-wave (km/s) = 6.08722 7.37743 2.94723
#
# Compressibility (1/GPa) = 0.02781622
#
# Stress axis : x y z
#
# Youngs Moduli (GPa) = 113.54506 63.04712 104.98946
#
# Poissons Ratio (x) = 0.21388 0.02024
# Poissons Ratio (y) = 0.38518 -0.04165
# Poissons Ratio (z) = 0.02189 -0.02501
#
# Static dielectric constant tensor:
#      x y z
#    x 1.881090 0.009190 0.047730 
#    y 0.009190 1.824500 0.039560 
#    z 0.047730 0.039560 1.865600 
# 
# From -- ./inp_files/216898.got.cif
#   From: 2010.05.17/outbox.cif.g08.bks.cpg/sg2_109_cif.got.tgz:216898.got - 2010.06.03 11:33:40.
