data_PCOD9070899
_publ_section_title
;
Structure prediction by ZEFSAII (Michael W. Deem and Ramdas Pophale) SiO2 
 PCOD9070899
Probable space group: P -1
;
_chemical_formula_sum "Si O2"
_cell_formula_units_Z 16
_cell_length_a 6.766532
_cell_length_b 20.623714
_cell_length_c 10.399223
_cell_angle_alpha 141.190007
_cell_angle_beta 55.787151
_cell_angle_gamma 95.793213
_cell_volume 571.194487
_symmetry_space_group_name_H-M "P -1"
_symmetry_group_IT_number 2
_symmetry_cell_setting 'triclinic'
loop_
_space_group_symop_operation_xyz
x,y,z
-x,-y,-z
loop_
_atom_site_type_symbol
_atom_site_label
_atom_site_fract_x
_atom_site_fract_y
_atom_site_fract_z
Si Si1 0.808705 0.409127 0.264663
Si Si2 0.815277 0.892829 0.239647
Si Si3 0.772987 0.101142 0.660301
Si Si4 0.320727 0.399681 0.234022
Si Si5 0.734356 0.896248 0.644751
Si Si6 0.102915 0.086552 0.048096
Si Si7 0.865103 0.623915 0.148956
Si Si8 0.636535 0.349477 0.760444
O O1 0.016317 0.250302 0.972036
O O2 0.978708 0.431707 0.360566
O O3 0.939536 0.442630 0.154014
O O4 0.512377 0.437658 0.321373
O O5 0.454749 0.930695 0.383553
O O6 0.974964 0.865919 0.998139
O O7 0.009961 0.928165 0.324974
O O8 0.473850 0.259640 0.037736
O O9 0.982735 0.104532 0.482478
O O10 0.494716 0.372447 0.990484
O O11 0.488195 0.972483 0.732786
O O12 0.012337 0.786370 0.619775
O O13 0.500000 0.000000 0.000000
O O14 0.000000 0.000000 0.000000
O O15 0.519416 0.690897 0.339311
O O16 0.857727 0.744772 0.378400
O O17 0.000000 0.500000 0.000000
O O18 0.500000 0.500000 0.000000
#
# Coordination Sequence:
#
# PCOD9070899 Si02
#       8
#     2   2   2   2   2   2   2   2
#     4  12  27  48  75 108 151 200 248 311 384 449
#     4  12  26  48  77 111 150 202 254 312 378 457
#     4  12  27  46  73 111 149 192 249 309 375 449
#     4  12  25  49  75 108 150 197 252 310 372 457
#     4  12  27  49  74 108 150 197 248 313 379 452
#     4  12  25  47  78 108 149 202 257 313 381 449
#     4  12  29  49  74 108 154 198 252 317 383 454
#     4  12  28  48  74 111 148 197 256 312 380 455
#
# _framework density 28.011472999999999
#
# number of rings (size 3 to 8) (size 9 to 14) (size 15 to 20)
#    0.000    0.000    2.500    7.500    7.000    2.000 
#    0.000    0.000    0.000    0.000    0.000    0.000 
#    0.000    0.000    0.000    0.000    0.000    0.000 
#
# Total GULP energy -89417.597923 kJ/mol
# GULP energy per Si atom -5588.599870 kJ/mol
# Density = 2.794772 g / cm^3
# Si number density = 28.011473 Si / 1000 Ang^3
#
#
#
# Elastic Constant Matrix: (Units=GPa)
#
#
# Indices 1 2 3 4 5 6 
#
# 1 227.4981 62.8812 61.1143 31.8894 9.4219 2.0171
# 2 62.8812 244.5127 107.7370 38.5287 7.0309 -12.4901
# 3 61.1143 107.7370 175.3006 19.0488 16.3374 -7.5624
# 4 31.8894 38.5287 19.0488 59.0401 -5.8596 -1.7029
# 5 9.4219 7.0309 16.3374 -5.8596 81.3737 23.3695
# 6 2.0171 -12.4901 -7.5624 -1.7029 23.3695 80.7136
#
#
#
# Elastic Compliance Matrix: (Units=1/GPa)
#
#
# Indices 1 2 3 4 5 6 
#
# 1 0.005178 -0.000430 -0.001282 -0.002149 -0.000388 -0.000249
# 2 -0.000430 0.006101 -0.003259 -0.002699 -0.000205 0.000652
# 3 -0.001282 -0.003259 0.008320 0.000013 -0.001448 0.000727
# 4 -0.002149 -0.002699 0.000013 0.020046 0.002079 -0.000542
# 5 -0.000388 -0.000205 -0.001448 0.002079 0.013988 -0.004164
# 6 -0.000249 0.000652 0.000727 -0.000542 -0.004164 0.013759
#
#
# Mechanical properties :
#
#
# Convention : Reuss Voigt Hill
#
# Bulk Modulus (GPa) = 103.55940 123.41962 113.48951
# Shear Modulus (GPa) = 62.07125 71.93074 67.00100
#
# Velocity S-wave (km/s) = 4.71247 5.07295 4.89602
# Velocity P-wave (km/s) = 8.16458 8.85828 8.51849
#
# Compressibility (1/GPa) = 0.00965629
#
# Stress axis : x y z
#
# Youngs Moduli (GPa) = 193.11191 163.91229 120.19932
#
# Poissons Ratio (x) = 0.07043 0.15413
# Poissons Ratio (y) = 0.08298 0.39175
# Poissons Ratio (z) = 0.24763 0.53422
#
# Static dielectric constant tensor:
#      x y z
#    x 2.540560 -0.278290 -0.275130 
#    y -0.278290 2.154450 0.051020 
#    z -0.275130 0.051020 1.821650 
# 
# From -- ./inp_files/56671.got.cif
#   From: 2010.05.17/outbox.cif.g08.bks.cpg/sg2_29_cif.got.tgz:56671.got - 2010.06.03 11:33:40.
