data_PCOD9070700
_publ_section_title
;
Structure prediction by ZEFSAII (Michael W. Deem and Ramdas Pophale) SiO2 
 PCOD9070700
Probable space group: P -1
;
_chemical_formula_sum "Si O2"
_cell_formula_units_Z 16
_cell_length_a 14.993125
_cell_length_b 12.248924
_cell_length_c 18.067058
_cell_angle_alpha 25.707096
_cell_angle_beta 149.866730
_cell_angle_gamma 133.345062
_cell_volume 653.523170
_symmetry_space_group_name_H-M "P -1"
_symmetry_group_IT_number 2
_symmetry_cell_setting 'triclinic'
loop_
_space_group_symop_operation_xyz
x,y,z
-x,-y,-z
loop_
_atom_site_type_symbol
_atom_site_label
_atom_site_fract_x
_atom_site_fract_y
_atom_site_fract_z
Si Si1 0.567654 0.664672 0.746651
Si Si2 0.787188 0.709054 0.749717
Si Si3 0.038624 0.019050 0.184829
Si Si4 0.818549 0.171298 0.318234
Si Si5 0.319985 0.658632 0.326570
Si Si6 0.223446 0.614424 0.451555
Si Si7 0.918725 0.353312 0.426062
Si Si8 0.465964 0.100498 0.164601
O O1 0.701192 0.550810 0.838854
O O2 0.393329 0.569277 0.662495
O O3 0.500000 0.000000 0.500000
O O4 0.707682 0.497046 0.016416
O O5 0.609312 0.897309 0.454078
O O6 0.811488 0.929681 0.686918
O O7 0.000000 0.500000 0.000000
O O8 0.090346 0.928506 0.192145
O O9 0.009175 0.793341 0.353224
O O10 0.864624 0.323466 0.863589
O O11 0.904806 0.152677 0.473918
O O12 0.636016 0.084425 0.239330
O O13 0.000000 0.000000 0.500000
O O14 0.500000 0.500000 0.500000
O O15 0.309918 0.579670 0.452285
O O16 0.314009 0.964049 0.128543
O O17 0.082011 0.460042 0.453302
O O18 0.690990 0.583368 0.127309
#
# Coordination Sequence:
#
# PCOD9070700 Si02
#       8
#     2   2   2   2   2   2   2   2
#     4  12  26  46  77 108 144 197 253 303 367 451
#     4  12  25  45  73 106 148 189 247 309 369 435
#     4  12  26  47  75 103 148 193 245 306 369 439
#     4  12  29  48  75 112 152 198 249 314 380 441
#     4  12  29  47  74 108 151 194 243 310 378 442
#     4  12  27  48  74 111 143 194 253 307 370 446
#     4  12  28  48  75 109 149 196 250 309 370 448
#     4  12  25  50  75 105 148 194 254 302 370 450
#
# _framework density 24.482683000000002
#
# number of rings (size 3 to 8) (size 9 to 14) (size 15 to 20)
#    0.000    0.000    5.000    4.125    5.250    0.000 
#    0.000    1.250    0.000    0.000    0.000    0.000 
#    0.000    0.000    0.000    0.000    0.000    0.000 
#
# Total GULP energy -89173.006584 kJ/mol
# GULP energy per Si atom -5573.312912 kJ/mol
# Density = 2.442696 g / cm^3
# Si number density = 24.482683 Si / 1000 Ang^3
#
#
#
# Elastic Constant Matrix: (Units=GPa)
#
#
# Indices 1 2 3 4 5 6 
#
# 1 162.4602 29.5901 55.7601 11.0856 22.0390 -9.3925
# 2 29.5901 61.5822 12.0222 15.0645 1.2666 3.1839
# 3 55.7601 12.0222 104.6780 21.1065 -10.6591 -19.9540
# 4 11.0856 15.0645 21.1065 30.6942 -2.9527 1.3184
# 5 22.0390 1.2666 -10.6591 -2.9527 42.5351 11.3391
# 6 -9.3925 3.1839 -19.9540 1.3184 11.3391 43.3009
#
#
#
# Elastic Compliance Matrix: (Units=1/GPa)
#
#
# Indices 1 2 3 4 5 6 
#
# 1 0.009542 -0.003840 -0.005279 0.001378 -0.006477 0.001573
# 2 -0.003840 0.020126 0.001415 -0.009235 0.001582 -0.001794
# 3 -0.005279 0.001415 0.015470 -0.009195 0.004612 0.004952
# 4 0.001378 -0.009235 -0.009195 0.043305 0.001595 -0.004995
# 5 -0.006477 0.001582 0.004612 0.001595 0.030034 -0.007309
# 6 0.001573 -0.001794 0.004952 -0.004995 -0.007309 0.027916
#
#
# Mechanical properties :
#
#
# Convention : Reuss Voigt Hill
#
# Bulk Modulus (GPa) = 33.63479 58.16280 45.89879
# Shear Modulus (GPa) = 29.11858 38.72926 33.92392
#
# Velocity S-wave (km/s) = 3.45244 3.98163 3.72644
# Velocity P-wave (km/s) = 5.44615 6.70419 6.10764
#
# Compressibility (1/GPa) = 0.02973112
#
# Stress axis : x y z
#
# Youngs Moduli (GPa) = 104.79708 49.68585 64.63957
#
# Poissons Ratio (x) = 0.19077 0.34126
# Poissons Ratio (y) = 0.40238 -0.09146
# Poissons Ratio (z) = 0.55327 -0.07030
#
# Static dielectric constant tensor:
#      x y z
#    x 1.357150 0.661140 -1.140180 
#    y 0.661140 1.527450 0.951020 
#    z -1.140180 0.951020 -0.037770 
# 
# From -- ./inp_files/573571.got.cif
#   From: 2010.05.17/outbox.cif.g08.bks.cpg/sg2_287_cif.got.tgz:573571.got - 2010.06.03 11:33:40.
