data_PCOD9070499
_publ_section_title
;
Structure prediction by ZEFSAII (Michael W. Deem and Ramdas Pophale) SiO2 
 PCOD9070499
Probable space group: P -1
;
_chemical_formula_sum "Si O2"
_cell_formula_units_Z 16
_cell_length_a 9.128368
_cell_length_b 8.901134
_cell_length_c 22.378510
_cell_angle_alpha 28.599136
_cell_angle_beta 60.081912
_cell_angle_gamma 60.225322
_cell_volume 746.816541
_symmetry_space_group_name_H-M "P -1"
_symmetry_group_IT_number 2
_symmetry_cell_setting 'triclinic'
loop_
_space_group_symop_operation_xyz
x,y,z
-x,-y,-z
loop_
_atom_site_type_symbol
_atom_site_label
_atom_site_fract_x
_atom_site_fract_y
_atom_site_fract_z
Si Si1 0.472460 0.398021 0.609406
Si Si2 0.182209 0.643973 0.264185
Si Si3 0.098327 0.679995 0.622805
Si Si4 0.524761 0.628162 0.134032
Si Si5 0.804364 0.608413 0.522568
Si Si6 0.830688 0.298274 0.260189
Si Si7 0.104348 0.341491 0.088683
Si Si8 0.398891 0.689855 0.900169
O O1 0.500000 0.500000 0.500000
O O2 0.298732 0.621535 0.585922
O O3 0.653760 0.427142 0.593147
O O4 0.432699 0.046899 0.757526
O O5 0.344754 0.546204 0.223329
O O6 0.195538 0.415080 0.398296
O O7 0.005566 0.597012 0.283968
O O8 0.187867 0.995707 0.167787
O O9 0.100914 0.676517 0.695488
O O10 0.000000 0.000000 0.500000
O O11 0.675267 0.547384 0.180360
O O12 0.571650 0.467185 0.116788
O O13 0.500000 0.000000 0.000000
O O14 0.000000 0.500000 0.500000
O O15 0.758387 0.966397 0.385735
O O16 0.987496 0.286113 0.187385
O O17 0.215228 0.618132 0.983357
O O18 0.000000 0.500000 0.000000
O O19 0.500000 0.500000 0.000000
#
# Coordination Sequence:
#
# PCOD9070499 Si02
#       8
#     2   2   2   2   2   2   2   2
#     4  12  29  48  79 113 155 202 259 318 391 462
#     4  12  25  46  74 106 155 192 253 313 377 453
#     4  12  29  47  72 120 157 197 259 323 381 452
#     4  12  27  49  74 110 148 201 251 315 380 456
#     4  12  25  45  79 110 150 197 253 309 384 458
#     4  12  27  47  79 109 154 200 254 314 390 453
#     4  12  24  49  73 104 146 206 249 304 380 461
#     4  12  28  47  78 111 152 195 262 317 385 457
#
# _framework density 21.424272999999999
#
# number of rings (size 3 to 8) (size 9 to 14) (size 15 to 20)
#    0.000    0.000    5.000    3.750    7.000    1.000 
#    0.000    1.875    0.000    0.000    0.000    0.000 
#    0.000    0.000    0.000    0.000    0.000    0.000 
#
# Total GULP energy -89361.757023 kJ/mol
# GULP energy per Si atom -5585.109814 kJ/mol
# Density = 2.137551 g / cm^3
# Si number density = 21.424273 Si / 1000 Ang^3
#
#
#
# Elastic Constant Matrix: (Units=GPa)
#
#
# Indices 1 2 3 4 5 6 
#
# 1 139.7829 18.1091 42.8427 -5.2585 4.2099 7.5956
# 2 18.1091 72.2720 41.5112 14.7787 6.8039 -4.3088
# 3 42.8427 41.5112 158.6845 -6.9349 3.4981 5.8851
# 4 -5.2585 14.7787 -6.9349 48.7745 0.7601 4.5891
# 5 4.2099 6.8039 3.4981 0.7601 54.5633 2.6441
# 6 7.5956 -4.3088 5.8851 4.5891 2.6441 29.6373
#
#
#
# Elastic Compliance Matrix: (Units=1/GPa)
#
#
# Indices 1 2 3 4 5 6 
#
# 1 0.008014 -0.001417 -0.001654 0.001260 -0.000251 -0.002104
# 2 -0.001417 0.019092 -0.005079 -0.007139 -0.002110 0.005441
# 3 -0.001654 -0.005079 0.008280 0.002760 0.000309 -0.002414
# 4 0.001260 -0.007139 0.002760 0.023715 0.000559 -0.005631
# 5 -0.000251 -0.002110 0.000309 0.000559 0.018682 -0.002057
# 6 -0.002104 0.005441 -0.002414 -0.005631 -0.002057 0.036606
#
#
# Mechanical properties :
#
#
# Convention : Reuss Voigt Hill
#
# Bulk Modulus (GPa) = 52.39710 63.96283 58.17996
# Shear Modulus (GPa) = 36.48251 44.48012 40.48131
#
# Velocity S-wave (km/s) = 4.13105 4.56143 4.35156
# Velocity P-wave (km/s) = 6.87489 7.59357 7.24315
#
# Compressibility (1/GPa) = 0.01908503
#
# Stress axis : x y z
#
# Youngs Moduli (GPa) = 124.78332 52.37851 120.76728
#
# Poissons Ratio (x) = 0.07424 0.19978
# Poissons Ratio (y) = 0.17687 0.61337
# Poissons Ratio (z) = 0.20642 0.26603
#
# Static dielectric constant tensor:
#      x y z
#    x 1.773130 -0.039240 0.033810 
#    y -0.039240 1.795230 -0.049620 
#    z 0.033810 -0.049620 2.052870 
# 
# From -- ./inp_files/587703.got.cif
#   From: 2010.05.17/outbox.cif.g08.bks.cpg/sg2_294_cif.got.tgz:587703.got - 2010.06.03 11:33:40.
