data_PCOD9070705
_publ_section_title
;
Structure prediction by ZEFSAII (Michael W. Deem and Ramdas Pophale) SiO2 
 PCOD9070705
Probable space group: P -1
;
_chemical_formula_sum "Si O2"
_cell_formula_units_Z 14
_cell_length_a 8.624358
_cell_length_b 7.849086
_cell_length_c 20.533658
_cell_angle_alpha 54.866708
_cell_angle_beta 147.273209
_cell_angle_gamma 126.868421
_cell_volume 593.096507
_symmetry_space_group_name_H-M "P -1"
_symmetry_group_IT_number 2
_symmetry_cell_setting 'triclinic'
loop_
_space_group_symop_operation_xyz
x,y,z
-x,-y,-z
loop_
_atom_site_type_symbol
_atom_site_label
_atom_site_fract_x
_atom_site_fract_y
_atom_site_fract_z
Si Si1 0.791258 0.548786 0.973757
Si Si2 0.539072 0.348405 0.489112
Si Si3 0.708219 0.430434 0.759960
Si Si4 0.715715 0.977628 0.800329
Si Si5 0.276245 0.138603 0.869694
Si Si6 0.131258 0.296071 0.657217
Si Si7 0.209525 0.922139 0.539581
O O1 0.780718 0.796517 0.910251
O O2 0.466681 0.386192 0.890735
O O3 0.000000 0.500000 0.000000
O O4 0.963421 0.510617 0.107809
O O5 0.500000 0.500000 0.500000
O O6 0.353964 0.407610 0.351267
O O7 0.885116 0.391461 0.584121
O O8 0.406206 0.109679 0.521640
O O9 0.465036 0.426772 0.730647
O O10 0.645610 0.184828 0.764417
O O11 0.446178 0.858644 0.684234
O O12 0.997215 0.073979 0.832663
O O13 0.171059 0.113944 0.762692
O O14 0.500000 0.000000 0.000000
O O15 0.989989 0.230670 0.550558
O O16 0.000000 0.000000 0.500000
#
# Coordination Sequence:
#
# PCOD9070705 Si02
#       7
#     2   2   2   2   2   2   2
#     4  12  27  46  77 106 143 202 249 302 371 439
#     4  12  25  46  73 109 148 186 250 308 375 440
#     4  12  26  48  71 110 147 196 245 306 371 445
#     4  12  26  51  72 106 159 187 251 311 366 444
#     4  12  26  47  75 109 148 195 255 307 364 441
#     4  12  25  45  74 107 148 196 240 310 374 439
#     4  12  26  46  74 110 147 195 243 307 373 444
#
# _framework density 23.604925999999999
#
# number of rings (size 3 to 8) (size 9 to 14) (size 15 to 20)
#    0.000    0.000    7.143    1.286    4.000    4.000 
#    0.000    0.000    0.000    0.000    0.000    0.000 
#    0.000    0.000    0.000    0.000    0.000    0.000 
#
# Total GULP energy -78402.355393 kJ/mol
# GULP energy per Si atom -5600.168242 kJ/mol
# Density = 2.355120 g / cm^3
# Si number density = 23.604926 Si / 1000 Ang^3
#
#
#
# Elastic Constant Matrix: (Units=GPa)
#
#
# Indices 1 2 3 4 5 6 
#
# 1 128.2185 14.2614 42.4073 1.0912 17.4540 3.6103
# 2 14.2614 53.0253 8.7333 3.8489 8.4602 5.3164
# 3 42.4073 8.7333 164.7238 -1.4512 -8.0872 3.9861
# 4 1.0912 3.8489 -1.4512 43.0831 10.0950 0.1788
# 5 17.4540 8.4602 -8.0872 10.0950 42.5393 -2.1542
# 6 3.6103 5.3164 3.9861 0.1788 -2.1542 38.7355
#
#
#
# Elastic Compliance Matrix: (Units=1/GPa)
#
#
# Indices 1 2 3 4 5 6 
#
# 1 0.009387 -0.001418 -0.002528 0.000808 -0.004275 -0.000662
# 2 -0.001418 0.020285 -0.000825 -0.000968 -0.003519 -0.002758
# 3 -0.002528 -0.000825 0.006894 -0.000228 0.002555 -0.000217
# 4 0.000808 -0.000968 -0.000228 0.024691 -0.006061 -0.000370
# 5 -0.004275 -0.003519 0.002555 -0.006061 0.027997 0.002203
# 6 -0.000662 -0.002758 -0.000217 -0.000370 0.002203 0.026403
#
#
# Mechanical properties :
#
#
# Convention : Reuss Voigt Hill
#
# Bulk Modulus (GPa) = 37.00610 52.97461 44.99035
# Shear Modulus (GPa) = 37.25589 43.57596 40.41593
#
# Velocity S-wave (km/s) = 3.97710 4.30123 4.14234
# Velocity P-wave (km/s) = 6.06639 6.86720 6.47918
#
# Compressibility (1/GPa) = 0.02702257
#
# Stress axis : x y z
#
# Youngs Moduli (GPa) = 106.53187 49.29864 145.05249
#
# Poissons Ratio (x) = 0.06993 0.36672
# Poissons Ratio (y) = 0.15111 0.11964
# Poissons Ratio (z) = 0.26933 0.04066
#
# Static dielectric constant tensor:
#      x y z
#    x 1.875300 -0.130030 -0.133510 
#    y -0.130030 2.145950 0.345810 
#    z -0.133510 0.345810 2.414230 
# 
# From -- ./inp_files/224323.got.cif
#   From: 2010.05.17/outbox.cif.g08.bks.cpg/sg2_113_cif.got.tgz:224323.got - 2010.06.03 11:33:40.
