data_PCOD9070505
_publ_section_title
;
Structure prediction by ZEFSAII (Michael W. Deem and Ramdas Pophale) SiO2 
 PCOD9070505
Probable space group: P -1
;
_chemical_formula_sum "Si O2"
_cell_formula_units_Z 11
_cell_length_a 8.722812
_cell_length_b 11.322286
_cell_length_c 16.069680
_cell_angle_alpha 24.884404
_cell_angle_beta 126.906838
_cell_angle_gamma 137.840372
_cell_volume 433.457403
_symmetry_space_group_name_H-M "P -1"
_symmetry_group_IT_number 2
_symmetry_cell_setting 'triclinic'
loop_
_space_group_symop_operation_xyz
x,y,z
-x,-y,-z
loop_
_atom_site_type_symbol
_atom_site_label
_atom_site_fract_x
_atom_site_fract_y
_atom_site_fract_z
Si Si1 0.353334 0.731698 0.197587
Si Si2 0.146499 0.344684 0.631561
Si Si3 0.545891 0.372512 0.285064
Si Si4 0.867275 0.610130 0.083775
Si Si5 0.500000 0.500000 0.500000
Si Si6 0.266194 0.664787 0.952369
O O1 0.338585 0.393645 0.425988
O O2 0.098515 0.647944 0.167587
O O3 0.500000 0.000000 0.000000
O O4 0.546896 0.940536 0.204134
O O5 0.329273 0.474135 0.684741
O O6 0.263398 0.402098 0.544206
O O7 0.000000 0.500000 0.500000
O O8 0.962187 0.939768 0.846907
O O9 0.346041 0.437799 0.164654
O O10 0.500000 0.000000 0.500000
O O11 0.722725 0.591319 0.126873
O O12 0.715490 0.315851 0.153749
O O13 0.000000 0.500000 0.000000
#
# Coordination Sequence:
#
# PCOD9070505 Si02
#       6
#     2   2   2   2   1   2
#     4  12  24  49  74 116 154 209 261 332 399 478
#     4  12  26  48  79 116 160 210 271 330 405 484
#     4  12  28  49  76 117 160 211 272 333 403 485
#     4  12  26  50  78 111 160 210 264 332 409 472
#     4  12  26  44  82 114 158 204 270 322 404 482
#     4  12  25  45  78 110 157 204 266 327 401 474
#
# _framework density 25.377348999999999
#
# number of rings (size 3 to 8) (size 9 to 14) (size 15 to 20)
#    0.000    0.000    5.455    3.273    5.091    1.455 
#    0.000    1.818    0.000    0.000    0.000    0.000 
#    0.000    0.000    0.000    0.000    0.000    0.000 
#
# Total GULP energy -61419.039869 kJ/mol
# GULP energy per Si atom -5583.549079 kJ/mol
# Density = 2.531959 g / cm^3
# Si number density = 25.377349 Si / 1000 Ang^3
#
#
#
# Elastic Constant Matrix: (Units=GPa)
#
#
# Indices 1 2 3 4 5 6 
#
# 1 177.9153 45.8198 72.1276 33.0172 -4.9570 15.0591
# 2 45.8198 135.8408 31.7641 27.3969 3.5925 -8.6409
# 3 72.1276 31.7641 150.1354 19.5434 3.8835 10.3873
# 4 33.0172 27.3969 19.5434 54.7663 1.8142 12.0670
# 5 -4.9570 3.5925 3.8835 1.8142 76.0994 19.7766
# 6 15.0591 -8.6409 10.3873 12.0670 19.7766 52.4512
#
#
#
# Elastic Compliance Matrix: (Units=1/GPa)
#
#
# Indices 1 2 3 4 5 6 
#
# 1 0.007930 -0.001603 -0.003047 -0.002528 0.001286 -0.001841
# 2 -0.001603 0.009186 -0.000857 -0.004068 -0.001328 0.003580
# 3 -0.003047 -0.000857 0.008438 -0.000589 -0.000406 -0.000649
# 4 -0.002528 -0.004068 -0.000589 0.023214 0.000939 -0.005522
# 5 0.001286 -0.001328 -0.000406 0.000939 0.014937 -0.006356
# 6 -0.001841 0.003580 -0.000649 -0.005522 -0.006356 0.023979
#
#
# Mechanical properties :
#
#
# Convention : Reuss Voigt Hill
#
# Bulk Modulus (GPa) = 68.78311 84.81273 76.79792
# Shear Modulus (GPa) = 48.28795 57.60872 52.94834
#
# Velocity S-wave (km/s) = 4.36684 4.76971 4.57271
# Velocity P-wave (km/s) = 7.25181 7.98916 7.62940
#
# Compressibility (1/GPa) = 0.01453845
#
# Stress axis : x y z
#
# Youngs Moduli (GPa) = 126.10735 108.86136 118.51243
#
# Poissons Ratio (x) = 0.17455 0.36113
# Poissons Ratio (y) = 0.20221 0.10157
# Poissons Ratio (z) = 0.38427 0.09329
#
# Static dielectric constant tensor:
#      x y z
#    x 2.015620 -0.164100 0.484900 
#    y -0.164100 2.167810 -0.267840 
#    z 0.484900 -0.267840 2.433270 
# 
# From -- ./inp_files/168624.got.cif
#   From: 2010.05.17/outbox.cif.g08.bks.cpg/sg2_85_cif.got.tgz:168624.got - 2010.06.03 11:33:40.
