data_PCOD9070861
_publ_section_title
;
Structure prediction by ZEFSAII (Michael W. Deem and Ramdas Pophale) SiO2 
 PCOD9070861
Probable space group: P -1
;
_chemical_formula_sum "Si O2"
_cell_formula_units_Z 16
_cell_length_a 11.899304
_cell_length_b 16.795776
_cell_length_c 20.075651
_cell_angle_alpha 160.055751
_cell_angle_beta 42.178256
_cell_angle_gamma 146.668705
_cell_volume 730.679020
_symmetry_space_group_name_H-M "P -1"
_symmetry_group_IT_number 2
_symmetry_cell_setting 'triclinic'
loop_
_space_group_symop_operation_xyz
x,y,z
-x,-y,-z
loop_
_atom_site_type_symbol
_atom_site_label
_atom_site_fract_x
_atom_site_fract_y
_atom_site_fract_z
Si Si1 0.982157 0.703333 0.577573
Si Si2 0.350138 0.693915 0.364210
Si Si3 0.600664 0.425283 0.609803
Si Si4 0.652416 0.152469 0.787543
Si Si5 0.349760 0.258183 0.929412
Si Si6 0.537560 0.183019 0.009292
Si Si7 0.705319 0.509496 0.417727
Si Si8 0.072003 0.307942 0.676598
O O1 0.127425 0.622687 0.421698
O O2 0.818684 0.505305 0.551576
O O3 0.840821 0.669829 0.551333
O O4 0.145332 0.011708 0.784456
O O5 0.460309 0.724841 0.409712
O O6 0.500000 0.000000 0.500000
O O7 0.308265 0.420010 0.129125
O O8 0.604710 0.705266 0.835233
O O9 0.435300 0.187001 0.441948
O O10 0.481728 0.161776 0.829737
O O11 0.876396 0.319645 0.784559
O O12 0.645966 0.242764 0.936190
O O13 0.500000 0.500000 0.000000
O O14 0.726960 0.400712 0.147641
O O15 0.392597 0.835097 0.811313
O O16 0.500000 0.500000 0.500000
O O17 0.858830 0.671618 0.414213
O O18 0.000000 0.000000 0.500000
#
# Coordination Sequence:
#
# PCOD9070861 Si02
#       8
#     2   2   2   2   2   2   2   2
#     4  12  28  45  79 103 152 198 243 307 376 443
#     4  12  26  48  72 111 152 196 250 307 370 447
#     4  12  25  47  74 110 155 193 251 303 371 447
#     4  12  25  47  75 111 151 193 249 312 367 450
#     4  12  27  44  74 112 151 194 248 308 374 444
#     4  12  26  51  78 108 153 201 249 312 376 443
#     4  12  29  53  76 112 152 196 256 313 372 451
#     4  12  27  48  81 110 148 199 251 310 381 443
#
# _framework density 21.89744
#
# number of rings (size 3 to 8) (size 9 to 14) (size 15 to 20)
#    0.000    0.000    6.250    2.625    5.250    2.500 
#    0.000    0.000    0.000    0.000    0.000    0.000 
#    0.000    0.000    0.000    0.000    0.000    0.000 
#
# Total GULP energy -89464.929947 kJ/mol
# GULP energy per Si atom -5591.558122 kJ/mol
# Density = 2.184760 g / cm^3
# Si number density = 21.897440 Si / 1000 Ang^3
#
#
#
# Elastic Constant Matrix: (Units=GPa)
#
#
# Indices 1 2 3 4 5 6 
#
# 1 99.1250 36.8988 51.4340 -3.5116 10.5586 -1.0698
# 2 36.8988 144.2183 38.6132 -15.4750 -6.8583 -1.0279
# 3 51.4340 38.6132 116.1412 -23.3367 3.3970 1.9381
# 4 -3.5116 -15.4750 -23.3367 48.9243 1.8693 -1.9079
# 5 10.5586 -6.8583 3.3970 1.8693 45.2674 -4.0287
# 6 -1.0698 -1.0279 1.9381 -1.9079 -4.0287 42.3769
#
#
#
# Elastic Compliance Matrix: (Units=1/GPa)
#
#
# Indices 1 2 3 4 5 6 
#
# 1 0.014345 -0.002496 -0.005927 -0.002460 -0.003163 0.000161
# 2 -0.002496 0.008210 -0.001341 0.001723 0.001896 0.000455
# 3 -0.005927 -0.001341 0.012737 0.005207 -0.000039 -0.000534
# 4 -0.002460 0.001723 0.005207 0.023338 -0.000453 0.000749
# 5 -0.003163 0.001896 -0.000039 -0.000453 0.023330 0.002166
# 6 0.000161 0.000455 -0.000534 0.000749 0.002166 0.023877
#
#
# Mechanical properties :
#
#
# Convention : Reuss Voigt Hill
#
# Bulk Modulus (GPa) = 63.43949 68.15296 65.79622
# Shear Modulus (GPa) = 38.27891 42.81629 40.54760
#
# Velocity S-wave (km/s) = 4.18556 4.42669 4.30781
# Velocity P-wave (km/s) = 7.23828 7.57091 7.40646
#
# Compressibility (1/GPa) = 0.01576305
#
# Stress axis : x y z
#
# Youngs Moduli (GPa) = 69.71287 121.80299 78.51099
#
# Poissons Ratio (x) = 0.30407 0.46534
# Poissons Ratio (y) = 0.17403 0.10526
# Poissons Ratio (z) = 0.41319 0.16331
#
# Static dielectric constant tensor:
#      x y z
#    x 1.846260 -0.000960 0.007560 
#    y -0.000960 1.821140 -0.046740 
#    z 0.007560 -0.046740 1.845420 
# 
# From -- ./inp_files/596049.got.cif
#   From: 2010.05.17/outbox.cif.g08.bks.cpg/sg2_299_cif.got.tgz:596049.got - 2010.06.03 11:33:40.
