data_PCOD9070194
_publ_section_title
;
Structure prediction by ZEFSAII (Michael W. Deem and Ramdas Pophale) SiO2 
 PCOD9070194
Probable space group: P -1
;
_chemical_formula_sum "Si O2"
_cell_formula_units_Z 13
_cell_length_a 13.391433
_cell_length_b 16.189092
_cell_length_c 8.485961
_cell_angle_alpha 121.823639
_cell_angle_beta 47.424643
_cell_angle_gamma 151.585827
_cell_volume 632.480281
_symmetry_space_group_name_H-M "P -1"
_symmetry_group_IT_number 2
_symmetry_cell_setting 'triclinic'
loop_
_space_group_symop_operation_xyz
x,y,z
-x,-y,-z
loop_
_atom_site_type_symbol
_atom_site_label
_atom_site_fract_x
_atom_site_fract_y
_atom_site_fract_z
Si Si1 0.500000 0.500000 0.000000
Si Si2 0.222807 0.775276 0.384389
Si Si3 0.917973 0.434230 0.200293
Si Si4 0.910869 0.892851 0.828738
Si Si5 0.046582 0.317679 0.113290
Si Si6 0.640898 0.947109 0.652248
Si Si7 0.697854 0.953739 0.969252
O O1 0.264222 0.299831 0.127307
O O2 0.307215 0.442965 0.030900
O O3 0.140502 0.771513 0.632765
O O4 0.999070 0.576168 0.356977
O O5 0.294081 0.904061 0.318014
O O6 0.459761 0.847399 0.213833
O O7 0.053747 0.420656 0.108917
O O8 0.626419 0.240119 0.319115
O O9 0.000000 0.500000 0.000000
O O10 0.770347 0.888063 0.868733
O O11 0.148681 0.994708 0.586987
O O12 0.000000 0.000000 0.000000
O O13 0.925099 0.159324 0.981163
O O14 0.637399 0.931924 0.828385
#
# Coordination Sequence:
#
# PCOD9070194 Si02
#       7
#     1   2   2   2   2   2   2
#     4  12  26  48  68 104 140 184 244 288 350 416
#     4  12  24  46  74 106 139 187 240 294 352 421
#     4  12  26  45  73 110 142 186 234 296 358 422
#     4  12  27  47  71 102 142 190 239 294 353 422
#     4  12  26  45  75 105 143 187 243 296 350 424
#     4  12  26  47  72 106 147 184 238 291 364 424
#     4  12  24  47  73 102 149 189 229 299 360 423
#
# _framework density 20.554001
#
# number of rings (size 3 to 8) (size 9 to 14) (size 15 to 20)
#    0.000    0.000    6.154    3.692    4.308    0.000 
#    0.000    0.769    0.000    0.000    0.000    0.000 
#    0.000    0.000    0.000    0.000    0.000    0.000 
#
# Total GULP energy -72551.837381 kJ/mol
# GULP energy per Si atom -5580.910568 kJ/mol
# Density = 2.050722 g / cm^3
# Si number density = 20.554001 Si / 1000 Ang^3
#
#
#
# Elastic Constant Matrix: (Units=GPa)
#
#
# Indices 1 2 3 4 5 6 
#
# 1 153.1806 51.2853 15.5067 -9.3809 -17.9833 -3.8173
# 2 51.2853 119.6707 25.5038 -7.6734 -7.1726 3.6197
# 3 15.5067 25.5038 59.7040 -4.8347 -14.1814 20.0576
# 4 -9.3809 -7.6734 -4.8347 26.4699 3.0194 -10.0010
# 5 -17.9833 -7.1726 -14.1814 3.0194 34.3059 -10.4037
# 6 -3.8173 3.6197 20.0576 -10.0010 -10.4037 40.7103
#
#
#
# Elastic Compliance Matrix: (Units=1/GPa)
#
#
# Indices 1 2 3 4 5 6 
#
# 1 0.008369 -0.003116 -0.000685 0.002638 0.004164 0.003111
# 2 -0.003116 0.010594 -0.004138 0.001689 -0.000984 0.000968
# 3 -0.000685 -0.004138 0.023276 -0.001659 0.005457 -0.010177
# 4 0.002638 0.001689 -0.001659 0.043246 0.000806 0.011744
# 5 0.004164 -0.000984 0.005457 0.000806 0.035448 0.007046
# 6 0.003111 0.000968 -0.010177 0.011744 0.007046 0.034469
#
#
# Mechanical properties :
#
#
# Convention : Reuss Voigt Hill
#
# Bulk Modulus (GPa) = 37.93712 57.46077 47.69895
# Shear Modulus (GPa) = 27.76753 36.31452 32.04103
#
# Velocity S-wave (km/s) = 3.67952 4.20788 3.95254
# Velocity P-wave (km/s) = 6.04559 7.18505 6.63981
#
# Compressibility (1/GPa) = 0.02635941
#
# Stress axis : x y z
#
# Youngs Moduli (GPa) = 119.49297 94.39749 42.96290
#
# Poissons Ratio (x) = 0.29412 0.02944
# Poissons Ratio (y) = 0.37232 0.17779
# Poissons Ratio (z) = 0.08189 0.39064
#
# Static dielectric constant tensor:
#      x y z
#    x 1.720420 -0.004170 -0.003680 
#    y -0.004170 1.732690 0.015270 
#    z -0.003680 0.015270 1.714220 
# 
# From -- ./inp_files/238865.got.cif
#   From: 2010.05.17/outbox.cif.g08.bks.cpg/sg2_120_cif.got.tgz:238865.got - 2010.06.03 11:33:40.
