data_PCOD9070852
_publ_section_title
;
Structure prediction by ZEFSAII (Michael W. Deem and Ramdas Pophale) SiO2 
 PCOD9070852
Probable space group: P -1
;
_chemical_formula_sum "Si O2"
_cell_formula_units_Z 16
_cell_length_a 16.661164
_cell_length_b 20.052210
_cell_length_c 11.137212
_cell_angle_alpha 44.011522
_cell_angle_beta 36.001514
_cell_angle_gamma 20.227160
_cell_volume 741.467689
_symmetry_space_group_name_H-M "P -1"
_symmetry_group_IT_number 2
_symmetry_cell_setting 'triclinic'
loop_
_space_group_symop_operation_xyz
x,y,z
-x,-y,-z
loop_
_atom_site_type_symbol
_atom_site_label
_atom_site_fract_x
_atom_site_fract_y
_atom_site_fract_z
Si Si1 0.972912 0.939957 0.004559
Si Si2 0.909111 0.593850 0.293663
Si Si3 0.482120 0.343884 0.927457
Si Si4 0.417287 0.976956 0.527770
Si Si5 0.513836 0.435283 0.296183
Si Si6 0.332461 0.807148 0.369051
Si Si7 0.651113 0.803618 0.073498
Si Si8 0.934061 0.692319 0.640172
O O1 0.840901 0.925636 0.238409
O O2 0.264045 0.734296 0.854167
O O3 0.743051 0.126578 0.950824
O O4 0.000000 0.000000 0.000000
O O5 0.789553 0.699386 0.170488
O O6 0.002225 0.428290 0.377069
O O7 0.668162 0.754017 0.475126
O O8 0.180878 0.486514 0.140536
O O9 0.479659 0.456369 0.822648
O O10 0.515697 0.307275 0.791922
O O11 0.334592 0.085857 0.367511
O O12 0.500000 0.000000 0.500000
O O13 0.591087 0.322674 0.462366
O O14 0.195841 0.601964 0.439336
O O15 0.441497 0.843658 0.240778
O O16 0.000000 0.000000 0.500000
O O17 0.878244 0.676554 0.856187
O O18 0.500000 0.000000 0.000000
#
# Coordination Sequence:
#
# PCOD9070852 Si02
#       8
#     2   2   2   2   2   2   2   2
#     4  12  28  49  70 104 148 190 250 300 343 426
#     4  12  25  47  74 104 145 189 235 302 359 427
#     4  12  27  46  76 106 147 191 238 298 367 427
#     4  12  28  45  72 104 140 190 247 295 350 419
#     4  12  27  46  76 106 145 192 240 292 371 426
#     4  12  26  46  76 109 149 183 233 301 369 436
#     4  12  26  45  78 109 145 186 234 299 374 433
#     4  12  25  47  74 104 143 188 239 295 362 428
#
# _framework density 21.578823
#
# number of rings (size 3 to 8) (size 9 to 14) (size 15 to 20)
#    0.000    0.000    5.000    4.500    3.500    6.000 
#    0.000    0.000    0.000    0.000    0.000    0.000 
#    0.000    0.000    0.000    0.000    0.000    0.000 
#
# Total GULP energy -89580.213902 kJ/mol
# GULP energy per Si atom -5598.763369 kJ/mol
# Density = 2.152971 g / cm^3
# Si number density = 21.578823 Si / 1000 Ang^3
#
#
#
# Elastic Constant Matrix: (Units=GPa)
#
#
# Indices 1 2 3 4 5 6 
#
# 1 106.6087 12.2537 7.0791 2.6296 -17.6947 1.8289
# 2 12.2537 81.9652 19.3792 -1.5012 -10.8268 9.1847
# 3 7.0791 19.3792 134.4284 -13.1527 -19.2425 -14.2462
# 4 2.6296 -1.5012 -13.1527 43.6738 11.2808 -6.9938
# 5 -17.6947 -10.8268 -19.2425 11.2808 57.5451 2.7543
# 6 1.8289 9.1847 -14.2462 -6.9938 2.7543 24.2595
#
#
#
# Elastic Compliance Matrix: (Units=1/GPa)
#
#
# Indices 1 2 3 4 5 6 
#
# 1 0.010113 -0.000883 -0.000269 -0.001804 0.003278 -0.001479
# 2 -0.000883 0.014089 -0.002681 -0.002087 0.002261 -0.007701
# 3 -0.000269 -0.002681 0.009154 0.003467 0.001447 0.007246
# 4 -0.001804 -0.002087 0.003467 0.027284 -0.005686 0.011474
# 5 0.003278 0.002261 0.001447 -0.005686 0.020612 -0.004232
# 6 -0.001479 -0.007701 0.007246 0.011474 -0.004232 0.052292
#
#
# Mechanical properties :
#
#
# Convention : Reuss Voigt Hill
#
# Bulk Modulus (GPa) = 38.92524 44.49181 41.70853
# Shear Modulus (GPa) = 33.38345 44.04835 38.71590
#
# Velocity S-wave (km/s) = 3.93752 4.52295 4.24035
# Velocity P-wave (km/s) = 6.22494 6.92381 6.58365
#
# Compressibility (1/GPa) = 0.02569027
#
# Stress axis : x y z
#
# Youngs Moduli (GPa) = 98.87893 70.97485 109.24196
#
# Poissons Ratio (x) = 0.06264 0.02942
# Poissons Ratio (y) = 0.08727 0.29292
# Poissons Ratio (z) = 0.02663 0.19031
#
# Static dielectric constant tensor:
#      x y z
#    x 1.678480 -0.017440 0.047950 
#    y -0.017440 1.780870 0.002130 
#    z 0.047950 0.002130 1.735570 
# 
# From -- ./inp_files/226448.got.cif
#   From: 2010.05.17/outbox.cif.g08.bks.cpg/sg2_114_cif.got.tgz:226448.got - 2010.06.03 11:33:40.
