data_PCOD9070895
_publ_section_title
;
Structure prediction by ZEFSAII (Michael W. Deem and Ramdas Pophale) SiO2 
 PCOD9070895
Probable space group: P -1
;
_chemical_formula_sum "Si O2"
_cell_formula_units_Z 15
_cell_length_a 12.608674
_cell_length_b 12.590083
_cell_length_c 4.946450
_cell_angle_alpha 107.195644
_cell_angle_beta 59.905436
_cell_angle_gamma 77.022640
_cell_volume 579.235053
_symmetry_space_group_name_H-M "P -1"
_symmetry_group_IT_number 2
_symmetry_cell_setting 'triclinic'
loop_
_space_group_symop_operation_xyz
x,y,z
-x,-y,-z
loop_
_atom_site_type_symbol
_atom_site_label
_atom_site_fract_x
_atom_site_fract_y
_atom_site_fract_z
Si Si1 0.960984 0.784842 0.533925
Si Si2 0.635817 0.260321 0.317293
Si Si3 0.511915 0.913513 0.666627
Si Si4 0.261023 0.268714 0.457776
Si Si5 0.379262 0.408578 0.124149
Si Si6 0.115098 0.507417 0.164957
Si Si7 0.946529 0.131084 0.013874
Si Si8 0.500000 0.500000 0.500000
O O1 0.062299 0.644101 0.216535
O O2 0.995212 0.797287 0.808234
O O3 0.812348 0.796584 0.665260
O O4 0.988668 0.875964 0.368796
O O5 0.590230 0.151027 0.250981
O O6 0.782000 0.201563 0.232447
O O7 0.620362 0.349491 0.150207
O O8 0.503309 0.373618 0.725135
O O9 0.664579 0.803335 0.424478
O O10 0.500000 0.000000 0.500000
O O11 0.500000 0.000000 0.000000
O O12 0.376064 0.284828 0.148095
O O13 0.157449 0.405114 0.798565
O O14 0.244226 0.477585 0.171396
O O15 0.389837 0.481334 0.425074
O O16 0.000000 0.500000 0.500000
O O17 0.000000 0.000000 0.000000
#
# Coordination Sequence:
#
# PCOD9070895 Si02
#       8
#     2   2   2   2   2   2   2   1
#     4  12  29  50  81 114 157 212 266 330 409 477
#     4  12  29  50  81 113 166 208 275 335 411 487
#     4  12  29  49  82 115 157 210 270 335 400 473
#     4  12  27  48  82 117 157 202 271 337 406 484
#     4  12  25  48  77 120 160 203 265 333 417 486
#     4  12  25  47  77 120 162 200 260 341 412 486
#     4  12  32  54  78 112 160 220 275 327 397 488
#     4  12  26  46  76 118 162 208 258 330 414 496
#
# _framework density 25.896225000000001
#
# number of rings (size 3 to 8) (size 9 to 14) (size 15 to 20)
#    0.000    0.000    4.000    3.600   11.200    0.000 
#    0.000    0.000    0.000    0.000    0.000    0.000 
#    0.000    0.000    0.000    0.000    0.000    0.000 
#
# Total GULP energy -83897.219310 kJ/mol
# GULP energy per Si atom -5593.147954 kJ/mol
# Density = 2.583728 g / cm^3
# Si number density = 25.896225 Si / 1000 Ang^3
#
#
#
# Elastic Constant Matrix: (Units=GPa)
#
#
# Indices 1 2 3 4 5 6 
#
# 1 224.7638 42.1701 15.7223 -12.7141 0.3630 12.5177
# 2 42.1701 137.3630 -11.2084 9.0984 -8.1765 0.6755
# 3 15.7223 -11.2084 42.3661 -15.0332 4.4813 11.9574
# 4 -12.7141 9.0984 -15.0332 35.0562 -0.2927 3.3195
# 5 0.3630 -8.1765 4.4813 -0.2927 51.7418 5.3554
# 6 12.5177 0.6755 11.9574 3.3195 5.3554 56.0356
#
#
#
# Elastic Compliance Matrix: (Units=1/GPa)
#
#
# Indices 1 2 3 4 5 6 
#
# 1 0.005034 -0.001781 -0.001461 0.001745 -0.000089 -0.000886
# 2 -0.001781 0.008188 0.002092 -0.001851 0.001130 -0.000146
# 3 -0.001461 0.002092 0.031500 0.013089 -0.001584 -0.007045
# 4 0.001745 -0.001851 0.013089 0.035739 -0.000697 -0.005211
# 5 -0.000089 0.001130 -0.001584 -0.000697 0.019795 -0.001506
# 6 -0.000886 -0.000146 -0.007045 -0.005211 -0.001506 0.020001
#
#
# Mechanical properties :
#
#
# Convention : Reuss Voigt Hill
#
# Bulk Modulus (GPa) = 23.57250 55.31786 39.44518
# Shear Modulus (GPa) = 36.57725 52.42063 44.49894
#
# Velocity S-wave (km/s) = 3.76234 4.50406 4.14980
# Velocity P-wave (km/s) = 5.29113 6.96107 6.18274
#
# Compressibility (1/GPa) = 0.04242231
#
# Stress axis : x y z
#
# Youngs Moduli (GPa) = 198.66436 122.13013 31.74630
#
# Poissons Ratio (x) = 0.21751 0.04637
# Poissons Ratio (y) = 0.35381 -0.06642
# Poissons Ratio (z) = 0.29017 -0.25550
#
# Static dielectric constant tensor:
#      x y z
#    x 2.408790 -0.926440 -0.132800 
#    y -0.926440 4.298550 0.498020 
#    z -0.132800 0.498020 2.041470 
# 
# From -- ./inp_files/71616.got.cif
#   From: 2010.05.17/outbox.cif.g08.bks.cpg/sg2_36_cif.got.tgz:71616.got - 2010.06.03 11:33:40.
