data_PCOD9070085
_publ_section_title
;
Structure prediction by ZEFSAII (Michael W. Deem and Ramdas Pophale) SiO2 
 PCOD9070085
Probable space group: P -1
;
_chemical_formula_sum "Si O2"
_cell_formula_units_Z 16
_cell_length_a 9.436215
_cell_length_b 18.769268
_cell_length_c 5.628509
_cell_angle_alpha 122.764920
_cell_angle_beta 52.858695
_cell_angle_gamma 120.497543
_cell_volume 643.474722
_symmetry_space_group_name_H-M "P -1"
_symmetry_group_IT_number 2
_symmetry_cell_setting 'triclinic'
loop_
_space_group_symop_operation_xyz
x,y,z
-x,-y,-z
loop_
_atom_site_type_symbol
_atom_site_label
_atom_site_fract_x
_atom_site_fract_y
_atom_site_fract_z
Si Si1 0.715251 0.824648 0.215707
Si Si2 0.418371 0.362499 0.826981
Si Si3 0.332766 0.036037 0.150219
Si Si4 0.923862 0.081804 0.151187
Si Si5 0.412198 0.580522 0.739779
Si Si6 0.610294 0.167360 0.767420
Si Si7 0.095693 0.645077 0.153724
Si Si8 0.073221 0.413641 0.278842
O O1 0.705365 0.737514 0.214742
O O2 0.760799 0.914363 0.478698
O O3 0.510560 0.820547 0.317869
O O4 0.891899 0.837639 0.888560
O O5 0.517351 0.370411 0.489430
O O6 0.531872 0.374478 0.979520
O O7 0.293515 0.430806 0.089766
O O8 0.440198 0.114529 0.006882
O O9 0.500000 0.000000 0.000000
O O10 0.181138 0.953469 0.050318
O O11 0.755206 0.107728 0.500868
O O12 0.000000 0.000000 0.000000
O O13 0.500000 0.500000 0.500000
O O14 0.194483 0.565384 0.917322
O O15 0.741213 0.263925 0.864568
O O16 0.996658 0.638672 0.498950
O O17 0.985281 0.635965 0.002792
O O18 0.000000 0.500000 0.500000
#
# Coordination Sequence:
#
# PCOD9070085 Si02
#       8
#     2   2   2   2   2   2   2   2
#     4  12  26  46  71 104 148 189 242 306 363 442
#     4  12  26  45  72 106 144 190 241 297 367 433
#     4  12  25  45  75 100 143 190 242 304 365 436
#     4  12  25  46  72 103 139 193 243 294 372 438
#     4  12  24  45  73 106 143 189 241 294 358 441
#     4  12  26  47  71 105 151 185 238 313 364 433
#     4  12  26  45  75 105 147 194 241 294 381 434
#     4  12  26  48  73 109 149 190 243 307 362 437
#
# _framework density 24.865000999999999
#
# number of rings (size 3 to 8) (size 9 to 14) (size 15 to 20)
#    0.000    0.000    3.750    6.750    1.750    2.000 
#    0.000    0.000    0.000    0.000    0.000    0.000 
#    0.000    0.000    0.000    0.000    0.000    0.000 
#
# Total GULP energy -89418.188458 kJ/mol
# GULP energy per Si atom -5588.636779 kJ/mol
# Density = 2.480841 g / cm^3
# Si number density = 24.865001 Si / 1000 Ang^3
#
#
#
# Elastic Constant Matrix: (Units=GPa)
#
#
# Indices 1 2 3 4 5 6 
#
# 1 151.9975 17.9199 52.6304 -3.1227 -1.2133 7.3001
# 2 17.9199 86.6018 38.9346 -13.3072 11.7909 -3.3559
# 3 52.6304 38.9346 106.4990 -31.6470 -7.8879 -12.8494
# 4 -3.1227 -13.3072 -31.6470 38.8229 -4.7934 -6.1342
# 5 -1.2133 11.7909 -7.8879 -4.7934 55.6025 0.9343
# 6 7.3001 -3.3559 -12.8494 -6.1342 0.9343 37.4237
#
#
#
# Elastic Compliance Matrix: (Units=1/GPa)
#
#
# Indices 1 2 3 4 5 6 
#
# 1 0.009111 0.000386 -0.007113 -0.005905 -0.001315 -0.005120
# 2 0.000386 0.014638 -0.006106 -0.000557 -0.003996 -0.000851
# 3 -0.007113 -0.006106 0.022253 0.017956 0.005655 0.011283
# 4 -0.005905 -0.000557 0.017956 0.042698 0.005980 0.014116
# 5 -0.001315 -0.003996 0.005655 0.005980 0.020082 0.002319
# 6 -0.005120 -0.000851 0.011283 0.014116 0.002319 0.033773
#
#
# Mechanical properties :
#
#
# Convention : Reuss Voigt Hill
#
# Bulk Modulus (GPa) = 49.17678 62.67424 55.92551
# Shear Modulus (GPa) = 28.57137 42.07740 35.32439
#
# Velocity S-wave (km/s) = 3.39346 4.11814 3.77324
# Velocity P-wave (km/s) = 5.93081 6.91901 6.44388
#
# Compressibility (1/GPa) = 0.02033480
#
# Stress axis : x y z
#
# Youngs Moduli (GPa) = 109.76160 68.31545 44.93724
#
# Poissons Ratio (x) = -0.02638 0.31965
# Poissons Ratio (y) = -0.04239 0.27441
# Poissons Ratio (z) = 0.78077 0.41716
#
# Static dielectric constant tensor:
#      x y z
#    x 2.046540 -0.133500 0.202930 
#    y -0.133500 1.844190 0.059380 
#    z 0.202930 0.059380 2.108280 
# 
# From -- ./inp_files/53610.got.cif
#   From: 2010.05.17/outbox.cif.g08.bks.cpg/sg2_27_cif.got.tgz:53610.got - 2010.06.03 11:33:40.
