data_PCOD9070796
_publ_section_title
;
Structure prediction by ZEFSAII (Michael W. Deem and Ramdas Pophale) SiO2 
 PCOD9070796
Probable space group: P -1
;
_chemical_formula_sum "Si O2"
_cell_formula_units_Z 16
_cell_length_a 11.487637
_cell_length_b 17.730605
_cell_length_c 8.438810
_cell_angle_alpha 97.979011
_cell_angle_beta 54.677497
_cell_angle_gamma 141.059827
_cell_volume 700.968901
_symmetry_space_group_name_H-M "P -1"
_symmetry_group_IT_number 2
_symmetry_cell_setting 'triclinic'
loop_
_space_group_symop_operation_xyz
x,y,z
-x,-y,-z
loop_
_atom_site_type_symbol
_atom_site_label
_atom_site_fract_x
_atom_site_fract_y
_atom_site_fract_z
Si Si1 0.907867 0.667889 0.524922
Si Si2 0.071171 0.100779 0.096828
Si Si3 0.475153 0.263668 0.124889
Si Si4 0.664734 0.640568 0.236587
Si Si5 0.559343 0.132227 0.033163
Si Si6 0.106103 0.401628 0.132364
Si Si7 0.090617 0.183637 0.585353
Si Si8 0.509138 0.083321 0.416401
O O1 0.671623 0.519624 0.559360
O O2 0.867434 0.617330 0.715940
O O3 0.865243 0.739186 0.575787
O O4 0.212350 0.794280 0.246215
O O5 0.285250 0.173883 0.088586
O O6 0.221109 0.239276 0.927957
O O7 0.779219 0.002211 0.363358
O O8 0.000000 0.000000 0.000000
O O9 0.615380 0.247519 0.042278
O O10 0.257270 0.184316 0.413727
O O11 0.710723 0.438128 0.983139
O O12 0.772960 0.710457 0.344698
O O13 0.782280 0.614135 0.074287
O O14 0.565827 0.095531 0.189048
O O15 0.239775 0.979584 0.177349
O O16 0.772869 0.254631 0.319711
O O17 0.500000 0.000000 0.500000
#
# Coordination Sequence:
#
# PCOD9070796 Si02
#       8
#     2   2   2   2   2   2   2   2
#     4  12  26  45  75 108 146 193 250 306 366 434
#     4  12  27  48  77 109 148 199 248 303 369 445
#     4  12  27  51  74 105 156 200 241 303 379 438
#     4  12  25  46  76 110 145 194 256 303 367 438
#     4  12  29  48  71 113 152 191 246 309 371 437
#     4  12  26  47  76 107 149 197 249 307 367 441
#     4  12  25  46  77 105 146 197 251 305 365 442
#     4  12  27  49  77 109 148 194 247 306 368 439
#
# _framework density 22.825547
#
# number of rings (size 3 to 8) (size 9 to 14) (size 15 to 20)
#    0.000    0.000    5.000    4.500    7.000    2.000 
#    0.000    0.000    0.000    0.000    0.000    0.000 
#    0.000    0.000    0.000    0.000    0.000    0.000 
#
# Total GULP energy -89708.935235 kJ/mol
# GULP energy per Si atom -5606.808452 kJ/mol
# Density = 2.277360 g / cm^3
# Si number density = 22.825547 Si / 1000 Ang^3
#
#
#
# Elastic Constant Matrix: (Units=GPa)
#
#
# Indices 1 2 3 4 5 6 
#
# 1 78.9151 33.3905 15.1939 1.6186 11.6600 -7.4597
# 2 33.3905 144.9340 25.0539 -12.4872 9.5547 3.1000
# 3 15.1939 25.0539 71.9581 -9.0650 7.2381 -1.9061
# 4 1.6186 -12.4872 -9.0650 49.4641 7.2380 -5.0098
# 5 11.6600 9.5547 7.2381 7.2380 25.5737 5.1124
# 6 -7.4597 3.1000 -1.9061 -5.0098 5.1124 46.4740
#
#
#
# Elastic Compliance Matrix: (Units=1/GPa)
#
#
# Indices 1 2 3 4 5 6 
#
# 1 0.015443 -0.002987 -0.001570 -0.000336 -0.006033 0.003241
# 2 -0.002987 0.008197 -0.001829 0.001995 -0.001606 -0.000710
# 3 -0.001570 -0.001829 0.015733 0.003227 -0.004232 0.001329
# 4 -0.000336 0.001995 0.003227 0.022933 -0.008670 0.003371
# 5 -0.006033 -0.001606 -0.004232 -0.008670 0.047544 -0.007200
# 6 0.003241 -0.000710 0.001329 0.003371 -0.007200 0.023295
#
#
# Mechanical properties :
#
#
# Convention : Reuss Voigt Hill
#
# Bulk Modulus (GPa) = 37.59460 49.23153 43.41307
# Shear Modulus (GPa) = 32.30309 39.11360 35.70834
#
# Velocity S-wave (km/s) = 3.76602 4.14404 3.95954
# Velocity P-wave (km/s) = 5.95119 6.67180 6.32177
#
# Compressibility (1/GPa) = 0.02659956
#
# Stress axis : x y z
#
# Youngs Moduli (GPa) = 64.75555 121.99681 63.56125
#
# Poissons Ratio (x) = 0.36438 0.09982
# Poissons Ratio (y) = 0.19341 0.11627
# Poissons Ratio (z) = 0.10169 0.22316
#
# Static dielectric constant tensor:
#      x y z
#    x 1.865010 0.016630 0.013010 
#    y 0.016630 1.847160 -0.010410 
#    z 0.013010 -0.010410 1.827380 
# 
# From -- ./inp_files/279490.got.cif
#   From: 2010.05.17/outbox.cif.g08.bks.cpg/sg2_140_cif.got.tgz:279490.got - 2010.06.03 11:33:40.
