data_PCOD9070982
_publ_section_title
;
Structure prediction by ZEFSAII (Michael W. Deem and Ramdas Pophale) SiO2 
 PCOD9070982
Probable space group: P -1
;
_chemical_formula_sum "Si O2"
_cell_formula_units_Z 12
_cell_length_a 11.714522
_cell_length_b 9.964377
_cell_length_c 5.427155
_cell_angle_alpha 66.881003
_cell_angle_beta 68.355729
_cell_angle_gamma 66.610956
_cell_volume 517.450744
_symmetry_space_group_name_H-M "P -1"
_symmetry_group_IT_number 2
_symmetry_cell_setting 'triclinic'
loop_
_space_group_symop_operation_xyz
x,y,z
-x,-y,-z
loop_
_atom_site_type_symbol
_atom_site_label
_atom_site_fract_x
_atom_site_fract_y
_atom_site_fract_z
Si Si1 0.114000 0.564869 0.945638
Si Si2 0.330349 0.982259 0.541499
Si Si3 0.691495 0.678376 0.744301
Si Si4 0.634059 0.463547 0.564501
Si Si5 0.937048 0.083439 0.236893
Si Si6 0.559662 0.176129 0.931272
O O1 0.234618 0.549827 0.676272
O O2 0.057067 0.744198 0.905807
O O3 0.182242 0.456472 0.193588
O O4 0.000000 0.500000 0.000000
O O5 0.209392 0.918212 0.658246
O O6 0.405619 0.924895 0.268378
O O7 0.282834 0.165777 0.469877
O O8 0.409140 0.916745 0.771511
O O9 0.617600 0.600149 0.670885
O O10 0.591508 0.732848 0.009657
O O11 0.500000 0.500000 0.500000
O O12 0.641400 0.297823 0.789426
O O13 0.000000 0.000000 0.500000
O O14 0.000000 0.000000 0.000000
#
# Coordination Sequence:
#
# PCOD9070982 Si02
#       6
#     2   2   2   2   2   2
#     4  12  29  50  80 113 156 206 261 323 387 467
#     4  12  27  48  77 114 157 202 257 322 388 458
#     4  12  28  45  80 115 157 198 262 321 387 464
#     4  12  26  49  79 114 156 202 260 322 392 460
#     4  12  28  51  75 105 153 207 259 314 388 466
#     4  12  25  48  76 115 154 204 252 315 390 460
#
# _framework density 23.190612999999999
#
# number of rings (size 3 to 8) (size 9 to 14) (size 15 to 20)
#    0.000    0.000    3.333    5.500    7.000    0.667 
#    0.000    0.000    0.000    0.000    0.000    0.000 
#    0.000    0.000    0.000    0.000    0.000    0.000 
#
# Total GULP energy -67201.188277 kJ/mol
# GULP energy per Si atom -5600.099023 kJ/mol
# Density = 2.313783 g / cm^3
# Si number density = 23.190613 Si / 1000 Ang^3
#
#
#
# Elastic Constant Matrix: (Units=GPa)
#
#
# Indices 1 2 3 4 5 6 
#
# 1 156.1205 61.0629 43.9768 -4.8800 6.3951 18.4336
# 2 61.0629 208.1906 76.5307 -18.8102 17.0638 30.8241
# 3 43.9768 76.5307 121.0172 -2.0088 17.1331 5.3124
# 4 -4.8800 -18.8102 -2.0088 58.5996 1.6665 -9.9129
# 5 6.3951 17.0638 17.1331 1.6665 48.0108 -7.0108
# 6 18.4336 30.8241 5.3124 -9.9129 -7.0108 47.7511
#
#
#
# Elastic Compliance Matrix: (Units=1/GPa)
#
#
# Indices 1 2 3 4 5 6 
#
# 1 0.007666 -0.001263 -0.001876 -0.000164 -0.000189 -0.001997
# 2 -0.001263 0.007412 -0.003792 0.001549 -0.001723 -0.003807
# 3 -0.001876 -0.003792 0.011598 -0.000673 -0.002313 0.001402
# 4 -0.000164 0.001549 -0.000673 0.018014 -0.000505 0.002804
# 5 -0.000189 -0.001723 -0.002313 -0.000505 0.022997 0.004714
# 6 -0.001997 -0.003807 0.001402 0.002804 0.004714 0.025288
#
#
# Mechanical properties :
#
#
# Convention : Reuss Voigt Hill
#
# Bulk Modulus (GPa) = 78.02961 94.27436 86.15198
# Shear Modulus (GPa) = 45.00123 51.12284 48.06204
#
# Velocity S-wave (km/s) = 4.40988 4.70026 4.55739
# Velocity P-wave (km/s) = 7.72331 8.37836 8.05749
#
# Compressibility (1/GPa) = 0.01281565
#
# Stress axis : x y z
#
# Youngs Moduli (GPa) = 130.44761 134.91022 86.22439
#
# Poissons Ratio (x) = 0.17033 0.16172
# Poissons Ratio (y) = 0.16469 0.32696
# Poissons Ratio (z) = 0.24467 0.51158
#
# Static dielectric constant tensor:
#      x y z
#    x 1.859670 0.001440 0.013730 
#    y 0.001440 1.864420 -0.073250 
#    z 0.013730 -0.073250 1.887000 
# 
# From -- ./inp_files/42036.got.cif
#   From: 2010.05.17/outbox.cif.g08.bks.cpg/sg2_22_cif.got.tgz:42036.got - 2010.06.03 11:33:40.
