data_PCOD9070016
_publ_section_title
;
Structure prediction by ZEFSAII (Michael W. Deem and Ramdas Pophale) SiO2 
 PCOD9070016
Probable space group: P -1
;
_chemical_formula_sum "Si O2"
_cell_formula_units_Z 14
_cell_length_a 24.535493
_cell_length_b 9.079156
_cell_length_c 9.120266
_cell_angle_alpha 133.958455
_cell_angle_beta 40.317251
_cell_angle_gamma 151.661792
_cell_volume 622.209236
_symmetry_space_group_name_H-M "P -1"
_symmetry_group_IT_number 2
_symmetry_cell_setting 'triclinic'
loop_
_space_group_symop_operation_xyz
x,y,z
-x,-y,-z
loop_
_atom_site_type_symbol
_atom_site_label
_atom_site_fract_x
_atom_site_fract_y
_atom_site_fract_z
Si Si1 0.267576 0.346982 0.349066
Si Si2 0.892683 0.954473 0.118183
Si Si3 0.365201 0.132437 0.019649
Si Si4 0.982224 0.923895 0.653605
Si Si5 0.416467 0.944947 0.267777
Si Si6 0.214356 0.808471 0.411869
Si Si7 0.372293 0.677167 0.664334
O O1 0.275309 0.131485 0.122476
O O2 0.322687 0.601348 0.291229
O O3 0.351139 0.525416 0.449353
O O4 0.126320 0.133845 0.548197
O O5 0.756546 0.596713 0.169746
O O6 0.867621 0.136037 0.354611
O O7 0.931980 0.026091 0.917009
O O8 0.000000 0.000000 0.000000
O O9 0.295037 0.973692 0.210444
O O10 0.500000 0.500000 0.000000
O O11 0.379884 0.932440 0.790522
O O12 0.885044 0.561446 0.635787
O O13 0.000000 0.000000 0.500000
O O14 0.325381 0.959638 0.407458
O O15 0.512501 0.175590 0.363017
O O16 0.500000 0.000000 0.000000
#
# Coordination Sequence:
#
# PCOD9070016 Si02
#       7
#     2   2   2   2   2   2   2
#     4  12  26  46  71 110 142 191 248 297 363 440
#     4  12  26  48  74 108 146 192 246 300 365 439
#     4  12  24  44  74 107 142 191 244 291 369 433
#     4  12  26  48  74 104 149 189 243 309 366 431
#     4  12  24  48  75 105 154 188 242 307 366 437
#     4  12  26  47  76 111 143 197 243 300 374 428
#     4  12  25  45  75 104 149 188 241 300 361 432
#
# _framework density 22.500471000000001
#
# number of rings (size 3 to 8) (size 9 to 14) (size 15 to 20)
#    0.000    0.000    8.571    0.429    2.000    2.286 
#    2.571    0.000    0.000    0.000    0.000    0.000 
#    0.000    0.000    0.000    0.000    0.000    0.000 
#
# Total GULP energy -78236.747123 kJ/mol
# GULP energy per Si atom -5588.339080 kJ/mol
# Density = 2.244926 g / cm^3
# Si number density = 22.500471 Si / 1000 Ang^3
#
#
#
# Elastic Constant Matrix: (Units=GPa)
#
#
# Indices 1 2 3 4 5 6 
#
# 1 102.8593 23.5851 39.6703 -0.2665 -6.9034 1.2257
# 2 23.5851 116.8692 34.9908 -22.5703 -0.1742 -4.6963
# 3 39.6703 34.9908 128.7267 -13.4593 -0.9618 3.9647
# 4 -0.2665 -22.5703 -13.4593 44.9792 -5.8962 1.8396
# 5 -6.9034 -0.1742 -0.9618 -5.8962 38.4193 -10.1211
# 6 1.2257 -4.6963 3.9647 1.8396 -10.1211 33.1020
#
#
#
# Elastic Compliance Matrix: (Units=1/GPa)
#
#
# Indices 1 2 3 4 5 6 
#
# 1 0.011459 -0.001609 -0.003247 -0.001485 0.001843 0.000382
# 2 -0.001609 0.010430 -0.001896 0.004702 0.000901 0.001781
# 3 -0.003247 -0.001896 0.009525 0.001881 -0.000470 -0.001538
# 4 -0.001485 0.004702 0.001881 0.025634 0.003797 0.000233
# 5 0.001843 0.000901 -0.000470 0.003797 0.029267 0.008854
# 6 0.000382 0.001781 -0.001538 0.000233 0.008854 0.033326
#
#
# Mechanical properties :
#
#
# Convention : Reuss Voigt Hill
#
# Bulk Modulus (GPa) = 55.83556 60.54973 58.19265
# Shear Modulus (GPa) = 35.94154 39.98070 37.96112
#
# Velocity S-wave (km/s) = 4.00105 4.21988 4.11192
# Velocity P-wave (km/s) = 6.79806 7.12124 6.96153
#
# Compressibility (1/GPa) = 0.01790973
#
# Stress axis : x y z
#
# Youngs Moduli (GPa) = 87.27065 95.87871 104.98785
#
# Poissons Ratio (x) = 0.15426 0.34092
# Poissons Ratio (y) = 0.14041 0.19902
# Poissons Ratio (z) = 0.28339 0.18176
#
# Static dielectric constant tensor:
#      x y z
#    x 1.972800 0.030010 0.007540 
#    y 0.030010 1.850230 -0.024920 
#    z 0.007540 -0.024920 1.915210 
# 
# From -- ./inp_files/352396.got.cif
#   From: 2010.05.17/outbox.cif.g08.bks.cpg/sg2_177_cif.got.tgz:352396.got - 2010.06.03 11:33:40.
