data_PCOD9070736
_publ_section_title
;
Structure prediction by ZEFSAII (Michael W. Deem and Ramdas Pophale) SiO2 
 PCOD9070736
Probable space group: P -1
;
_chemical_formula_sum "Si O2"
_cell_formula_units_Z 12
_cell_length_a 5.249103
_cell_length_b 8.784873
_cell_length_c 11.297035
_cell_angle_alpha 73.154828
_cell_angle_beta 85.299377
_cell_angle_gamma 65.787372
_cell_volume 454.317084
_symmetry_space_group_name_H-M "P -1"
_symmetry_group_IT_number 2
_symmetry_cell_setting 'triclinic'
loop_
_space_group_symop_operation_xyz
x,y,z
-x,-y,-z
loop_
_atom_site_type_symbol
_atom_site_label
_atom_site_fract_x
_atom_site_fract_y
_atom_site_fract_z
Si Si1 0.630634 0.318967 0.610713
Si Si2 0.550682 0.442154 0.852651
Si Si3 0.911000 0.659554 0.776418
Si Si4 0.419888 0.201346 0.458705
Si Si5 0.689476 0.081012 0.044687
Si Si6 0.094199 0.946189 0.701360
O O1 0.500000 0.500000 0.500000
O O2 0.642278 0.362838 0.735718
O O3 0.404441 0.251974 0.584141
O O4 0.913060 0.141899 0.617962
O O5 0.722260 0.559085 0.848326
O O6 0.598518 0.283012 0.972821
O O7 0.221175 0.547066 0.831166
O O8 0.844836 0.679560 0.633610
O O9 0.883627 0.854445 0.765896
O O10 0.691745 0.187429 0.372288
O O11 0.500000 0.000000 0.500000
O O12 0.728793 0.050301 0.190884
O O13 0.500000 0.000000 0.000000
O O14 0.000000 0.000000 0.000000
#
# Coordination Sequence:
#
# PCOD9070736 Si02
#       6
#     2   2   2   2   2   2
#     4  12  25  45  76 115 154 200 258 320 381 462
#     4  12  28  50  77 120 149 211 258 325 376 461
#     4  12  26  51  75 114 162 198 266 309 394 456
#     4  12  27  46  75 113 158 211 255 314 394 466
#     4  12  29  52  81 116 156 201 262 325 389 461
#     4  12  28  51  79 112 159 211 258 321 397 458
#
# _framework density 26.413266
#
# number of rings (size 3 to 8) (size 9 to 14) (size 15 to 20)
#    0.000    0.000    6.667    1.500    7.000    2.000 
#    0.000    0.000    0.000    0.000    0.000    0.000 
#    0.000    0.000    0.000    0.000    0.000    0.000 
#
# Total GULP energy -67047.591514 kJ/mol
# GULP energy per Si atom -5587.299293 kJ/mol
# Density = 2.635315 g / cm^3
# Si number density = 26.413266 Si / 1000 Ang^3
#
#
#
# Elastic Constant Matrix: (Units=GPa)
#
#
# Indices 1 2 3 4 5 6 
#
# 1 211.8195 67.1327 52.4403 -13.3563 23.4603 24.2045
# 2 67.1327 114.1425 41.2501 -31.5955 -2.8572 6.8937
# 3 52.4403 41.2501 138.8655 -22.6742 17.3069 10.0822
# 4 -13.3563 -31.5955 -22.6742 76.4525 -0.5261 7.5638
# 5 23.4603 -2.8572 17.3069 -0.5261 30.0016 -6.1062
# 6 24.2045 6.8937 10.0822 7.5638 -6.1062 58.0882
#
#
#
# Elastic Compliance Matrix: (Units=1/GPa)
#
#
# Indices 1 2 3 4 5 6 
#
# 1 0.007177 -0.004095 -0.000543 -0.000343 -0.006311 -0.003029
# 2 -0.004095 0.013319 -0.002577 0.003998 0.006170 0.000701
# 3 -0.000543 -0.002577 0.009282 0.001742 -0.005529 -0.001887
# 4 -0.000343 0.003998 0.001742 0.015453 -0.000637 -0.002713
# 5 -0.006311 0.006170 -0.005529 -0.000637 0.043563 0.007519
# 6 -0.003029 0.000701 -0.001887 -0.002713 0.007519 0.019865
#
#
# Mechanical properties :
#
#
# Convention : Reuss Voigt Hill
#
# Bulk Modulus (GPa) = 65.15644 87.38595 76.27119
# Shear Modulus (GPa) = 38.99974 53.17542 46.08758
#
# Velocity S-wave (km/s) = 3.84672 4.49175 4.18169
# Velocity P-wave (km/s) = 6.66718 7.74964 7.22870
#
# Compressibility (1/GPa) = 0.01534768
#
# Stress axis : x y z
#
# Youngs Moduli (GPa) = 139.33965 75.07821 107.73046
#
# Poissons Ratio (x) = 0.30742 0.05855
# Poissons Ratio (y) = 0.57055 0.27766
# Poissons Ratio (z) = 0.07573 0.19350
#
# Static dielectric constant tensor:
#      x y z
#    x 2.273010 -0.059640 -0.158720 
#    y -0.059640 2.293770 0.133440 
#    z -0.158720 0.133440 2.191380 
# 
# From -- ./inp_files/326962.got.cif
#   From: 2010.05.17/outbox.cif.g08.bks.cpg/sg2_164_cif.got.tgz:326962.got - 2010.06.03 11:33:40.
