data_PCOD9070820
_publ_section_title
;
Structure prediction by ZEFSAII (Michael W. Deem and Ramdas Pophale) SiO2 
 PCOD9070820
Probable space group: P -1
;
_chemical_formula_sum "Si O2"
_cell_formula_units_Z 14
_cell_length_a 28.638803
_cell_length_b 5.056403
_cell_length_c 13.529877
_cell_angle_alpha 105.040201
_cell_angle_beta 25.077324
_cell_angle_gamma 88.956076
_cell_volume 630.034559
_symmetry_space_group_name_H-M "P -1"
_symmetry_group_IT_number 2
_symmetry_cell_setting 'triclinic'
loop_
_space_group_symop_operation_xyz
x,y,z
-x,-y,-z
loop_
_atom_site_type_symbol
_atom_site_label
_atom_site_fract_x
_atom_site_fract_y
_atom_site_fract_z
Si Si1 0.044878 0.540158 0.114773
Si Si2 0.057753 0.205493 0.441349
Si Si3 0.377359 0.713776 0.835095
Si Si4 0.510477 0.401984 0.085126
Si Si5 0.797141 0.258988 0.283660
Si Si6 0.209961 0.372921 0.475664
Si Si7 0.375427 0.306602 0.979009
O O1 0.996401 0.637368 0.330069
O O2 0.912520 0.652482 0.313364
O O3 0.111833 0.718750 0.968036
O O4 0.157588 0.125664 0.841672
O O5 0.000000 0.500000 0.500000
O O6 0.000000 0.000000 0.500000
O O7 0.226081 0.968049 0.098825
O O8 0.500000 0.500000 0.500000
O O9 0.361491 0.487852 0.920372
O O10 0.411526 0.937979 0.851629
O O11 0.368454 0.465041 0.391052
O O12 0.500000 0.500000 0.000000
O O13 0.521356 0.664123 0.152281
O O14 0.648137 0.007951 0.803670
O O15 0.824612 0.361314 0.346165
O O16 0.239501 0.488392 0.327812
#
# Coordination Sequence:
#
# PCOD9070820 Si02
#       7
#     2   2   2   2   2   2   2
#     4  12  28  48  73 107 152 192 243 298 363 438
#     4  12  27  50  76 105 145 192 238 309 377 425
#     4  12  28  51  78 109 139 189 257 306 364 440
#     4  12  26  46  75 109 153 195 245 297 359 425
#     4  12  28  44  73 115 151 189 245 296 356 435
#     4  12  26  48  77 105 150 204 243 289 366 444
#     4  12  25  46  80 105 147 193 244 294 371 430
#
# _framework density 22.221001999999999
#
# number of rings (size 3 to 8) (size 9 to 14) (size 15 to 20)
#    0.000    0.000    4.286    4.286    6.000    3.429 
#    0.000    0.000    0.000    0.000    0.000    0.000 
#    0.000    0.000    0.000    0.000    0.000    0.000 
#
# Total GULP energy -78463.910503 kJ/mol
# GULP energy per Si atom -5604.565036 kJ/mol
# Density = 2.217043 g / cm^3
# Si number density = 22.221002 Si / 1000 Ang^3
#
#
#
# Elastic Constant Matrix: (Units=GPa)
#
#
# Indices 1 2 3 4 5 6 
#
# 1 88.1713 1.8853 44.6125 6.7181 6.5803 14.8839
# 2 1.8853 75.3887 7.7153 -7.7608 7.0902 -2.7166
# 3 44.6125 7.7153 117.8069 -7.7212 -0.3459 -13.6570
# 4 6.7181 -7.7608 -7.7212 40.6397 8.3423 4.1822
# 5 6.5803 7.0902 -0.3459 8.3423 36.5752 -2.0906
# 6 14.8839 -2.7166 -13.6570 4.1822 -2.0906 51.3860
#
#
#
# Elastic Compliance Matrix: (Units=1/GPa)
#
#
# Indices 1 2 3 4 5 6 
#
# 1 0.016531 0.000057 -0.007222 -0.002845 -0.002781 -0.006586
# 2 0.000057 0.013999 -0.000722 0.003223 -0.003459 0.000129
# 3 -0.007222 -0.000722 0.012033 0.002559 0.001261 0.005095
# 4 -0.002845 0.003223 0.002559 0.027584 -0.006428 -0.000832
# 5 -0.002781 -0.003459 0.001261 -0.006428 0.030144 0.002707
# 6 -0.006586 0.000129 0.005095 -0.000832 0.002707 0.022907
#
#
# Mechanical properties :
#
#
# Convention : Reuss Voigt Hill
#
# Bulk Modulus (GPa) = 37.33080 43.31036 40.32058
# Shear Modulus (GPa) = 33.80650 40.86375 37.33513
#
# Velocity S-wave (km/s) = 3.90471 4.29297 4.10344
# Velocity P-wave (km/s) = 6.09634 6.64123 6.37461
#
# Compressibility (1/GPa) = 0.02678753
#
# Stress axis : x y z
#
# Youngs Moduli (GPa) = 60.49423 71.43457 83.10727
#
# Poissons Ratio (x) = -0.00407 0.60019
# Poissons Ratio (y) = -0.00345 0.06003
# Poissons Ratio (z) = 0.43688 0.05160
#
# Static dielectric constant tensor:
#      x y z
#    x 1.798430 -0.001720 -0.002260 
#    y -0.001720 1.790620 0.021960 
#    z -0.002260 0.021960 1.797230 
# 
# From -- ./inp_files/473451.got.cif
#   From: 2010.05.17/outbox.cif.g08.bks.cpg/sg2_237_cif.got.tgz:473451.got - 2010.06.03 11:33:40.
