data_PCOD9070538
_publ_section_title
;
Structure prediction by ZEFSAII (Michael W. Deem and Ramdas Pophale) SiO2 
 PCOD9070538
Probable space group: P -1
;
_chemical_formula_sum "Si O2"
_cell_formula_units_Z 16
_cell_length_a 8.647386
_cell_length_b 5.646854
_cell_length_c 13.303913
_cell_angle_alpha 83.201304
_cell_angle_beta 76.585690
_cell_angle_gamma 101.522909
_cell_volume 609.860097
_symmetry_space_group_name_H-M "P -1"
_symmetry_group_IT_number 2
_symmetry_cell_setting 'triclinic'
loop_
_space_group_symop_operation_xyz
x,y,z
-x,-y,-z
loop_
_atom_site_type_symbol
_atom_site_label
_atom_site_fract_x
_atom_site_fract_y
_atom_site_fract_z
Si Si1 0.875138 0.758725 0.573725
Si Si2 0.825397 0.866914 0.991743
Si Si3 0.523080 0.520086 0.115490
Si Si4 0.389643 0.064346 0.293833
Si Si5 0.699703 0.009462 0.338318
Si Si6 0.232962 0.779376 0.159753
Si Si7 0.311634 0.509140 0.548607
Si Si8 0.985777 0.678911 0.788038
O O1 0.698889 0.824127 0.611164
O O2 0.818378 0.521299 0.522441
O O3 0.936167 0.706627 0.677934
O O4 0.000000 0.000000 0.500000
O O5 0.867288 0.741947 0.888355
O O6 0.727575 0.060164 0.954281
O O7 0.705832 0.683218 0.092031
O O8 0.000000 0.000000 0.000000
O O9 0.493761 0.271371 0.194291
O O10 0.377149 0.642547 0.163493
O O11 0.500000 0.500000 0.000000
O O12 0.517890 0.925101 0.325470
O O13 0.242156 0.923586 0.254243
O O14 0.690985 0.236768 0.405197
O O15 0.835753 0.153426 0.233143
O O16 0.750425 0.760980 0.375910
O O17 0.052382 0.612825 0.180058
O O18 0.500000 0.500000 0.500000
#
# Coordination Sequence:
#
# PCOD9070538 Si02
#       8
#     2   2   2   2   2   2   2   2
#     4  12  25  51  79 108 157 204 260 321 391 469
#     4  12  29  48  77 110 155 197 262 327 400 466
#     4  12  24  50  72 109 146 198 261 323 391 473
#     4  12  28  47  77 111 149 207 258 320 392 474
#     4  12  31  49  79 116 163 206 263 330 396 462
#     4  12  25  46  79 105 152 199 262 316 399 471
#     4  12  28  51  78 114 156 207 268 326 389 466
#     4  12  28  50  71 118 153 202 260 328 391 475
#
# _framework density 26.235523000000001
#
# number of rings (size 3 to 8) (size 9 to 14) (size 15 to 20)
#    0.000    0.000    7.500    0.750   10.500    1.000 
#    0.000    0.000    0.000    0.000    0.000    0.000 
#    0.000    0.000    0.000    0.000    0.000    0.000 
#
# Total GULP energy -89518.824489 kJ/mol
# GULP energy per Si atom -5594.926531 kJ/mol
# Density = 2.617581 g / cm^3
# Si number density = 26.235523 Si / 1000 Ang^3
#
#
#
# Elastic Constant Matrix: (Units=GPa)
#
#
# Indices 1 2 3 4 5 6 
#
# 1 90.8603 11.1823 6.9267 -1.5031 0.8629 19.5734
# 2 11.1823 99.6725 29.3803 -5.7803 4.9670 22.0225
# 3 6.9267 29.3803 77.6170 -14.6459 -8.9047 3.9838
# 4 -1.5031 -5.7803 -14.6459 38.2408 8.8674 -1.7950
# 5 0.8629 4.9670 -8.9047 8.8674 46.2099 -8.9052
# 6 19.5734 22.0225 3.9838 -1.7950 -8.9052 50.7731
#
#
#
# Elastic Compliance Matrix: (Units=1/GPa)
#
#
# Indices 1 2 3 4 5 6 
#
# 1 0.012138 0.000090 -0.000989 0.000209 -0.001408 -0.004881
# 2 0.000090 0.012991 -0.004915 0.000644 -0.003604 -0.005893
# 3 -0.000989 -0.004915 0.015976 0.004710 0.003101 0.001970
# 4 0.000209 0.000644 0.004710 0.029163 -0.004868 -0.000552
# 5 -0.001408 -0.003604 0.003101 -0.004868 0.024748 0.006031
# 6 -0.004881 -0.005893 0.001970 -0.000552 0.006031 0.025017
#
#
# Mechanical properties :
#
#
# Convention : Reuss Voigt Hill
#
# Bulk Modulus (GPa) = 33.92379 40.34760 37.13570
# Shear Modulus (GPa) = 35.33935 41.75543 38.54739
#
# Velocity S-wave (km/s) = 3.67414 3.99377 3.83728
# Velocity P-wave (km/s) = 5.56395 6.05634 5.81536
#
# Compressibility (1/GPa) = 0.02947784
#
# Stress axis : x y z
#
# Youngs Moduli (GPa) = 82.38325 76.97915 62.59414
#
# Poissons Ratio (x) = -0.00695 0.06190
# Poissons Ratio (y) = -0.00744 0.30764
# Poissons Ratio (z) = 0.08147 0.37834
#
# Static dielectric constant tensor:
#      x y z
#    x 2.011500 -0.013240 -0.004210 
#    y -0.013240 2.223980 0.013820 
#    z -0.004210 0.013820 2.040870 
# 
# From -- ./inp_files/488274.got.cif
#   From: 2010.05.17/outbox.cif.g08.bks.cpg/sg2_245_cif.got.tgz:488274.got - 2010.06.03 11:33:40.
