data_PCOD9070676
_publ_section_title
;
Structure prediction by ZEFSAII (Michael W. Deem and Ramdas Pophale) SiO2 
 PCOD9070676
Probable space group: P -1
;
_chemical_formula_sum "Si O2"
_cell_formula_units_Z 11
_cell_length_a 8.359778
_cell_length_b 11.667019
_cell_length_c 8.844467
_cell_angle_alpha 107.931150
_cell_angle_beta 53.183462
_cell_angle_gamma 140.028571
_cell_volume 423.985144
_symmetry_space_group_name_H-M "P -1"
_symmetry_group_IT_number 2
_symmetry_cell_setting 'triclinic'
loop_
_space_group_symop_operation_xyz
x,y,z
-x,-y,-z
loop_
_atom_site_type_symbol
_atom_site_label
_atom_site_fract_x
_atom_site_fract_y
_atom_site_fract_z
Si Si1 0.327601 0.092997 0.905750
Si Si2 0.871779 0.070389 0.550688
Si Si3 0.427963 0.485602 0.357448
Si Si4 0.500000 0.000000 0.000000
Si Si5 0.325944 0.722635 0.515643
Si Si6 0.811582 0.479861 0.960706
O O1 0.284741 0.949280 0.958637
O O2 0.576057 0.188030 0.669539
O O3 0.521543 0.260735 0.988715
O O4 0.000000 0.000000 0.000000
O O5 0.774001 0.094819 0.765357
O O6 0.123834 0.267270 0.405336
O O7 0.584325 0.903099 0.544333
O O8 0.000000 0.000000 0.500000
O O9 0.500000 0.500000 0.500000
O O10 0.375434 0.602206 0.418969
O O11 0.679458 0.541396 0.129360
O O12 0.016543 0.592081 0.739302
O O13 0.000000 0.500000 0.000000
#
# Coordination Sequence:
#
# PCOD9070676 Si02
#       6
#     2   2   2   1   2   2
#     4  12  29  52  84 125 170 219 284 349 416 507
#     4  12  25  47  80 122 163 215 282 339 411 506
#     4  12  25  44  80 117 160 216 269 338 416 483
#     4  12  28  50  86 114 166 222 274 338 430 478
#     4  12  27  48  78 119 166 213 280 343 411 499
#     4  12  25  48  81 121 163 220 279 338 416 500
#
# _framework density 25.944306000000001
#
# number of rings (size 3 to 8) (size 9 to 14) (size 15 to 20)
#    0.000    0.000    3.636    6.000    2.545    1.455 
#    0.000    5.455    0.000    0.000    0.000    0.000 
#    0.000    0.000    0.000    0.000    0.000    0.000 
#
# Total GULP energy -61420.895123 kJ/mol
# GULP energy per Si atom -5583.717738 kJ/mol
# Density = 2.588526 g / cm^3
# Si number density = 25.944306 Si / 1000 Ang^3
#
#
#
# Elastic Constant Matrix: (Units=GPa)
#
#
# Indices 1 2 3 4 5 6 
#
# 1 126.0743 15.9012 67.1607 -8.8589 2.1912 7.2794
# 2 15.9012 158.0980 45.8588 -12.2915 -15.5889 20.8312
# 3 67.1607 45.8588 248.7751 4.3431 -11.8403 -15.3526
# 4 -8.8589 -12.2915 4.3431 39.6538 -2.3572 -1.8744
# 5 2.1912 -15.5889 -11.8403 -2.3572 52.5147 2.8904
# 6 7.2794 20.8312 -15.3526 -1.8744 2.8904 47.0823
#
#
#
# Elastic Compliance Matrix: (Units=1/GPa)
#
#
# Indices 1 2 3 4 5 6 
#
# 1 0.009778 0.000307 -0.002925 0.002440 -0.000732 -0.002459
# 2 0.000307 0.007746 -0.001700 0.002597 0.002243 -0.004063
# 3 -0.002925 -0.001700 0.005355 -0.001597 0.000596 0.002850
# 4 0.002440 0.002597 -0.001597 0.026786 0.001571 -0.001077
# 5 -0.000732 0.002243 0.000596 0.001571 0.020046 -0.001853
# 6 -0.002459 -0.004063 0.002850 -0.001077 -0.001853 0.024418
#
#
# Mechanical properties :
#
#
# Convention : Reuss Voigt Hill
#
# Bulk Modulus (GPa) = 70.21806 87.86544 79.04175
# Shear Modulus (GPa) = 46.50636 54.78528 50.64582
#
# Velocity S-wave (km/s) = 4.23844 4.60025 4.42305
# Velocity P-wave (km/s) = 7.14676 7.88397 7.52440
#
# Compressibility (1/GPa) = 0.01424135
#
# Stress axis : x y z
#
# Youngs Moduli (GPa) = 102.27370 129.09973 186.74207
#
# Poissons Ratio (x) = -0.03960 0.54629
# Poissons Ratio (y) = -0.03137 0.31746
# Poissons Ratio (z) = 0.29919 0.21947
#
# Static dielectric constant tensor:
#      x y z
#    x 2.115770 0.000590 0.007460 
#    y 0.000590 2.044940 -0.154220 
#    z 0.007460 -0.154220 2.069790 
# 
# From -- ./inp_files/177072.got.cif
#   From: 2010.05.17/outbox.cif.g08.bks.cpg/sg2_89_cif.got.tgz:177072.got - 2010.06.03 11:33:40.
