data_PCOD9070993
_publ_section_title
;
Structure prediction by ZEFSAII (Michael W. Deem and Ramdas Pophale) SiO2 
 PCOD9070993
Probable space group: P -1
;
_chemical_formula_sum "Si O2"
_cell_formula_units_Z 12
_cell_length_a 14.408073
_cell_length_b 9.225367
_cell_length_c 11.833791
_cell_angle_alpha 141.824403
_cell_angle_beta 30.031310
_cell_angle_gamma 132.839047
_cell_volume 486.556779
_symmetry_space_group_name_H-M "P -1"
_symmetry_group_IT_number 2
_symmetry_cell_setting 'triclinic'
loop_
_space_group_symop_operation_xyz
x,y,z
-x,-y,-z
loop_
_atom_site_type_symbol
_atom_site_label
_atom_site_fract_x
_atom_site_fract_y
_atom_site_fract_z
Si Si1 0.879487 0.026592 0.526641
Si Si2 0.711018 0.584072 0.314681
Si Si3 0.207326 0.454205 0.051870
Si Si4 0.522859 0.758017 0.180128
Si Si5 0.205621 0.887591 0.963274
Si Si6 0.854946 0.210201 0.283958
O O1 0.761846 0.795345 0.475237
O O2 0.759201 0.265654 0.805887
O O3 0.000000 0.000000 0.500000
O O4 0.027104 0.041715 0.276823
O O5 0.500000 0.500000 0.500000
O O6 0.818166 0.341232 0.076239
O O7 0.759368 0.635924 0.165706
O O8 0.990526 0.427089 0.296962
O O9 0.333967 0.291976 0.898743
O O10 0.318938 0.827130 0.476584
O O11 0.615776 0.946207 0.114593
O O12 0.500000 0.500000 0.000000
O O13 0.220046 0.778097 0.756795
O O14 0.000000 0.000000 0.000000
#
# Coordination Sequence:
#
# PCOD9070993 Si02
#       6
#     2   2   2   2   2   2
#     4  12  26  49  79 115 154 205 262 321 392 465
#     4  12  28  47  78 111 154 206 261 322 393 462
#     4  12  27  51  79 112 157 203 257 324 392 467
#     4  12  30  48  77 119 155 201 262 323 389 467
#     4  12  25  48  78 110 155 199 259 319 387 465
#     4  12  26  48  80 111 156 204 258 313 391 466
#
# _framework density 24.663104000000001
#
# number of rings (size 3 to 8) (size 9 to 14) (size 15 to 20)
#    0.000    0.000    5.000    4.000    7.000    3.333 
#    0.000    0.000    0.000    0.000    0.000    0.000 
#    0.000    0.000    0.000    0.000    0.000    0.000 
#
# Total GULP energy -67173.837983 kJ/mol
# GULP energy per Si atom -5597.819832 kJ/mol
# Density = 2.460697 g / cm^3
# Si number density = 24.663104 Si / 1000 Ang^3
#
#
#
# Elastic Constant Matrix: (Units=GPa)
#
#
# Indices 1 2 3 4 5 6 
#
# 1 73.2567 51.8537 12.6742 9.6842 6.6448 25.8486
# 2 51.8537 159.4070 46.3034 3.0891 3.9353 34.9529
# 3 12.6742 46.3034 114.9821 0.9930 -1.7103 22.5349
# 4 9.6842 3.0891 0.9930 57.3839 7.7411 -4.1002
# 5 6.6448 3.9353 -1.7103 7.7411 28.8031 1.3449
# 6 25.8486 34.9529 22.5349 -4.1002 1.3449 48.8829
#
#
#
# Elastic Compliance Matrix: (Units=1/GPa)
#
#
# Indices 1 2 3 4 5 6 
#
# 1 0.020640 -0.005224 0.001394 -0.003441 -0.002665 -0.008036
# 2 -0.005224 0.009328 -0.002665 0.000260 -0.000173 -0.002652
# 3 0.001394 -0.002665 0.010361 -0.000671 0.001011 -0.003692
# 4 -0.003441 0.000260 -0.000671 0.018876 -0.004525 0.003651
# 5 -0.002665 -0.000173 0.001011 -0.004525 0.036648 -0.000320
# 6 -0.008036 -0.002652 -0.003692 0.003651 -0.000320 0.028619
#
#
# Mechanical properties :
#
#
# Convention : Reuss Voigt Hill
#
# Bulk Modulus (GPa) = 36.58114 63.25648 49.91881
# Shear Modulus (GPa) = 34.11204 42.80161 38.45683
#
# Velocity S-wave (km/s) = 3.72307 4.17039 3.95306
# Velocity P-wave (km/s) = 5.77461 6.99239 6.41247
#
# Compressibility (1/GPa) = 0.02733649
#
# Stress axis : x y z
#
# Youngs Moduli (GPa) = 48.45078 107.20909 96.51482
#
# Poissons Ratio (x) = 0.56008 -0.13452
# Poissons Ratio (y) = 0.25311 0.25726
# Poissons Ratio (z) = -0.06753 0.28576
#
# Static dielectric constant tensor:
#      x y z
#    x 2.113510 0.019850 -0.038800 
#    y 0.019850 2.062380 0.060730 
#    z -0.038800 0.060730 1.991730 
# 
# From -- ./inp_files/274264.got.cif
#   From: 2010.05.17/outbox.cif.g08.bks.cpg/sg2_138_cif.got.tgz:274264.got - 2010.06.03 11:33:40.
