data_PCOD9070259
_publ_section_title
;
Structure prediction by ZEFSAII (Michael W. Deem and Ramdas Pophale) SiO2 
 PCOD9070259
Probable space group: P -1
;
_chemical_formula_sum "Si O2"
_cell_formula_units_Z 16
_cell_length_a 8.822256
_cell_length_b 23.275693
_cell_length_c 9.358870
_cell_angle_alpha 26.942866
_cell_angle_beta 61.839387
_cell_angle_gamma 53.686433
_cell_volume 693.356069
_symmetry_space_group_name_H-M "P -1"
_symmetry_group_IT_number 2
_symmetry_cell_setting 'triclinic'
loop_
_space_group_symop_operation_xyz
x,y,z
-x,-y,-z
loop_
_atom_site_type_symbol
_atom_site_label
_atom_site_fract_x
_atom_site_fract_y
_atom_site_fract_z
Si Si1 0.428236 0.873610 0.328409
Si Si2 0.433247 0.311681 0.033135
Si Si3 0.533924 0.369028 0.373478
Si Si4 0.300171 0.142010 0.254890
Si Si5 0.181475 0.398145 0.557883
Si Si6 0.043702 0.558460 0.707432
Si Si7 0.233661 0.730277 0.240160
Si Si8 0.996735 0.969882 0.397269
O O1 0.510895 0.777673 0.647100
O O2 0.467649 0.761095 0.429955
O O3 0.201346 0.936939 0.315431
O O4 0.500000 0.000000 0.000000
O O5 0.325511 0.240587 0.144204
O O6 0.268804 0.466178 0.786408
O O7 0.608827 0.314265 0.858663
O O8 0.361111 0.429823 0.429761
O O9 0.708977 0.319327 0.512934
O O10 0.500000 0.500000 0.000000
O O11 0.096163 0.136425 0.361063
O O12 0.500000 0.000000 0.500000
O O13 0.268532 0.233442 0.921817
O O14 0.000000 0.500000 0.500000
O O15 0.110848 0.441111 0.334676
O O16 0.043229 0.708701 0.348498
O O17 0.000000 0.500000 0.000000
O O18 0.164418 0.895143 0.903241
O O19 0.000000 0.000000 0.500000
#
# Coordination Sequence:
#
# PCOD9070259 Si02
#       8
#     2   2   2   2   2   2   2   2
#     4  12  31  49  75 111 158 196 243 318 389 439
#     4  12  25  49  73 106 146 198 245 311 366 451
#     4  12  28  50  71 109 153 193 242 316 382 435
#     4  12  24  46  78 109 144 185 257 306 365 435
#     4  12  25  46  77 106 145 198 251 307 365 455
#     4  12  27  45  70 109 149 191 245 311 373 442
#     4  12  25  47  76 103 145 198 251 296 369 454
#     4  12  26  47  78 109 145 197 252 303 367 466
#
# _framework density 23.076167000000002
#
# number of rings (size 3 to 8) (size 9 to 14) (size 15 to 20)
#    0.000    0.000    5.000    3.375   10.500    1.500 
#    0.000    0.000    0.000    0.000    0.000    0.000 
#    0.000    0.000    0.000    0.000    0.000    0.000 
#
# Total GULP energy -89180.943948 kJ/mol
# GULP energy per Si atom -5573.808997 kJ/mol
# Density = 2.302364 g / cm^3
# Si number density = 23.076167 Si / 1000 Ang^3
#
#
#
# Elastic Constant Matrix: (Units=GPa)
#
#
# Indices 1 2 3 4 5 6 
#
# 1 71.3883 18.7436 -4.5580 6.4884 -7.4943 -1.7462
# 2 18.7436 88.4063 16.0680 5.4059 -5.5631 -12.6168
# 3 -4.5580 16.0680 98.1159 7.0742 12.7231 -4.8411
# 4 6.4884 5.4059 7.0742 24.7565 -3.9579 0.2432
# 5 -7.4943 -5.5631 12.7231 -3.9579 58.5367 5.6478
# 6 -1.7462 -12.6168 -4.8411 0.2432 5.6478 48.3290
#
#
#
# Elastic Compliance Matrix: (Units=1/GPa)
#
#
# Indices 1 2 3 4 5 6 
#
# 1 0.015383 -0.003256 0.001337 -0.003515 0.001158 -0.000278
# 2 -0.003256 0.012947 -0.002155 -0.001241 0.000914 0.002946
# 3 0.001337 -0.002155 0.011277 -0.003562 -0.002818 0.000963
# 4 -0.003515 -0.001241 -0.003562 0.043138 0.003259 -0.001406
# 5 0.001158 0.000914 -0.002818 0.003259 0.018360 -0.002164
# 6 -0.000278 0.002946 0.000963 -0.001406 -0.002164 0.021807
#
#
# Mechanical properties :
#
#
# Convention : Reuss Voigt Hill
#
# Bulk Modulus (GPa) = 31.78809 35.37975 33.58392
# Shear Modulus (GPa) = 35.32405 41.50157 38.41281
#
# Velocity S-wave (km/s) = 3.91674 4.24543 4.08439
# Velocity P-wave (km/s) = 5.85317 6.27667 6.06861
#
# Compressibility (1/GPa) = 0.03145832
#
# Stress axis : x y z
#
# Youngs Moduli (GPa) = 65.00890 77.23609 88.67665
#
# Poissons Ratio (x) = 0.25150 -0.11859
# Poissons Ratio (y) = 0.21169 0.19112
# Poissons Ratio (z) = -0.08694 0.16647
#
# Static dielectric constant tensor:
#      x y z
#    x 1.881530 0.054680 -0.119610 
#    y 0.054680 1.963260 -0.087040 
#    z -0.119610 -0.087040 2.046380 
# 
# From -- ./inp_files/225833.got.cif
#   From: 2010.05.17/outbox.cif.g08.bks.cpg/sg2_113_cif.got.tgz:225833.got - 2010.06.03 11:33:40.
