data_PCOD9070870
_publ_section_title
;
Structure prediction by ZEFSAII (Michael W. Deem and Ramdas Pophale) SiO2 
 PCOD9070870
Probable space group: P -1
;
_chemical_formula_sum "Si O2"
_cell_formula_units_Z 10
_cell_length_a 9.183291
_cell_length_b 9.588807
_cell_length_c 9.204439
_cell_angle_alpha 59.827588
_cell_angle_beta 59.399821
_cell_angle_gamma 32.432189
_cell_volume 369.443598
_symmetry_space_group_name_H-M "P -1"
_symmetry_group_IT_number 2
_symmetry_cell_setting 'triclinic'
loop_
_space_group_symop_operation_xyz
x,y,z
-x,-y,-z
loop_
_atom_site_type_symbol
_atom_site_label
_atom_site_fract_x
_atom_site_fract_y
_atom_site_fract_z
Si Si1 0.211008 0.212602 0.114998
Si Si2 0.004811 0.989633 0.689162
Si Si3 0.832013 0.246513 0.928827
Si Si4 0.997715 0.519510 0.318750
Si Si5 0.411485 0.435747 0.462807
O O1 0.085407 0.132007 0.206481
O O2 0.238562 0.249237 0.248790
O O3 0.000000 0.500000 0.000000
O O4 0.500000 0.000000 0.000000
O O5 0.325212 0.810956 0.633205
O O6 0.998851 0.972924 0.902929
O O7 0.000000 0.000000 0.500000
O O8 0.788021 0.305617 0.674841
O O9 0.966825 0.320367 0.820514
O O10 0.500000 0.500000 0.000000
O O11 0.733449 0.608205 0.368412
O O12 0.000000 0.500000 0.500000
O O13 0.500000 0.500000 0.500000
#
# Coordination Sequence:
#
# PCOD9070870 Si02
#       5
#     2   2   2   2   2
#     4  12  27  50  78 112 160 215 263 315 401 484
#     4  12  25  47  75 107 157 204 259 321 388 468
#     4  12  27  50  75 112 163 208 256 325 405 468
#     4  12  28  52  85 122 156 208 272 336 389 465
#     4  12  26  47  77 113 154 198 261 331 387 456
#
# _framework density 27.067730999999998
#
# number of rings (size 3 to 8) (size 9 to 14) (size 15 to 20)
#    0.000    0.000    4.000    5.400    0.000    2.400 
#    0.000    0.000    0.000    0.000    0.000    0.000 
#    0.000    0.000    0.000    0.000    0.000    0.000 
#
# Total GULP energy -55824.260441 kJ/mol
# GULP energy per Si atom -5582.426044 kJ/mol
# Density = 2.700612 g / cm^3
# Si number density = 27.067731 Si / 1000 Ang^3
#
#
#
# Elastic Constant Matrix: (Units=GPa)
#
#
# Indices 1 2 3 4 5 6 
#
# 1 169.6801 73.2684 82.2297 -5.0151 -53.1866 44.7054
# 2 73.2684 215.5538 86.8893 15.0929 -69.0254 -12.1197
# 3 82.2297 86.8893 190.1400 12.8184 -73.3315 21.8004
# 4 -5.0151 15.0929 12.8184 71.6463 16.6867 9.1188
# 5 -53.1866 -69.0254 -73.3315 16.6867 65.0818 4.7425
# 6 44.7054 -12.1197 21.8004 9.1188 4.7425 51.8483
#
#
#
# Elastic Compliance Matrix: (Units=1/GPa)
#
#
# Indices 1 2 3 4 5 6 
#
# 1 0.013164 -0.002430 0.000573 0.000774 0.009588 -0.013172
# 2 -0.002430 0.008513 0.000013 -0.004322 0.007866 0.004120
# 3 0.000573 0.000013 0.012250 -0.005101 0.016046 -0.006213
# 4 0.000774 -0.004322 -0.005101 0.019433 -0.014563 -0.001619
# 5 0.009588 0.007866 0.016046 -0.014563 0.054493 -0.015598
# 6 -0.013172 0.004120 -0.006213 -0.001619 -0.015598 0.035932
#
#
# Mechanical properties :
#
#
# Convention : Reuss Voigt Hill
#
# Bulk Modulus (GPa) = 33.06934 117.79430 75.43182
# Shear Modulus (GPa) = 31.73583 59.91438 45.82510
#
# Velocity S-wave (km/s) = 3.42783 4.70989 4.11905
# Velocity P-wave (km/s) = 5.28304 8.55513 7.10988
#
# Compressibility (1/GPa) = 0.03023949
#
# Stress axis : x y z
#
# Youngs Moduli (GPa) = 75.96695 117.46705 81.63427
#
# Poissons Ratio (x) = 0.28547 -0.04681
# Poissons Ratio (y) = 0.18462 -0.00109
# Poissons Ratio (z) = -0.04356 -0.00156
#
# Static dielectric constant tensor:
#      x y z
#    x 1.386760 -1.587000 -1.745370 
#    y -1.587000 -1.350790 -4.202300 
#    z -1.745370 -4.202300 -3.300780 
# 
# From -- ./inp_files/15808.got.cif
#   From: 2010.05.17/outbox.cif.g08.bks.cpg/sg2_8_cif.got.tgz:15808.got - 2010.06.03 11:33:40.
