data_PCOD9070882
_publ_section_title
;
Structure prediction by ZEFSAII (Michael W. Deem and Ramdas Pophale) SiO2 
 PCOD9070882
Probable space group: P -1
;
_chemical_formula_sum "Si O2"
_cell_formula_units_Z 16
_cell_length_a 13.117297
_cell_length_b 11.050376
_cell_length_c 9.558819
_cell_angle_alpha 76.679472
_cell_angle_beta 143.890042
_cell_angle_gamma 122.038415
_cell_volume 635.401536
_symmetry_space_group_name_H-M "P -1"
_symmetry_group_IT_number 2
_symmetry_cell_setting 'triclinic'
loop_
_space_group_symop_operation_xyz
x,y,z
-x,-y,-z
loop_
_atom_site_type_symbol
_atom_site_label
_atom_site_fract_x
_atom_site_fract_y
_atom_site_fract_z
Si Si1 0.040326 0.827099 0.265424
Si Si2 0.898626 0.512664 0.167819
Si Si3 0.689963 0.499128 0.649672
Si Si4 0.480682 0.638223 0.992395
Si Si5 0.267133 0.925199 0.202002
Si Si6 0.707307 0.990672 0.238635
Si Si7 0.975457 0.274045 0.255436
Si Si8 0.415576 0.246019 0.206532
O O1 0.106154 0.877052 0.164871
O O2 0.192661 0.962949 0.506820
O O3 0.061892 0.689457 0.350514
O O4 0.786415 0.746657 0.022005
O O5 0.841516 0.519944 0.939688
O O6 0.688942 0.434217 0.052577
O O7 0.972269 0.403778 0.293651
O O8 0.500000 0.500000 0.500000
O O9 0.567974 0.332033 0.485154
O O10 0.805217 0.630223 0.619316
O O11 0.650701 0.822287 0.182170
O O12 0.500000 0.500000 0.000000
O O13 0.433376 0.674823 0.779437
O O14 0.500000 0.000000 0.500000
O O15 0.291975 0.064166 0.112580
O O16 0.197016 0.797025 0.043234
O O17 0.894388 0.132936 0.308935
O O18 0.500000 0.000000 0.000000
#
# Coordination Sequence:
#
# PCOD9070882 Si02
#       8
#     2   2   2   2   2   2   2   2
#     4  12  28  49  76 111 158 202 255 322 393 468
#     4  12  26  47  76 113 155 201 260 319 395 457
#     4  12  25  47  76 112 154 200 257 324 389 468
#     4  12  26  51  78 110 158 202 261 325 392 465
#     4  12  26  48  77 109 155 201 260 324 386 464
#     4  12  28  52  79 114 156 207 262 325 397 466
#     4  12  26  48  76 113 151 207 259 323 389 469
#     4  12  27  49  74 111 150 207 257 314 394 459
#
# _framework density 25.180925999999999
#
# number of rings (size 3 to 8) (size 9 to 14) (size 15 to 20)
#    0.000    0.000    6.250    2.250    5.250    2.000 
#    2.250    0.000    0.000    0.000    0.000    0.000 
#    0.000    0.000    0.000    0.000    0.000    0.000 
#
# Total GULP energy -89436.737471 kJ/mol
# GULP energy per Si atom -5589.796092 kJ/mol
# Density = 2.512361 g / cm^3
# Si number density = 25.180926 Si / 1000 Ang^3
#
#
#
# Elastic Constant Matrix: (Units=GPa)
#
#
# Indices 1 2 3 4 5 6 
#
# 1 96.9462 66.7253 20.7195 1.7355 -3.2408 3.6227
# 2 66.7253 173.4652 5.1449 26.0836 1.0485 2.3351
# 3 20.7195 5.1449 75.8935 20.0290 -10.5424 -18.3881
# 4 1.7355 26.0836 20.0290 35.4058 -8.8767 -16.2362
# 5 -3.2408 1.0485 -10.5424 -8.8767 46.0677 7.9894
# 6 3.6227 2.3351 -18.3881 -16.2362 7.9894 42.3991
#
#
#
# Elastic Compliance Matrix: (Units=1/GPa)
#
#
# Indices 1 2 3 4 5 6 
#
# 1 0.016740 -0.007490 -0.006215 0.008229 0.001663 -0.000875
# 2 -0.007490 0.010148 0.003357 -0.010395 -0.001622 -0.002138
# 3 -0.006215 0.003357 0.018570 -0.010505 0.000985 0.004192
# 4 0.008229 -0.010395 -0.010505 0.048771 0.005565 0.012941
# 5 0.001663 -0.001622 0.000985 0.005565 0.023492 -0.001921
# 6 -0.000875 -0.002138 0.004192 0.012941 -0.001921 0.030914
#
#
# Mechanical properties :
#
#
# Convention : Reuss Voigt Hill
#
# Bulk Modulus (GPa) = 40.38565 59.05382 49.71973
# Shear Modulus (GPa) = 28.15545 41.68887 34.92216
#
# Velocity S-wave (km/s) = 3.34747 4.07329 3.72808
# Velocity P-wave (km/s) = 5.56900 6.75462 6.19026
#
# Compressibility (1/GPa) = 0.02476127
#
# Stress axis : x y z
#
# Youngs Moduli (GPa) = 59.73788 98.53889 53.84965
#
# Poissons Ratio (x) = 0.73810 0.33468
# Poissons Ratio (y) = 0.44747 -0.18078
# Poissons Ratio (z) = 0.37128 -0.33080
#
# Static dielectric constant tensor:
#      x y z
#    x 2.143670 -0.180060 0.069800 
#    y -0.180060 2.020300 0.017310 
#    z 0.069800 0.017310 1.957640 
# 
# From -- ./inp_files/262638.got.cif
#   From: 2010.05.17/outbox.cif.g08.bks.cpg/sg2_132_cif.got.tgz:262638.got - 2010.06.03 11:33:40.
