data_PCOD9070306
_publ_section_title
;
Structure prediction by ZEFSAII (Michael W. Deem and Ramdas Pophale) SiO2 
 PCOD9070306
Probable space group: P -1
;
_chemical_formula_sum "Si O2"
_cell_formula_units_Z 16
_cell_length_a 9.178279
_cell_length_b 22.283274
_cell_length_c 8.085215
_cell_angle_alpha 57.094290
_cell_angle_beta 122.456131
_cell_angle_gamma 151.116798
_cell_volume 662.966360
_symmetry_space_group_name_H-M "P -1"
_symmetry_group_IT_number 2
_symmetry_cell_setting 'triclinic'
loop_
_space_group_symop_operation_xyz
x,y,z
-x,-y,-z
loop_
_atom_site_type_symbol
_atom_site_label
_atom_site_fract_x
_atom_site_fract_y
_atom_site_fract_z
Si Si1 0.127404 0.384707 0.162398
Si Si2 0.466670 0.154042 0.959470
Si Si3 0.751049 0.775236 0.170940
Si Si4 0.384155 0.616799 0.863416
Si Si5 0.037295 0.624895 0.581731
Si Si6 0.577088 0.026462 0.700073
Si Si7 0.516434 0.387355 0.422083
Si Si8 0.648116 0.904610 0.404991
O O1 0.246378 0.346654 0.257856
O O2 0.133709 0.390902 0.355703
O O3 0.335951 0.517008 0.014014
O O4 0.794186 0.286673 0.035431
O O5 0.237257 0.135734 0.918871
O O6 0.438945 0.145317 0.759299
O O7 0.448359 0.064074 0.124446
O O8 0.566272 0.680770 0.356695
O O9 0.063754 0.837860 0.265674
O O10 0.616755 0.721288 0.987271
O O11 0.087452 0.564175 0.785313
O O12 0.441774 0.649005 0.655462
O O13 0.372394 0.774104 0.537959
O O14 0.819876 0.537883 0.421963
O O15 0.386214 0.022246 0.684805
O O16 0.500000 0.000000 0.500000
O O17 0.000000 0.000000 0.500000
#
# Coordination Sequence:
#
# PCOD9070306 Si02
#       8
#     2   2   2   2   2   2   2   2
#     4  12  25  46  75 112 154 195 250 311 378 457
#     4  12  26  48  74 107 153 201 253 311 376 447
#     4  12  26  48  78 111 157 200 252 312 379 455
#     4  12  26  44  75 111 152 198 249 302 388 448
#     4  12  24  47  73 105 153 199 243 309 385 448
#     4  12  28  50  77 107 150 201 256 316 383 443
#     4  12  26  45  75 114 157 194 250 312 381 457
#     4  12  29  49  77 111 148 198 260 317 378 452
#
# _framework density 24.133953999999999
#
# number of rings (size 3 to 8) (size 9 to 14) (size 15 to 20)
#    0.000    0.000    2.500    7.500    5.250    1.000 
#    0.000    0.000    0.000    0.000    0.000    0.000 
#    0.000    0.000    0.000    0.000    0.000    0.000 
#
# Total GULP energy -89516.611681 kJ/mol
# GULP energy per Si atom -5594.788230 kJ/mol
# Density = 2.407902 g / cm^3
# Si number density = 24.133954 Si / 1000 Ang^3
#
#
#
# Elastic Constant Matrix: (Units=GPa)
#
#
# Indices 1 2 3 4 5 6 
#
# 1 123.7330 37.0981 15.7676 7.4840 11.7847 -7.2639
# 2 37.0981 58.2945 41.0644 10.7196 -8.1297 4.4510
# 3 15.7676 41.0644 91.9902 11.6297 -6.1107 5.5631
# 4 7.4840 10.7196 11.6297 37.6925 -11.6221 3.5374
# 5 11.7847 -8.1297 -6.1107 -11.6221 53.3510 8.0283
# 6 -7.2639 4.4510 5.5631 3.5374 8.0283 35.5209
#
#
#
# Elastic Compliance Matrix: (Units=1/GPa)
#
#
# Indices 1 2 3 4 5 6 
#
# 1 0.011474 -0.009216 0.001821 -0.002149 -0.004881 0.004533
# 2 -0.009216 0.033251 -0.012350 -0.001402 0.006192 -0.005377
# 3 0.001821 -0.012350 0.016297 -0.002116 -0.000844 -0.000231
# 4 -0.002149 -0.001402 -0.002116 0.030734 0.007417 -0.004669
# 5 -0.004881 0.006192 -0.000844 0.007417 0.023440 -0.007678
# 6 0.004533 -0.005377 -0.000231 -0.004669 -0.007678 0.031990
#
#
# Mechanical properties :
#
#
# Convention : Reuss Voigt Hill
#
# Bulk Modulus (GPa) = 46.44330 51.31977 48.88153
# Shear Modulus (GPa) = 25.79277 37.31872 31.55574
#
# Velocity S-wave (km/s) = 3.27270 3.93659 3.61989
# Velocity P-wave (km/s) = 5.79366 6.47866 6.14571
#
# Compressibility (1/GPa) = 0.02153163
#
# Stress axis : x y z
#
# Youngs Moduli (GPa) = 87.15273 30.07456 61.36113
#
# Poissons Ratio (x) = 0.27717 -0.11172
# Poissons Ratio (y) = 0.80321 0.75779
# Poissons Ratio (z) = -0.15868 0.37141
#
# Static dielectric constant tensor:
#      x y z
#    x 1.871640 0.023590 -0.012650 
#    y 0.023590 1.983560 -0.040140 
#    z -0.012650 -0.040140 2.098630 
# 
# From -- ./inp_files/223497.got.cif
#   From: 2010.05.17/outbox.cif.g08.bks.cpg/sg2_112_cif.got.tgz:223497.got - 2010.06.03 11:33:40.
