data_PCOD9070408
_publ_section_title
;
Structure prediction by ZEFSAII (Michael W. Deem and Ramdas Pophale) SiO2 
 PCOD9070408
Probable space group: P -1
;
_chemical_formula_sum "Si O2"
_cell_formula_units_Z 12
_cell_length_a 9.812224
_cell_length_b 19.645203
_cell_length_c 10.768623
_cell_angle_alpha 143.528048
_cell_angle_beta 44.085406
_cell_angle_gamma 154.616354
_cell_volume 528.675532
_symmetry_space_group_name_H-M "P -1"
_symmetry_group_IT_number 2
_symmetry_cell_setting 'triclinic'
loop_
_space_group_symop_operation_xyz
x,y,z
-x,-y,-z
loop_
_atom_site_type_symbol
_atom_site_label
_atom_site_fract_x
_atom_site_fract_y
_atom_site_fract_z
Si Si1 0.228753 0.847625 0.854690
Si Si2 0.647981 0.455180 0.778822
Si Si3 0.846019 0.304149 0.823827
Si Si4 0.256289 0.086623 0.062764
Si Si5 0.459248 0.819441 0.421428
Si Si6 0.179838 0.220429 0.517056
O O1 0.979424 0.647188 0.785625
O O2 0.346725 0.843850 0.645890
O O3 0.500000 0.000000 0.000000
O O4 0.106625 0.916170 0.993848
O O5 0.663964 0.364148 0.737014
O O6 0.415120 0.307242 0.604186
O O7 0.500000 0.500000 0.000000
O O8 0.676754 0.202306 0.652980
O O9 0.094583 0.315946 0.702471
O O10 0.576335 0.188214 0.936655
O O11 0.000000 0.500000 0.000000
O O12 0.322275 0.227810 0.311480
O O13 0.000000 0.000000 0.000000
O O14 0.839450 0.003278 0.440227
#
# Coordination Sequence:
#
# PCOD9070408 Si02
#       6
#     2   2   2   2   2   2
#     4  12  27  47  74 105 145 189 240 297 355 423
#     4  12  27  45  72 107 143 188 244 293 353 427
#     4  12  28  46  74 107 147 187 235 298 353 426
#     4  12  26  48  75 105 143 189 239 289 361 420
#     4  12  24  48  72 103 146 190 237 294 359 416
#     4  12  25  48  74 106 145 188 238 296 354 423
#
# _framework density 22.698231
#
# number of rings (size 3 to 8) (size 9 to 14) (size 15 to 20)
#    0.000    0.000    3.333    6.500    7.000    0.667 
#    0.000    0.000    0.000    0.000    0.000    0.000 
#    0.000    0.000    0.000    0.000    0.000    0.000 
#
# Total GULP energy -67266.282697 kJ/mol
# GULP energy per Si atom -5605.523558 kJ/mol
# Density = 2.264657 g / cm^3
# Si number density = 22.698231 Si / 1000 Ang^3
#
#
#
# Elastic Constant Matrix: (Units=GPa)
#
#
# Indices 1 2 3 4 5 6 
#
# 1 85.0451 8.4883 8.1369 8.2964 -10.2292 -2.2987
# 2 8.4883 76.8175 4.0457 9.2805 0.4159 -19.3234
# 3 8.1369 4.0457 120.4399 -25.7909 -1.8198 -15.5805
# 4 8.2964 9.2805 -25.7909 44.8257 -8.5853 -1.8793
# 5 -10.2292 0.4159 -1.8198 -8.5853 59.7759 13.6730
# 6 -2.2987 -19.3234 -15.5805 -1.8793 13.6730 32.2267
#
#
#
# Elastic Compliance Matrix: (Units=1/GPa)
#
#
# Indices 1 2 3 4 5 6 
#
# 1 0.012511 -0.001451 -0.001545 -0.002568 0.002143 -0.001784
# 2 -0.001451 0.016342 0.000255 -0.003143 -0.003333 0.011050
# 3 -0.001545 0.000255 0.010504 0.006454 -0.000307 0.005628
# 4 -0.002568 -0.003143 0.006454 0.027870 0.003510 0.001188
# 5 0.002143 -0.003333 -0.000307 0.003510 0.019960 -0.010258
# 6 -0.001784 0.011050 0.005628 0.001188 -0.010258 0.044671
#
#
# Mechanical properties :
#
#
# Convention : Reuss Voigt Hill
#
# Bulk Modulus (GPa) = 29.51978 35.96049 32.74014
# Shear Modulus (GPa) = 33.64014 44.80778 39.22396
#
# Velocity S-wave (km/s) = 3.85393 4.44787 4.16151
# Velocity P-wave (km/s) = 5.73038 6.50040 6.12750
#
# Compressibility (1/GPa) = 0.03387559
#
# Stress axis : x y z
#
# Youngs Moduli (GPa) = 79.92829 61.19176 95.20092
#
# Poissons Ratio (x) = 0.08880 0.14707
# Poissons Ratio (y) = 0.11598 -0.02428
# Poissons Ratio (z) = 0.12348 -0.01561
#
# Static dielectric constant tensor:
#      x y z
#    x 1.812110 -0.033000 -0.024590 
#    y -0.033000 1.884620 -0.049950 
#    z -0.024590 -0.049950 1.866950 
# 
# From -- ./inp_files/405014.got.cif
#   From: 2010.05.17/outbox.cif.g08.bks.cpg/sg2_203_cif.got.tgz:405014.got - 2010.06.03 11:33:40.
