data_PCOD9070364
_publ_section_title
;
Structure prediction by ZEFSAII (Michael W. Deem and Ramdas Pophale) SiO2 
 PCOD9070364
Probable space group: P -1
;
_chemical_formula_sum "Si O2"
_cell_formula_units_Z 12
_cell_length_a 16.573947
_cell_length_b 9.470002
_cell_length_c 8.060569
_cell_angle_alpha 85.915689
_cell_angle_beta 62.206667
_cell_angle_gamma 35.602137
_cell_volume 522.270617
_symmetry_space_group_name_H-M "P -1"
_symmetry_group_IT_number 2
_symmetry_cell_setting 'triclinic'
loop_
_space_group_symop_operation_xyz
x,y,z
-x,-y,-z
loop_
_atom_site_type_symbol
_atom_site_label
_atom_site_fract_x
_atom_site_fract_y
_atom_site_fract_z
Si Si1 0.049391 0.782219 0.561762
Si Si2 0.993213 0.390088 0.878459
Si Si3 0.643519 0.183772 0.962452
Si Si4 0.178661 0.654614 0.802415
Si Si5 0.427282 0.755933 0.582067
Si Si6 0.707687 0.795612 0.811549
O O1 0.171536 0.662868 0.611823
O O2 0.169266 0.487529 0.390856
O O3 0.849294 0.982635 0.792277
O O4 0.000000 0.000000 0.500000
O O5 0.863966 0.600978 0.827327
O O6 0.221234 0.050569 0.661838
O O7 0.000000 0.500000 0.000000
O O8 0.883404 0.408620 0.060442
O O9 0.648827 0.043535 0.840938
O O10 0.500000 0.500000 0.000000
O O11 0.595962 0.198845 0.197531
O O12 0.402447 0.382397 0.649177
O O13 0.000000 0.000000 0.000000
O O14 0.500000 0.500000 0.500000
O O15 0.500000 0.000000 0.000000
#
# Coordination Sequence:
#
# PCOD9070364 Si02
#       6
#     2   2   2   2   2   2
#     4  12  25  46  76 110 151 197 250 310 374 452
#     4  12  26  50  75 110 153 192 253 315 374 448
#     4  12  26  49  72 107 151 200 250 313 378 445
#     4  12  24  47  77 109 146 199 253 304 370 450
#     4  12  25  47  76 109 147 196 255 305 373 449
#     4  12  27  50  73 113 152 196 254 313 379 448
#
# _framework density 22.976593000000001
#
# number of rings (size 3 to 8) (size 9 to 14) (size 15 to 20)
#    0.000    0.000    5.000    4.500    2.333    2.000 
#    3.000    0.000    0.000    0.000    0.000    0.000 
#    0.000    0.000    0.000    0.000    0.000    0.000 
#
# Total GULP energy -66966.151326 kJ/mol
# GULP energy per Si atom -5580.512611 kJ/mol
# Density = 2.292430 g / cm^3
# Si number density = 22.976593 Si / 1000 Ang^3
#
#
#
# Elastic Constant Matrix: (Units=GPa)
#
#
# Indices 1 2 3 4 5 6 
#
# 1 132.8101 42.0310 62.4751 10.3913 -20.9872 11.1844
# 2 42.0310 95.3864 47.3241 36.7608 1.6342 4.2531
# 3 62.4751 47.3241 138.4808 26.4342 -21.1178 -0.5039
# 4 10.3913 36.7608 26.4342 31.7373 -5.7948 -8.1891
# 5 -20.9872 1.6342 -21.1178 -5.7948 80.2375 8.9568
# 6 11.1844 4.2531 -0.5039 -8.1891 8.9568 56.0434
#
#
#
# Elastic Compliance Matrix: (Units=1/GPa)
#
#
# Indices 1 2 3 4 5 6 
#
# 1 0.011075 -0.005061 -0.003960 0.005623 0.002525 -0.001443
# 2 -0.005061 0.023893 -0.001373 -0.026601 -0.003633 -0.004122
# 3 -0.003960 -0.001373 0.010818 -0.005888 0.001425 -0.000096
# 4 0.005623 -0.026601 -0.005888 0.068801 0.004292 0.010211
# 5 0.002525 -0.003633 0.001425 0.004292 0.014088 -0.001840
# 6 -0.001443 -0.004122 -0.000096 0.010211 -0.001840 0.020229
#
#
# Mechanical properties :
#
#
# Convention : Reuss Voigt Hill
#
# Bulk Modulus (GPa) = 40.00598 74.48197 57.24397
# Shear Modulus (GPa) = 28.08598 47.92680 38.00639
#
# Velocity S-wave (km/s) = 3.50004 4.57212 4.07152
# Velocity P-wave (km/s) = 5.81232 7.76912 6.86084
#
# Compressibility (1/GPa) = 0.02499626
#
# Stress axis : x y z
#
# Youngs Moduli (GPa) = 90.29441 41.85401 92.43821
#
# Poissons Ratio (x) = 0.21183 0.36610
# Poissons Ratio (y) = 0.45700 0.12691
# Poissons Ratio (z) = 0.35761 0.05746
#
# Static dielectric constant tensor:
#      x y z
#    x 1.809530 -0.144640 -0.028180 
#    y -0.144640 2.363380 0.416790 
#    z -0.028180 0.416790 2.269140 
# 
# From -- ./inp_files/151109.got.cif
#   From: 2010.05.17/outbox.cif.g08.bks.cpg/sg2_76_cif.got.tgz:151109.got - 2010.06.03 11:33:40.
