data_PCOD9070401
_publ_section_title
;
Structure prediction by ZEFSAII (Michael W. Deem and Ramdas Pophale) SiO2 
 PCOD9070401
Probable space group: P -1
;
_chemical_formula_sum "Si O2"
_cell_formula_units_Z 15
_cell_length_a 9.579716
_cell_length_b 9.877013
_cell_length_c 22.400613
_cell_angle_alpha 35.523598
_cell_angle_beta 144.104163
_cell_angle_gamma 135.018257
_cell_volume 714.848715
_symmetry_space_group_name_H-M "P -1"
_symmetry_group_IT_number 2
_symmetry_cell_setting 'triclinic'
loop_
_space_group_symop_operation_xyz
x,y,z
-x,-y,-z
loop_
_atom_site_type_symbol
_atom_site_label
_atom_site_fract_x
_atom_site_fract_y
_atom_site_fract_z
Si Si1 0.121013 0.128758 0.225697
Si Si2 0.118050 0.800634 0.148489
Si Si3 0.938800 0.335086 0.480081
Si Si4 0.868313 0.705931 0.223662
Si Si5 0.521168 0.662151 0.826396
Si Si6 0.331826 0.987417 0.729159
Si Si7 0.138012 0.567893 0.894103
Si Si8 0.500000 0.000000 0.500000
O O1 0.304084 0.198936 0.210375
O O2 0.263601 0.024107 0.366529
O O3 0.017020 0.356006 0.132455
O O4 0.906839 0.937924 0.194480
O O5 0.015926 0.767267 0.191948
O O6 0.035627 0.561097 0.169864
O O7 0.404065 0.866617 0.225852
O O8 0.000000 0.000000 0.000000
O O9 0.955419 0.504959 0.367358
O O10 0.673306 0.191774 0.448853
O O11 0.000000 0.500000 0.500000
O O12 0.129990 0.155824 0.601059
O O13 0.606832 0.583742 0.156124
O O14 0.335212 0.827015 0.728403
O O15 0.678901 0.601022 0.959156
O O16 0.279933 0.803764 0.831018
#
# Coordination Sequence:
#
# PCOD9070401 Si02
#       8
#     2   2   2   2   2   2   2   1
#     4  12  26  46  72 106 141 190 238 295 363 426
#     4  12  25  45  73 107 146 186 236 296 357 430
#     4  12  27  47  72 105 142 187 242 297 358 430
#     4  12  25  45  72 103 145 189 241 293 356 423
#     4  12  25  45  71 104 146 182 242 302 353 431
#     4  12  25  44  73 105 141 188 237 293 360 420
#     4  12  25  45  72 106 144 191 236 294 366 419
#     4  12  24  48  70  96 148 178 232 298 358 416
#
# _framework density 20.983461999999999
#
# number of rings (size 3 to 8) (size 9 to 14) (size 15 to 20)
#    0.000    0.000    8.000    1.600    1.867    2.667 
#    2.400    0.000    0.000    0.000    0.000    0.000 
#    0.000    0.000    0.000    0.000    0.000    0.000 
#
# Total GULP energy -83639.855603 kJ/mol
# GULP energy per Si atom -5575.990374 kJ/mol
# Density = 2.093570 g / cm^3
# Si number density = 20.983462 Si / 1000 Ang^3
#
#
#
# Elastic Constant Matrix: (Units=GPa)
#
#
# Indices 1 2 3 4 5 6 
#
# 1 85.1784 17.0108 34.5658 -19.2127 -12.5140 -7.9369
# 2 17.0108 125.9159 13.3778 16.6600 12.0855 -3.4030
# 3 34.5658 13.3778 53.3669 -7.4780 -17.4295 -3.1442
# 4 -19.2127 16.6600 -7.4780 31.0012 2.4406 0.4734
# 5 -12.5140 12.0855 -17.4295 2.4406 38.4258 -9.4269
# 6 -7.9369 -3.4030 -3.1442 0.4734 -9.4269 40.4155
#
#
#
# Elastic Compliance Matrix: (Units=1/GPa)
#
#
# Indices 1 2 3 4 5 6 
#
# 1 0.019410 -0.003461 -0.008715 0.011449 0.003600 0.003548
# 2 -0.003461 0.010360 -0.003446 -0.008070 -0.005761 -0.001325
# 3 -0.008715 -0.003446 0.029852 0.002627 0.012400 0.003182
# 4 0.011449 -0.008070 0.002627 0.043869 0.005283 0.002492
# 5 0.003600 -0.005761 0.012400 0.005283 0.036672 0.009678
# 6 0.003548 -0.001325 0.003182 0.002492 0.009678 0.027804
#
#
# Mechanical properties :
#
#
# Convention : Reuss Voigt Hill
#
# Bulk Modulus (GPa) = 35.23779 43.81889 39.52834
# Shear Modulus (GPa) = 23.96126 35.26893 29.61510
#
# Velocity S-wave (km/s) = 3.38288 4.10420 3.76087
# Velocity P-wave (km/s) = 5.66464 6.58690 6.14310
#
# Compressibility (1/GPa) = 0.02837862
#
# Stress axis : x y z
#
# Youngs Moduli (GPa) = 51.52055 96.52218 33.49821
#
# Poissons Ratio (x) = 0.33403 0.29195
# Poissons Ratio (y) = 0.17830 0.11543
# Poissons Ratio (z) = 0.44902 0.33261
#
# Static dielectric constant tensor:
#      x y z
#    x 1.737400 -0.012980 -0.017290 
#    y -0.012980 1.772500 -0.004110 
#    z -0.017290 -0.004110 1.727840 
# 
# From -- ./inp_files/203868.got.cif
#   From: 2010.05.17/outbox.cif.g08.bks.cpg/sg2_102_cif.got.tgz:203868.got - 2010.06.03 11:33:40.
