data_PCOD9070824
_publ_section_title
;
Structure prediction by ZEFSAII (Michael W. Deem and Ramdas Pophale) SiO2 
 PCOD9070824
Probable space group: P -1
;
_chemical_formula_sum "Si O2"
_cell_formula_units_Z 14
_cell_length_a 8.598368
_cell_length_b 8.994880
_cell_length_c 11.845304
_cell_angle_alpha 111.176102
_cell_angle_beta 61.149298
_cell_angle_gamma 67.822046
_cell_volume 551.647796
_symmetry_space_group_name_H-M "P -1"
_symmetry_group_IT_number 2
_symmetry_cell_setting 'triclinic'
loop_
_space_group_symop_operation_xyz
x,y,z
-x,-y,-z
loop_
_atom_site_type_symbol
_atom_site_label
_atom_site_fract_x
_atom_site_fract_y
_atom_site_fract_z
Si Si1 0.257436 0.740457 0.667193
Si Si2 0.138489 0.320731 0.658703
Si Si3 0.453543 0.950296 0.730388
Si Si4 0.947907 0.338643 0.082663
Si Si5 0.323550 0.245880 0.180738
Si Si6 0.013998 0.030109 0.634125
Si Si7 0.638396 0.329295 0.006100
O O1 0.500000 0.500000 0.500000
O O2 0.308031 0.874214 0.749368
O O3 0.082828 0.750579 0.816781
O O4 0.211428 0.813598 0.572649
O O5 0.393834 0.129342 0.458548
O O6 0.167082 0.420302 0.782084
O O7 0.037301 0.206587 0.688121
O O8 0.939260 0.543949 0.717235
O O9 0.667157 0.808647 0.707495
O O10 0.231140 0.194684 0.915222
O O11 0.800277 0.340784 0.034702
O O12 0.464983 0.327010 0.140342
O O13 0.500000 0.000000 0.000000
O O14 0.796266 0.114178 0.815726
O O15 0.000000 0.000000 0.500000
O O16 0.500000 0.500000 0.000000
#
# Coordination Sequence:
#
# PCOD9070824 Si02
#       7
#     2   2   2   2   2   2   2
#     4  12  26  50  81 116 152 214 267 327 396 475
#     4  12  29  50  77 121 160 211 262 336 407 468
#     4  12  25  46  81 114 161 206 272 327 393 478
#     4  12  26  53  85 114 157 211 278 327 394 485
#     4  12  26  47  80 119 158 208 271 331 396 477
#     4  12  31  50  76 117 165 207 263 327 410 477
#     4  12  27  52  80 113 158 213 261 331 409 466
#
# _framework density 25.378513000000002
#
# number of rings (size 3 to 8) (size 9 to 14) (size 15 to 20)
#    0.000    0.000    7.143    1.714    6.000    1.143 
#    2.571    0.000    0.000    0.000    0.000    0.000 
#    0.000    0.000    0.000    0.000    0.000    0.000 
#
# Total GULP energy -78217.283953 kJ/mol
# GULP energy per Si atom -5586.948854 kJ/mol
# Density = 2.532075 g / cm^3
# Si number density = 25.378513 Si / 1000 Ang^3
#
#
#
# Elastic Constant Matrix: (Units=GPa)
#
#
# Indices 1 2 3 4 5 6 
#
# 1 98.5852 51.1579 29.8525 -13.6099 13.1308 -19.2712
# 2 51.1579 141.1646 39.8929 -7.4189 16.6653 -33.8204
# 3 29.8525 39.8929 151.5341 -3.9312 3.7885 -7.5018
# 4 -13.6099 -7.4189 -3.9312 29.3983 -9.0305 0.7600
# 5 13.1308 16.6653 3.7885 -9.0305 47.1367 -7.1705
# 6 -19.2712 -33.8204 -7.5018 0.7600 -7.1705 46.8485
#
#
#
# Elastic Compliance Matrix: (Units=1/GPa)
#
#
# Indices 1 2 3 4 5 6 
#
# 1 0.013773 -0.003555 -0.001494 0.004864 -0.001131 0.002608
# 2 -0.003555 0.010377 -0.001715 0.000083 -0.001689 0.005494
# 3 -0.001494 -0.001715 0.007305 -0.000029 0.000334 -0.000631
# 4 0.004864 0.000083 -0.000029 0.038156 0.006293 0.002400
# 5 -0.001131 -0.001689 0.000334 0.006293 0.023592 0.001878
# 6 0.002608 0.005494 -0.000631 0.002400 0.001878 0.026532
#
#
# Mechanical properties :
#
#
# Convention : Reuss Voigt Hill
#
# Bulk Modulus (GPa) = 55.78395 70.34338 63.06367
# Shear Modulus (GPa) = 35.91006 42.70207 39.30606
#
# Velocity S-wave (km/s) = 3.76570 4.10641 3.93974
# Velocity P-wave (km/s) = 6.39811 7.08952 6.75267
#
# Compressibility (1/GPa) = 0.01792630
#
# Stress axis : x y z
#
# Youngs Moduli (GPa) = 72.60820 96.36604 136.89966
#
# Poissons Ratio (x) = 0.34259 0.20449
# Poissons Ratio (y) = 0.25813 0.23480
# Poissons Ratio (z) = 0.10846 0.16528
#
# Static dielectric constant tensor:
#      x y z
#    x 2.003690 0.030280 0.064700 
#    y 0.030280 1.807500 -0.126760 
#    z 0.064700 -0.126760 1.984540 
# 
# From -- ./inp_files/382844.got.cif
#   From: 2010.05.17/outbox.cif.g08.bks.cpg/sg2_192_cif.got.tgz:382844.got - 2010.06.03 11:33:40.
