data_PCOD9070266
_publ_section_title
;
Structure prediction by ZEFSAII (Michael W. Deem and Ramdas Pophale) SiO2 
 PCOD9070266
Probable space group: P -1
;
_chemical_formula_sum "Si O2"
_cell_formula_units_Z 14
_cell_length_a 4.813016
_cell_length_b 8.727725
_cell_length_c 18.498601
_cell_angle_alpha 54.059320
_cell_angle_beta 106.028833
_cell_angle_gamma 94.665604
_cell_volume 601.409575
_symmetry_space_group_name_H-M "P -1"
_symmetry_group_IT_number 2
_symmetry_cell_setting 'triclinic'
loop_
_space_group_symop_operation_xyz
x,y,z
-x,-y,-z
loop_
_atom_site_type_symbol
_atom_site_label
_atom_site_fract_x
_atom_site_fract_y
_atom_site_fract_z
Si Si1 0.677788 0.683067 0.978304
Si Si2 0.296894 0.869190 0.562310
Si Si3 0.891751 0.135558 0.145389
Si Si4 0.262085 0.734665 0.275602
Si Si5 0.692829 0.303182 0.238843
Si Si6 0.860136 0.435620 0.832388
Si Si7 0.854612 0.526871 0.403823
O O1 0.893591 0.651710 0.070478
O O2 0.500000 0.500000 0.000000
O O3 0.413151 0.849938 0.924313
O O4 0.022018 0.590020 0.756256
O O5 0.368060 0.830920 0.662120
O O6 0.273547 0.664958 0.579628
O O7 0.500000 0.000000 0.500000
O O8 0.000000 0.000000 0.500000
O O9 0.773606 0.201438 0.197458
O O10 0.108403 0.269394 0.084771
O O11 0.085582 0.937155 0.220794
O O12 0.250450 0.701051 0.197960
O O13 0.093777 0.583744 0.349193
O O14 0.592662 0.696707 0.336072
O O15 0.414925 0.460210 0.174455
O O16 0.000000 0.500000 0.500000
#
# Coordination Sequence:
#
# PCOD9070266 Si02
#       7
#     2   2   2   2   2   2   2
#     4  12  26  46  71 115 151 192 255 315 372 431
#     4  12  26  48  77 113 146 191 259 312 368 452
#     4  12  28  45  75 113 149 194 255 311 367 450
#     4  12  26  52  74 108 153 200 248 302 388 457
#     4  12  25  46  73 109 146 200 249 301 377 442
#     4  12  24  46  79 100 149 205 240 307 374 449
#     4  12  27  52  76 109 153 200 244 315 387 451
#
# _framework density 23.278646999999999
#
# number of rings (size 3 to 8) (size 9 to 14) (size 15 to 20)
#    0.000    0.000    4.286    5.143    2.000    1.143 
#    0.000    0.000    0.000    0.000    0.000    0.000 
#    0.000    0.000    0.000    0.000    0.000    0.000 
#
# Total GULP energy -78381.431017 kJ/mol
# GULP energy per Si atom -5598.673644 kJ/mol
# Density = 2.322566 g / cm^3
# Si number density = 23.278647 Si / 1000 Ang^3
#
#
#
# Elastic Constant Matrix: (Units=GPa)
#
#
# Indices 1 2 3 4 5 6 
#
# 1 174.0493 32.7433 63.7344 1.2878 -3.2049 -23.9130
# 2 32.7433 72.9138 72.1824 2.5420 5.5857 -26.9452
# 3 63.7344 72.1824 180.2785 11.5086 2.7744 -22.0194
# 4 1.2878 2.5420 11.5086 28.1813 -9.8749 1.5234
# 5 -3.2049 5.5857 2.7744 -9.8749 57.0205 -22.4307
# 6 -23.9130 -26.9452 -22.0194 1.5234 -22.4307 43.9159
#
#
#
# Elastic Compliance Matrix: (Units=1/GPa)
#
#
# Indices 1 2 3 4 5 6 
#
# 1 0.007100 0.000329 -0.002254 0.001143 0.002271 0.004058
# 2 0.000329 0.028335 -0.009881 0.001999 0.003758 0.014460
# 3 -0.002254 -0.009881 0.010210 -0.003496 -0.001335 -0.002731
# 4 0.001143 0.001999 -0.003496 0.039312 0.007944 0.002790
# 5 0.002271 0.003758 -0.001335 0.007944 0.024728 0.015227
# 6 0.004058 0.014460 -0.002731 0.002790 0.015227 0.040164
#
#
# Mechanical properties :
#
#
# Convention : Reuss Voigt Hill
#
# Bulk Modulus (GPa) = 45.38603 84.95132 65.16867
# Shear Modulus (GPa) = 27.65409 43.06232 35.35820
#
# Velocity S-wave (km/s) = 3.45042 4.30567 3.90155
# Velocity P-wave (km/s) = 5.95088 7.82885 6.95356
#
# Compressibility (1/GPa) = 0.02203321
#
# Stress axis : x y z
#
# Youngs Moduli (GPa) = 140.84764 35.29217 97.94253
#
# Poissons Ratio (x) = -0.01160 0.22076
# Poissons Ratio (y) = -0.04630 0.96773
# Poissons Ratio (z) = 0.31746 0.34871
#
# Static dielectric constant tensor:
#      x y z
#    x 1.839000 0.027830 0.011730 
#    y 0.027830 1.909320 0.001260 
#    z 0.011730 0.001260 1.919300 
# 
# From -- ./inp_files/479088.got.cif
#   From: 2010.05.17/outbox.cif.g08.bks.cpg/sg2_240_cif.got.tgz:479088.got - 2010.06.03 11:33:40.
