data_PCOD9070462
_publ_section_title
;
Structure prediction by ZEFSAII (Michael W. Deem and Ramdas Pophale) SiO2 
 PCOD9070462
Probable space group: P -1
;
_chemical_formula_sum "Si O2"
_cell_formula_units_Z 12
_cell_length_a 13.210689
_cell_length_b 16.694295
_cell_length_c 10.102229
_cell_angle_alpha 43.039345
_cell_angle_beta 145.537938
_cell_angle_gamma 154.231542
_cell_volume 547.469005
_symmetry_space_group_name_H-M "P -1"
_symmetry_group_IT_number 2
_symmetry_cell_setting 'triclinic'
loop_
_space_group_symop_operation_xyz
x,y,z
-x,-y,-z
loop_
_atom_site_type_symbol
_atom_site_label
_atom_site_fract_x
_atom_site_fract_y
_atom_site_fract_z
Si Si1 0.948705 0.917191 0.733861
Si Si2 0.434644 0.709673 0.950525
Si Si3 0.273231 0.877829 0.518317
Si Si4 0.792881 0.620144 0.737860
Si Si5 0.289269 0.287612 0.996088
Si Si6 0.710368 0.046256 0.272233
O O1 0.890192 0.771992 0.759738
O O2 0.801843 0.957051 0.462225
O O3 0.813474 0.827051 0.841974
O O4 0.281391 0.110190 0.880456
O O5 0.255113 0.522570 0.060880
O O6 0.555532 0.718118 0.933714
O O7 0.243397 0.725120 0.698539
O O8 0.393041 0.994037 0.641301
O O9 0.987935 0.798413 0.267551
O O10 0.500000 0.000000 0.500000
O O11 0.500000 0.500000 0.500000
O O12 0.012503 0.734887 0.716111
O O13 0.500000 0.500000 0.000000
O O14 0.500000 0.000000 0.000000
#
# Coordination Sequence:
#
# PCOD9070462 Si02
#       6
#     2   2   2   2   2   2
#     4  12  24  48  77 103 154 199 242 314 375 436
#     4  12  25  48  78 108 151 196 248 314 369 446
#     4  12  26  47  78 110 147 199 254 302 376 449
#     4  12  26  46  73 107 145 200 254 294 379 449
#     4  12  25  47  77 113 147 193 253 307 375 442
#     4  12  28  46  74 114 150 197 252 309 376 445
#
# _framework density 21.919048
#
# number of rings (size 3 to 8) (size 9 to 14) (size 15 to 20)
#    0.000    0.000    6.667    3.000    2.333    2.667 
#    0.000    0.000    0.000    0.000    0.000    0.000 
#    0.000    0.000    0.000    0.000    0.000    0.000 
#
# Total GULP energy -67200.607194 kJ/mol
# GULP energy per Si atom -5600.050600 kJ/mol
# Density = 2.186916 g / cm^3
# Si number density = 21.919048 Si / 1000 Ang^3
#
#
#
# Elastic Constant Matrix: (Units=GPa)
#
#
# Indices 1 2 3 4 5 6 
#
# 1 76.7333 8.3727 10.2656 -7.9212 -9.8727 -8.4352
# 2 8.3727 107.8768 21.9850 -20.9084 -10.1820 -4.8166
# 3 10.2656 21.9850 126.9280 -21.3122 -2.7542 -1.2034
# 4 -7.9212 -20.9084 -21.3122 55.6579 -1.2328 -5.2227
# 5 -9.8727 -10.1820 -2.7542 -1.2328 36.1291 -1.0416
# 6 -8.4352 -4.8166 -1.2034 -5.2227 -1.0416 39.1011
#
#
#
# Elastic Compliance Matrix: (Units=1/GPa)
#
#
# Indices 1 2 3 4 5 6 
#
# 1 0.014243 -0.000015 -0.000664 0.002180 0.004011 0.003448
# 2 -0.000015 0.010608 -0.001114 0.003799 0.003084 0.001859
# 3 -0.000664 -0.001114 0.008609 0.002824 0.000268 0.000369
# 4 0.002180 0.003799 0.002824 0.021215 0.002719 0.003931
# 5 0.004011 0.003084 0.000268 0.002719 0.029826 0.002411
# 6 0.003448 0.001859 0.000369 0.003931 0.002411 0.027148
#
#
# Mechanical properties :
#
#
# Convention : Reuss Voigt Hill
#
# Bulk Modulus (GPa) = 33.47332 43.64275 38.55803
# Shear Modulus (GPa) = 39.93854 44.23862 42.08858
#
# Velocity S-wave (km/s) = 4.27323 4.49739 4.38674
# Velocity P-wave (km/s) = 6.29697 6.85002 6.57931
#
# Compressibility (1/GPa) = 0.02987454
#
# Stress axis : x y z
#
# Youngs Moduli (GPa) = 70.21142 94.26471 116.16345
#
# Poissons Ratio (x) = 0.00143 0.07708
# Poissons Ratio (y) = 0.00107 0.12938
# Poissons Ratio (z) = 0.04659 0.10499
#
# Static dielectric constant tensor:
#      x y z
#    x 1.672020 -0.061840 0.025260 
#    y -0.061840 1.756980 -0.016140 
#    z 0.025260 -0.016140 1.771100 
# 
# From -- ./inp_files/262435.got.cif
#   From: 2010.05.17/outbox.cif.g08.bks.cpg/sg2_132_cif.got.tgz:262435.got - 2010.06.03 11:33:40.
