data_PCOD9070673
_publ_section_title
;
Structure prediction by ZEFSAII (Michael W. Deem and Ramdas Pophale) SiO2 
 PCOD9070673
Probable space group: P -1
;
_chemical_formula_sum "Si O2"
_cell_formula_units_Z 16
_cell_length_a 11.561606
_cell_length_b 14.132986
_cell_length_c 5.218336
_cell_angle_alpha 122.162970
_cell_angle_beta 79.918131
_cell_angle_gamma 79.824931
_cell_volume 672.398591
_symmetry_space_group_name_H-M "P -1"
_symmetry_group_IT_number 2
_symmetry_cell_setting 'triclinic'
loop_
_space_group_symop_operation_xyz
x,y,z
-x,-y,-z
loop_
_atom_site_type_symbol
_atom_site_label
_atom_site_fract_x
_atom_site_fract_y
_atom_site_fract_z
Si Si1 0.586435 0.993958 0.207431
Si Si2 0.110387 0.754083 0.665470
Si Si3 0.474997 0.435482 0.166853
Si Si4 0.132357 0.960896 0.260556
Si Si5 0.829984 0.814525 0.660993
Si Si6 0.680863 0.201233 0.646660
Si Si7 0.798823 0.487294 0.453359
Si Si8 0.864175 0.571450 0.048153
O O1 0.638491 0.106496 0.357419
O O2 0.500000 0.000000 0.500000
O O3 0.500000 0.000000 0.000000
O O4 0.708869 0.874779 0.973269
O O5 0.230553 0.726572 0.394751
O O6 0.147802 0.653341 0.722913
O O7 0.970355 0.766929 0.654989
O O8 0.109754 0.884500 0.925796
O O9 0.500000 0.500000 0.500000
O O10 0.331729 0.455052 0.276172
O O11 0.500000 0.500000 0.000000
O O12 0.557981 0.299877 0.932669
O O13 0.238375 0.875558 0.269247
O O14 0.167508 0.074884 0.348301
O O15 0.000000 0.000000 0.500000
O O16 0.820969 0.708424 0.335571
O O17 0.787724 0.518290 0.203302
O O18 0.871864 0.546430 0.706800
O O19 0.000000 0.500000 0.000000
#
# Coordination Sequence:
#
# PCOD9070673 Si02
#       8
#     2   2   2   2   2   2   2   2
#     4  12  30  52  74 107 156 211 257 312 378 469
#     4  12  25  47  79 116 151 193 259 340 388 463
#     4  12  27  47  78 113 154 203 253 319 396 462
#     4  12  25  44  79 112 152 196 249 331 401 447
#     4  12  27  50  79 113 157 202 271 317 399 460
#     4  12  27  49  76 115 156 201 265 324 397 461
#     4  12  28  50  76 111 159 203 259 316 396 462
#     4  12  29  51  76 113 153 212 254 323 387 472
#
# _framework density 23.795411999999999
#
# number of rings (size 3 to 8) (size 9 to 14) (size 15 to 20)
#    0.000    0.000    5.000    3.750    7.000    1.000 
#    0.000    0.000    0.000    0.000    0.000    0.000 
#    0.000    0.000    0.000    0.000    0.000    0.000 
#
# Total GULP energy -89443.767256 kJ/mol
# GULP energy per Si atom -5590.235454 kJ/mol
# Density = 2.374125 g / cm^3
# Si number density = 23.795412 Si / 1000 Ang^3
#
#
#
# Elastic Constant Matrix: (Units=GPa)
#
#
# Indices 1 2 3 4 5 6 
#
# 1 116.6969 15.8689 42.5251 -4.3202 -16.3879 -4.0667
# 2 15.8689 107.2647 30.1982 13.6740 0.8219 10.6751
# 3 42.5251 30.1982 121.3244 13.5059 -1.3550 6.0431
# 4 -4.3202 13.6740 13.5059 52.6870 0.6882 -4.8489
# 5 -16.3879 0.8219 -1.3550 0.6882 57.3065 -0.1622
# 6 -4.0667 10.6751 6.0431 -4.8489 -0.1622 37.7733
#
#
#
# Elastic Compliance Matrix: (Units=1/GPa)
#
#
# Indices 1 2 3 4 5 6 
#
# 1 0.010692 -0.001058 -0.003827 0.002312 0.002961 0.002372
# 2 -0.001058 0.010655 -0.001831 -0.002669 -0.000476 -0.003177
# 3 -0.003827 -0.001831 0.010423 -0.002676 -0.000795 -0.001909
# 4 0.002312 -0.002669 -0.002676 0.020922 0.000397 0.004119
# 5 0.002961 -0.000476 -0.000795 0.000397 0.018282 0.000710
# 6 0.002372 -0.003177 -0.001909 0.004119 0.000710 0.028464
#
#
# Mechanical properties :
#
#
# Convention : Reuss Voigt Hill
#
# Bulk Modulus (GPa) = 54.53010 58.05228 56.29119
# Shear Modulus (GPa) = 42.02318 46.66629 44.34474
#
# Velocity S-wave (km/s) = 4.20696 4.43329 4.32161
# Velocity P-wave (km/s) = 6.82378 7.11722 6.97204
#
# Compressibility (1/GPa) = 0.01833850
#
# Stress axis : x y z
#
# Youngs Moduli (GPa) = 93.53186 93.85461 95.93720
#
# Poissons Ratio (x) = 0.09928 0.36711
# Poissons Ratio (y) = 0.09894 0.17568
# Poissons Ratio (z) = 0.35791 0.17187
#
# Static dielectric constant tensor:
#      x y z
#    x 1.911480 0.096490 -0.043170 
#    y 0.096490 1.852130 0.002760 
#    z -0.043170 0.002760 1.856610 
# 
# From -- ./inp_files/75722.got.cif
#   From: 2010.05.17/outbox.cif.g08.bks.cpg/sg2_38_cif.got.tgz:75722.got - 2010.06.03 11:33:40.
