data_PCOD9070446
_publ_section_title
;
Structure prediction by ZEFSAII (Michael W. Deem and Ramdas Pophale) SiO2 
 PCOD9070446
Probable space group: P -1
;
_chemical_formula_sum "Si O2"
_cell_formula_units_Z 15
_cell_length_a 11.049907
_cell_length_b 8.339693
_cell_length_c 11.290512
_cell_angle_alpha 40.926620
_cell_angle_beta 74.348097
_cell_angle_gamma 96.553419
_cell_volume 566.835152
_symmetry_space_group_name_H-M "P -1"
_symmetry_group_IT_number 2
_symmetry_cell_setting 'triclinic'
loop_
_space_group_symop_operation_xyz
x,y,z
-x,-y,-z
loop_
_atom_site_type_symbol
_atom_site_label
_atom_site_fract_x
_atom_site_fract_y
_atom_site_fract_z
Si Si1 0.753624 0.123978 0.967537
Si Si2 0.974447 0.114851 0.753716
Si Si3 0.500000 0.500000 0.000000
Si Si4 0.131238 0.957338 0.439307
Si Si5 0.988461 0.393327 0.929369
Si Si6 0.562123 0.500660 0.266238
Si Si7 0.404574 0.956323 0.360230
Si Si8 0.309359 0.554028 0.381770
O O1 0.675397 0.263865 0.840587
O O2 0.904662 0.240254 0.788634
O O3 0.822866 0.237702 0.013294
O O4 0.668034 0.789206 0.150694
O O5 0.143113 0.316554 0.573163
O O6 0.890608 0.051000 0.688762
O O7 0.956510 0.827923 0.969633
O O8 0.442967 0.433368 0.906450
O O9 0.453938 0.752715 0.871850
O O10 0.091759 0.663924 0.673067
O O11 0.309118 0.122736 0.316396
O O12 0.000000 0.000000 0.500000
O O13 0.000000 0.500000 0.000000
O O14 0.593540 0.245543 0.426383
O O15 0.406874 0.412263 0.415762
O O16 0.352870 0.757585 0.370040
#
# Coordination Sequence:
#
# PCOD9070446 Si02
#       8
#     2   2   1   2   2   2   2   2
#     4  12  24  49  78 109 158 202 255 314 392 456
#     4  12  24  48  75 112 151 203 250 323 384 452
#     4  12  28  50  78 108 154 206 260 316 380 458
#     4  12  25  47  73 111 153 197 253 322 389 449
#     4  12  26  43  73 114 149 196 251 312 382 459
#     4  12  28  53  77 114 155 211 257 315 388 464
#     4  12  27  51  77 109 154 202 263 321 383 462
#     4  12  25  49  81 112 155 204 263 317 385 461
#
# _framework density 26.462719
#
# number of rings (size 3 to 8) (size 9 to 14) (size 15 to 20)
#    0.000    0.000    5.333    4.400    1.867    0.000 
#    7.200    0.000    0.000    0.000    0.000    0.000 
#    0.000    0.000    0.000    0.000    0.000    0.000 
#
# Total GULP energy -83815.154860 kJ/mol
# GULP energy per Si atom -5587.676991 kJ/mol
# Density = 2.640249 g / cm^3
# Si number density = 26.462719 Si / 1000 Ang^3
#
#
#
# Elastic Constant Matrix: (Units=GPa)
#
#
# Indices 1 2 3 4 5 6 
#
# 1 135.3111 48.8005 36.4309 7.3101 0.7667 -14.3334
# 2 48.8005 101.3765 11.3482 11.6021 -3.7781 36.8494
# 3 36.4309 11.3482 112.3309 2.2741 32.8941 6.5306
# 4 7.3101 11.6021 2.2741 29.9033 -1.8445 1.7436
# 5 0.7667 -3.7781 32.8941 -1.8445 56.2835 4.1300
# 6 -14.3334 36.8494 6.5306 1.7436 4.1300 51.6148
#
#
#
# Elastic Compliance Matrix: (Units=1/GPa)
#
#
# Indices 1 2 3 4 5 6 
#
# 1 0.013346 -0.010102 -0.004203 0.000361 0.000774 0.011376
# 2 -0.010102 0.021963 0.001711 -0.004981 0.001819 -0.018679
# 3 -0.004203 0.001711 0.012293 -0.000794 -0.006791 -0.003374
# 4 0.000361 -0.004981 -0.000794 0.035269 0.001099 0.002477
# 5 0.000774 0.001819 -0.006791 0.001099 0.022032 -0.002025
# 6 0.011376 -0.018679 -0.003374 0.002477 -0.002025 0.036374
#
#
# Mechanical properties :
#
#
# Convention : Reuss Voigt Hill
#
# Bulk Modulus (GPa) = 44.61129 60.24197 52.42663
# Shear Modulus (GPa) = 28.74611 44.38957 36.56784
#
# Velocity S-wave (km/s) = 3.29946 4.10010 3.72137
# Velocity P-wave (km/s) = 5.60447 6.72523 6.19026
#
# Compressibility (1/GPa) = 0.02241585
#
# Stress axis : x y z
#
# Youngs Moduli (GPa) = 74.92665 45.53164 81.34447
#
# Poissons Ratio (x) = 0.45994 0.34191
# Poissons Ratio (y) = 0.75688 -0.13922
# Poissons Ratio (z) = 0.31493 -0.07793
#
# Static dielectric constant tensor:
#      x y z
#    x 2.006510 -0.053180 0.270940 
#    y -0.053180 2.037640 0.082780 
#    z 0.270940 0.082780 1.509450 
# 
# From -- ./inp_files/416094.got.cif
#   From: 2010.05.17/outbox.cif.g08.bks.cpg/sg2_209_cif.got.tgz:416094.got - 2010.06.03 11:33:40.
