data_PCOD9070774
_publ_section_title
;
Structure prediction by ZEFSAII (Michael W. Deem and Ramdas Pophale) SiO2 
 PCOD9070774
Probable space group: P -1
;
_chemical_formula_sum "Si O2"
_cell_formula_units_Z 14
_cell_length_a 19.486304
_cell_length_b 14.820348
_cell_length_c 8.765918
_cell_angle_alpha 55.130455
_cell_angle_beta 148.267818
_cell_angle_gamma 145.196317
_cell_volume 688.998332
_symmetry_space_group_name_H-M "P -1"
_symmetry_group_IT_number 2
_symmetry_cell_setting 'triclinic'
loop_
_space_group_symop_operation_xyz
x,y,z
-x,-y,-z
loop_
_atom_site_type_symbol
_atom_site_label
_atom_site_fract_x
_atom_site_fract_y
_atom_site_fract_z
Si Si1 0.775510 0.976273 0.193437
Si Si2 0.333156 0.279136 0.540520
Si Si3 0.328403 0.219366 0.238086
Si Si4 0.332630 0.432945 0.873229
Si Si5 0.351953 0.643557 0.523743
Si Si6 0.960986 0.150370 0.076128
Si Si7 0.741493 0.174767 0.827900
O O1 0.773413 0.895980 0.410536
O O2 0.947062 0.080610 0.282900
O O3 0.559354 0.804946 0.861595
O O4 0.775108 0.107814 0.092015
O O5 0.348928 0.269565 0.401590
O O6 0.547160 0.439914 0.876246
O O7 0.184416 0.283523 0.298133
O O8 0.231225 0.256705 0.919396
O O9 0.548221 0.335728 0.463140
O O10 0.191956 0.020521 0.153948
O O11 0.500000 0.500000 0.000000
O O12 0.231807 0.469163 0.557012
O O13 0.234011 0.680295 0.240650
O O14 0.871180 0.210108 0.895559
O O15 0.500000 0.000000 0.500000
#
# Coordination Sequence:
#
# PCOD9070774 Si02
#       7
#     2   2   2   2   2   2   2
#     4   7  15  25  44  67  86 120 149 186 223 258
#     4  11  18  29  45  76 101 113 151 197 239 274
#     4  10  18  29  46  74  97 122 147 190 243 274
#     4   9  19  32  49  68  88 131 160 188 225 272
#     4   8  14  30  49  64  88 122 165 183 217 272
#     4   9  18  29  50  71  95 122 152 192 234 268
#     4   8  13  28  50  66  88 123 163 187 214 272
#
# _framework density 20.319351999999999
#
# number of rings (size 3 to 8) (size 9 to 14) (size 15 to 20)
#    0.857    2.286    1.429    2.143    0.000    0.000 
#    0.000    0.714    0.000    4.286    0.000    0.000 
#    0.000    0.000    0.000    0.000    0.000    0.000 
#
# Total GULP energy -77945.564415 kJ/mol
# GULP energy per Si atom -5567.540315 kJ/mol
# Density = 2.027310 g / cm^3
# Si number density = 20.319352 Si / 1000 Ang^3
#
#
#
# Elastic Constant Matrix: (Units=GPa)
#
#
# Indices 1 2 3 4 5 6 
#
# 1 117.2027 38.2396 51.9246 -18.9013 -1.5949 -3.5081
# 2 38.2396 87.3012 27.2298 -13.7698 7.1606 -14.0927
# 3 51.9246 27.2298 39.1381 -9.0904 3.6816 -8.0238
# 4 -18.9013 -13.7698 -9.0904 37.4728 -8.4441 6.9207
# 5 -1.5949 7.1606 3.6816 -8.4441 32.6038 -7.6759
# 6 -3.5081 -14.0927 -8.0238 6.9207 -7.6759 23.6252
#
#
#
# Elastic Compliance Matrix: (Units=1/GPa)
#
#
# Indices 1 2 3 4 5 6 
#
# 1 0.023501 -0.001357 -0.030854 0.006432 0.004675 -0.008164
# 2 -0.001357 0.015667 -0.007365 0.002040 -0.000784 0.005790
# 3 -0.030854 -0.007365 0.074340 -0.004429 -0.005735 0.015707
# 4 0.006432 0.002040 -0.004429 0.032434 0.007241 -0.006481
# 5 0.004675 -0.000784 -0.005735 0.007241 0.035398 0.007658
# 6 -0.008164 0.005790 0.015707 -0.006481 0.007658 0.054291
#
#
# Mechanical properties :
#
#
# Convention : Reuss Voigt Hill
#
# Bulk Modulus (GPa) = 29.10761 53.15891 41.13326
# Shear Modulus (GPa) = 15.32640 27.15690 21.24165
#
# Velocity S-wave (km/s) = 2.74939 3.65979 3.23676
# Velocity P-wave (km/s) = 4.94318 6.63907 5.85287
#
# Compressibility (1/GPa) = 0.03435528
#
# Stress axis : x y z
#
# Youngs Moduli (GPa) = 42.55166 63.82846 13.45176
#
# Poissons Ratio (x) = 0.08662 0.41504
# Poissons Ratio (y) = 0.05775 0.09907
# Poissons Ratio (z) = 1.31289 0.47009
#
# Static dielectric constant tensor:
#      x y z
#    x 1.684110 -0.027630 0.030220 
#    y -0.027630 1.838550 0.030130 
#    z 0.030220 0.030130 1.777760 
# 
# From -- ./inp_files/254255.got.cif
#   From: 2010.05.17/outbox.cif.g08.bks.cpg/sg2_128_cif.got.tgz:254255.got - 2010.06.03 11:33:40.
