data_PCOD9070730
_publ_section_title
;
Structure prediction by ZEFSAII (Michael W. Deem and Ramdas Pophale) SiO2 
 PCOD9070730
Probable space group: P -1
;
_chemical_formula_sum "Si O2"
_cell_formula_units_Z 16
_cell_length_a 11.712907
_cell_length_b 8.693753
_cell_length_c 9.083662
_cell_angle_alpha 88.981544
_cell_angle_beta 78.662736
_cell_angle_gamma 128.041195
_cell_volume 702.617913
_symmetry_space_group_name_H-M "P -1"
_symmetry_group_IT_number 2
_symmetry_cell_setting 'triclinic'
loop_
_space_group_symop_operation_xyz
x,y,z
-x,-y,-z
loop_
_atom_site_type_symbol
_atom_site_label
_atom_site_fract_x
_atom_site_fract_y
_atom_site_fract_z
Si Si1 0.057528 0.773491 0.690537
Si Si2 0.529996 0.099372 0.333107
Si Si3 0.713529 0.557902 0.305670
Si Si4 0.762431 0.093320 0.087713
Si Si5 0.232307 0.981927 0.357152
Si Si6 0.009109 0.631869 0.209274
Si Si7 0.550170 0.646983 0.121814
Si Si8 0.253250 0.357512 0.356711
O O1 0.039470 0.574040 0.713507
O O2 0.901255 0.710216 0.672489
O O3 0.116946 0.880865 0.830897
O O4 0.186351 0.924120 0.539770
O O5 0.591426 0.320797 0.342837
O O6 0.650958 0.105270 0.210751
O O7 0.500000 0.000000 0.500000
O O8 0.373559 0.991088 0.290376
O O9 0.646577 0.633478 0.218265
O O10 0.744148 0.627783 0.466738
O O11 0.863447 0.606600 0.199776
O O12 0.656443 0.877038 0.044358
O O13 0.864956 0.277435 0.949299
O O14 0.089769 0.801190 0.309156
O O15 0.265551 0.187587 0.317132
O O16 0.396158 0.563960 0.246461
O O17 0.500000 0.500000 0.000000
#
# Coordination Sequence:
#
# PCOD9070730 Si02
#       8
#     2   2   2   2   2   2   2   2
#     4  12  26  46  75 107 147 189 244 294 364 427
#     4  12  25  45  76 107 143 191 248 300 358 430
#     4  12  26  48  75 103 150 189 245 301 358 428
#     4  12  28  48  75 104 147 197 241 300 365 425
#     4  12  25  48  73 109 145 189 246 297 362 432
#     4  12  28  47  71 108 150 192 241 302 360 433
#     4  12  29  50  72 108 148 195 240 297 367 433
#     4  12  27  47  76 110 146 190 242 304 358 432
#
# _framework density 22.771979000000002
#
# number of rings (size 3 to 8) (size 9 to 14) (size 15 to 20)
#    0.000    0.000    5.000    3.750    7.000    1.000 
#    0.000    0.000    0.000    0.000    0.000    0.000 
#    0.000    0.000    0.000    0.000    0.000    0.000 
#
# Total GULP energy -89613.622138 kJ/mol
# GULP energy per Si atom -5600.851384 kJ/mol
# Density = 2.272015 g / cm^3
# Si number density = 22.771979 Si / 1000 Ang^3
#
#
#
# Elastic Constant Matrix: (Units=GPa)
#
#
# Indices 1 2 3 4 5 6 
#
# 1 128.0272 2.5442 7.9901 -0.7552 -3.0996 24.2005
# 2 2.5442 92.8643 -12.3313 -1.3954 4.7737 9.5087
# 3 7.9901 -12.3313 54.5160 -1.5440 -8.3889 0.2823
# 4 -0.7552 -1.3954 -1.5440 40.1582 9.0176 1.4446
# 5 -3.0996 4.7737 -8.3889 9.0176 30.3779 1.5137
# 6 24.2005 9.5087 0.2823 1.4446 1.5137 28.8362
#
#
#
# Elastic Compliance Matrix: (Units=1/GPa)
#
#
# Indices 1 2 3 4 5 6 
#
# 1 0.009424 0.000378 -0.001104 0.000229 0.000932 -0.008084
# 2 0.000378 0.011579 0.002430 0.000916 -0.001175 -0.004144
# 3 -0.001104 0.002430 0.019831 -0.000305 0.005088 -0.000321
# 4 0.000229 0.000916 -0.000305 0.026793 -0.008088 -0.001409
# 5 0.000932 -0.001175 0.005088 -0.008088 0.037103 -0.001987
# 6 -0.008084 -0.004144 -0.000321 -0.001409 -0.001987 0.043007
#
#
# Mechanical properties :
#
#
# Convention : Reuss Voigt Hill
#
# Bulk Modulus (GPa) = 22.60204 30.20149 26.40177
# Shear Modulus (GPa) = 31.43161 38.35477 34.89319
#
# Velocity S-wave (km/s) = 3.71924 4.10847 3.91869
# Velocity P-wave (km/s) = 5.32828 5.98309 5.66515
#
# Compressibility (1/GPa) = 0.04424379
#
# Stress axis : x y z
#
# Youngs Moduli (GPa) = 106.11058 86.36161 50.42679
#
# Poissons Ratio (x) = -0.03269 0.05566
# Poissons Ratio (y) = -0.04016 -0.12255
# Poissons Ratio (z) = 0.11713 -0.20988
#
# Static dielectric constant tensor:
#      x y z
#    x 1.821100 0.010360 0.012710 
#    y 0.010360 1.813700 0.011930 
#    z 0.012710 0.011930 1.877860 
# 
# From -- ./inp_files/190851.got.cif
#   From: 2010.05.17/outbox.cif.g08.bks.cpg/sg2_96_cif.got.tgz:190851.got - 2010.06.03 11:33:40.
