data_PCOD9070500
_publ_section_title
;
Structure prediction by ZEFSAII (Michael W. Deem and Ramdas Pophale) SiO2 
 PCOD9070500
Probable space group: P -1
;
_chemical_formula_sum "Si O2"
_cell_formula_units_Z 16
_cell_length_a 4.793379
_cell_length_b 20.035726
_cell_length_c 10.057685
_cell_angle_alpha 42.958678
_cell_angle_beta 111.161555
_cell_angle_gamma 100.488909
_cell_volume 608.713171
_symmetry_space_group_name_H-M "P -1"
_symmetry_group_IT_number 2
_symmetry_cell_setting 'triclinic'
loop_
_space_group_symop_operation_xyz
x,y,z
-x,-y,-z
loop_
_atom_site_type_symbol
_atom_site_label
_atom_site_fract_x
_atom_site_fract_y
_atom_site_fract_z
Si Si1 0.094775 0.934004 0.782749
Si Si2 0.089119 0.540606 0.595743
Si Si3 0.551441 0.055269 0.604512
Si Si4 0.203966 0.351461 0.035648
Si Si5 0.619700 0.130107 0.796797
Si Si6 0.714953 0.577684 0.791177
Si Si7 0.697763 0.218874 0.184039
Si Si8 0.934496 0.732096 0.413613
O O1 0.232294 0.841839 0.852212
O O2 0.212542 0.030039 0.596241
O O3 0.207669 0.919901 0.974169
O O4 0.739484 0.960378 0.704755
O O5 0.000000 0.500000 0.500000
O O6 0.434517 0.551504 0.689547
O O7 0.903161 0.649660 0.416348
O O8 0.011883 0.452564 0.806598
O O9 0.631663 0.067397 0.755641
O O10 0.630772 0.148135 0.399062
O O11 0.414545 0.380437 0.149572
O O12 0.405782 0.301146 0.023691
O O13 0.988230 0.275807 0.163248
O O14 0.292730 0.169301 0.742461
O O15 0.760429 0.227086 0.633150
O O16 0.878096 0.663398 0.627061
O O17 0.000000 0.500000 0.000000
#
# Coordination Sequence:
#
# PCOD9070500 Si02
#       8
#     2   2   2   2   2   2   2   2
#     4  12  26  46  76 105 153 196 250 326 406 471
#     4  12  30  49  78 113 166 216 258 327 398 467
#     4  12  24  49  73 108 146 198 257 318 407 472
#     4  12  27  47  76 111 154 205 267 314 384 463
#     4  12  26  45  76 112 149 201 260 327 385 478
#     4  12  25  51  78 111 151 217 274 322 383 464
#     4  12  27  45  75 112 150 197 260 323 385 465
#     4  12  26  47  75 110 160 198 269 314 392 452
#
# _framework density 26.284959000000001
#
# number of rings (size 3 to 8) (size 9 to 14) (size 15 to 20)
#    0.000    0.000    2.500    7.125    5.250    0.500 
#    0.000    0.000    0.000    0.000    0.000    0.000 
#    0.000    0.000    0.000    0.000    0.000    0.000 
#
# Total GULP energy -89459.862130 kJ/mol
# GULP energy per Si atom -5591.241383 kJ/mol
# Density = 2.622513 g / cm^3
# Si number density = 26.284959 Si / 1000 Ang^3
#
#
#
# Elastic Constant Matrix: (Units=GPa)
#
#
# Indices 1 2 3 4 5 6 
#
# 1 134.6267 46.3893 37.7318 0.1465 -11.7623 -4.7179
# 2 46.3893 157.6030 43.0204 29.6244 -15.5668 -2.6780
# 3 37.7318 43.0204 98.1802 21.2663 -3.1738 15.6449
# 4 0.1465 29.6244 21.2663 50.8984 -0.7811 0.8506
# 5 -11.7623 -15.5668 -3.1738 -0.7811 26.2291 -10.0759
# 6 -4.7179 -2.6780 15.6449 0.8506 -10.0759 45.5298
#
#
#
# Elastic Compliance Matrix: (Units=1/GPa)
#
#
# Indices 1 2 3 4 5 6 
#
# 1 0.009576 -0.001831 -0.003802 0.002638 0.003988 0.003024
# 2 -0.001831 0.008861 -0.002515 -0.004065 0.004919 0.002360
# 3 -0.003802 -0.002515 0.014629 -0.004592 -0.004012 -0.006371
# 4 0.002638 -0.004065 -0.004592 0.023897 -0.000684 0.001014
# 5 0.003988 0.004919 -0.004012 -0.000684 0.047139 0.012526
# 6 0.003024 0.002360 -0.006371 0.001014 0.012526 0.027358
#
#
# Mechanical properties :
#
#
# Convention : Reuss Voigt Hill
#
# Bulk Modulus (GPa) = 59.63673 71.63255 65.63464
# Shear Modulus (GPa) = 32.60589 42.08268 37.34429
#
# Velocity S-wave (km/s) = 3.52586 4.00561 3.77337
# Velocity P-wave (km/s) = 6.27004 6.97888 6.63393
#
# Compressibility (1/GPa) = 0.01676819
#
# Stress axis : x y z
#
# Youngs Moduli (GPa) = 104.42660 112.85736 68.35767
#
# Poissons Ratio (x) = 0.20668 0.25990
# Poissons Ratio (y) = 0.19124 0.17195
# Poissons Ratio (z) = 0.39704 0.28388
#
# Static dielectric constant tensor:
#      x y z
#    x 2.047750 -0.039410 0.037100 
#    y -0.039410 2.155970 -0.000330 
#    z 0.037100 -0.000330 2.030760 
# 
# From -- ./inp_files/141138.got.cif
#   From: 2010.05.17/outbox.cif.g08.bks.cpg/sg2_71_cif.got.tgz:141138.got - 2010.06.03 11:33:40.
