data_PCOD9070228
_publ_section_title
;
Structure prediction by ZEFSAII (Michael W. Deem and Ramdas Pophale) SiO2 
 PCOD9070228
Probable space group: P -1
;
_chemical_formula_sum "Si O2"
_cell_formula_units_Z 15
_cell_length_a 6.879950
_cell_length_b 18.574457
_cell_length_c 12.356187
_cell_angle_alpha 36.655726
_cell_angle_beta 133.171583
_cell_angle_gamma 133.705976
_cell_volume 649.870162
_symmetry_space_group_name_H-M "P -1"
_symmetry_group_IT_number 2
_symmetry_cell_setting 'triclinic'
loop_
_space_group_symop_operation_xyz
x,y,z
-x,-y,-z
loop_
_atom_site_type_symbol
_atom_site_label
_atom_site_fract_x
_atom_site_fract_y
_atom_site_fract_z
Si Si1 0.746157 0.781918 0.279618
Si Si2 0.500000 0.000000 0.000000
Si Si3 0.350040 0.884180 0.311774
Si Si4 0.119186 0.413381 0.277199
Si Si5 0.499485 0.691151 0.061633
Si Si6 0.677621 0.073044 0.377741
Si Si7 0.738763 0.747220 0.646298
Si Si8 0.463269 0.368549 0.082845
O O1 0.747768 0.659443 0.498172
O O2 0.668993 0.739088 0.177904
O O3 0.072469 0.869345 0.291756
O O4 0.563776 0.862438 0.163612
O O5 0.343954 0.941998 0.123353
O O6 0.434290 0.756549 0.490679
O O7 0.607101 0.976639 0.367390
O O8 0.242317 0.565471 0.148671
O O9 0.214024 0.374167 0.245042
O O10 0.780721 0.361184 0.215341
O O11 0.414612 0.808734 0.840992
O O12 0.637725 0.648693 0.059114
O O13 0.009905 0.135473 0.449683
O O14 0.500000 0.000000 0.500000
O O15 0.743927 0.737627 0.789686
O O16 0.500000 0.500000 0.000000
#
# Coordination Sequence:
#
# PCOD9070228 Si02
#       8
#     2   1   2   2   2   2   2   2
#     4  12  27  51  73 108 156 198 252 309 375 447
#     4  12  26  44  76  98 144 204 242 302 372 436
#     4  12  26  47  72 105 147 200 247 309 372 447
#     4  12  24  49  75 108 154 196 250 312 377 444
#     4  12  26  46  75 113 150 194 251 310 371 453
#     4  12  26  45  74 110 151 190 249 318 370 446
#     4  12  24  46  77 108 145 196 248 307 385 440
#     4  12  24  46  76 108 148 195 244 311 371 447
#
# _framework density 23.081531999999999
#
# number of rings (size 3 to 8) (size 9 to 14) (size 15 to 20)
#    0.000    0.000    6.667    4.000    0.000    1.067 
#    2.400    1.333    0.000    0.000    0.000    0.000 
#    0.000    0.000    0.000    0.000    0.000    0.000 
#
# Total GULP energy -83613.934073 kJ/mol
# GULP energy per Si atom -5574.262272 kJ/mol
# Density = 2.302900 g / cm^3
# Si number density = 23.081532 Si / 1000 Ang^3
#
#
#
# Elastic Constant Matrix: (Units=GPa)
#
#
# Indices 1 2 3 4 5 6 
#
# 1 104.9650 20.2228 41.0743 -2.8854 -17.8355 -19.5944
# 2 20.2228 68.0894 27.0305 -0.4453 4.7828 -11.4416
# 3 41.0743 27.0305 133.3379 -6.7390 -19.3696 -14.3381
# 4 -2.8854 -0.4453 -6.7390 29.9622 -4.7160 -6.1923
# 5 -17.8355 4.7828 -19.3696 -4.7160 49.5053 -8.7998
# 6 -19.5944 -11.4416 -14.3381 -6.1923 -8.7998 33.1417
#
#
#
# Elastic Compliance Matrix: (Units=1/GPa)
#
#
# Indices 1 2 3 4 5 6 
#
# 1 0.013430 -0.002286 -0.001612 0.003723 0.006354 0.008836
# 2 -0.002286 0.017188 -0.003064 -0.000721 -0.003355 0.002231
# 3 -0.001612 -0.003064 0.009938 0.003646 0.004701 0.004218
# 4 0.003723 -0.000721 0.003646 0.038643 0.008847 0.013099
# 5 0.006354 -0.003355 0.004701 0.008847 0.027931 0.013701
# 6 0.008836 0.002231 0.004218 0.013099 0.013701 0.044078
#
#
# Mechanical properties :
#
#
# Convention : Reuss Voigt Hill
#
# Bulk Modulus (GPa) = 37.54966 53.67195 45.61081
# Shear Modulus (GPa) = 28.73421 37.05946 32.89684
#
# Velocity S-wave (km/s) = 3.53214 4.01133 3.77934
# Velocity P-wave (km/s) = 5.73919 6.69014 6.23283
#
# Compressibility (1/GPa) = 0.02663140
#
# Stress axis : x y z
#
# Youngs Moduli (GPa) = 74.46183 58.18108 100.62125
#
# Poissons Ratio (x) = 0.13299 0.16223
# Poissons Ratio (y) = 0.17020 0.30831
# Poissons Ratio (z) = 0.12006 0.17827
#
# Static dielectric constant tensor:
#      x y z
#    x 1.847470 -0.010980 0.017540 
#    y -0.010980 1.905720 -0.017950 
#    z 0.017540 -0.017950 1.926070 
# 
# From -- ./inp_files/368887.got.cif
#   From: 2010.05.17/outbox.cif.g08.bks.cpg/sg2_185_cif.got.tgz:368887.got - 2010.06.03 11:33:40.
