data_PCOD9070999
_publ_section_title
;
Structure prediction by ZEFSAII (Michael W. Deem and Ramdas Pophale) SiO2 
 PCOD9070999
Probable space group: P -1
;
_chemical_formula_sum "Si O2"
_cell_formula_units_Z 16
_cell_length_a 11.676673
_cell_length_b 13.341273
_cell_length_c 5.577071
_cell_angle_alpha 82.922464
_cell_angle_beta 95.219434
_cell_angle_gamma 127.888977
_cell_volume 680.308847
_symmetry_space_group_name_H-M "P -1"
_symmetry_group_IT_number 2
_symmetry_cell_setting 'triclinic'
loop_
_space_group_symop_operation_xyz
x,y,z
-x,-y,-z
loop_
_atom_site_type_symbol
_atom_site_label
_atom_site_fract_x
_atom_site_fract_y
_atom_site_fract_z
Si Si1 0.861555 0.453823 0.321810
Si Si2 0.924952 0.710941 0.122933
Si Si3 0.601384 0.264133 0.651969
Si Si4 0.735271 0.757079 0.872895
Si Si5 0.918087 0.032127 0.662612
Si Si6 0.200294 0.752513 0.960978
Si Si7 0.437990 0.360721 0.620542
Si Si8 0.640942 0.010810 0.427904
O O1 0.856164 0.571161 0.251001
O O2 0.704142 0.334968 0.423439
O O3 0.876603 0.386531 0.122589
O O4 0.000000 0.500000 0.500000
O O5 0.959437 0.823254 0.270429
O O6 0.834417 0.710186 0.888666
O O7 0.080445 0.757538 0.053309
O O8 0.573521 0.361149 0.709693
O O9 0.443043 0.131310 0.644990
O O10 0.688749 0.233215 0.835738
O O11 0.645058 0.720158 0.617724
O O12 0.839099 0.911171 0.864912
O O13 0.650281 0.690499 0.128543
O O14 0.781743 0.033280 0.570508
O O15 0.000000 0.000000 0.500000
O O16 0.286406 0.869387 0.764684
O O17 0.500000 0.500000 0.500000
O O18 0.500000 0.000000 0.500000
#
# Coordination Sequence:
#
# PCOD9070999 Si02
#       8
#     2   2   2   2   2   2   2   2
#     4  12  26  50  72 117 158 206 262 326 409 483
#     4  12  27  47  80 114 157 206 270 331 404 483
#     4  12  27  46  78 111 156 203 264 331 400 489
#     4  12  28  51  80 116 158 215 270 333 404 491
#     4  12  27  52  81 119 163 215 274 342 410 490
#     4  12  27  46  78 115 155 204 264 337 403 481
#     4  12  29  50  80 116 163 211 270 331 408 489
#     4  12  25  48  78 113 158 205 268 329 408 483
#
# _framework density 23.518729
#
# number of rings (size 3 to 8) (size 9 to 14) (size 15 to 20)
#    0.000    0.000    3.750    5.250    7.000    1.000 
#    0.000    0.000    0.000    0.000    0.000    0.000 
#    0.000    0.000    0.000    0.000    0.000    0.000 
#
# Total GULP energy -89247.184735 kJ/mol
# GULP energy per Si atom -5577.949046 kJ/mol
# Density = 2.346520 g / cm^3
# Si number density = 23.518729 Si / 1000 Ang^3
#
#
#
# Elastic Constant Matrix: (Units=GPa)
#
#
# Indices 1 2 3 4 5 6 
#
# 1 142.1562 6.6900 44.2555 -23.3312 -1.0431 -22.9682
# 2 6.6900 162.7638 56.5035 -36.5378 -7.1215 -9.2861
# 3 44.2555 56.5035 99.2777 -30.9142 0.0562 -2.6491
# 4 -23.3312 -36.5378 -30.9142 58.7674 -0.9301 8.7241
# 5 -1.0431 -7.1215 0.0562 -0.9301 69.3409 -5.4745
# 6 -22.9682 -9.2861 -2.6491 8.7241 -5.4745 45.7353
#
#
#
# Elastic Compliance Matrix: (Units=1/GPa)
#
#
# Indices 1 2 3 4 5 6 
#
# 1 0.009425 0.001916 -0.004595 0.001846 0.000730 0.004591
# 2 0.001916 0.008596 -0.004638 0.003398 0.001113 0.001924
# 3 -0.004595 -0.004638 0.015970 0.004157 -0.000756 -0.003208
# 4 0.001846 0.003398 0.004157 0.022406 0.000488 -0.002358
# 5 0.000730 0.001113 -0.000756 0.000488 0.014729 0.002219
# 6 0.004591 0.001924 -0.003208 -0.002358 0.002219 0.025091
#
#
# Mechanical properties :
#
#
# Convention : Reuss Voigt Hill
#
# Bulk Modulus (GPa) = 51.65971 68.78844 60.22408
# Shear Modulus (GPa) = 42.62418 54.55196 48.58807
#
# Velocity S-wave (km/s) = 4.26179 4.82136 4.55018
# Velocity P-wave (km/s) = 6.79928 7.76568 7.29849
#
# Compressibility (1/GPa) = 0.01935744
#
# Stress axis : x y z
#
# Youngs Moduli (GPa) = 106.10120 116.32814 62.61656
#
# Poissons Ratio (x) = -0.22288 0.28772
# Poissons Ratio (y) = -0.20329 0.29042
# Poissons Ratio (z) = 0.48754 0.53953
#
# Static dielectric constant tensor:
#      x y z
#    x 1.916060 -0.027320 -0.026970 
#    y -0.027320 1.870450 0.047350 
#    z -0.026970 0.047350 1.950810 
# 
# From -- ./inp_files/66486.got.cif
#   From: 2010.05.17/outbox.cif.g08.bks.cpg/sg2_34_cif.got.tgz:66486.got - 2010.06.03 11:33:40.
