data_PCOD9070706
_publ_section_title
;
Structure prediction by ZEFSAII (Michael W. Deem and Ramdas Pophale) SiO2 
 PCOD9070706
Probable space group: P -1
;
_chemical_formula_sum "Si O2"
_cell_formula_units_Z 16
_cell_length_a 11.782373
_cell_length_b 19.357655
_cell_length_c 5.228625
_cell_angle_alpha 57.473722
_cell_angle_beta 67.933296
_cell_angle_gamma 40.476673
_cell_volume 651.488026
_symmetry_space_group_name_H-M "P -1"
_symmetry_group_IT_number 2
_symmetry_cell_setting 'triclinic'
loop_
_space_group_symop_operation_xyz
x,y,z
-x,-y,-z
loop_
_atom_site_type_symbol
_atom_site_label
_atom_site_fract_x
_atom_site_fract_y
_atom_site_fract_z
Si Si1 0.091999 0.375858 0.796792
Si Si2 0.894963 0.871827 0.228584
Si Si3 0.853712 0.132392 0.275083
Si Si4 0.726626 0.477457 0.869859
Si Si5 0.448044 0.374697 0.780025
Si Si6 0.608322 0.133497 0.138096
Si Si7 0.239872 0.708474 0.557493
Si Si8 0.266936 0.232087 0.448611
O O1 0.239217 0.281496 0.655537
O O2 0.000000 0.500000 0.500000
O O3 0.934463 0.386853 0.888391
O O4 0.159129 0.334755 0.115085
O O5 0.809375 0.823791 0.366686
O O6 0.035124 0.799316 0.486023
O O7 0.740230 0.012529 0.111983
O O8 0.031934 0.844918 0.964804
O O9 0.734522 0.132744 0.196513
O O10 0.740820 0.220861 0.425766
O O11 0.000000 0.000000 0.500000
O O12 0.666971 0.528219 0.535755
O O13 0.642278 0.575193 0.967501
O O14 0.688284 0.403930 0.133934
O O15 0.631673 0.336608 0.700268
O O16 0.480887 0.266005 0.878249
O O17 0.471818 0.140069 0.387705
#
# Coordination Sequence:
#
# PCOD9070706 Si02
#       8
#     2   2   2   2   2   2   2   2
#     4  12  25  49  77 106 153 208 255 308 380 457
#     4  12  26  49  75 113 152 203 251 317 383 457
#     4  12  25  46  79 109 152 202 253 314 379 456
#     4  12  26  46  73 109 152 194 254 313 382 447
#     4  12  26  44  73 111 152 196 248 319 371 452
#     4  12  26  50  74 115 151 198 262 310 383 449
#     4  12  25  45  74 109 153 198 253 311 389 452
#     4  12  28  49  78 113 155 199 256 316 378 455
#
# _framework density 24.559162000000001
#
# number of rings (size 3 to 8) (size 9 to 14) (size 15 to 20)
#    0.000    0.000    3.750    6.375    1.750    2.000 
#    0.000    1.875    0.000    0.000    0.000    0.000 
#    0.000    0.000    0.000    0.000    0.000    0.000 
#
# Total GULP energy -89456.461742 kJ/mol
# GULP energy per Si atom -5591.028859 kJ/mol
# Density = 2.450326 g / cm^3
# Si number density = 24.559162 Si / 1000 Ang^3
#
#
#
# Elastic Constant Matrix: (Units=GPa)
#
#
# Indices 1 2 3 4 5 6 
#
# 1 78.2594 2.0742 28.6633 5.0786 -17.1400 -6.1989
# 2 2.0742 74.0214 -1.9008 14.3348 3.8496 -1.6264
# 3 28.6633 -1.9008 79.8551 -5.8084 -6.3654 8.2850
# 4 5.0786 14.3348 -5.8084 50.0081 -2.4995 -8.1261
# 5 -17.1400 3.8496 -6.3654 -2.4995 36.7587 5.1511
# 6 -6.1989 -1.6264 8.2850 -8.1261 5.1511 43.8363
#
#
#
# Elastic Compliance Matrix: (Units=1/GPa)
#
#
# Indices 1 2 3 4 5 6 
#
# 1 0.016608 -0.000606 -0.005826 -0.001481 0.006361 0.002405
# 2 -0.000606 0.014444 0.000105 -0.004186 -0.002047 -0.000105
# 3 -0.005826 0.000105 0.015139 0.001791 0.000493 -0.003407
# 4 -0.001481 -0.004186 0.001791 0.022142 0.001105 0.003271
# 5 0.006361 -0.002047 0.000493 0.001105 0.030924 -0.002699
# 6 0.002405 -0.000105 -0.003407 0.003271 -0.002699 0.024716
#
#
# Mechanical properties :
#
#
# Convention : Reuss Voigt Hill
#
# Bulk Modulus (GPa) = 29.81831 32.20102 31.00966
# Shear Modulus (GPa) = 33.82815 39.67389 36.75102
#
# Velocity S-wave (km/s) = 3.71538 4.02362 3.87257
# Velocity P-wave (km/s) = 5.52930 5.89288 5.71398
#
# Compressibility (1/GPa) = 0.03353644
#
# Stress axis : x y z
#
# Youngs Moduli (GPa) = 60.21355 69.23238 66.05275
#
# Poissons Ratio (x) = 0.04197 0.38481
# Poissons Ratio (y) = 0.03650 -0.00691
# Poissons Ratio (z) = 0.35079 -0.00724
#
# Static dielectric constant tensor:
#      x y z
#    x 1.930630 -0.012670 -0.022680 
#    y -0.012670 1.924450 -0.000850 
#    z -0.022680 -0.000850 1.992830 
# 
# From -- ./inp_files/82968.got.cif
#   From: 2010.05.17/outbox.cif.g08.bks.cpg/sg2_42_cif.got.tgz:82968.got - 2010.06.03 11:33:40.
