data_PCOD9070346
_publ_section_title
;
Structure prediction by ZEFSAII (Michael W. Deem and Ramdas Pophale) SiO2 
 PCOD9070346
Probable space group: P -1
;
_chemical_formula_sum "Si O2"
_cell_formula_units_Z 14
_cell_length_a 14.576974
_cell_length_b 8.951923
_cell_length_c 12.023279
_cell_angle_alpha 47.685238
_cell_angle_beta 120.849421
_cell_angle_gamma 146.305254
_cell_volume 639.325725
_symmetry_space_group_name_H-M "P -1"
_symmetry_group_IT_number 2
_symmetry_cell_setting 'triclinic'
loop_
_space_group_symop_operation_xyz
x,y,z
-x,-y,-z
loop_
_atom_site_type_symbol
_atom_site_label
_atom_site_fract_x
_atom_site_fract_y
_atom_site_fract_z
Si Si1 0.410046 0.672750 0.060923
Si Si2 0.966758 0.839081 0.944453
Si Si3 0.231686 0.559629 0.356231
Si Si4 0.765682 0.715852 0.286294
Si Si5 0.514225 0.713794 0.324495
Si Si6 0.887173 0.261493 0.219228
Si Si7 0.497622 0.269795 0.157991
O O1 0.477134 0.608467 0.224333
O O2 0.216178 0.387375 0.098575
O O3 0.433862 0.722906 0.918454
O O4 0.500000 0.000000 0.000000
O O5 0.970700 0.599750 0.076607
O O6 0.000000 0.000000 0.000000
O O7 0.088127 0.115494 0.793525
O O8 0.231353 0.414857 0.536085
O O9 0.359727 0.631589 0.313509
O O10 0.040652 0.341255 0.316616
O O11 0.325263 0.909195 0.257251
O O12 0.605843 0.429882 0.256094
O O13 0.809849 0.013055 0.196495
O O14 0.500000 0.500000 0.500000
O O15 0.714165 0.058553 0.281628
O O16 0.500000 0.500000 0.000000
#
# Coordination Sequence:
#
# PCOD9070346 Si02
#       7
#     2   2   2   2   2   2   2
#     4  12  24  47  76 102 145 205 254 310 372 453
#     4  12  26  48  74 115 155 194 262 318 372 456
#     4  12  27  49  77 114 155 200 257 313 381 456
#     4  12  26  46  74 111 155 200 250 318 380 450
#     4  12  26  47  79 112 149 194 257 317 378 445
#     4  12  26  49  79 111 150 208 255 309 379 455
#     4  12  26  46  72 109 150 199 250 309 382 443
#
# _framework density 21.898071000000002
#
# number of rings (size 3 to 8) (size 9 to 14) (size 15 to 20)
#    0.000    0.000    5.714    3.857    2.000    0.000 
#    0.000    0.714    0.000    0.000    0.000    0.000 
#    0.000    0.000    0.000    0.000    0.000    0.000 
#
# Total GULP energy -77947.906556 kJ/mol
# GULP energy per Si atom -5567.707611 kJ/mol
# Density = 2.184823 g / cm^3
# Si number density = 21.898071 Si / 1000 Ang^3
#
#
#
# Elastic Constant Matrix: (Units=GPa)
#
#
# Indices 1 2 3 4 5 6 
#
# 1 105.7180 64.7866 38.9669 9.5033 -15.8176 11.8175
# 2 64.7866 161.8748 38.4862 13.6362 -3.5776 11.3062
# 3 38.9669 38.4862 113.6026 1.3118 -16.0962 5.6271
# 4 9.5033 13.6362 1.3118 42.2429 2.8689 2.6263
# 5 -15.8176 -3.5776 -16.0962 2.8689 34.7174 -2.7930
# 6 11.8175 11.3062 5.6271 2.6263 -2.7930 44.6984
#
#
#
# Elastic Compliance Matrix: (Units=1/GPa)
#
#
# Indices 1 2 3 4 5 6 
#
# 1 0.014428 -0.004781 -0.002519 -0.001842 0.004914 -0.001873
# 2 -0.004781 0.008578 -0.001484 -0.001470 -0.001921 -0.000753
# 3 -0.002519 -0.001484 0.010680 0.000476 0.003603 -0.000106
# 4 -0.001842 -0.001470 0.000476 0.024795 -0.002886 -0.000838
# 5 0.004914 -0.001921 0.003603 -0.002886 0.032831 0.000954
# 6 -0.001873 -0.000753 -0.000106 -0.000838 0.000954 0.023180
#
#
# Mechanical properties :
#
#
# Convention : Reuss Voigt Hill
#
# Bulk Modulus (GPa) = 62.04443 73.96386 68.00414
# Shear Modulus (GPa) = 36.38199 40.26212 38.32206
#
# Velocity S-wave (km/s) = 4.08048 4.29256 4.18786
# Velocity P-wave (km/s) = 7.11303 7.64316 7.38285
#
# Compressibility (1/GPa) = 0.01611748
#
# Stress axis : x y z
#
# Youngs Moduli (GPa) = 69.31174 116.57947 93.63611
#
# Poissons Ratio (x) = 0.55735 0.23585
# Poissons Ratio (y) = 0.33137 0.13896
# Poissons Ratio (z) = 0.17458 0.17301
#
# Static dielectric constant tensor:
#      x y z
#    x 2.036910 -0.124810 0.189990 
#    y -0.124810 1.921260 -0.127100 
#    z 0.189990 -0.127100 1.989710 
# 
# From -- ./inp_files/157901.got.cif
#   From: 2010.05.17/outbox.cif.g08.bks.cpg/sg2_79_cif.got.tgz:157901.got - 2010.06.03 11:33:40.
