data_PCOD9070767
_publ_section_title
;
Structure prediction by ZEFSAII (Michael W. Deem and Ramdas Pophale) SiO2 
 PCOD9070767
Probable space group: P -1
;
_chemical_formula_sum "Si O2"
_cell_formula_units_Z 15
_cell_length_a 11.942974
_cell_length_b 9.831394
_cell_length_c 13.713232
_cell_angle_alpha 138.967560
_cell_angle_beta 33.025873
_cell_angle_gamma 133.195971
_cell_volume 569.981362
_symmetry_space_group_name_H-M "P -1"
_symmetry_group_IT_number 2
_symmetry_cell_setting 'triclinic'
loop_
_space_group_symop_operation_xyz
x,y,z
-x,-y,-z
loop_
_atom_site_type_symbol
_atom_site_label
_atom_site_fract_x
_atom_site_fract_y
_atom_site_fract_z
Si Si1 0.508577 0.716161 0.669899
Si Si2 0.053467 0.540732 0.276069
Si Si3 0.254786 0.213761 0.051586
Si Si4 0.000000 0.000000 0.500000
Si Si5 0.447101 0.832841 0.362663
Si Si6 0.137181 0.063238 0.611117
Si Si7 0.357122 0.390916 0.276324
Si Si8 0.951580 0.206717 0.998155
O O1 0.500000 0.500000 0.500000
O O2 0.720211 0.854251 0.544576
O O3 0.536723 0.684492 0.746106
O O4 0.288426 0.788115 0.850466
O O5 0.220651 0.445167 0.167460
O O6 0.089281 0.769395 0.327136
O O7 0.855471 0.538797 0.489634
O O8 0.008647 0.373002 0.130559
O O9 0.334761 0.241604 0.118216
O O10 0.400443 0.132101 0.821065
O O11 0.051324 0.036943 0.101804
O O12 0.069069 0.007677 0.336943
O O13 0.470580 0.611319 0.271181
O O14 0.500000 0.000000 0.500000
O O15 0.233693 0.881338 0.495884
O O16 0.099525 0.235144 0.810570
#
# Coordination Sequence:
#
# PCOD9070767 Si02
#       8
#     2   2   2   1   2   2   2   2
#     4  12  25  49  75 109 157 198 258 313 382 458
#     4  12  25  48  74 111 155 202 258 318 387 461
#     4  12  26  46  76 117 151 201 262 317 392 462
#     4  12  26  46  74 106 156 202 252 312 384 454
#     4  12  25  47  77 109 155 203 260 319 383 462
#     4  12  26  48  76 111 152 204 253 319 383 459
#     4  12  25  46  72 109 157 202 250 329 380 456
#     4  12  26  48  82 112 153 204 261 316 391 460
#
# _framework density 26.316649999999999
#
# number of rings (size 3 to 8) (size 9 to 14) (size 15 to 20)
#    0.000    0.000    4.000    6.000    0.000    4.800 
#    0.000    0.000    0.000    0.000    0.000    0.000 
#    0.000    0.000    0.000    0.000    0.000    0.000 
#
# Total GULP energy -83832.519378 kJ/mol
# GULP energy per Si atom -5588.834625 kJ/mol
# Density = 2.625675 g / cm^3
# Si number density = 26.316650 Si / 1000 Ang^3
#
#
#
# Elastic Constant Matrix: (Units=GPa)
#
#
# Indices 1 2 3 4 5 6 
#
# 1 142.3351 57.7571 58.3500 -2.1622 37.6115 -30.6124
# 2 57.7571 144.8028 44.7917 14.0932 29.6220 -15.1395
# 3 58.3500 44.7917 133.4549 -14.2361 39.5218 -9.0586
# 4 -2.1622 14.0932 -14.2361 52.7839 1.0587 12.1688
# 5 37.6115 29.6220 39.5218 1.0587 67.7235 13.5744
# 6 -30.6124 -15.1395 -9.0586 12.1688 13.5744 40.6936
#
#
#
# Elastic Compliance Matrix: (Units=1/GPa)
#
#
# Indices 1 2 3 4 5 6 
#
# 1 0.013217 -0.001444 -0.002452 -0.002377 -0.007671 0.012129
# 2 -0.001444 0.009507 -0.001770 -0.004002 -0.003121 0.004294
# 3 -0.002452 -0.001770 0.010805 0.003292 -0.004291 0.000349
# 4 -0.002377 -0.004002 0.003292 0.023150 0.002877 -0.010427
# 5 -0.007671 -0.003121 -0.004291 0.002877 0.026366 -0.017542
# 6 0.012129 0.004294 0.000349 -0.010427 -0.017542 0.044343
#
#
# Mechanical properties :
#
#
# Convention : Reuss Voigt Hill
#
# Bulk Modulus (GPa) = 45.05743 82.48781 63.77262
# Shear Modulus (GPa) = 34.21845 49.55315 41.88580
#
# Velocity S-wave (km/s) = 3.60982 4.34401 3.99382
# Velocity P-wave (km/s) = 5.87647 7.52150 6.74929
#
# Compressibility (1/GPa) = 0.02219390
#
# Stress axis : x y z
#
# Youngs Moduli (GPa) = 75.66216 105.18967 92.54906
#
# Poissons Ratio (x) = 0.15194 0.22697
# Poissons Ratio (y) = 0.10929 0.16385
# Poissons Ratio (z) = 0.18555 0.18623
#
# Static dielectric constant tensor:
#      x y z
#    x 1.711180 -0.126930 -0.039860 
#    y -0.126930 2.050030 0.000690 
#    z -0.039860 0.000690 2.064010 
# 
# From -- ./inp_files/419887.got.cif
#   From: 2010.05.17/outbox.cif.g08.bks.cpg/sg2_210_cif.got.tgz:419887.got - 2010.06.03 11:33:40.
