data_PCOD9070498
_publ_section_title
;
Structure prediction by ZEFSAII (Michael W. Deem and Ramdas Pophale) SiO2 
 PCOD9070498
Probable space group: P -1
;
_chemical_formula_sum "Si O2"
_cell_formula_units_Z 15
_cell_length_a 9.186224
_cell_length_b 7.956915
_cell_length_c 17.267447
_cell_angle_alpha 126.332690
_cell_angle_beta 129.772242
_cell_angle_gamma 92.867370
_cell_volume 563.444256
_symmetry_space_group_name_H-M "P -1"
_symmetry_group_IT_number 2
_symmetry_cell_setting 'triclinic'
loop_
_space_group_symop_operation_xyz
x,y,z
-x,-y,-z
loop_
_atom_site_type_symbol
_atom_site_label
_atom_site_fract_x
_atom_site_fract_y
_atom_site_fract_z
Si Si1 0.338243 0.276898 0.248325
Si Si2 0.070373 0.013456 0.783832
Si Si3 0.500000 0.500000 0.500000
Si Si4 0.940398 0.489822 0.348569
Si Si5 0.754239 0.318534 0.646098
Si Si6 0.863205 0.320396 0.984190
Si Si7 0.488824 0.442201 0.171049
Si Si8 0.274804 0.048387 0.707724
O O1 0.549469 0.365329 0.407106
O O2 0.290794 0.462961 0.330052
O O3 0.415304 0.406302 0.225689
O O4 0.142001 0.936323 0.081642
O O5 0.772377 0.841150 0.656240
O O6 0.098109 0.785124 0.734421
O O7 0.176362 0.127420 0.764172
O O8 0.255092 0.254192 0.978045
O O9 0.121563 0.675796 0.387074
O O10 0.650649 0.355039 0.197187
O O11 0.060059 0.711746 0.521137
O O12 0.500000 0.000000 0.500000
O O13 0.960881 0.471909 0.827753
O O14 0.562472 0.165303 0.851943
O O15 0.000000 0.500000 0.000000
O O16 0.675944 0.771980 0.301030
#
# Coordination Sequence:
#
# PCOD9070498 Si02
#       8
#     2   2   1   2   2   2   2   2
#     4  12  27  50  74 111 152 205 253 317 386 461
#     4  12  26  48  76 111 152 200 263 312 390 456
#     4  12  28  44  80 110 150 200 260 316 384 454
#     4  12  24  49  72 111 148 203 254 310 387 462
#     4  12  27  46  74 110 156 201 257 312 384 465
#     4  12  27  46  75 112 156 204 259 319 386 459
#     4  12  27  49  81 109 153 204 256 317 391 466
#     4  12  27  49  75 117 153 201 256 324 387 460
#
# _framework density 26.621976
#
# number of rings (size 3 to 8) (size 9 to 14) (size 15 to 20)
#    0.000    0.000    1.333    8.400    5.600    1.067 
#    0.000    0.000    0.000    0.000    0.000    0.000 
#    0.000    0.000    0.000    0.000    0.000    0.000 
#
# Total GULP energy -83943.046805 kJ/mol
# GULP energy per Si atom -5596.203120 kJ/mol
# Density = 2.656138 g / cm^3
# Si number density = 26.621976 Si / 1000 Ang^3
#
#
#
# Elastic Constant Matrix: (Units=GPa)
#
#
# Indices 1 2 3 4 5 6 
#
# 1 115.0374 36.6756 27.7779 -10.6601 -11.6629 31.6721
# 2 36.6756 132.8042 28.6697 10.2342 -12.5581 32.9598
# 3 27.7779 28.6697 137.5670 -7.3743 -20.6481 24.9532
# 4 -10.6601 10.2342 -7.3743 39.3908 -1.7601 -4.8434
# 5 -11.6629 -12.5581 -20.6481 -1.7601 52.0524 -11.4516
# 6 31.6721 32.9598 24.9532 -4.8434 -11.4516 65.5101
#
#
#
# Elastic Compliance Matrix: (Units=1/GPa)
#
#
# Indices 1 2 3 4 5 6 
#
# 1 0.010897 -0.002097 -0.000827 0.002948 0.000933 -0.003517
# 2 -0.002097 0.009551 -0.001038 -0.003660 0.000512 -0.003578
# 3 -0.000827 -0.001038 0.008435 0.001528 0.002582 -0.001727
# 4 0.002948 -0.003660 0.001528 0.027773 0.001808 0.002204
# 5 0.000933 0.000512 0.002582 0.001808 0.021098 0.002129
# 6 -0.003517 -0.003578 -0.001727 0.002204 0.002129 0.019958
#
#
# Mechanical properties :
#
#
# Convention : Reuss Voigt Hill
#
# Bulk Modulus (GPa) = 47.70887 63.51723 55.61305
# Shear Modulus (GPa) = 44.39582 50.87635 47.63608
#
# Velocity S-wave (km/s) = 4.08810 4.37632 4.23466
# Velocity P-wave (km/s) = 6.34375 7.03185 6.69665
#
# Compressibility (1/GPa) = 0.02096046
#
# Stress axis : x y z
#
# Youngs Moduli (GPa) = 91.76585 104.69733 118.55173
#
# Poissons Ratio (x) = 0.21953 0.09807
# Poissons Ratio (y) = 0.19242 0.12300
# Poissons Ratio (z) = 0.07592 0.10863
#
# Static dielectric constant tensor:
#      x y z
#    x 1.863740 1.193490 -0.937380 
#    y 1.193490 -4.051070 4.919950 
#    z -0.937380 4.919950 -1.920160 
# 
# From -- ./inp_files/557622.got.cif
#   From: 2010.05.17/outbox.cif.g08.bks.cpg/sg2_279_cif.got.tgz:557622.got - 2010.06.03 11:33:40.
