data_PCOD9070785
_publ_section_title
;
Structure prediction by ZEFSAII (Michael W. Deem and Ramdas Pophale) SiO2 
 PCOD9070785
Probable space group: P -1
;
_chemical_formula_sum "Si O2"
_cell_formula_units_Z 14
_cell_length_a 14.751374
_cell_length_b 7.771470
_cell_length_c 11.395929
_cell_angle_alpha 66.468100
_cell_angle_beta 151.884591
_cell_angle_gamma 114.232026
_cell_volume 559.294182
_symmetry_space_group_name_H-M "P -1"
_symmetry_group_IT_number 2
_symmetry_cell_setting 'triclinic'
loop_
_space_group_symop_operation_xyz
x,y,z
-x,-y,-z
loop_
_atom_site_type_symbol
_atom_site_label
_atom_site_fract_x
_atom_site_fract_y
_atom_site_fract_z
Si Si1 0.897959 0.775515 0.538042
Si Si2 0.173406 0.374023 0.751663
Si Si3 0.433268 0.067577 0.778495
Si Si4 0.667573 0.180429 0.647809
Si Si5 0.997200 0.575339 0.109658
Si Si6 0.757779 0.005024 0.031954
Si Si7 0.592308 0.499507 0.800527
O O1 0.794040 0.713914 0.314498
O O2 0.788673 0.911261 0.457171
O O3 0.908677 0.577358 0.665410
O O4 0.116791 0.883965 0.750068
O O5 0.000000 0.500000 0.500000
O O6 0.343229 0.484492 0.992714
O O7 0.143656 0.176586 0.843405
O O8 0.534518 0.943281 0.834401
O O9 0.511204 0.278604 0.761621
O O10 0.500000 0.000000 0.000000
O O11 0.861539 0.224693 0.777843
O O12 0.754833 0.150188 0.883716
O O13 0.559127 0.362733 0.450343
O O14 0.500000 0.000000 0.500000
O O15 0.000000 0.500000 0.000000
O O16 0.782186 0.563873 0.920219
#
# Coordination Sequence:
#
# PCOD9070785 Si02
#       7
#     2   2   2   2   2   2   2
#     4  12  25  46  75 106 145 201 250 304 375 438
#     4  12  25  47  73 106 153 193 242 313 377 447
#     4  12  26  45  74 112 145 194 255 306 371 447
#     4  12  27  49  72 110 152 192 251 308 372 441
#     4  12  25  48  77 105 148 198 248 302 372 445
#     4  12  26  49  73 108 151 195 254 309 367 454
#     4  12  27  48  75 111 149 198 246 310 380 435
#
# _framework density 25.031548999999998
#
# number of rings (size 3 to 8) (size 9 to 14) (size 15 to 20)
#    0.000    0.000    8.571    0.429    4.000    2.286 
#    5.143    0.000    0.000    0.000    0.000    0.000 
#    0.000    0.000    0.000    0.000    0.000    0.000 
#
# Total GULP energy -78135.384290 kJ/mol
# GULP energy per Si atom -5581.098878 kJ/mol
# Density = 2.497458 g / cm^3
# Si number density = 25.031549 Si / 1000 Ang^3
#
#
#
# Elastic Constant Matrix: (Units=GPa)
#
#
# Indices 1 2 3 4 5 6 
#
# 1 88.6496 20.5866 27.7450 1.3057 14.8596 17.3614
# 2 20.5866 102.8119 27.9301 -12.4125 13.4203 10.6303
# 3 27.7450 27.9301 104.1818 -31.4846 5.0384 1.9368
# 4 1.3057 -12.4125 -31.4846 56.7438 3.5532 1.5983
# 5 14.8596 13.4203 5.0384 3.5532 50.9837 5.9827
# 6 17.3614 10.6303 1.9368 1.5983 5.9827 36.3810
#
#
#
# Elastic Compliance Matrix: (Units=1/GPa)
#
#
# Indices 1 2 3 4 5 6 
#
# 1 0.014431 -0.001145 -0.004057 -0.002505 -0.002650 -0.005790
# 2 -0.001145 0.011244 -0.002095 0.001530 -0.002253 -0.002324
# 3 -0.004057 -0.002095 0.013342 0.007010 -0.000258 0.001572
# 4 -0.002505 0.001530 0.007010 0.022030 -0.001867 -0.000286
# 5 -0.002650 -0.002253 -0.000258 -0.001867 0.021309 -0.001486
# 6 -0.005790 -0.002324 0.001572 -0.000286 -0.001486 0.031102
#
#
# Mechanical properties :
#
#
# Convention : Reuss Voigt Hill
#
# Bulk Modulus (GPa) = 40.94541 49.79629 45.37085
# Shear Modulus (GPa) = 36.71199 43.44713 40.07956
#
# Velocity S-wave (km/s) = 3.83381 4.17069 4.00579
# Velocity P-wave (km/s) = 5.99921 6.56730 6.28967
#
# Compressibility (1/GPa) = 0.02442276
#
# Stress axis : x y z
#
# Youngs Moduli (GPa) = 69.29426 88.93622 74.94854
#
# Poissons Ratio (x) = 0.10186 0.30409
# Poissons Ratio (y) = 0.07936 0.15700
# Poissons Ratio (z) = 0.28115 0.18631
#
# Static dielectric constant tensor:
#      x y z
#    x 2.046540 -0.016510 0.017630 
#    y -0.016510 1.991340 0.015350 
#    z 0.017630 0.015350 2.062750 
# 
# From -- ./inp_files/445700.got.cif
#   From: 2010.05.17/outbox.cif.g08.bks.cpg/sg2_223_cif.got.tgz:445700.got - 2010.06.03 11:33:40.
