data_PCOD9070853
_publ_section_title
;
Structure prediction by ZEFSAII (Michael W. Deem and Ramdas Pophale) SiO2 
 PCOD9070853
Probable space group: P -1
;
_chemical_formula_sum "Si O2"
_cell_formula_units_Z 10
_cell_length_a 8.186984
_cell_length_b 8.947557
_cell_length_c 12.720392
_cell_angle_alpha 63.745538
_cell_angle_beta 107.205630
_cell_angle_gamma 54.789739
_cell_volume 450.255823
_symmetry_space_group_name_H-M "P -1"
_symmetry_group_IT_number 2
_symmetry_cell_setting 'triclinic'
loop_
_space_group_symop_operation_xyz
x,y,z
-x,-y,-z
loop_
_atom_site_type_symbol
_atom_site_label
_atom_site_fract_x
_atom_site_fract_y
_atom_site_fract_z
Si Si1 0.230315 0.599138 0.455774
Si Si2 0.394030 0.320868 0.791934
Si Si3 0.062255 0.287576 0.007239
Si Si4 0.788194 0.651605 0.645934
Si Si5 0.766056 0.208329 0.073342
O O1 0.500000 0.500000 0.500000
O O2 0.266252 0.530821 0.605744
O O3 0.244702 0.418664 0.447631
O O4 0.930437 0.937663 0.258997
O O5 0.105033 0.495610 0.749047
O O6 0.624909 0.237078 0.934408
O O7 0.594812 0.008740 0.878344
O O8 0.836712 0.484839 0.803244
O O9 0.000000 0.500000 0.000000
O O10 0.989482 0.177543 0.091019
O O11 0.500000 0.000000 0.500000
O O12 0.500000 0.500000 0.000000
#
# Coordination Sequence:
#
# PCOD9070853 Si02
#       5
#     2   2   2   2   2
#     4  12  26  48  74 104 147 187 243 296 356 426
#     4  12  26  50  75 102 149 191 239 300 356 427
#     4  12  25  47  74 105 146 189 241 296 360 426
#     4  12  28  46  73 109 146 191 242 295 358 427
#     4  12  28  47  75 108 144 193 238 296 362 426
#
# _framework density 22.209595
#
# number of rings (size 3 to 8) (size 9 to 14) (size 15 to 20)
#    0.000    0.000    4.000    5.400    8.400    0.800 
#    0.000    0.000    0.000    0.000    0.000    0.000 
#    0.000    0.000    0.000    0.000    0.000    0.000 
#
# Total GULP energy -56045.209648 kJ/mol
# GULP energy per Si atom -5604.520965 kJ/mol
# Density = 2.215905 g / cm^3
# Si number density = 22.209595 Si / 1000 Ang^3
#
#
#
# Elastic Constant Matrix: (Units=GPa)
#
#
# Indices 1 2 3 4 5 6 
#
# 1 56.8095 13.2247 18.7733 -18.3580 0.6592 5.0591
# 2 13.2247 126.5534 63.3525 -31.1659 -0.0609 5.3971
# 3 18.7733 63.3525 173.5485 -11.7904 -28.5779 4.5077
# 4 -18.3580 -31.1659 -11.7904 55.6764 -4.9682 7.6775
# 5 0.6592 -0.0609 -28.5779 -4.9682 42.3650 4.5605
# 6 5.0591 5.3971 4.5077 7.6775 4.5605 32.8618
#
#
#
# Elastic Compliance Matrix: (Units=1/GPa)
#
#
# Indices 1 2 3 4 5 6 
#
# 1 0.020954 0.000893 -0.001989 0.007634 -0.000249 -0.004849
# 2 0.000893 0.011456 -0.004090 0.006045 -0.001765 -0.002625
# 3 -0.001989 -0.004090 0.008397 -0.000541 0.005716 -0.000841
# 4 0.007634 0.006045 -0.000541 0.025216 0.003392 -0.008456
# 5 -0.000249 -0.001765 0.005716 0.003392 0.028418 -0.005192
# 6 -0.004849 -0.002625 -0.000841 -0.008456 -0.005192 0.034419
#
#
# Mechanical properties :
#
#
# Convention : Reuss Voigt Hill
#
# Bulk Modulus (GPa) = 32.85878 60.84583 46.85230
# Shear Modulus (GPa) = 33.47217 43.61805 38.54511
#
# Velocity S-wave (km/s) = 3.88636 4.43643 4.17047
# Velocity P-wave (km/s) = 5.91315 7.32791 6.65821
#
# Compressibility (1/GPa) = 0.03043327
#
# Stress axis : x y z
#
# Youngs Moduli (GPa) = 47.72422 87.29076 119.09483
#
# Poissons Ratio (x) = -0.07792 0.23688
# Poissons Ratio (y) = -0.04260 0.48712
# Poissons Ratio (z) = 0.09492 0.35704
#
# Static dielectric constant tensor:
#      x y z
#    x 1.823310 -0.005390 -0.013610 
#    y -0.005390 1.792620 -0.003600 
#    z -0.013610 -0.003600 1.776420 
# 
# From -- ./inp_files/143955.got.cif
#   From: 2010.05.17/outbox.cif.g08.bks.cpg/sg2_72_cif.got.tgz:143955.got - 2010.06.03 11:33:40.
