data_PCOD9070599
_publ_section_title
;
Structure prediction by ZEFSAII (Michael W. Deem and Ramdas Pophale) SiO2 
 PCOD9070599
Probable space group: P -1
;
_chemical_formula_sum "Si O2"
_cell_formula_units_Z 16
_cell_length_a 13.044225
_cell_length_b 13.056349
_cell_length_c 7.679397
_cell_angle_alpha 117.406191
_cell_angle_beta 117.878550
_cell_angle_gamma 32.335039
_cell_volume 612.446054
_symmetry_space_group_name_H-M "P -1"
_symmetry_group_IT_number 2
_symmetry_cell_setting 'triclinic'
loop_
_space_group_symop_operation_xyz
x,y,z
-x,-y,-z
loop_
_atom_site_type_symbol
_atom_site_label
_atom_site_fract_x
_atom_site_fract_y
_atom_site_fract_z
Si Si1 0.955050 0.094634 0.349448
Si Si2 0.875931 0.771647 0.070092
Si Si3 0.977221 0.307187 0.393947
Si Si4 0.123227 0.746323 0.072330
Si Si5 0.711158 0.698034 0.693123
Si Si6 0.520295 0.455868 0.278875
Si Si7 0.320859 0.145024 0.656474
Si Si8 0.514615 0.784900 0.971285
O O1 0.069002 0.121121 0.422896
O O2 0.739860 0.314929 0.314896
O O3 0.000000 0.000000 0.500000
O O4 0.978482 0.968850 0.141372
O O5 0.798751 0.795674 0.216459
O O6 0.064583 0.702923 0.147687
O O7 0.872482 0.660421 0.861561
O O8 0.698621 0.990078 0.028952
O O9 0.815006 0.513344 0.524854
O O10 0.163358 0.241791 0.461695
O O11 0.900255 0.313935 0.160186
O O12 0.327343 0.651087 0.182610
O O13 0.522145 0.912025 0.624616
O O14 0.617439 0.727392 0.823094
O O15 0.500000 0.500000 0.500000
O O16 0.504995 0.334284 0.122829
O O17 0.374429 0.234773 0.805080
#
# Coordination Sequence:
#
# PCOD9070599 Si02
#       8
#     2   2   2   2   2   2   2   2
#     4  12  26  48  71  95 132 179 233 282 328 394
#     4   9  19  42  68  96 137 175 228 276 327 396
#     4  12  27  42  67 102 141 179 217 276 349 406
#     4  12  27  44  65 103 140 180 219 273 345 412
#     4   9  21  39  66 101 135 175 224 280 327 395
#     4  12  25  41  71 100 127 175 229 285 327 392
#     4   9  21  41  69  98 134 177 223 283 328 397
#     4   9  19  40  68 101 129 173 234 281 328 380
#
# _framework density 26.124749999999999
#
# number of rings (size 3 to 8) (size 9 to 14) (size 15 to 20)
#    0.000    1.500    2.500    3.375    5.250    4.000 
#    0.000    1.250    0.000    0.000    0.000    0.000 
#    0.000    0.000    0.000    0.000    0.000    0.000 
#
# Total GULP energy -89500.962598 kJ/mol
# GULP energy per Si atom -5593.810162 kJ/mol
# Density = 2.606529 g / cm^3
# Si number density = 26.124750 Si / 1000 Ang^3
#
#
#
# Elastic Constant Matrix: (Units=GPa)
#
#
# Indices 1 2 3 4 5 6 
#
# 1 66.8897 13.7034 26.1103 5.0137 5.7903 -0.2364
# 2 13.7034 117.8431 51.1863 17.5884 0.7864 -17.9248
# 3 26.1103 51.1863 174.9616 20.4165 13.2027 -9.6615
# 4 5.0137 17.5884 20.4165 57.3019 3.6494 10.4911
# 5 5.7903 0.7864 13.2027 3.6494 38.4345 -0.8168
# 6 -0.2364 -17.9248 -9.6615 10.4911 -0.8168 36.0047
#
#
#
# Elastic Compliance Matrix: (Units=1/GPa)
#
#
# Indices 1 2 3 4 5 6 
#
# 1 0.016112 -0.001146 -0.001988 -0.000051 -0.001738 -0.001023
# 2 -0.001146 0.011108 -0.002422 -0.003616 0.001247 0.005955
# 3 -0.001988 -0.002422 0.007128 -0.001711 -0.001913 0.001149
# 4 -0.000051 -0.003616 -0.001711 0.020799 -0.001483 -0.008354
# 5 -0.001738 0.001247 -0.001913 -0.001483 0.027077 0.001143
# 6 -0.001023 0.005955 0.001149 -0.008354 0.001143 0.033500
#
#
# Mechanical properties :
#
#
# Convention : Reuss Voigt Hill
#
# Bulk Modulus (GPa) = 43.03872 60.18826 51.61349
# Shear Modulus (GPa) = 37.15174 44.26117 40.70646
#
# Velocity S-wave (km/s) = 3.77515 4.12056 3.95163
# Velocity P-wave (km/s) = 5.95923 6.76221 6.37338
#
# Compressibility (1/GPa) = 0.02323489
#
# Stress axis : x y z
#
# Youngs Moduli (GPa) = 62.06687 90.02246 140.28526
#
# Poissons Ratio (x) = 0.10318 0.27895
# Poissons Ratio (y) = 0.07114 0.33979
# Poissons Ratio (z) = 0.12342 0.21805
#
# Static dielectric constant tensor:
#      x y z
#    x 2.281340 -0.061770 -0.074650 
#    y -0.061770 2.134560 -0.064170 
#    z -0.074650 -0.064170 2.032590 
# 
# From -- ./inp_files/308889.got.cif
#   From: 2010.05.17/outbox.cif.g08.bks.cpg/sg2_155_cif.got.tgz:308889.got - 2010.06.03 11:33:40.
