data_PCOD9070413
_publ_section_title
;
Structure prediction by ZEFSAII (Michael W. Deem and Ramdas Pophale) SiO2 
 PCOD9070413
Probable space group: P -1
;
_chemical_formula_sum "Si O2"
_cell_formula_units_Z 13
_cell_length_a 9.257313
_cell_length_b 14.424368
_cell_length_c 8.771363
_cell_angle_alpha 124.438473
_cell_angle_beta 148.208603
_cell_angle_gamma 60.330329
_cell_volume 508.622572
_symmetry_space_group_name_H-M "P -1"
_symmetry_group_IT_number 2
_symmetry_cell_setting 'triclinic'
loop_
_space_group_symop_operation_xyz
x,y,z
-x,-y,-z
loop_
_atom_site_type_symbol
_atom_site_label
_atom_site_fract_x
_atom_site_fract_y
_atom_site_fract_z
Si Si1 0.849837 0.135645 0.633610
Si Si2 0.062870 0.463130 0.344916
Si Si3 0.412363 0.238084 0.137886
Si Si4 0.569618 0.333395 0.751897
Si Si5 0.500000 0.500000 0.500000
Si Si6 0.433145 0.783287 0.072974
Si Si7 0.901882 0.929254 0.701439
O O1 0.660254 0.153847 0.333212
O O2 0.695050 0.218321 0.691601
O O3 0.879634 0.012015 0.613864
O O4 0.141034 0.187015 0.913259
O O5 0.254378 0.352506 0.447389
O O6 0.245849 0.522736 0.433725
O O7 0.000000 0.500000 0.500000
O O8 0.771614 0.432990 0.978175
O O9 0.460099 0.365455 0.350934
O O10 0.393181 0.241970 0.943787
O O11 0.589187 0.324769 0.942995
O O12 0.608954 0.874143 0.406049
O O13 0.135963 0.832186 0.807909
O O14 0.000000 0.000000 0.000000
#
# Coordination Sequence:
#
# PCOD9070413 Si02
#       7
#     2   2   2   2   1   2   2
#     4  12  25  47  74 102 150 198 240 310 371 448
#     4  12  27  46  75 110 148 198 259 316 380 454
#     4  12  28  47  72 109 151 193 251 315 378 446
#     4  12  24  48  72 106 148 193 245 313 372 445
#     4  12  26  50  78 108 150 208 254 310 392 452
#     4  12  27  46  76 113 147 194 251 312 369 458
#     4  12  26  45  78 109 146 197 251 302 382 453
#
# _framework density 25.559228000000001
#
# number of rings (size 3 to 8) (size 9 to 14) (size 15 to 20)
#    0.000    0.000    4.615    4.615    2.154    7.385 
#    0.000    0.000    0.000    0.000    0.000    0.000 
#    0.000    0.000    0.000    0.000    0.000    0.000 
#
# Total GULP energy -72536.280335 kJ/mol
# GULP energy per Si atom -5579.713872 kJ/mol
# Density = 2.550105 g / cm^3
# Si number density = 25.559228 Si / 1000 Ang^3
#
#
#
# Elastic Constant Matrix: (Units=GPa)
#
#
# Indices 1 2 3 4 5 6 
#
# 1 122.7621 4.7626 6.8545 15.6268 4.1126 14.5717
# 2 4.7626 54.4585 -0.3300 -11.0764 24.8301 12.3103
# 3 6.8545 -0.3300 107.3133 -3.7803 23.7135 -2.1207
# 4 15.6268 -11.0764 -3.7803 31.4584 -0.9161 5.8451
# 5 4.1126 24.8301 23.7135 -0.9161 39.5887 13.7234
# 6 14.5717 12.3103 -2.1207 5.8451 13.7234 38.2414
#
#
#
# Elastic Compliance Matrix: (Units=1/GPa)
#
#
# Indices 1 2 3 4 5 6 
#
# 1 0.009187 -0.002039 -0.001254 -0.004840 0.001961 -0.002878
# 2 -0.002039 0.031710 0.005340 0.012832 -0.021393 -0.003419
# 3 -0.001254 0.005340 0.012119 0.003052 -0.011476 0.003083
# 4 -0.004840 0.012832 0.003052 0.039994 -0.006390 -0.005937
# 5 0.001961 -0.021393 -0.011476 -0.006390 0.049057 -0.011125
# 6 -0.002878 -0.003419 0.003083 -0.005937 -0.011125 0.033417
#
#
# Mechanical properties :
#
#
# Convention : Reuss Voigt Hill
#
# Bulk Modulus (GPa) = 17.51026 34.12313 25.81670
# Shear Modulus (GPa) = 26.25656 40.07414 33.16535
#
# Velocity S-wave (km/s) = 3.20860 3.96396 3.60611
# Velocity P-wave (km/s) = 4.53790 5.85920 5.24036
#
# Compressibility (1/GPa) = 0.05710936
#
# Stress axis : x y z
#
# Youngs Moduli (GPa) = 108.84948 31.53569 82.51231
#
# Poissons Ratio (x) = 0.06431 0.10346
# Poissons Ratio (y) = 0.22197 -0.44058
# Poissons Ratio (z) = 0.13648 -0.16839
#
# Static dielectric constant tensor:
#      x y z
#    x 2.126490 -0.031940 -0.119790 
#    y -0.031940 1.994710 0.028600 
#    z -0.119790 0.028600 2.017280 
# 
# From -- ./inp_files/89318.got.cif
#   From: 2010.05.17/outbox.cif.g08.bks.cpg/sg2_45_cif.got.tgz:89318.got - 2010.06.03 11:33:40.
