data_PCOD9070175
_publ_section_title
;
Structure prediction by ZEFSAII (Michael W. Deem and Ramdas Pophale) SiO2 
 PCOD9070175
Probable space group: P -1
;
_chemical_formula_sum "Si O2"
_cell_formula_units_Z 16
_cell_length_a 8.831187
_cell_length_b 11.558700
_cell_length_c 9.471384
_cell_angle_alpha 109.320946
_cell_angle_beta 52.816384
_cell_angle_gamma 114.241963
_cell_volume 697.771952
_symmetry_space_group_name_H-M "P -1"
_symmetry_group_IT_number 2
_symmetry_cell_setting 'triclinic'
loop_
_space_group_symop_operation_xyz
x,y,z
-x,-y,-z
loop_
_atom_site_type_symbol
_atom_site_label
_atom_site_fract_x
_atom_site_fract_y
_atom_site_fract_z
Si Si1 0.795840 0.304138 0.131571
Si Si2 0.810496 0.704661 0.632672
Si Si3 0.419648 0.488523 0.752980
Si Si4 0.507510 0.756479 0.469495
Si Si5 0.754418 0.317097 0.692634
Si Si6 0.361957 0.873507 0.100029
Si Si7 0.227383 0.063340 0.427161
Si Si8 0.802338 0.597152 0.885470
O O1 0.725323 0.425329 0.166054
O O2 0.641549 0.243930 0.318182
O O3 0.009640 0.352438 0.098705
O O4 0.781361 0.200182 0.974238
O O5 0.642847 0.574634 0.639367
O O6 0.730539 0.817442 0.658129
O O7 0.812283 0.701695 0.800842
O O8 0.028946 0.709963 0.454317
O O9 0.397608 0.361963 0.623695
O O10 0.378772 0.441292 0.918460
O O11 0.374567 0.731534 0.394126
O O12 0.690254 0.880867 0.445128
O O13 0.619147 0.250978 0.875862
O O14 0.813127 0.468955 0.747400
O O15 0.310590 0.947574 0.293345
O O16 0.500000 0.000000 0.000000
O O17 0.000000 0.000000 0.500000
#
# Coordination Sequence:
#
# PCOD9070175 Si02
#       8
#     2   2   2   2   2   2   2   2
#     4  12  25  46  73 105 147 195 235 295 360 433
#     4  12  24  46  73 103 149 184 236 301 357 422
#     4  12  25  41  73 110 145 183 234 299 368 420
#     4  12  26  46  75 107 143 187 241 295 364 426
#     4  12  26  47  77 104 148 189 231 307 361 427
#     4  12  26  50  73  99 144 198 245 283 351 427
#     4  12  28  48  72 102 142 195 242 288 348 429
#     4  12  26  43  71 117 146 180 239 300 376 418
#
# _framework density 22.930126000000001
#
# number of rings (size 3 to 8) (size 9 to 14) (size 15 to 20)
#    0.000    0.000    7.500    2.250    3.500    0.500 
#    2.250    0.625    0.000    0.000    0.000    0.000 
#    0.000    0.000    0.000    0.000    0.000    0.000 
#
# Total GULP energy -89288.273626 kJ/mol
# GULP energy per Si atom -5580.517102 kJ/mol
# Density = 2.287794 g / cm^3
# Si number density = 22.930126 Si / 1000 Ang^3
#
#
#
# Elastic Constant Matrix: (Units=GPa)
#
#
# Indices 1 2 3 4 5 6 
#
# 1 105.7352 32.6166 30.5204 14.0200 24.9009 24.5289
# 2 32.6166 94.3279 34.1882 14.2058 11.8938 23.7768
# 3 30.5204 34.1882 58.6432 0.6182 18.5721 16.0247
# 4 14.0200 14.2058 0.6182 56.2174 3.5197 13.6567
# 5 24.9009 11.8938 18.5721 3.5197 42.4698 6.5585
# 6 24.5289 23.7768 16.0247 13.6567 6.5585 42.9231
#
#
#
# Elastic Compliance Matrix: (Units=1/GPa)
#
#
# Indices 1 2 3 4 5 6 
#
# 1 0.013250 -0.001448 -0.003230 -0.001539 -0.005162 -0.004286
# 2 -0.001448 0.014976 -0.006980 -0.002362 0.000551 -0.004195
# 3 -0.003230 -0.006980 0.026202 0.003745 -0.007279 -0.004149
# 4 -0.001539 -0.002362 0.003745 0.020113 -0.000896 -0.005473
# 5 -0.005162 0.000551 -0.007279 -0.000896 0.029500 0.001140
# 6 -0.004286 -0.004195 -0.004149 -0.005473 0.001140 0.031186
#
#
# Mechanical properties :
#
#
# Convention : Reuss Voigt Hill
#
# Bulk Modulus (GPa) = 32.14214 50.37295 41.25754
# Shear Modulus (GPa) = 29.60078 39.08080 34.34079
#
# Velocity S-wave (km/s) = 3.59682 4.13285 3.87412
# Velocity P-wave (km/s) = 5.59441 6.69250 6.16794
#
# Compressibility (1/GPa) = 0.03111180
#
# Stress axis : x y z
#
# Youngs Moduli (GPa) = 75.46905 66.77557 38.16473
#
# Poissons Ratio (x) = 0.09671 0.12326
# Poissons Ratio (y) = 0.10930 0.26640
# Poissons Ratio (z) = 0.24374 0.46611
#
# Static dielectric constant tensor:
#      x y z
#    x 1.894300 0.013050 -0.018120 
#    y 0.013050 1.897930 -0.062050 
#    z -0.018120 -0.062050 1.910950 
# 
# From -- ./inp_files/185353.got.cif
#   From: 2010.05.17/outbox.cif.g08.bks.cpg/sg2_93_cif.got.tgz:185353.got - 2010.06.03 11:33:40.
