data_PCOD9070528
_publ_section_title
;
Structure prediction by ZEFSAII (Michael W. Deem and Ramdas Pophale) SiO2 
 PCOD9070528
Probable space group: P -1
;
_chemical_formula_sum "Si O2"
_cell_formula_units_Z 14
_cell_length_a 13.037138
_cell_length_b 5.809673
_cell_length_c 18.986447
_cell_angle_alpha 62.434627
_cell_angle_beta 142.237330
_cell_angle_gamma 136.553749
_cell_volume 584.112110
_symmetry_space_group_name_H-M "P -1"
_symmetry_group_IT_number 2
_symmetry_cell_setting 'triclinic'
loop_
_space_group_symop_operation_xyz
x,y,z
-x,-y,-z
loop_
_atom_site_type_symbol
_atom_site_label
_atom_site_fract_x
_atom_site_fract_y
_atom_site_fract_z
Si Si1 0.233638 0.168225 0.143303
Si Si2 0.890990 0.316587 0.729335
Si Si3 0.182482 0.369325 0.755888
Si Si4 0.725998 0.202219 0.899392
Si Si5 0.837676 0.181637 0.402974
Si Si6 0.316847 0.993248 0.937787
Si Si7 0.845521 0.735331 0.557085
O O1 0.335595 0.055949 0.162069
O O2 0.218931 0.005017 0.233322
O O3 0.341666 0.561212 0.161605
O O4 0.000000 0.000000 0.000000
O O5 0.038379 0.321718 0.750118
O O6 0.071203 0.647433 0.829278
O O7 0.751983 0.397833 0.600170
O O8 0.286035 0.723469 0.722222
O O9 0.341497 0.306132 0.877118
O O10 0.009850 0.056716 0.653081
O O11 0.679889 0.027437 0.974520
O O12 0.000000 0.500000 0.000000
O O13 0.000000 0.500000 0.500000
O O14 0.999380 0.225598 0.425326
O O15 0.715553 0.831060 0.431525
O O16 0.500000 0.000000 0.000000
#
# Coordination Sequence:
#
# PCOD9070528 Si02
#       7
#     2   2   2   2   2   2   2
#     4  10  18  30  51  66  91 125 167 200 249 289
#     4  10  18  29  46  69  92 130 159 205 243 290
#     4   9  17  28  42  61  93 127 157 192 245 291
#     4  10  19  34  50  67  91 129 167 207 249 288
#     4   8  13  25  41  61  88 125 148 188 238 301
#     4  11  22  32  45  68  97 130 169 206 241 286
#     4   8  15  24  41  65  92 117 154 191 243 292
#
# _framework density 23.968001999999998
#
# number of rings (size 3 to 8) (size 9 to 14) (size 15 to 20)
#    0.000    2.571    2.857    1.714    2.000    0.571 
#    0.000    0.000    0.000    0.000    0.000    0.000 
#    0.000    2.286    0.286    4.143    0.000    0.000 
#
# Total GULP energy -78114.253791 kJ/mol
# GULP energy per Si atom -5579.589557 kJ/mol
# Density = 2.391345 g / cm^3
# Si number density = 23.968002 Si / 1000 Ang^3
#
#
#
# Elastic Constant Matrix: (Units=GPa)
#
#
# Indices 1 2 3 4 5 6 
#
# 1 123.9949 54.4617 57.0898 -23.8148 -25.0250 -26.2174
# 2 54.4617 150.1108 69.0538 -41.4311 -12.9481 -25.5359
# 3 57.0898 69.0538 183.3269 -65.4841 -28.5146 -4.6407
# 4 -23.8148 -41.4311 -65.4841 64.0703 -1.5098 -4.8373
# 5 -25.0250 -12.9481 -28.5146 -1.5098 35.2609 -1.6295
# 6 -26.2174 -25.5359 -4.6407 -4.8373 -1.6295 38.1123
#
#
#
# Elastic Compliance Matrix: (Units=1/GPa)
#
#
# Indices 1 2 3 4 5 6 
#
# 1 0.013633 -0.000860 -0.000299 0.005180 0.009794 0.009841
# 2 -0.000860 0.010636 -0.000731 0.006449 0.003323 0.007407
# 3 -0.000299 -0.000731 0.011489 0.011576 0.009425 0.002576
# 4 0.005180 0.006449 0.011576 0.035043 0.017575 0.014493
# 5 0.009794 0.003323 0.009425 0.017575 0.045566 0.014291
# 6 0.009841 0.007407 0.002576 0.014493 0.014291 0.040735
#
#
# Mechanical properties :
#
#
# Convention : Reuss Voigt Hill
#
# Bulk Modulus (GPa) = 31.27032 90.96034 61.11533
# Shear Modulus (GPa) = 29.14766 45.94384 37.54575
#
# Velocity S-wave (km/s) = 3.49106 4.38297 3.96219
# Velocity P-wave (km/s) = 5.41525 7.97791 6.81807
#
# Compressibility (1/GPa) = 0.03197920
#
# Stress axis : x y z
#
# Youngs Moduli (GPa) = 73.35410 94.01604 87.04015
#
# Poissons Ratio (x) = 0.08086 0.02600
# Poissons Ratio (y) = 0.06309 0.06360
# Poissons Ratio (z) = 0.02191 0.06869
#
# Static dielectric constant tensor:
#      x y z
#    x 1.839650 -0.006250 0.049190 
#    y -0.006250 2.026400 0.011200 
#    z 0.049190 0.011200 1.991550 
# 
# From -- ./inp_files/32116.got.cif
#   From: 2010.05.17/outbox.cif.g08.bks.cpg/sg2_17_cif.got.tgz:32116.got - 2010.06.03 11:33:40.
