data_PCOD9071131
_publ_section_title
;
Structure prediction by ZEFSAII (Michael W. Deem and Ramdas Pophale) SiO2 
 PCOD9071131
Probable space group: P -1
;
_chemical_formula_sum "Si O2"
_cell_formula_units_Z 14
_cell_length_a 11.904100
_cell_length_b 8.253515
_cell_length_c 6.895524
_cell_angle_alpha 106.228756
_cell_angle_beta 69.730004
_cell_angle_gamma 66.567421
_cell_volume 510.021460
_symmetry_space_group_name_H-M "P -1"
_symmetry_group_IT_number 2
_symmetry_cell_setting 'triclinic'
loop_
_space_group_symop_operation_xyz
x,y,z
-x,-y,-z
loop_
_atom_site_type_symbol
_atom_site_label
_atom_site_fract_x
_atom_site_fract_y
_atom_site_fract_z
Si Si1 0.380752 0.892661 0.070808
Si Si2 0.915058 0.895430 0.138273
Si Si3 0.056299 0.635705 0.598044
Si Si4 0.600117 0.729911 0.186280
Si Si5 0.391718 0.739118 0.600501
Si Si6 0.761661 0.749457 0.435700
Si Si7 0.176139 0.728161 0.185860
O O1 0.538862 0.804633 0.034405
O O2 0.292781 0.787993 0.140891
O O3 0.286616 0.107817 0.301937
O O4 0.401496 0.858139 0.817090
O O5 0.808526 0.530417 0.409331
O O6 0.881881 0.764820 0.258937
O O7 0.779338 0.127073 0.290039
O O8 0.946252 0.794078 0.874555
O O9 0.100573 0.728363 0.431118
O O10 0.000000 0.500000 0.500000
O O11 0.461631 0.748817 0.366151
O O12 0.734960 0.503697 0.010598
O O13 0.647091 0.821990 0.355789
O O14 0.500000 0.500000 0.500000
O O15 0.056307 0.861174 0.141503
#
# Coordination Sequence:
#
# PCOD9071131 Si02
#       7
#     2   2   2   2   2   2   2
#     4  12  29  51  80 121 166 216 273 334 413 479
#     4  12  27  53  82 117 167 205 277 338 405 476
#     4  12  25  50  85 121 163 215 275 329 411 489
#     4  12  27  52  83 113 169 217 274 332 398 488
#     4  12  29  53  81 120 164 215 273 334 412 486
#     4  12  26  53  78 124 165 217 272 338 404 486
#     4  12  28  51  86 118 164 217 271 341 406 482
#
# _framework density 27.449824
#
# number of rings (size 3 to 8) (size 9 to 14) (size 15 to 20)
#    0.000    0.000    5.714    3.000    2.000    2.857 
#    0.000    0.000    0.000    0.000    0.000    0.000 
#    0.000    0.000    0.000    0.000    0.000    0.000 
#
# Total GULP energy -78475.900415 kJ/mol
# GULP energy per Si atom -5605.421458 kJ/mol
# Density = 2.738735 g / cm^3
# Si number density = 27.449824 Si / 1000 Ang^3
#
#
#
# Elastic Constant Matrix: (Units=GPa)
#
#
# Indices 1 2 3 4 5 6 
#
# 1 111.2222 25.6689 53.6196 -4.1898 27.5391 -20.2093
# 2 25.6689 97.2225 40.2540 10.2272 -6.9753 -24.1286
# 3 53.6196 40.2540 212.7966 5.1999 -5.5436 -6.6491
# 4 -4.1898 10.2272 5.1999 52.8396 -4.8390 -17.3189
# 5 27.5391 -6.9753 -5.5436 -4.8390 65.9353 -7.4363
# 6 -20.2093 -24.1286 -6.6491 -17.3189 -7.4363 54.8618
#
#
#
# Elastic Compliance Matrix: (Units=1/GPa)
#
#
# Indices 1 2 3 4 5 6 
#
# 1 0.012914 -0.001915 -0.002975 0.002383 -0.005266 0.003593
# 2 -0.001915 0.012985 -0.001738 -0.000644 0.002537 0.004936
# 3 -0.002975 -0.001738 0.005793 -0.000742 0.001355 -0.001209
# 4 0.002383 -0.000644 -0.000742 0.021929 0.001342 0.007609
# 5 -0.005266 0.002537 0.001355 0.001342 0.018097 0.002216
# 6 0.003593 0.004936 -0.001209 0.007609 0.002216 0.024278
#
#
# Mechanical properties :
#
#
# Convention : Reuss Voigt Hill
#
# Bulk Modulus (GPa) = 54.23727 73.36962 63.80344
# Shear Modulus (GPa) = 43.32912 54.84059 49.08485
#
# Velocity S-wave (km/s) = 3.97732 4.47458 4.23326
# Velocity P-wave (km/s) = 6.39482 7.31317 6.86936
#
# Compressibility (1/GPa) = 0.01843751
#
# Stress axis : x y z
#
# Youngs Moduli (GPa) = 77.43826 77.00930 172.61203
#
# Poissons Ratio (x) = 0.14744 0.51350
# Poissons Ratio (y) = 0.14826 0.29999
# Poissons Ratio (z) = 0.23037 0.13384
#
# Static dielectric constant tensor:
#      x y z
#    x 2.212910 -0.036810 0.031080 
#    y -0.036810 2.247920 -0.034270 
#    z 0.031080 -0.034270 2.042890 
# 
# From -- ./inp_files/90910.got.cif
#   From: 2010.05.17/outbox.cif.g08.bks.cpg/sg2_46_cif.got.tgz:90910.got - 2010.06.03 11:33:40.
