data_PCOD9071369
_publ_section_title
;
Structure prediction by ZEFSAII (Michael W. Deem and Ramdas Pophale) SiO2 
 PCOD9071369
Probable space group: P -1
;
_chemical_formula_sum "Si O2"
_cell_formula_units_Z 12
_cell_length_a 11.350500
_cell_length_b 13.851837
_cell_length_c 5.263496
_cell_angle_alpha 82.207231
_cell_angle_beta 117.070783
_cell_angle_gamma 140.210828
_cell_volume 437.033773
_symmetry_space_group_name_H-M "P -1"
_symmetry_group_IT_number 2
_symmetry_cell_setting 'triclinic'
loop_
_space_group_symop_operation_xyz
x,y,z
-x,-y,-z
loop_
_atom_site_type_symbol
_atom_site_label
_atom_site_fract_x
_atom_site_fract_y
_atom_site_fract_z
Si Si1 0.080983 0.902100 0.649500
Si Si2 0.448576 0.032152 0.689936
Si Si3 0.145924 0.369697 0.771303
Si Si4 0.314214 0.309433 0.327434
Si Si5 0.501360 0.270048 0.154636
Si Si6 0.835947 0.343762 0.730120
O O1 0.951958 0.717486 0.574266
O O2 0.865242 0.827270 0.583734
O O3 0.223613 0.958855 0.517256
O O4 0.289453 0.079175 0.931412
O O5 0.644447 0.221204 0.792180
O O6 0.500000 0.000000 0.500000
O O7 0.500000 0.000000 0.000000
O O8 0.376643 0.566720 0.926919
O O9 0.962736 0.325835 0.749069
O O10 0.188660 0.291663 0.980114
O O11 0.500000 0.500000 0.500000
O O12 0.422913 0.277713 0.331074
O O13 0.710960 0.324538 0.388571
O O14 0.000000 0.500000 0.000000
#
# Coordination Sequence:
#
# PCOD9071369 Si02
#       6
#     2   2   2   2   2   2
#     4  12  28  48  81 113 163 210 277 336 413 494
#     4  12  26  48  79 116 164 212 270 334 414 489
#     4  12  27  51  81 113 160 215 270 337 417 486
#     4  12  27  54  81 113 163 218 271 340 418 495
#     4  12  28  51  80 122 162 214 278 339 414 493
#     4  12  27  49  80 119 162 208 274 343 411 489
#
# _framework density 27.457832
#
# number of rings (size 3 to 8) (size 9 to 14) (size 15 to 20)
#    0.000    0.000    3.333    5.500    4.667    0.667 
#    0.000    0.000    0.000    0.000    0.000    0.000 
#    0.000    0.000    0.000    0.000    0.000    0.000 
#
# Total GULP energy -66881.682491 kJ/mol
# GULP energy per Si atom -5573.473541 kJ/mol
# Density = 2.739534 g / cm^3
# Si number density = 27.457832 Si / 1000 Ang^3
#
#
#
# Elastic Constant Matrix: (Units=GPa)
#
#
# Indices 1 2 3 4 5 6 
#
# 1 181.8685 28.3462 43.3760 17.5870 -17.0950 25.4916
# 2 28.3462 137.7979 61.0313 37.7700 8.6537 22.4234
# 3 43.3760 61.0313 122.7784 39.2077 -12.2413 -11.9622
# 4 17.5870 37.7700 39.2077 82.9205 -7.4747 2.1522
# 5 -17.0950 8.6537 -12.2413 -7.4747 49.7750 10.8644
# 6 25.4916 22.4234 -11.9622 2.1522 10.8644 65.9012
#
#
#
# Elastic Compliance Matrix: (Units=1/GPa)
#
#
# Indices 1 2 3 4 5 6 
#
# 1 0.006824 0.000173 -0.002607 0.000021 0.002456 -0.003577
# 2 0.000173 0.011280 -0.005500 -0.002705 -0.002707 -0.004369
# 3 -0.002607 -0.005500 0.013537 -0.003317 0.001767 0.005154
# 4 0.000021 -0.002705 -0.003317 0.015053 0.002035 -0.000517
# 5 0.002456 -0.002707 0.001767 0.002035 0.022920 -0.003553
# 6 -0.003577 -0.004369 0.005154 -0.000517 -0.003553 0.019583
#
#
# Mechanical properties :
#
#
# Convention : Reuss Voigt Hill
#
# Bulk Modulus (GPa) = 63.39994 78.66132 71.03063
# Shear Modulus (GPa) = 45.32219 60.36540 52.84380
#
# Velocity S-wave (km/s) = 4.06718 4.69388 4.39172
# Velocity P-wave (km/s) = 6.72280 7.62148 7.18620
#
# Compressibility (1/GPa) = 0.01577289
#
# Stress axis : x y z
#
# Youngs Moduli (GPa) = 146.55180 88.65629 73.86953
#
# Poissons Ratio (x) = -0.01535 0.19258
# Poissons Ratio (y) = -0.02538 0.40627
# Poissons Ratio (z) = 0.38206 0.48760
#
# Static dielectric constant tensor:
#      x y z
#    x 2.127780 0.101830 0.162610 
#    y 0.101830 2.508280 0.260160 
#    z 0.162610 0.260160 2.508650 
# 
# From -- ./inp_files/76198.got.cif
#   From: 2010.05.17/outbox.cif.g08.bks.cpg/sg2_39_cif.got.tgz:76198.got - 2010.06.03 11:33:40.
