data_PCOD9071190
_publ_section_title
;
Structure prediction by ZEFSAII (Michael W. Deem and Ramdas Pophale) SiO2 
 PCOD9071190
Probable space group: P -1
;
_chemical_formula_sum "Si O2"
_cell_formula_units_Z 14
_cell_length_a 4.985847
_cell_length_b 15.022611
_cell_length_c 9.166466
_cell_angle_alpha 52.222307
_cell_angle_beta 93.786333
_cell_angle_gamma 100.562901
_cell_volume 532.520128
_symmetry_space_group_name_H-M "P -1"
_symmetry_group_IT_number 2
_symmetry_cell_setting 'triclinic'
loop_
_space_group_symop_operation_xyz
x,y,z
-x,-y,-z
loop_
_atom_site_type_symbol
_atom_site_label
_atom_site_fract_x
_atom_site_fract_y
_atom_site_fract_z
Si Si1 0.686354 0.337912 0.343798
Si Si2 0.333712 0.086006 0.991512
Si Si3 0.753360 0.827505 0.631913
Si Si4 0.665625 0.551385 0.315038
Si Si5 0.726515 0.096041 0.585853
Si Si6 0.338002 0.693829 0.950084
Si Si7 0.898249 0.234297 0.864942
O O1 0.359967 0.287871 0.354087
O O2 0.754412 0.449579 0.327916
O O3 0.775899 0.224545 0.529592
O O4 0.781565 0.355623 0.160306
O O5 0.059842 0.138503 0.904177
O O6 0.572372 0.198497 0.870537
O O7 0.500000 0.000000 0.000000
O O8 0.245102 0.008799 0.208590
O O9 0.583315 0.917013 0.464148
O O10 0.593977 0.790496 0.812181
O O11 0.062712 0.879926 0.563593
O O12 0.500000 0.500000 0.500000
O O13 0.922064 0.643711 0.287711
O O14 0.467752 0.606892 0.142407
O O15 0.117065 0.749372 0.974567
#
# Coordination Sequence:
#
# PCOD9071190 Si02
#       7
#     2   2   2   2   2   2   2
#     4   8  23  40  74 105 148 196 236 291 376 432
#     4  12  27  48  76 101 151 204 241 304 371 449
#     4   8  20  39  71 103 144 180 240 290 357 432
#     4  12  26  45  74 109 152 190 247 310 363 448
#     4   9  20  42  69 107 132 188 252 290 349 437
#     4   9  23  46  71 108 152 191 242 300 373 442
#     4  12  27  47  73 109 146 189 254 302 374 425
#
# _framework density 26.290085999999999
#
# number of rings (size 3 to 8) (size 9 to 14) (size 15 to 20)
#    1.714    0.000    1.429    1.714    6.000    3.429 
#    0.000   10.000    0.000    0.000    0.000    0.000 
#    0.000    0.000    0.000    0.000    0.000    0.000 
#
# Total GULP energy -78023.112194 kJ/mol
# GULP energy per Si atom -5573.079442 kJ/mol
# Density = 2.623025 g / cm^3
# Si number density = 26.290086 Si / 1000 Ang^3
#
#
#
# Elastic Constant Matrix: (Units=GPa)
#
#
# Indices 1 2 3 4 5 6 
#
# 1 121.1720 11.4488 30.9441 -7.1580 -13.9423 -11.5848
# 2 11.4488 123.2111 14.1448 -14.5721 0.4435 -12.7536
# 3 30.9441 14.1448 134.9432 9.8281 -14.0668 8.7776
# 4 -7.1580 -14.5721 9.8281 35.8805 -8.4407 -8.9356
# 5 -13.9423 0.4435 -14.0668 -8.4407 53.5648 1.7998
# 6 -11.5848 -12.7536 8.7776 -8.9356 1.7998 25.7177
#
#
#
# Elastic Compliance Matrix: (Units=1/GPa)
#
#
# Indices 1 2 3 4 5 6 
#
# 1 0.010394 0.000932 -0.003178 0.005938 0.002526 0.008115
# 2 0.000932 0.010030 -0.002306 0.007132 0.000388 0.008631
# 3 -0.003178 -0.002306 0.009429 -0.005886 0.001006 -0.007909
# 4 0.005938 0.007132 -0.005886 0.040309 0.005559 0.021837
# 5 0.002526 0.000388 0.001006 0.005559 0.020413 0.001490
# 6 0.008115 0.008631 -0.007909 0.021837 0.001490 0.057002
#
#
# Mechanical properties :
#
#
# Convention : Reuss Voigt Hill
#
# Bulk Modulus (GPa) = 48.19391 54.71130 51.45260
# Shear Modulus (GPa) = 30.56306 44.55184 37.55745
#
# Velocity S-wave (km/s) = 3.41329 4.12105 3.78375
# Velocity P-wave (km/s) = 5.82284 6.59544 6.22115
#
# Compressibility (1/GPa) = 0.02074951
#
# Stress axis : x y z
#
# Youngs Moduli (GPa) = 96.21363 99.70396 106.05617
#
# Poissons Ratio (x) = -0.09295 0.33706
# Poissons Ratio (y) = -0.08970 0.24451
# Poissons Ratio (z) = 0.30578 0.22987
#
# Static dielectric constant tensor:
#      x y z
#    x 2.084280 0.056800 0.042900 
#    y 0.056800 2.257070 0.043920 
#    z 0.042900 0.043920 2.027450 
# 
# From -- ./inp_files/366701.got.cif
#   From: 2010.05.17/outbox.cif.g08.bks.cpg/sg2_184_cif.got.tgz:366701.got - 2010.06.03 11:33:40.
