data_PCOD9071242
_publ_section_title
;
Structure prediction by ZEFSAII (Michael W. Deem and Ramdas Pophale) SiO2 
 PCOD9071242
Probable space group: P -1
;
_chemical_formula_sum "Si O2"
_cell_formula_units_Z 16
_cell_length_a 11.673587
_cell_length_b 9.004684
_cell_length_c 17.402733
_cell_angle_alpha 51.009196
_cell_angle_beta 151.048243
_cell_angle_gamma 126.391134
_cell_volume 683.818832
_symmetry_space_group_name_H-M "P -1"
_symmetry_group_IT_number 2
_symmetry_cell_setting 'triclinic'
loop_
_space_group_symop_operation_xyz
x,y,z
-x,-y,-z
loop_
_atom_site_type_symbol
_atom_site_label
_atom_site_fract_x
_atom_site_fract_y
_atom_site_fract_z
Si Si1 0.975749 0.883130 0.603965
Si Si2 0.336974 0.827004 0.630438
Si Si3 0.912671 0.285098 0.041235
Si Si4 0.275617 0.470080 0.820408
Si Si5 0.557744 0.784340 0.614779
Si Si6 0.777382 0.115545 0.855737
Si Si7 0.588192 0.203690 0.017990
Si Si8 0.788645 0.445169 0.630233
O O1 0.809567 0.677405 0.574460
O O2 0.232501 0.825603 0.797646
O O3 0.870581 0.035703 0.549420
O O4 0.000000 0.000000 0.500000
O O5 0.253104 0.657370 0.695255
O O6 0.447471 0.735205 0.650395
O O7 0.546005 0.972605 0.744023
O O8 0.750969 0.303009 0.014308
O O9 0.159656 0.202161 0.229041
O O10 0.786583 0.168239 0.933946
O O11 0.000000 0.500000 0.000000
O O12 0.032961 0.409853 0.741959
O O13 0.500000 0.500000 0.000000
O O14 0.359815 0.307159 0.868948
O O15 0.429525 0.640564 0.523478
O O16 0.500000 0.000000 0.500000
O O17 0.782729 0.314678 0.745821
O O18 0.000000 0.000000 0.000000
O O19 0.500000 0.000000 0.000000
#
# Coordination Sequence:
#
# PCOD9071242 Si02
#       8
#     2   2   2   2   2   2   2   2
#     4  12  27  49  71 115 152 198 251 310 379 453
#     4  12  26  46  77 108 152 193 257 309 381 454
#     4  12  28  49  71 109 153 190 251 308 376 442
#     4  12  26  50  78 109 150 199 253 309 381 457
#     4  12  26  48  73 111 148 198 248 316 374 452
#     4  12  26  46  80 108 144 202 255 307 377 454
#     4  12  30  48  78 112 154 198 252 319 378 446
#     4  12  27  48  81 110 152 202 254 311 387 448
#
# _framework density 23.398011
#
# number of rings (size 3 to 8) (size 9 to 14) (size 15 to 20)
#    0.000    0.000    5.000    3.000   10.500    2.000 
#    0.000    0.000    0.000    0.000    0.000    0.000 
#    0.000    0.000    0.000    0.000    0.000    0.000 
#
# Total GULP energy -89647.442643 kJ/mol
# GULP energy per Si atom -5602.965165 kJ/mol
# Density = 2.334476 g / cm^3
# Si number density = 23.398011 Si / 1000 Ang^3
#
#
#
# Elastic Constant Matrix: (Units=GPa)
#
#
# Indices 1 2 3 4 5 6 
#
# 1 89.4258 -9.5337 26.5294 -10.4803 4.5422 3.0892
# 2 -9.5337 107.4612 27.3360 -18.0399 -9.4637 -1.3873
# 3 26.5294 27.3360 81.2405 -7.5108 -1.3621 -2.1055
# 4 -10.4803 -18.0399 -7.5108 42.0177 -7.9524 4.9020
# 5 4.5422 -9.4637 -1.3621 -7.9524 48.6337 -6.2632
# 6 3.0892 -1.3873 -2.1055 4.9020 -6.2632 42.6467
#
#
#
# Elastic Compliance Matrix: (Units=1/GPa)
#
#
# Indices 1 2 3 4 5 6 
#
# 1 0.013587 0.003127 -0.005175 0.003927 -0.000375 -0.001644
# 2 0.003127 0.011911 -0.004467 0.005658 0.002787 -0.000301
# 3 -0.005175 -0.004467 0.015481 -0.000548 0.000096 0.001071
# 4 0.003927 0.005658 -0.000548 0.028369 0.005016 -0.002652
# 5 -0.000375 0.002787 0.000096 0.005016 0.022326 0.002825
# 6 -0.001644 -0.000301 0.001071 -0.002652 0.002825 0.024330
#
#
# Mechanical properties :
#
#
# Convention : Reuss Voigt Hill
#
# Bulk Modulus (GPa) = 35.77967 40.75453 38.26710
# Shear Modulus (GPa) = 36.14029 42.24601 39.19315
#
# Velocity S-wave (km/s) = 3.93439 4.25377 4.09719
# Velocity P-wave (km/s) = 5.99701 6.44840 6.22680
#
# Compressibility (1/GPa) = 0.02794883
#
# Stress axis : x y z
#
# Youngs Moduli (GPa) = 73.59905 83.95808 64.59648
#
# Poissons Ratio (x) = -0.26252 0.33428
# Poissons Ratio (y) = -0.23013 0.28854
# Poissons Ratio (z) = 0.38087 0.37503
#
# Static dielectric constant tensor:
#      x y z
#    x 1.947460 -0.037870 -0.013710 
#    y -0.037870 1.842230 0.011390 
#    z -0.013710 0.011390 1.900240 
# 
# From -- ./inp_files/566596.got.cif
#   From: 2010.05.17/outbox.cif.g08.bks.cpg/sg2_284_cif.got.tgz:566596.got - 2010.06.03 11:33:40.
