data_PCOD9071437
_publ_section_title
;
Structure prediction by ZEFSAII (Michael W. Deem and Ramdas Pophale) SiO2 
 PCOD9071437
Probable space group: P -1
;
_chemical_formula_sum "Si O2"
_cell_formula_units_Z 11
_cell_length_a 8.470947
_cell_length_b 12.604901
_cell_length_c 9.181835
_cell_angle_alpha 47.785955
_cell_angle_beta 144.777056
_cell_angle_gamma 128.410002
_cell_volume 412.737532
_symmetry_space_group_name_H-M "P -1"
_symmetry_group_IT_number 2
_symmetry_cell_setting 'triclinic'
loop_
_space_group_symop_operation_xyz
x,y,z
-x,-y,-z
loop_
_atom_site_type_symbol
_atom_site_label
_atom_site_fract_x
_atom_site_fract_y
_atom_site_fract_z
Si Si1 0.486713 0.828521 0.153855
Si Si2 0.828534 0.059261 0.682904
Si Si3 0.000000 0.500000 0.000000
Si Si4 0.516376 0.567562 0.792414
Si Si5 0.862688 0.648709 0.456276
Si Si6 0.134928 0.178978 0.274266
O O1 0.616764 0.746973 0.197842
O O2 0.666054 0.812828 0.445650
O O3 0.157638 0.762959 0.979714
O O4 0.500000 0.000000 0.000000
O O5 0.902625 0.233147 0.553368
O O6 0.500000 0.000000 0.500000
O O7 0.927896 0.985520 0.679182
O O8 0.000000 0.000000 0.000000
O O9 0.275144 0.472849 0.137964
O O10 0.084731 0.406148 0.293114
O O11 0.227139 0.499715 0.562981
O O12 0.666808 0.732130 0.777310
O O13 0.500000 0.500000 0.000000
#
# Coordination Sequence:
#
# PCOD9071437 Si02
#       6
#     2   2   1   2   2   2
#     4  12  26  49  83 121 159 215 279 353 425 500
#     4  12  29  52  80 121 168 224 287 359 431 511
#     4  12  28  54  82 124 174 224 290 344 438 514
#     4  12  29  51  81 120 170 224 283 351 430 514
#     4  12  29  51  87 119 175 225 284 359 437 514
#     4  12  27  48  79 119 163 212 285 348 420 508
#
# _framework density 26.651319000000001
#
# number of rings (size 3 to 8) (size 9 to 14) (size 15 to 20)
#    0.000    0.000    3.636    4.364    7.636    0.727 
#    0.000    0.000    0.000    0.000    0.000    0.000 
#    0.000    0.000    0.000    0.000    0.000    0.000 
#
# Total GULP energy -61319.908148 kJ/mol
# GULP energy per Si atom -5574.537104 kJ/mol
# Density = 2.659066 g / cm^3
# Si number density = 26.651319 Si / 1000 Ang^3
#
#
#
# Elastic Constant Matrix: (Units=GPa)
#
#
# Indices 1 2 3 4 5 6 
#
# 1 120.8803 11.9855 54.7546 9.7316 22.5683 39.7896
# 2 11.9855 130.7459 40.4316 14.8799 4.6520 42.9879
# 3 54.7546 40.4316 166.8058 12.9410 -6.9440 24.3208
# 4 9.7316 14.8799 12.9410 54.1299 3.1783 -5.6989
# 5 22.5683 4.6520 -6.9440 3.1783 62.3379 -6.6819
# 6 39.7896 42.9879 24.3208 -5.6989 -6.6819 46.7276
#
#
#
# Elastic Compliance Matrix: (Units=1/GPa)
#
#
# Indices 1 2 3 4 5 6 
#
# 1 0.021405 0.009859 -0.005375 -0.007441 -0.011606 -0.027066
# 2 0.009859 0.016897 -0.003532 -0.007675 -0.007415 -0.024098
# 3 -0.005375 -0.003532 0.008146 0.000215 0.003548 0.004120
# 4 -0.007441 -0.007675 0.000215 0.023400 0.003887 0.016695
# 5 -0.011606 -0.007415 0.003548 0.003887 0.022989 0.018619
# 6 -0.027066 -0.024098 0.004120 0.016695 0.018619 0.069172
#
#
# Mechanical properties :
#
#
# Convention : Reuss Voigt Hill
#
# Bulk Modulus (GPa) = 20.68160 70.30837 45.49498
# Shear Modulus (GPa) = 28.37315 53.38978 40.88146
#
# Velocity S-wave (km/s) = 3.26637 4.48065 3.92080
# Velocity P-wave (km/s) = 4.69068 7.29427 6.13224
#
# Compressibility (1/GPa) = 0.04835216
#
# Stress axis : x y z
#
# Youngs Moduli (GPa) = 46.71774 59.18081 122.76284
#
# Poissons Ratio (x) = -0.58346 0.65991
# Poissons Ratio (y) = -0.46059 0.43355
# Poissons Ratio (z) = 0.25113 0.20900
#
# Static dielectric constant tensor:
#      x y z
#    x 2.177920 -0.113300 0.146480 
#    y -0.113300 2.226960 0.028540 
#    z 0.146480 0.028540 2.247810 
# 
# From -- ./inp_files/200029.got.cif
#   From: 2010.05.17/outbox.cif.g08.bks.cpg/sg2_101_cif.got.tgz:200029.got - 2010.06.03 11:33:40.
