data_PCOD9071873
_publ_section_title
;
Structure prediction by ZEFSAII (Michael W. Deem and Ramdas Pophale) SiO2 
 PCOD9071873
Probable space group: P -1
;
_chemical_formula_sum "Si O2"
_cell_formula_units_Z 12
_cell_length_a 5.107070
_cell_length_b 15.988230
_cell_length_c 12.363856
_cell_angle_alpha 143.267732
_cell_angle_beta 66.545800
_cell_angle_gamma 123.488310
_cell_volume 501.576267
_symmetry_space_group_name_H-M "P -1"
_symmetry_group_IT_number 2
_symmetry_cell_setting 'triclinic'
loop_
_space_group_symop_operation_xyz
x,y,z
-x,-y,-z
loop_
_atom_site_type_symbol
_atom_site_label
_atom_site_fract_x
_atom_site_fract_y
_atom_site_fract_z
Si Si1 0.942656 0.141351 0.029480
Si Si2 0.710222 0.440363 0.831976
Si Si3 0.718530 0.616467 0.339183
Si Si4 0.755212 0.167527 0.654434
Si Si5 0.015803 0.170817 0.290025
Si Si6 0.555453 0.126436 0.874333
O O1 0.963840 0.208474 0.214933
O O2 0.732530 0.167825 0.001368
O O3 0.295151 0.193608 0.980694
O O4 0.832894 0.954765 0.869143
O O5 0.088585 0.488376 0.821556
O O6 0.615032 0.448180 0.731360
O O7 0.615843 0.275732 0.733575
O O8 0.500000 0.500000 0.000000
O O9 0.912786 0.773356 0.399014
O O10 0.781862 0.683108 0.518565
O O11 0.785720 0.179562 0.790543
O O12 0.500000 0.000000 0.500000
O O13 0.669376 0.060320 0.281673
#
# Coordination Sequence:
#
# PCOD9071873 Si02
#       6
#     2   2   2   2   2   2
#     4   9  20  28  48  68 118 143 168 210 264 320
#     4  10  23  40  53  78 110 146 182 216 268 326
#     4  10  22  32  60  76 109 138 184 218 268 314
#     4  10  21  33  54  85 111 136 173 224 273 322
#     4   9  19  31  48  76 109 140 179 208 268 308
#     4  10  18  30  45  73 110 140 170 206 270 313
#
# _framework density 23.924579000000001
#
# number of rings (size 3 to 8) (size 9 to 14) (size 15 to 20)
#    2.000    0.333    1.667    1.000    7.000    0.667 
#    0.000    0.000    0.000    0.000    0.000    7.000 
#    0.000    0.000    0.000    0.000    0.000    0.000 
#
# Total GULP energy -66871.254022 kJ/mol
# GULP energy per Si atom -5572.604502 kJ/mol
# Density = 2.387013 g / cm^3
# Si number density = 23.924579 Si / 1000 Ang^3
#
#
#
# Elastic Constant Matrix: (Units=GPa)
#
#
# Indices 1 2 3 4 5 6 
#
# 1 96.9557 4.5337 -0.7242 -2.0920 21.5240 -13.5520
# 2 4.5337 25.2940 10.4518 -7.2134 6.0413 -1.9293
# 3 -0.7242 10.4518 74.3269 -18.7435 16.3801 -20.5044
# 4 -2.0920 -7.2134 -18.7435 39.1458 -14.5762 2.9516
# 5 21.5240 6.0413 16.3801 -14.5762 31.2128 -9.5224
# 6 -13.5520 -1.9293 -20.5044 2.9516 -9.5224 26.6162
#
#
#
# Elastic Compliance Matrix: (Units=1/GPa)
#
#
# Indices 1 2 3 4 5 6 
#
# 1 0.013472 -0.001689 0.003818 -0.001942 -0.009941 0.006337
# 2 -0.001689 0.043851 -0.005245 0.004410 -0.003576 -0.003490
# 3 0.003818 -0.005245 0.021184 0.006325 -0.005095 0.015359
# 4 -0.001942 0.004410 0.006325 0.034436 0.015003 0.005752
# 5 -0.009941 -0.003576 -0.005095 0.015003 0.051565 0.007539
# 6 0.006337 -0.003490 0.015359 0.005752 0.007539 0.054436
#
#
# Mechanical properties :
#
#
# Convention : Reuss Voigt Hill
#
# Bulk Modulus (GPa) = 13.83620 25.01103 19.42361
# Shear Modulus (GPa) = 20.05876 31.54931 25.80404
#
# Velocity S-wave (km/s) = 2.89868 3.63533 3.28770
# Velocity P-wave (km/s) = 4.12298 5.30072 4.74850
#
# Compressibility (1/GPa) = 0.07227418
#
# Stress axis : x y z
#
# Youngs Moduli (GPa) = 74.22711 22.80466 47.20578
#
# Poissons Ratio (x) = 0.03851 -0.18022
# Poissons Ratio (y) = 0.12534 0.24762
# Poissons Ratio (z) = -0.28339 0.11962
#
# Static dielectric constant tensor:
#      x y z
#    x 1.862750 0.080840 0.008250 
#    y 0.080840 1.955870 0.039960 
#    z 0.008250 0.039960 2.013480 
# 
# From -- ./inp_files/123946.got.cif
#   From: 2010.05.17/outbox.cif.g08.bks.cpg/sg2_62_cif.got.tgz:123946.got - 2010.06.03 11:33:40.
