data_PCOD9071162
_publ_section_title
;
Structure prediction by ZEFSAII (Michael W. Deem and Ramdas Pophale) SiO2 
 PCOD9071162
Probable space group: P -1
;
_chemical_formula_sum "Si O2"
_cell_formula_units_Z 13
_cell_length_a 10.433752
_cell_length_b 7.736784
_cell_length_c 8.658608
_cell_angle_alpha 112.136988
_cell_angle_beta 79.336018
_cell_angle_gamma 58.190487
_cell_volume 480.411895
_symmetry_space_group_name_H-M "P -1"
_symmetry_group_IT_number 2
_symmetry_cell_setting 'triclinic'
loop_
_space_group_symop_operation_xyz
x,y,z
-x,-y,-z
loop_
_atom_site_type_symbol
_atom_site_label
_atom_site_fract_x
_atom_site_fract_y
_atom_site_fract_z
Si Si1 0.500000 0.000000 0.000000
Si Si2 0.806604 0.542712 0.074572
Si Si3 0.140750 0.833839 0.279333
Si Si4 0.885979 0.246326 0.256515
Si Si5 0.586983 0.165996 0.643348
Si Si6 0.795309 0.659978 0.597806
Si Si7 0.685892 0.054447 0.236058
O O1 0.697571 0.807091 0.823541
O O2 0.442797 0.894569 0.849246
O O3 0.890347 0.373510 0.150084
O O4 0.599358 0.697992 0.196405
O O5 0.815519 0.756744 0.134241
O O6 0.854107 0.379931 0.857611
O O7 0.321996 0.742154 0.267203
O O8 0.000000 0.000000 0.500000
O O9 0.069224 0.020802 0.213835
O O10 0.783090 0.457659 0.480532
O O11 0.785601 0.150476 0.210851
O O12 0.707837 0.877489 0.564060
O O13 0.589735 0.176382 0.462474
O O14 0.000000 0.500000 0.500000
#
# Coordination Sequence:
#
# PCOD9071162 Si02
#       7
#     1   2   2   2   2   2   2
#     4  12  30  50  82 128 158 228 286 340 434 500
#     4  12  28  50  81 114 165 217 273 343 411 510
#     4  12  28  51  79 123 162 213 279 342 424 500
#     4  12  28  51  85 122 165 220 274 344 429 497
#     4  12  25  55  80 118 164 219 270 345 427 498
#     4  12  27  52  87 121 175 220 277 353 422 508
#     4  12  28  51  81 120 162 214 286 337 422 504
#
# _framework density 27.060112
#
# number of rings (size 3 to 8) (size 9 to 14) (size 15 to 20)
#    0.000    0.000    6.154    2.308    4.308    5.538 
#    0.000    0.000    0.000    0.000    0.000    0.000 
#    0.000    0.000    0.000    0.000    0.000    0.000 
#
# Total GULP energy -72804.490426 kJ/mol
# GULP energy per Si atom -5600.345417 kJ/mol
# Density = 2.699852 g / cm^3
# Si number density = 27.060112 Si / 1000 Ang^3
#
#
#
# Elastic Constant Matrix: (Units=GPa)
#
#
# Indices 1 2 3 4 5 6 
#
# 1 168.6551 56.6312 69.2541 -9.2736 19.0862 -4.8857
# 2 56.6312 102.5087 15.3689 1.6638 -1.9686 -2.4652
# 3 69.2541 15.3689 206.6915 10.3201 -2.9317 -3.0469
# 4 -9.2736 1.6638 10.3201 20.1969 -7.5725 7.5684
# 5 19.0862 -1.9686 -2.9317 -7.5725 58.4655 2.7260
# 6 -4.8857 -2.4652 -3.0469 7.5684 2.7260 49.4750
#
#
#
# Elastic Compliance Matrix: (Units=1/GPa)
#
#
# Indices 1 2 3 4 5 6 
#
# 1 0.009447 -0.004896 -0.003111 0.005386 -0.002699 -0.000178
# 2 -0.004896 0.012423 0.000917 -0.003374 0.001597 0.000620
# 3 -0.003111 0.000917 0.006065 -0.004628 0.000715 0.000780
# 4 0.005386 -0.003374 -0.004628 0.060511 0.006177 -0.009518
# 5 -0.002699 0.001597 0.000715 0.006177 0.018974 -0.002133
# 6 -0.000178 0.000620 0.000780 -0.009518 -0.002133 0.021847
#
#
# Mechanical properties :
#
#
# Convention : Reuss Voigt Hill
#
# Bulk Modulus (GPa) = 72.70236 84.48486 78.59361
# Shear Modulus (GPa) = 33.77612 48.06753 40.92183
#
# Velocity S-wave (km/s) = 3.53680 4.21922 3.89299
# Velocity P-wave (km/s) = 6.60333 7.41786 7.02242
#
# Compressibility (1/GPa) = 0.01375471
#
# Stress axis : x y z
#
# Youngs Moduli (GPa) = 105.85065 80.49552 164.87867
#
# Poissons Ratio (x) = 0.39413 0.51296
# Poissons Ratio (y) = 0.51827 -0.15120
# Poissons Ratio (z) = 0.32932 -0.07382
#
# Static dielectric constant tensor:
#      x y z
#    x 2.095450 0.008960 -0.029290 
#    y 0.008960 1.798320 0.390110 
#    z -0.029290 0.390110 1.654280 
# 
# From -- ./inp_files/240984.got.cif
#   From: 2010.05.17/outbox.cif.g08.bks.cpg/sg2_121_cif.got.tgz:240984.got - 2010.06.03 11:33:40.
