data_PCOD9071836
_publ_section_title
;
Structure prediction by ZEFSAII (Michael W. Deem and Ramdas Pophale) SiO2 
 PCOD9071836
Probable space group: P -1
;
_chemical_formula_sum "Si O2"
_cell_formula_units_Z 16
_cell_length_a 11.600097
_cell_length_b 9.008935
_cell_length_c 14.026576
_cell_angle_alpha 71.499586
_cell_angle_beta 43.990862
_cell_angle_gamma 84.763525
_cell_volume 944.353119
_symmetry_space_group_name_H-M "P -1"
_symmetry_group_IT_number 2
_symmetry_cell_setting 'triclinic'
loop_
_space_group_symop_operation_xyz
x,y,z
-x,-y,-z
loop_
_atom_site_type_symbol
_atom_site_label
_atom_site_fract_x
_atom_site_fract_y
_atom_site_fract_z
Si Si1 0.155015 0.564230 0.324822
Si Si2 0.812814 0.537857 0.877754
Si Si3 0.902424 0.224069 0.845040
Si Si4 0.782930 0.870747 0.063136
Si Si5 0.531221 0.592271 0.164837
Si Si6 0.282658 0.285689 0.674577
Si Si7 0.956222 0.329573 0.115945
Si Si8 0.606124 0.386011 0.337800
O O1 0.154608 0.446180 0.257734
O O2 0.136498 0.728477 0.249375
O O3 0.335456 0.586479 0.264010
O O4 0.000000 0.500000 0.500000
O O5 0.827349 0.353930 0.924461
O O6 0.954306 0.643313 0.839209
O O7 0.632801 0.566336 0.014078
O O8 0.104266 0.261888 0.732088
O O9 0.823911 0.047425 0.961658
O O10 0.632691 0.757654 0.116545
O O11 0.732337 0.849402 0.207985
O O12 0.950087 0.793575 0.967805
O O13 0.556636 0.457623 0.253173
O O14 0.440218 0.293302 0.509248
O O15 0.316234 0.456641 0.675809
O O16 0.754661 0.289765 0.254245
O O17 0.000000 0.500000 0.000000
#
# Coordination Sequence:
#
# PCOD9071836 Si02
#       8
#     2   2   2   2   2   2   2   2
#     4  10  21  35  57  79 100 135 181 223 255 300
#     4   9  19  32  56  75 102 131 180 213 255 298
#     4  10  20  34  53  77 105 141 168 220 265 312
#     4  10  21  32  55  76 110 135 174 212 267 317
#     4  10  19  34  53  80  98 135 181 217 249 305
#     4  10  18  31  50  80 106 135 173 216 259 310
#     4  11  16  34  54  81 101 140 175 214 253 315
#     4  10  18  29  54  78 107 132 176 221 253 297
#
# _framework density 16.942815
#
# number of rings (size 3 to 8) (size 9 to 14) (size 15 to 20)
#    0.750    1.250    5.000    1.500    0.000    1.500 
#    0.000    0.625    2.750    3.000    0.000    0.000 
#    0.000    0.000    0.000    0.000    0.000    0.000 
#
# Total GULP energy -89153.089932 kJ/mol
# GULP energy per Si atom -5572.068121 kJ/mol
# Density = 1.690425 g / cm^3
# Si number density = 16.942815 Si / 1000 Ang^3
#
#
#
# Elastic Constant Matrix: (Units=GPa)
#
#
# Indices 1 2 3 4 5 6 
#
# 1 100.3238 11.9137 58.3647 2.5309 -19.3939 -8.4747
# 2 11.9137 31.9356 31.0870 -8.7470 -2.8583 -10.4646
# 3 58.3647 31.0870 127.7342 7.9753 -12.3917 -7.8432
# 4 2.5309 -8.7470 7.9753 20.0286 -2.1272 5.4044
# 5 -19.3939 -2.8583 -12.3917 -2.1272 30.1271 5.1982
# 6 -8.4747 -10.4646 -7.8432 5.4044 5.1982 14.3878
#
#
#
# Elastic Compliance Matrix: (Units=1/GPa)
#
#
# Indices 1 2 3 4 5 6 
#
# 1 0.015283 0.004001 -0.007147 0.002048 0.006582 0.004869
# 2 0.004001 0.063201 -0.017146 0.025626 -0.001851 0.030021
# 3 -0.007147 -0.017146 0.015792 -0.011889 0.000054 -0.003625
# 4 0.002048 0.025626 -0.011889 0.070455 0.006499 -0.015450
# 5 0.006582 -0.001851 0.000054 0.006499 0.040222 -0.014413
# 6 0.004869 0.030021 -0.003625 -0.015450 -0.014413 0.103240
#
#
# Mechanical properties :
#
#
# Convention : Reuss Voigt Hill
#
# Bulk Modulus (GPa) = 18.62463 51.41381 35.01922
# Shear Modulus (GPa) = 13.63611 23.48392 18.56002
#
# Velocity S-wave (km/s) = 2.84003 3.72703 3.31335
# Velocity P-wave (km/s) = 4.66593 6.99517 5.94573
#
# Compressibility (1/GPa) = 0.05369235
#
# Stress axis : x y z
#
# Youngs Moduli (GPa) = 65.43407 15.82258 63.32231
#
# Poissons Ratio (x) = -0.06331 0.45257
# Poissons Ratio (y) = -0.26182 1.08571
# Poissons Ratio (z) = 0.46766 0.27129
#
# Static dielectric constant tensor:
#      x y z
#    x 1.585650 0.008950 0.008570 
#    y 0.008950 1.570250 0.014010 
#    z 0.008570 0.014010 1.568050 
# 
# From -- ./inp_files/344634.got.cif
#   From: 2010.05.17/outbox.cif.g08.bks.cpg/sg2_173_cif.got.tgz:344634.got - 2010.06.03 11:33:40.
