data_PCOD9071508
_publ_section_title
;
Structure prediction by ZEFSAII (Michael W. Deem and Ramdas Pophale) SiO2 
 PCOD9071508
Probable space group: P -1
;
_chemical_formula_sum "Si O2"
_cell_formula_units_Z 14
_cell_length_a 7.809694
_cell_length_b 26.768130
_cell_length_c 5.090120
_cell_angle_alpha 115.596597
_cell_angle_beta 117.369836
_cell_angle_gamma 35.553328
_cell_volume 545.988860
_symmetry_space_group_name_H-M "P -1"
_symmetry_group_IT_number 2
_symmetry_cell_setting 'triclinic'
loop_
_space_group_symop_operation_xyz
x,y,z
-x,-y,-z
loop_
_atom_site_type_symbol
_atom_site_label
_atom_site_fract_x
_atom_site_fract_y
_atom_site_fract_z
Si Si1 0.262281 0.981061 0.251621
Si Si2 0.226151 0.315263 0.118571
Si Si3 0.912047 0.280061 0.925516
Si Si4 0.662754 0.490169 0.343038
Si Si5 0.900133 0.165759 0.362397
Si Si6 0.685142 0.590553 0.872119
Si Si7 0.667268 0.876683 0.801739
O O1 0.449028 0.917816 0.489638
O O2 0.480053 0.939768 0.060847
O O3 0.099827 0.074004 0.422620
O O4 0.000000 0.000000 0.000000
O O5 0.556015 0.223837 0.230191
O O6 0.289109 0.350379 0.037115
O O7 0.009183 0.394071 0.353816
O O8 0.032832 0.303687 0.887789
O O9 0.899450 0.225260 0.637801
O O10 0.595597 0.358898 0.022871
O O11 0.162277 0.215401 0.182834
O O12 0.500000 0.500000 0.500000
O O13 0.640202 0.561377 0.518192
O O14 0.500000 0.500000 0.000000
O O15 0.065701 0.141678 0.148074
O O16 0.000000 0.500000 0.000000
#
# Coordination Sequence:
#
# PCOD9071508 Si02
#       7
#     2   2   2   2   2   2   2
#     4  12  28  52  84 121 162 223 278 337 423 504
#     4  12  28  50  83 121 167 218 282 341 427 495
#     4  12  28  53  82 122 170 219 277 355 415 499
#     4  12  27  51  84 117 163 221 276 345 417 494
#     4  12  28  50  83 122 167 217 281 344 421 499
#     4  12  27  54  84 124 168 227 289 349 428 511
#     4  12  26  53  80 116 168 211 274 347 408 496
#
# _framework density 25.641549000000001
#
# number of rings (size 3 to 8) (size 9 to 14) (size 15 to 20)
#    0.000    0.000    4.286    4.286    4.000    0.000 
#    7.714    0.000    0.000    0.000    0.000    0.000 
#    0.000    0.000    0.000    0.000    0.000    0.000 
#
# Total GULP energy -78526.194260 kJ/mol
# GULP energy per Si atom -5609.013876 kJ/mol
# Density = 2.558319 g / cm^3
# Si number density = 25.641549 Si / 1000 Ang^3
#
#
#
# Elastic Constant Matrix: (Units=GPa)
#
#
# Indices 1 2 3 4 5 6 
#
# 1 152.3835 61.7001 57.8992 -8.6566 24.7096 -22.9928
# 2 61.7001 170.8745 62.2597 -0.8097 -2.6822 -36.7975
# 3 57.8992 62.2597 157.4982 1.4512 3.3591 -12.6204
# 4 -8.6566 -0.8097 1.4512 42.3686 8.2209 0.4726
# 5 24.7096 -2.6822 3.3591 8.2209 39.6715 2.1319
# 6 -22.9928 -36.7975 -12.6204 0.4726 2.1319 55.5787
#
#
#
# Elastic Compliance Matrix: (Units=1/GPa)
#
#
# Indices 1 2 3 4 5 6 
#
# 1 0.010171 -0.002356 -0.002501 0.003476 -0.007127 0.002323
# 2 -0.002356 0.008386 -0.002167 -0.000709 0.002149 0.004009
# 3 -0.002501 -0.002167 0.008060 -0.001010 0.000974 -0.000668
# 4 0.003476 -0.000709 -0.001010 0.025782 -0.007513 0.000808
# 5 -0.007127 0.002149 0.000974 -0.007513 0.031398 -0.002445
# 6 0.002323 0.004009 -0.000668 0.000808 -0.002445 0.021543
#
#
# Mechanical properties :
#
#
# Convention : Reuss Voigt Hill
#
# Bulk Modulus (GPa) = 79.56485 93.83047 86.69766
# Shear Modulus (GPa) = 40.45992 47.45025 43.95508
#
# Velocity S-wave (km/s) = 3.97659 4.30644 4.14480
# Velocity P-wave (km/s) = 7.22367 7.83580 7.53595
#
# Compressibility (1/GPa) = 0.01256836
#
# Stress axis : x y z
#
# Youngs Moduli (GPa) = 98.32314 119.24152 124.06228
#
# Poissons Ratio (x) = 0.28094 0.31032
# Poissons Ratio (y) = 0.23166 0.26885
# Poissons Ratio (z) = 0.24594 0.25840
#
# Static dielectric constant tensor:
#      x y z
#    x 1.973160 -0.023870 0.023770 
#    y -0.023870 1.873200 -0.029470 
#    z 0.023770 -0.029470 2.033130 
# 
# From -- ./inp_files/56757.got.cif
#   From: 2010.05.17/outbox.cif.g08.bks.cpg/sg2_29_cif.got.tgz:56757.got - 2010.06.03 11:33:40.
