data_PCOD9071998
_publ_section_title
;
Structure prediction by ZEFSAII (Michael W. Deem and Ramdas Pophale) SiO2 
 PCOD9071998
Probable space group: P -1
;
_chemical_formula_sum "Si O2"
_cell_formula_units_Z 13
_cell_length_a 6.922843
_cell_length_b 11.578509
_cell_length_c 18.802485
_cell_angle_alpha 17.618189
_cell_angle_beta 74.398846
_cell_angle_gamma 77.636801
_cell_volume 434.730549
_symmetry_space_group_name_H-M "P -1"
_symmetry_group_IT_number 2
_symmetry_cell_setting 'triclinic'
loop_
_space_group_symop_operation_xyz
x,y,z
-x,-y,-z
loop_
_atom_site_type_symbol
_atom_site_label
_atom_site_fract_x
_atom_site_fract_y
_atom_site_fract_z
Si Si1 0.209880 0.516286 0.432548
Si Si2 0.597220 0.623087 0.058429
Si Si3 0.802197 0.554984 0.939678
Si Si4 0.764971 0.402550 0.397902
Si Si5 0.592864 0.444009 0.745793
Si Si6 0.019017 0.562085 0.777397
Si Si7 0.500000 0.500000 0.500000
O O1 0.213673 0.502303 0.356276
O O2 0.356928 0.232116 0.612532
O O3 0.000000 0.500000 0.500000
O O4 0.353807 0.898713 0.228824
O O5 0.621281 0.484338 0.057852
O O6 0.409872 0.502289 0.201396
O O7 0.783206 0.495119 0.160531
O O8 0.845547 0.415742 0.937294
O O9 0.819934 0.009128 0.654356
O O10 0.000000 0.500000 0.000000
O O11 0.571349 0.322619 0.410158
O O12 0.688241 0.601242 0.358292
O O13 0.932230 0.609507 0.203693
O O14 0.500000 0.000000 0.000000
O O15 0.000000 0.000000 0.500000
#
# Coordination Sequence:
#
# PCOD9071998 Si02
#       7
#     2   2   2   2   2   2   1
#     4  10  19  31  50  77 108 141 172 210 265 317
#     4   9  15  28  47  72 104 133 173 215 258 311
#     4   9  15  24  43  74  99 125 177 220 246 306
#     4   9  15  26  43  70 100 129 166 213 254 306
#     4   8  16  28  45  67  97 138 165 204 259 308
#     4   8  15  25  43  73 103 129 176 221 252 301
#     4  10  18  30  50  76 104 140 170 210 260 320
#
# _framework density 29.903580999999999
#
# number of rings (size 3 to 8) (size 9 to 14) (size 15 to 20)
#    0.000    3.077    1.538    0.000    0.000    0.000 
#    0.000    0.000    0.000   33.231    0.000   79.692 
#    0.000    0.000    0.000    0.000    0.000    0.000 
#
# Total GULP energy -72440.111250 kJ/mol
# GULP energy per Si atom -5572.316250 kJ/mol
# Density = 2.983552 g / cm^3
# Si number density = 29.903581 Si / 1000 Ang^3
#
#
#
# Elastic Constant Matrix: (Units=GPa)
#
#
# Indices 1 2 3 4 5 6 
#
# 1 98.1122 76.5217 58.1180 25.2661 24.3087 3.0138
# 2 76.5217 307.4590 109.5062 125.3877 -17.6270 -34.4057
# 3 58.1180 109.5062 176.9147 32.5076 6.0657 -7.7764
# 4 25.2661 125.3877 32.5076 110.6441 -10.0749 1.8359
# 5 24.3087 -17.6270 6.0657 -10.0749 62.0951 23.6381
# 6 3.0138 -34.4057 -7.7764 1.8359 23.6381 51.0542
#
#
#
# Elastic Compliance Matrix: (Units=1/GPa)
#
#
# Indices 1 2 3 4 5 6 
#
# 1 0.016469 -0.003939 -0.002964 0.000977 -0.006739 -0.000993
# 2 -0.003939 0.009886 -0.002806 -0.009534 0.000586 0.006539
# 3 -0.002964 -0.002806 0.008062 0.001500 0.000032 -0.000557
# 4 0.000977 -0.009534 0.001500 0.019605 0.003150 -0.008418
# 5 -0.006739 0.000586 0.000032 0.003150 0.023255 -0.010083
# 6 -0.000993 0.006539 -0.000557 -0.008418 -0.010083 0.028938
#
#
# Mechanical properties :
#
#
# Convention : Reuss Voigt Hill
#
# Bulk Modulus (GPa) = 66.67292 118.97531 92.82412
# Shear Modulus (GPa) = 38.27505 67.31469 52.79487
#
# Velocity S-wave (km/s) = 3.58152 4.74968 4.20635
# Velocity P-wave (km/s) = 6.28072 8.36373 7.39592
#
# Compressibility (1/GPa) = 0.01499859
#
# Stress axis : x y z
#
# Youngs Moduli (GPa) = 60.71926 101.15570 124.04265
#
# Poissons Ratio (x) = 0.39846 0.36768
# Poissons Ratio (y) = 0.23918 0.34804
# Poissons Ratio (z) = 0.17998 0.28383
#
# Static dielectric constant tensor:
#      x y z
#    x 2.243900 0.032950 -0.495390 
#    y 0.032950 2.284520 -0.026700 
#    z -0.495390 -0.026700 2.204110 
# 
# From -- ./inp_files/163788.got.cif
#   From: 2010.05.17/outbox.cif.g08.bks.cpg/sg2_82_cif.got.tgz:163788.got - 2010.06.03 11:33:40.
