data_PCOD9071166
_publ_section_title
;
Structure prediction by ZEFSAII (Michael W. Deem and Ramdas Pophale) SiO2 
 PCOD9071166
Probable space group: P -1
;
_chemical_formula_sum "Si O2"
_cell_formula_units_Z 12
_cell_length_a 17.485551
_cell_length_b 5.641909
_cell_length_c 19.750149
_cell_angle_alpha 104.122733
_cell_angle_beta 165.805452
_cell_angle_gamma 73.817417
_cell_volume 455.998082
_symmetry_space_group_name_H-M "P -1"
_symmetry_group_IT_number 2
_symmetry_cell_setting 'triclinic'
loop_
_space_group_symop_operation_xyz
x,y,z
-x,-y,-z
loop_
_atom_site_type_symbol
_atom_site_label
_atom_site_fract_x
_atom_site_fract_y
_atom_site_fract_z
Si Si1 0.152126 0.850488 0.482828
Si Si2 0.656028 0.402231 0.245384
Si Si3 0.253684 0.674246 0.347715
Si Si4 0.731537 0.470339 0.949553
Si Si5 0.529063 0.900883 0.115703
Si Si6 0.752911 0.978500 0.847157
O O1 0.087971 0.671905 0.478852
O O2 0.446832 0.677340 0.688926
O O3 0.316877 0.053120 0.676363
O O4 0.844922 0.996991 0.194000
O O5 0.353383 0.504661 0.041358
O O6 0.648031 0.606623 0.195435
O O7 0.640623 0.126307 0.183769
O O8 0.500000 0.500000 0.500000
O O9 0.431011 0.894429 0.539844
O O10 0.083183 0.528680 0.246548
O O11 0.956679 0.766115 0.051563
O O12 0.704304 0.219699 0.869889
O O13 0.000000 0.000000 0.000000
#
# Coordination Sequence:
#
# PCOD9071166 Si02
#       6
#     2   2   2   2   2   2
#     4   8  21  33  48  69  85 100 115 135 148 164
#     4   8  21  34  49  71  87 102 118 134 151 164
#     4  12  26  43  56  71  86  99 118 131 150 166
#     4   9  24  41  53  75  84 103 116 137 149 170
#     4   9  18  33  50  66  90 104 118 132 152 166
#     4  12  26  42  60  68  85 102 114 134 149 166
#
# _framework density 26.315899999999999
#
# number of rings (size 3 to 8) (size 9 to 14) (size 15 to 20)
#    2.000    0.000    1.667    1.000    7.000    5.333 
#    0.000    0.000    0.000    0.000    0.000    0.000 
#    0.000    0.000    0.000    0.000    0.000    0.000 
#
# Total GULP energy -66914.830471 kJ/mol
# GULP energy per Si atom -5576.235873 kJ/mol
# Density = 2.625600 g / cm^3
# Si number density = 26.315900 Si / 1000 Ang^3
#
#
#
# Elastic Constant Matrix: (Units=GPa)
#
#
# Indices 1 2 3 4 5 6 
#
# 1 115.3232 46.5150 45.1242 14.5217 39.9543 -0.8658
# 2 46.5150 144.7438 21.2044 -14.5227 7.6365 5.0497
# 3 45.1242 21.2044 125.9763 -15.0823 10.6881 3.2877
# 4 14.5217 -14.5227 -15.0823 41.4995 -1.8440 -8.6873
# 5 39.9543 7.6365 10.6881 -1.8440 42.9944 -1.4564
# 6 -0.8658 5.0497 3.2877 -8.6873 -1.4564 42.3162
#
#
#
# Elastic Compliance Matrix: (Units=1/GPa)
#
#
# Indices 1 2 3 4 5 6 
#
# 1 0.021878 -0.006375 -0.006798 -0.013511 -0.018144 -0.001662
# 2 -0.006375 0.009175 0.001098 0.006047 0.004284 0.000078
# 3 -0.006798 0.001098 0.010683 0.006907 0.003778 0.000448
# 4 -0.013511 0.006047 0.006907 0.035237 0.011483 0.006094
# 5 -0.018144 0.004284 0.003778 0.011483 0.038998 0.002523
# 6 -0.001662 0.000078 0.000448 0.006094 0.002523 0.024891
#
#
# Mechanical properties :
#
#
# Convention : Reuss Voigt Hill
#
# Bulk Modulus (GPa) = 56.86957 67.97006 62.41981
# Shear Modulus (GPa) = 29.26110 43.57532 36.41821
#
# Velocity S-wave (km/s) = 3.33816 4.07363 3.72410
# Velocity P-wave (km/s) = 6.04276 6.92897 6.50098
#
# Compressibility (1/GPa) = 0.01758410
#
# Stress axis : x y z
#
# Youngs Moduli (GPa) = 45.70822 108.99575 93.60586
#
# Poissons Ratio (x) = 0.69487 0.63637
# Poissons Ratio (y) = 0.29140 -0.10276
# Poissons Ratio (z) = 0.31074 -0.11965
#
# Static dielectric constant tensor:
#      x y z
#    x 2.283570 0.057400 0.082100 
#    y 0.057400 2.167920 0.091610 
#    z 0.082100 0.091610 2.105080 
# 
# From -- ./inp_files/620874.got.cif
#   From: 2010.05.17/outbox.cif.g08.bks.cpg/sg2_311_cif.got.tgz:620874.got - 2010.06.03 11:33:40.
