data_PCOD9071976
_publ_section_title
;
Structure prediction by ZEFSAII (Michael W. Deem and Ramdas Pophale) SiO2 
 PCOD9071976
Probable space group: P -1
;
_chemical_formula_sum "Si O2"
_cell_formula_units_Z 16
_cell_length_a 9.657040
_cell_length_b 9.554212
_cell_length_c 12.531123
_cell_angle_alpha 133.298874
_cell_angle_beta 56.879751
_cell_angle_gamma 129.796804
_cell_volume 634.463139
_symmetry_space_group_name_H-M "P -1"
_symmetry_group_IT_number 2
_symmetry_cell_setting 'triclinic'
loop_
_space_group_symop_operation_xyz
x,y,z
-x,-y,-z
loop_
_atom_site_type_symbol
_atom_site_label
_atom_site_fract_x
_atom_site_fract_y
_atom_site_fract_z
Si Si1 0.533692 0.107052 0.212862
Si Si2 0.648810 0.801977 0.864372
Si Si3 0.063593 0.972155 0.840569
Si Si4 0.961682 0.245618 0.451420
Si Si5 0.670284 0.570600 0.094942
Si Si6 0.922008 0.781033 0.290650
Si Si7 0.293047 0.465621 0.554018
Si Si8 0.752621 0.256284 0.748786
O O1 0.705936 0.318003 0.287238
O O2 0.585418 0.946035 0.041075
O O3 0.419281 0.975316 0.293427
O O4 0.420108 0.180154 0.215420
O O5 0.531544 0.564324 0.839291
O O6 0.867351 0.922624 0.841118
O O7 0.092722 0.785653 0.666750
O O8 0.250920 0.187399 0.854754
O O9 0.000000 0.000000 0.000000
O O10 0.177514 0.398188 0.459390
O O11 0.846211 0.307684 0.620139
O O12 0.925045 0.005992 0.377392
O O13 0.699600 0.433995 0.915360
O O14 0.810250 0.610693 0.156954
O O15 0.816468 0.719130 0.413879
O O16 0.109713 0.769731 0.235386
O O17 0.500000 0.500000 0.500000
#
# Coordination Sequence:
#
# PCOD9071976 Si02
#       8
#     2   2   2   2   2   2   2   2
#     4  10  19  32  57  93 125 149 177 232 286 361
#     4  10  21  37  59  92 119 149 199 231 281 353
#     4  11  25  44  63  79 108 157 209 255 286 334
#     4  10  22  35  52  81 116 152 194 237 288 347
#     4  10  21  36  61  82 114 153 192 244 290 334
#     4  10  18  30  49  82 118 157 180 213 284 358
#     4  11  18  27  50  82 123 153 174 219 287 349
#     4  10  19  33  54  84 122 152 184 227 292 361
#
# _framework density 25.218170000000001
#
# number of rings (size 3 to 8) (size 9 to 14) (size 15 to 20)
#    0.000    1.750    1.250    5.625    3.500    0.500 
#    0.000    0.625    0.000    1.500    0.000    0.000 
#    0.000    0.000    0.000    0.000    0.000    0.000 
#
# Total GULP energy -89295.437935 kJ/mol
# GULP energy per Si atom -5580.964871 kJ/mol
# Density = 2.516077 g / cm^3
# Si number density = 25.218170 Si / 1000 Ang^3
#
#
#
# Elastic Constant Matrix: (Units=GPa)
#
#
# Indices 1 2 3 4 5 6 
#
# 1 52.7278 27.8799 14.0497 1.3310 8.2739 -3.2410
# 2 27.8799 123.5985 24.7922 2.1166 -0.5075 9.9202
# 3 14.0497 24.7922 152.3611 3.2923 26.8093 -1.8436
# 4 1.3310 2.1166 3.2923 41.8170 8.8290 1.5165
# 5 8.2739 -0.5075 26.8093 8.8290 26.5451 -9.1387
# 6 -3.2410 9.9202 -1.8436 1.5165 -9.1387 15.6590
#
#
#
# Elastic Compliance Matrix: (Units=1/GPa)
#
#
# Indices 1 2 3 4 5 6 
#
# 1 0.023160 -0.005621 -0.000187 0.000563 -0.005599 0.005010
# 2 -0.005621 0.010227 -0.001389 -0.000156 0.000901 -0.007265
# 3 -0.000187 -0.001389 0.008632 0.001875 -0.010929 -0.004702
# 4 0.000563 -0.000156 0.001875 0.027299 -0.014906 -0.010907
# 5 -0.005599 0.000901 -0.010929 -0.014906 0.068689 0.038514
# 6 0.005010 -0.007265 -0.004702 -0.010907 0.038514 0.092480
#
#
# Mechanical properties :
#
#
# Convention : Reuss Voigt Hill
#
# Bulk Modulus (GPa) = 36.20039 51.34788 43.77413
# Shear Modulus (GPa) = 19.67813 34.26860 26.97336
#
# Velocity S-wave (km/s) = 2.79644 3.69031 3.27402
# Velocity P-wave (km/s) = 4.98125 6.20995 5.62922
#
# Compressibility (1/GPa) = 0.02762401
#
# Stress axis : x y z
#
# Youngs Moduli (GPa) = 43.17808 97.78284 115.84555
#
# Poissons Ratio (x) = 0.54967 0.02169
# Poissons Ratio (y) = 0.24272 0.16089
# Poissons Ratio (z) = 0.00808 0.13580
#
# Static dielectric constant tensor:
#      x y z
#    x 2.193910 0.021340 0.083080 
#    y 0.021340 2.037210 0.018960 
#    z 0.083080 0.018960 2.126190 
# 
# From -- ./inp_files/238623.got.cif
#   From: 2010.05.17/outbox.cif.g08.bks.cpg/sg2_120_cif.got.tgz:238623.got - 2010.06.03 11:33:40.
