data_PCOD9071004
_publ_section_title
;
Structure prediction by ZEFSAII (Michael W. Deem and Ramdas Pophale) SiO2 
 PCOD9071004
Probable space group: P -1
;
_chemical_formula_sum "Si O2"
_cell_formula_units_Z 16
_cell_length_a 8.731437
_cell_length_b 13.601858
_cell_length_c 10.572113
_cell_angle_alpha 46.669321
_cell_angle_beta 133.586686
_cell_angle_gamma 121.974597
_cell_volume 657.739957
_symmetry_space_group_name_H-M "P -1"
_symmetry_group_IT_number 2
_symmetry_cell_setting 'triclinic'
loop_
_space_group_symop_operation_xyz
x,y,z
-x,-y,-z
loop_
_atom_site_type_symbol
_atom_site_label
_atom_site_fract_x
_atom_site_fract_y
_atom_site_fract_z
Si Si1 0.148317 0.151631 0.378705
Si Si2 0.375044 0.323881 0.649296
Si Si3 0.223610 0.026945 0.781823
Si Si4 0.834633 0.291628 0.538375
Si Si5 0.202835 0.368024 0.030107
Si Si6 0.310524 0.417016 0.778533
Si Si7 0.259968 0.776426 0.191579
Si Si8 0.064496 0.659149 0.721047
O O1 0.273899 0.075005 0.623055
O O2 0.976153 0.236924 0.280693
O O3 0.274933 0.266645 0.265550
O O4 0.020239 0.038183 0.319138
O O5 0.272163 0.168730 0.754867
O O6 0.457837 0.382954 0.777531
O O7 0.560021 0.318752 0.657999
O O8 0.178352 0.390479 0.417889
O O9 0.313445 0.908501 0.016681
O O10 0.713496 0.424881 0.368784
O O11 0.757463 0.192380 0.696906
O O12 0.079374 0.345194 0.666107
O O13 0.830185 0.263005 0.411441
O O14 0.342632 0.371119 0.980009
O O15 0.967080 0.299914 0.914340
O O16 0.174303 0.520934 0.924718
#
# Coordination Sequence:
#
# PCOD9071004 Si02
#       8
#     2   2   2   2   2   2   2   2
#     4   9  17  32  50  66  87 123 166 192 214 257
#     4  10  18  29  47  69  97 124 147 182 233 279
#     4   9  19  32  45  65  93 124 160 195 216 252
#     4   8  15  28  45  69  96 116 143 187 233 274
#     4   9  17  30  50  73  94 116 147 190 233 273
#     4   8  15  28  45  69  96 116 143 187 233 274
#     4  10  18  29  47  69  97 124 147 182 233 279
#     4   9  17  30  50  73  94 116 147 190 233 273
#
# _framework density 24.325721999999999
#
# number of rings (size 3 to 8) (size 9 to 14) (size 15 to 20)
#    0.000    3.000    0.000    3.000    0.000    2.000 
#    0.000   16.875    0.000    7.500    0.000   15.750 
#    0.000    0.000    0.000    0.000    0.000    0.000 
#
# Total GULP energy -89267.379884 kJ/mol
# GULP energy per Si atom -5579.211243 kJ/mol
# Density = 2.427036 g / cm^3
# Si number density = 24.325722 Si / 1000 Ang^3
#
#
#
# Elastic Constant Matrix: (Units=GPa)
#
#
# Indices 1 2 3 4 5 6 
#
# 1 59.5922 23.2422 15.4480 4.2905 -20.9955 2.2064
# 2 23.2422 81.7347 14.6760 -3.0116 3.7938 -2.3523
# 3 15.4480 14.6760 126.4419 -2.9872 -28.3361 8.8258
# 4 4.2905 -3.0116 -2.9872 24.9890 3.0588 0.6906
# 5 -20.9955 3.7938 -28.3361 3.0588 29.5395 2.7044
# 6 2.2064 -2.3523 8.8258 0.6906 2.7044 26.4981
#
#
#
# Elastic Compliance Matrix: (Units=1/GPa)
#
#
# Indices 1 2 3 4 5 6 
#
# 1 0.031993 -0.011946 0.004646 -0.009886 0.030498 -0.008127
# 2 -0.011946 0.017533 -0.004433 0.005448 -0.016064 0.005525
# 3 0.004646 -0.004433 0.011837 -0.001699 0.015980 -0.006310
# 4 -0.009886 0.005448 -0.001699 0.043834 -0.014093 0.002168
# 5 0.030498 -0.016064 0.015980 -0.014093 0.075907 -0.016668
# 6 -0.008127 0.005525 -0.006310 0.002168 -0.016668 0.042652
#
#
# Mechanical properties :
#
#
# Convention : Reuss Voigt Hill
#
# Bulk Modulus (GPa) = 26.38584 41.61126 33.99855
# Shear Modulus (GPa) = 19.24170 30.49884 24.87027
#
# Velocity S-wave (km/s) = 2.81553 3.54470 3.20095
# Velocity P-wave (km/s) = 4.63034 5.82205 5.26005
#
# Compressibility (1/GPa) = 0.03789911
#
# Stress axis : x y z
#
# Youngs Moduli (GPa) = 31.25681 57.03591 84.48056
#
# Poissons Ratio (x) = 0.68133 -0.39251
# Poissons Ratio (y) = 0.37338 0.37446
# Poissons Ratio (z) = -0.14523 0.25281
#
# Static dielectric constant tensor:
#      x y z
#    x 1.980170 0.027150 0.001190 
#    y 0.027150 1.949480 0.031110 
#    z 0.001190 0.031110 1.980830 
# 
# From -- ./inp_files/222773.got.cif
#   From: 2010.05.17/outbox.cif.g08.bks.cpg/sg2_112_cif.got.tgz:222773.got - 2010.06.03 11:33:40.
