data_PCOD9071485
_publ_section_title
;
Structure prediction by ZEFSAII (Michael W. Deem and Ramdas Pophale) SiO2 
 PCOD9071485
Probable space group: P -1
;
_chemical_formula_sum "Si O2"
_cell_formula_units_Z 13
_cell_length_a 9.282175
_cell_length_b 9.306616
_cell_length_c 8.714159
_cell_angle_alpha 74.505188
_cell_angle_beta 132.382519
_cell_angle_gamma 84.978143
_cell_volume 496.526090
_symmetry_space_group_name_H-M "P -1"
_symmetry_group_IT_number 2
_symmetry_cell_setting 'triclinic'
loop_
_space_group_symop_operation_xyz
x,y,z
-x,-y,-z
loop_
_atom_site_type_symbol
_atom_site_label
_atom_site_fract_x
_atom_site_fract_y
_atom_site_fract_z
Si Si1 0.973121 0.319059 0.831355
Si Si2 0.943548 0.180208 0.342981
Si Si3 0.678074 0.294777 0.386268
Si Si4 0.561173 0.931419 0.736001
Si Si5 0.000000 0.500000 0.500000
Si Si6 0.659246 0.754483 0.368777
Si Si7 0.346608 0.616951 0.168051
O O1 0.820206 0.245420 0.653843
O O2 0.840328 0.396505 0.863365
O O3 0.990935 0.448264 0.687857
O O4 0.197320 0.185388 0.061814
O O5 0.845309 0.308837 0.376808
O O6 0.148180 0.209935 0.426077
O O7 0.766685 0.237187 0.071494
O O8 0.000000 0.000000 0.500000
O O9 0.588261 0.164971 0.307515
O O10 0.479529 0.456425 0.219699
O O11 0.500000 0.000000 0.500000
O O12 0.516123 0.065685 0.796399
O O13 0.235983 0.340361 0.683610
O O14 0.529400 0.654881 0.378361
#
# Coordination Sequence:
#
# PCOD9071485 Si02
#       7
#     2   2   2   2   1   2   2
#     4  12  29  52  79 116 161 205 270 328 394 483
#     4  12  27  48  79 120 160 204 269 331 396 479
#     4  12  27  49  78 118 158 210 266 329 406 470
#     4  12  30  48  80 118 159 209 265 332 405 468
#     4  12  28  48  82 116 154 212 262 326 400 470
#     4  12  26  51  80 112 160 205 265 323 403 476
#     4  12  29  48  84 112 159 215 265 331 397 477
#
# _framework density 26.181906000000001
#
# number of rings (size 3 to 8) (size 9 to 14) (size 15 to 20)
#    0.000    0.000    4.615    2.769    8.615    3.077 
#    0.000    0.000    0.000    0.000    0.000    0.000 
#    0.000    0.000    0.000    0.000    0.000    0.000 
#
# Total GULP energy -72573.022471 kJ/mol
# GULP energy per Si atom -5582.540190 kJ/mol
# Density = 2.612231 g / cm^3
# Si number density = 26.181906 Si / 1000 Ang^3
#
#
#
# Elastic Constant Matrix: (Units=GPa)
#
#
# Indices 1 2 3 4 5 6 
#
# 1 199.1329 40.4284 56.4144 -27.6290 23.4933 -25.5154
# 2 40.4284 106.5844 24.2006 -29.4990 9.5651 2.2495
# 3 56.4144 24.2006 164.4149 -32.8444 3.3930 -9.9501
# 4 -27.6290 -29.4990 -32.8444 38.1703 -1.1010 10.9320
# 5 23.4933 9.5651 3.3930 -1.1010 44.6159 -5.8785
# 6 -25.5154 2.2495 -9.9501 10.9320 -5.8785 30.3374
#
#
#
# Elastic Compliance Matrix: (Units=1/GPa)
#
#
# Indices 1 2 3 4 5 6 
#
# 1 0.006844 -0.001921 -0.001595 0.000694 -0.002441 0.004652
# 2 -0.001921 0.013555 0.000596 0.011555 -0.002589 -0.007091
# 3 -0.001595 0.000596 0.007725 0.006268 0.000136 -0.001084
# 4 0.000694 0.011555 0.006268 0.045302 -0.004225 -0.015360
# 5 -0.002441 -0.002589 0.000136 -0.004225 0.024732 0.004499
# 6 0.004652 -0.007091 -0.001084 -0.015360 0.004499 0.043453
#
#
# Mechanical properties :
#
#
# Convention : Reuss Voigt Hill
#
# Bulk Modulus (GPa) = 44.87140 79.13543 62.00342
# Shear Modulus (GPa) = 32.28333 45.89730 39.09031
#
# Velocity S-wave (km/s) = 3.51528 4.19145 3.86816
# Velocity P-wave (km/s) = 5.80101 7.32906 6.60935
#
# Compressibility (1/GPa) = 0.02228591
#
# Stress axis : x y z
#
# Youngs Moduli (GPa) = 146.11355 73.77115 129.44247
#
# Poissons Ratio (x) = 0.14171 0.20646
# Poissons Ratio (y) = 0.28067 -0.07720
# Poissons Ratio (z) = 0.23305 -0.04400
#
# Static dielectric constant tensor:
#      x y z
#    x 2.009980 -0.113510 -0.020270 
#    y -0.113510 1.867020 -0.043990 
#    z -0.020270 -0.043990 2.013360 
# 
# From -- ./inp_files/176903.got.cif
#   From: 2010.05.17/outbox.cif.g08.bks.cpg/sg2_89_cif.got.tgz:176903.got - 2010.06.03 11:33:40.
