data_PCOD9071158
_publ_section_title
;
Structure prediction by ZEFSAII (Michael W. Deem and Ramdas Pophale) SiO2 
 PCOD9071158
Probable space group: P -1
;
_chemical_formula_sum "Si O2"
_cell_formula_units_Z 14
_cell_length_a 23.974264
_cell_length_b 8.050383
_cell_length_c 10.849935
_cell_angle_alpha 139.349898
_cell_angle_beta 154.680634
_cell_angle_gamma 38.371034
_cell_volume 545.963351
_symmetry_space_group_name_H-M "P -1"
_symmetry_group_IT_number 2
_symmetry_cell_setting 'triclinic'
loop_
_space_group_symop_operation_xyz
x,y,z
-x,-y,-z
loop_
_atom_site_type_symbol
_atom_site_label
_atom_site_fract_x
_atom_site_fract_y
_atom_site_fract_z
Si Si1 0.726204 0.368566 0.372001
Si Si2 0.646939 0.892573 0.976385
Si Si3 0.444570 0.800363 0.697043
Si Si4 0.601172 0.684633 0.541487
Si Si5 0.827228 0.771786 0.674151
Si Si6 0.032787 0.021996 0.722571
Si Si7 0.107030 0.432589 0.563126
O O1 0.686709 0.545888 0.515423
O O2 0.738558 0.573671 0.406909
O O3 0.878738 0.130508 0.537261
O O4 0.619908 0.204104 0.062002
O O5 0.519860 0.807678 0.721835
O O6 0.705237 0.713398 0.871822
O O7 0.500000 0.000000 0.500000
O O8 0.756499 0.809434 0.258255
O O9 0.471465 0.520894 0.666381
O O10 0.280600 0.938665 0.420237
O O11 0.500000 0.000000 0.000000
O O12 0.928609 0.643380 0.688231
O O13 0.896080 0.797878 0.957036
O O14 0.135044 0.714030 0.773586
O O15 0.000000 0.000000 0.500000
O O16 0.000000 0.500000 0.500000
#
# Coordination Sequence:
#
# PCOD9071158 Si02
#       7
#     2   2   2   2   2   2   2
#     4  12  27  47  78 114 153 206 261 331 394 467
#     4  12  27  49  79 112 162 204 264 325 394 475
#     4  12  25  53  78 115 161 207 262 322 401 468
#     4  12  29  48  80 117 154 209 265 326 392 475
#     4  12  28  48  80 111 161 209 261 331 398 467
#     4  12  28  50  77 113 157 206 265 327 399 470
#     4  12  26  45  74 113 152 208 258 324 391 477
#
# _framework density 25.642745999999999
#
# number of rings (size 3 to 8) (size 9 to 14) (size 15 to 20)
#    0.000    0.000    5.714    2.571    6.000    2.857 
#    0.000    0.000    0.000    0.000    0.000    0.000 
#    0.000    0.000    0.000    0.000    0.000    0.000 
#
# Total GULP energy -78195.082039 kJ/mol
# GULP energy per Si atom -5585.363003 kJ/mol
# Density = 2.558438 g / cm^3
# Si number density = 25.642746 Si / 1000 Ang^3
#
#
#
# Elastic Constant Matrix: (Units=GPa)
#
#
# Indices 1 2 3 4 5 6 
#
# 1 184.5686 69.7774 49.3463 22.2979 -13.9370 -30.7139
# 2 69.7774 153.2882 36.8596 13.0377 -5.1918 15.5630
# 3 49.3463 36.8596 93.5730 17.3102 -27.8068 -8.0865
# 4 22.2979 13.0377 17.3102 33.5834 -13.4108 -3.5327
# 5 -13.9370 -5.1918 -27.8068 -13.4108 36.4219 12.4029
# 6 -30.7139 15.5630 -8.0865 -3.5327 12.4029 60.0908
#
#
#
# Elastic Compliance Matrix: (Units=1/GPa)
#
#
# Indices 1 2 3 4 5 6 
#
# 1 0.008602 -0.003586 -0.002752 -0.003272 -0.002310 0.005240
# 2 -0.003586 0.009157 -0.002089 -0.000732 -0.000418 -0.004442
# 3 -0.002752 -0.002089 0.016417 -0.001556 0.010953 -0.001009
# 4 -0.003272 -0.000732 -0.001556 0.037609 0.011968 -0.001952
# 5 -0.002310 -0.000418 0.010953 0.011968 0.041847 -0.007532
# 6 0.005240 -0.004442 -0.001009 -0.001952 -0.007532 0.021774
#
#
# Mechanical properties :
#
#
# Convention : Reuss Voigt Hill
#
# Bulk Modulus (GPa) = 57.72965 82.59959 70.16462
# Shear Modulus (GPa) = 31.63857 44.38231 38.01044
#
# Velocity S-wave (km/s) = 3.51639 4.16479 3.85425
# Velocity P-wave (km/s) = 6.24889 7.44372 6.87232
#
# Compressibility (1/GPa) = 0.01732212
#
# Stress axis : x y z
#
# Youngs Moduli (GPa) = 116.24703 109.20127 60.91348
#
# Poissons Ratio (x) = 0.39159 0.16765
# Poissons Ratio (y) = 0.41685 0.12725
# Poissons Ratio (z) = 0.31994 0.22812
#
# Static dielectric constant tensor:
#      x y z
#    x 2.098930 0.041920 -0.024820 
#    y 0.041920 2.026510 0.001220 
#    z -0.024820 0.001220 2.053200 
# 
# From -- ./inp_files/343806.got.cif
#   From: 2010.05.17/outbox.cif.g08.bks.cpg/sg2_172_cif.got.tgz:343806.got - 2010.06.03 11:33:40.
