data_PCOD9071063
_publ_section_title
;
Structure prediction by ZEFSAII (Michael W. Deem and Ramdas Pophale) SiO2 
 PCOD9071063
Probable space group: P -1
;
_chemical_formula_sum "Si O2"
_cell_formula_units_Z 13
_cell_length_a 5.365438
_cell_length_b 15.221237
_cell_length_c 8.920751
_cell_angle_alpha 122.850773
_cell_angle_beta 72.589758
_cell_angle_gamma 72.502638
_cell_volume 476.749348
_symmetry_space_group_name_H-M "P -1"
_symmetry_group_IT_number 2
_symmetry_cell_setting 'triclinic'
loop_
_space_group_symop_operation_xyz
x,y,z
-x,-y,-z
loop_
_atom_site_type_symbol
_atom_site_label
_atom_site_fract_x
_atom_site_fract_y
_atom_site_fract_z
Si Si1 0.100895 0.050869 0.393383
Si Si2 0.016950 0.751296 0.175863
Si Si3 0.329633 0.301369 0.040534
Si Si4 0.217789 0.627552 0.583948
Si Si5 0.604612 0.192591 0.347075
Si Si6 0.500000 0.000000 0.000000
Si Si7 0.897044 0.425445 0.764871
O O1 0.140495 0.149781 0.567858
O O2 0.809733 0.123919 0.395448
O O3 0.000000 0.000000 0.500000
O O4 0.392503 0.970369 0.152393
O O5 0.177266 0.615427 0.105227
O O6 0.299980 0.756015 0.059742
O O7 0.763868 0.771453 0.119726
O O8 0.115807 0.340789 0.263924
O O9 0.191638 0.434030 0.099860
O O10 0.500000 0.500000 0.500000
O O11 0.206662 0.755789 0.722528
O O12 0.250327 0.597182 0.374875
O O13 0.274653 0.323012 0.573846
O O14 0.562866 0.098625 0.169357
#
# Coordination Sequence:
#
# PCOD9071063 Si02
#       7
#     2   2   2   2   2   1   2
#     4  12  30  54  82 117 162 217 294 362 419 503
#     4  12  27  51  76 118 166 219 275 349 421 512
#     4  12  28  45  81 125 166 220 269 337 433 518
#     4  12  26  47  80 120 172 219 271 341 425 517
#     4  12  26  53  83 118 167 219 287 354 425 508
#     4  12  28  56  86 114 160 228 286 364 428 480
#     4  12  25  49  78 117 170 217 270 339 423 517
#
# _framework density 27.267994000000002
#
# number of rings (size 3 to 8) (size 9 to 14) (size 15 to 20)
#    0.000    0.000    4.615    3.692    4.308    1.846 
#    0.000    0.000    0.000    0.000    0.000    0.000 
#    0.000    0.000    0.000    0.000    0.000    0.000 
#
# Total GULP energy -72735.843388 kJ/mol
# GULP energy per Si atom -5595.064876 kJ/mol
# Density = 2.720593 g / cm^3
# Si number density = 27.267994 Si / 1000 Ang^3
#
#
#
# Elastic Constant Matrix: (Units=GPa)
#
#
# Indices 1 2 3 4 5 6 
#
# 1 156.7201 57.0800 65.2530 -13.6541 24.4857 13.5392
# 2 57.0800 158.7547 40.5257 -37.8236 3.4018 4.9770
# 3 65.2530 40.5257 161.1084 -25.5996 18.0137 7.3550
# 4 -13.6541 -37.8236 -25.5996 46.7424 13.0111 -4.8125
# 5 24.4857 3.4018 18.0137 13.0111 58.9392 -12.1705
# 6 13.5392 4.9770 7.3550 -4.8125 -12.1705 57.0443
#
#
#
# Elastic Compliance Matrix: (Units=1/GPa)
#
#
# Indices 1 2 3 4 5 6 
#
# 1 0.009068 -0.002480 -0.002592 -0.000100 -0.003287 -0.002311
# 2 -0.002480 0.008798 -0.000068 0.006623 -0.000878 0.000201
# 3 -0.002592 -0.000068 0.008280 0.004367 -0.002542 -0.000621
# 4 -0.000100 0.006623 0.004367 0.031504 -0.008695 -0.000314
# 5 -0.003287 -0.000878 -0.002542 -0.008695 0.022148 0.005176
# 6 -0.002311 0.000201 -0.000621 -0.000314 0.005176 0.019219
#
#
# Mechanical properties :
#
#
# Convention : Reuss Voigt Hill
#
# Bulk Modulus (GPa) = 63.01863 89.14453 76.08158
# Shear Modulus (GPa) = 43.63619 53.46015 48.54817
#
# Velocity S-wave (km/s) = 4.00468 4.43261 4.22407
# Velocity P-wave (km/s) = 6.67415 7.67856 7.19391
#
# Compressibility (1/GPa) = 0.01586832
#
# Stress axis : x y z
#
# Youngs Moduli (GPa) = 110.28379 113.65864 120.77062
#
# Poissons Ratio (x) = 0.28183 0.31301
# Poissons Ratio (y) = 0.27346 0.00815
# Poissons Ratio (z) = 0.28583 0.00767
#
# Static dielectric constant tensor:
#      x y z
#    x 0.992170 -0.341720 -0.285930 
#    y -0.341720 2.059680 0.021790 
#    z -0.285930 0.021790 2.056390 
# 
# From -- ./inp_files/134563.got.cif
#   From: 2010.05.17/outbox.cif.g08.bks.cpg/sg2_68_cif.got.tgz:134563.got - 2010.06.03 11:33:40.
