data_PCOD9071221
_publ_section_title
;
Structure prediction by ZEFSAII (Michael W. Deem and Ramdas Pophale) SiO2 
 PCOD9071221
Probable space group: P -1
;
_chemical_formula_sum "Si O2"
_cell_formula_units_Z 16
_cell_length_a 16.555435
_cell_length_b 9.589313
_cell_length_c 5.912695
_cell_angle_alpha 51.164728
_cell_angle_beta 102.627058
_cell_angle_gamma 95.900403
_cell_volume 712.769315
_symmetry_space_group_name_H-M "P -1"
_symmetry_group_IT_number 2
_symmetry_cell_setting 'triclinic'
loop_
_space_group_symop_operation_xyz
x,y,z
-x,-y,-z
loop_
_atom_site_type_symbol
_atom_site_label
_atom_site_fract_x
_atom_site_fract_y
_atom_site_fract_z
Si Si1 0.779772 0.525166 0.240705
Si Si2 0.700570 0.162408 0.639397
Si Si3 0.575573 0.024771 0.353753
Si Si4 0.204920 0.167999 0.711297
Si Si5 0.333160 0.321679 0.330263
Si Si6 0.420244 0.635201 0.299830
Si Si7 0.043153 0.535184 0.743078
Si Si8 0.985840 0.919400 0.324255
O O1 0.765422 0.315704 0.479146
O O2 0.794342 0.645450 0.343110
O O3 0.863462 0.547308 0.123717
O O4 0.693649 0.608525 0.002482
O O5 0.658786 0.074827 0.486580
O O6 0.624244 0.269544 0.610278
O O7 0.743704 0.999000 0.972357
O O8 0.500000 0.000000 0.500000
O O9 0.593582 0.829548 0.453400
O O10 0.557903 0.195147 0.011634
O O11 0.254240 0.216929 0.469891
O O12 0.110433 0.122951 0.681844
O O13 0.352944 0.502767 0.289526
O O14 0.500000 0.500000 0.500000
O O15 0.000000 0.500000 0.500000
O O16 0.046653 0.746481 0.532610
O O17 0.000000 0.500000 0.000000
O O18 0.000000 0.000000 0.500000
O O19 0.000000 0.000000 0.000000
#
# Coordination Sequence:
#
# PCOD9071221 Si02
#       8
#     2   2   2   2   2   2   2   2
#     4  12  26  46  78 106 148 195 250 316 373 450
#     4  12  26  47  72 110 143 190 256 296 374 452
#     4  12  28  46  72 105 147 193 240 305 375 453
#     4  12  26  47  78 105 150 197 246 316 379 445
#     4  12  26  46  74 107 143 195 247 305 375 448
#     4  12  28  46  72 107 147 190 245 307 369 453
#     4  12  26  48  76 112 153 203 258 312 388 461
#     4  12  28  49  76 114 157 203 260 317 386 463
#
# _framework density 22.447658000000001
#
# number of rings (size 3 to 8) (size 9 to 14) (size 15 to 20)
#    0.000    0.000    6.250    3.000    5.250    4.000 
#    0.000    0.000    0.000    0.000    0.000    0.000 
#    0.000    0.000    0.000    0.000    0.000    0.000 
#
# Total GULP energy -89260.729866 kJ/mol
# GULP energy per Si atom -5578.795617 kJ/mol
# Density = 2.239657 g / cm^3
# Si number density = 22.447658 Si / 1000 Ang^3
#
#
#
# Elastic Constant Matrix: (Units=GPa)
#
#
# Indices 1 2 3 4 5 6 
#
# 1 100.6020 9.5308 23.9810 0.0975 -11.2810 -12.9376
# 2 9.5308 131.7637 23.2853 1.3029 -5.1728 -2.9516
# 3 23.9810 23.2853 125.6801 -15.5599 -10.6619 -2.1689
# 4 0.0975 1.3029 -15.5599 36.7182 -2.5798 7.8376
# 5 -11.2810 -5.1728 -10.6619 -2.5798 47.5429 -1.4943
# 6 -12.9376 -2.9516 -2.1689 7.8376 -1.4943 41.8713
#
#
#
# Elastic Compliance Matrix: (Units=1/GPa)
#
#
# Indices 1 2 3 4 5 6 
#
# 1 0.011169 -0.000267 -0.002018 -0.001508 0.002203 0.003689
# 2 -0.000267 0.007913 -0.001494 -0.001012 0.000427 0.000602
# 3 -0.002018 -0.001494 0.009275 0.004317 0.001642 -0.000998
# 4 -0.001508 -0.001012 0.004317 0.030513 0.001969 -0.005955
# 5 0.002203 0.000427 0.001642 0.001969 0.022116 0.001216
# 6 0.003689 0.000602 -0.000998 -0.005955 0.001216 0.026171
#
#
# Mechanical properties :
#
#
# Convention : Reuss Voigt Hill
#
# Bulk Modulus (GPa) = 48.07808 52.40445 50.24127
# Shear Modulus (GPa) = 41.10200 45.30972 43.20586
#
# Velocity S-wave (km/s) = 4.28368 4.49760 4.39194
# Velocity P-wave (km/s) = 6.77723 7.09698 6.93895
#
# Compressibility (1/GPa) = 0.02079950
#
# Stress axis : x y z
#
# Youngs Moduli (GPa) = 89.53092 126.37605 107.81673
#
# Poissons Ratio (x) = 0.03378 0.21756
# Poissons Ratio (y) = 0.02393 0.16105
# Poissons Ratio (z) = 0.18066 0.18877
#
# Static dielectric constant tensor:
#      x y z
#    x 1.828640 0.015010 -0.009560 
#    y 0.015010 1.933030 -0.044110 
#    z -0.009560 -0.044110 1.894780 
# 
# From -- ./inp_files/47292.got.cif
#   From: 2010.05.17/outbox.cif.g08.bks.cpg/sg2_24_cif.got.tgz:47292.got - 2010.06.03 11:33:40.
