data_PCOD9071088
_publ_section_title
;
Structure prediction by ZEFSAII (Michael W. Deem and Ramdas Pophale) SiO2 
 PCOD9071088
Probable space group: P -1
;
_chemical_formula_sum "Si O2"
_cell_formula_units_Z 13
_cell_length_a 15.923987
_cell_length_b 4.828414
_cell_length_c 14.020906
_cell_angle_alpha 94.868365
_cell_angle_beta 154.034362
_cell_angle_gamma 87.720035
_cell_volume 468.644356
_symmetry_space_group_name_H-M "P -1"
_symmetry_group_IT_number 2
_symmetry_cell_setting 'triclinic'
loop_
_space_group_symop_operation_xyz
x,y,z
-x,-y,-z
loop_
_atom_site_type_symbol
_atom_site_label
_atom_site_fract_x
_atom_site_fract_y
_atom_site_fract_z
Si Si1 0.304544 0.705102 0.438698
Si Si2 0.500000 0.500000 0.500000
Si Si3 0.785546 0.091558 0.290823
Si Si4 0.036045 0.576960 0.814360
Si Si5 0.796739 0.023156 0.846413
Si Si6 0.328982 0.138651 0.632680
Si Si7 0.317419 0.439569 0.935294
O O1 0.417521 0.436763 0.528151
O O2 0.085188 0.630510 0.242639
O O3 0.320829 0.789330 0.343520
O O4 0.387463 0.928906 0.604029
O O5 0.677300 0.732242 0.729503
O O6 0.728192 0.049466 0.339680
O O7 0.662906 0.867665 0.092485
O O8 0.762228 0.390651 0.230649
O O9 0.000000 0.000000 0.500000
O O10 0.864314 0.724525 0.592225
O O11 0.163452 0.435962 0.863113
O O12 0.160073 0.805887 0.009123
O O13 0.000000 0.000000 0.000000
O O14 0.490459 0.382398 0.830311
#
# Coordination Sequence:
#
# PCOD9071088 Si02
#       7
#     2   1   2   2   2   2   2
#     4  12  26  48  75 110 153 202 264 325 391 483
#     4  12  26  46  80 102 152 202 266 318 404 470
#     4  12  26  52  82 112 160 208 261 333 406 473
#     4  12  27  48  79 110 159 208 264 329 401 479
#     4  12  25  50  70 112 150 206 257 329 394 464
#     4  12  27  48  77 115 153 205 267 320 406 478
#     4  12  29  50  79 119 159 206 266 334 399 483
#
# _framework density 27.739584000000001
#
# number of rings (size 3 to 8) (size 9 to 14) (size 15 to 20)
#    0.000    0.000    4.615    4.154    4.308    1.231 
#    2.769    0.000    0.000    0.000    0.000    0.000 
#    0.000    0.000    0.000    0.000    0.000    0.000 
#
# Total GULP energy -72955.067379 kJ/mol
# GULP energy per Si atom -5611.928260 kJ/mol
# Density = 2.767645 g / cm^3
# Si number density = 27.739584 Si / 1000 Ang^3
#
#
#
# Elastic Constant Matrix: (Units=GPa)
#
#
# Indices 1 2 3 4 5 6 
#
# 1 177.5676 45.5016 39.0997 -0.8203 -15.1587 -1.4335
# 2 45.5016 95.3025 25.6781 14.5671 -6.8009 -1.6960
# 3 39.0997 25.6781 157.6415 10.0740 9.0829 2.6018
# 4 -0.8203 14.5671 10.0740 58.4718 -9.8686 3.3106
# 5 -15.1587 -6.8009 9.0829 -9.8686 48.2311 13.4091
# 6 -1.4335 -1.6960 2.6018 3.3106 13.4091 45.4605
#
#
#
# Elastic Compliance Matrix: (Units=1/GPa)
#
#
# Indices 1 2 3 4 5 6 
#
# 1 0.006940 -0.002986 -0.001470 0.001562 0.002543 -0.000672
# 2 -0.002986 0.012722 -0.001167 -0.002992 0.000303 0.000576
# 3 -0.001470 -0.001167 0.007115 -0.001364 -0.002326 0.000288
# 4 0.001562 -0.002992 -0.001364 0.019116 0.005033 -0.002861
# 5 0.002543 0.000303 -0.002326 0.005033 0.025145 -0.007559
# 6 -0.000672 0.000576 0.000288 -0.002861 -0.007559 0.024419
#
#
# Mechanical properties :
#
#
# Convention : Reuss Voigt Hill
#
# Bulk Modulus (GPa) = 64.39528 72.34113 68.36821
# Shear Modulus (GPa) = 44.69070 51.78148 48.23609
#
# Velocity S-wave (km/s) = 4.01818 4.32522 4.17452
# Velocity P-wave (km/s) = 6.69271 7.14693 6.92355
#
# Compressibility (1/GPa) = 0.01552909
#
# Stress axis : x y z
#
# Youngs Moduli (GPa) = 144.10240 78.60127 140.55379
#
# Poissons Ratio (x) = 0.23473 0.20662
# Poissons Ratio (y) = 0.43034 0.16408
# Poissons Ratio (z) = 0.21183 0.09176
#
# Static dielectric constant tensor:
#      x y z
#    x 2.194700 -0.117430 0.065310 
#    y -0.117430 2.458820 -0.238270 
#    z 0.065310 -0.238270 2.241950 
# 
# From -- ./inp_files/133373.got.cif
#   From: 2010.05.17/outbox.cif.g08.bks.cpg/sg2_67_cif.got.tgz:133373.got - 2010.06.03 11:33:40.
