data_PCOD9071843
_publ_section_title
;
Structure prediction by ZEFSAII (Michael W. Deem and Ramdas Pophale) SiO2 
 PCOD9071843
Probable space group: P -1
;
_chemical_formula_sum "Si O2"
_cell_formula_units_Z 14
_cell_length_a 11.814483
_cell_length_b 14.958442
_cell_length_c 18.562599
_cell_angle_alpha 21.542373
_cell_angle_beta 151.070196
_cell_angle_gamma 142.871136
_cell_volume 580.081921
_symmetry_space_group_name_H-M "P -1"
_symmetry_group_IT_number 2
_symmetry_cell_setting 'triclinic'
loop_
_space_group_symop_operation_xyz
x,y,z
-x,-y,-z
loop_
_atom_site_type_symbol
_atom_site_label
_atom_site_fract_x
_atom_site_fract_y
_atom_site_fract_z
Si Si1 0.900166 0.771901 0.219546
Si Si2 0.462200 0.740687 0.712485
Si Si3 0.745176 0.879404 0.490077
Si Si4 0.703261 0.927220 0.838275
Si Si5 0.182788 0.486351 0.027337
Si Si6 0.973118 0.050123 0.623548
Si Si7 0.414210 0.885910 0.926851
O O1 0.693862 0.859278 0.095538
O O2 0.000000 0.500000 0.500000
O O3 0.801433 0.797838 0.062830
O O4 0.103760 0.952663 0.191676
O O5 0.583514 0.750365 0.850492
O O6 0.500000 0.000000 0.500000
O O7 0.182030 0.755621 0.559715
O O8 0.612352 0.541534 0.897614
O O9 0.873151 0.062732 0.476376
O O10 0.938378 0.652894 0.755248
O O11 0.497963 0.862848 0.405800
O O12 0.666837 0.990303 0.287079
O O13 0.105750 0.216408 0.199255
O O14 0.310761 0.622039 0.061187
O O15 0.254807 0.036228 0.785209
#
# Coordination Sequence:
#
# PCOD9071843 Si02
#       7
#     2   2   2   2   2   2   2
#     4  10  22  34  61  81 105 148 192 236 256 316
#     4   9  19  33  57  81 114 148 166 224 286 336
#     4   9  17  31  52  75 109 135 174 231 264 322
#     4   9  20  40  55  83 112 141 188 229 274 314
#     4  10  18  29  54  82 105 143 169 215 289 333
#     4   9  17  29  49  76 108 138 172 220 268 322
#     4  10  19  32  50  82 105 133 185 227 267 317
#
# _framework density 24.134522
#
# number of rings (size 3 to 8) (size 9 to 14) (size 15 to 20)
#    0.000    2.571    0.000    3.429    8.000    0.000 
#    0.000   11.429    0.000   12.857    0.000    0.000 
#    0.000    0.000    0.000    0.000    0.000    0.000 
#
# Total GULP energy -78142.635318 kJ/mol
# GULP energy per Si atom -5581.616808 kJ/mol
# Density = 2.407959 g / cm^3
# Si number density = 24.134522 Si / 1000 Ang^3
#
#
#
# Elastic Constant Matrix: (Units=GPa)
#
#
# Indices 1 2 3 4 5 6 
#
# 1 163.5852 39.8188 74.7140 16.2187 57.0626 28.3205
# 2 39.8188 58.6338 36.4405 9.3879 15.7483 28.8146
# 3 74.7140 36.4405 149.1147 8.8965 34.9183 20.0298
# 4 16.2187 9.3879 8.8965 30.1707 11.6832 11.1408
# 5 57.0626 15.7483 34.9183 11.6832 65.2589 17.1696
# 6 28.3205 28.8146 20.0298 11.1408 17.1696 48.8350
#
#
#
# Elastic Compliance Matrix: (Units=1/GPa)
#
#
# Indices 1 2 3 4 5 6 
#
# 1 0.010788 -0.003295 -0.002883 -0.001122 -0.006765 -0.000496
# 2 -0.003295 0.027907 -0.003736 -0.001641 0.001947 -0.013333
# 3 -0.002883 -0.003736 0.009390 0.000443 -0.001830 0.000568
# 4 -0.001122 -0.001641 0.000443 0.037847 -0.004124 -0.005747
# 5 -0.006765 0.001947 -0.001830 -0.004124 0.023484 -0.003791
# 6 -0.000496 -0.013333 0.000568 -0.005747 -0.003791 0.031043
#
#
# Mechanical properties :
#
#
# Convention : Reuss Voigt Hill
#
# Bulk Modulus (GPa) = 35.38897 74.80892 55.09895
# Shear Modulus (GPa) = 29.46305 43.54363 36.50334
#
# Velocity S-wave (km/s) = 3.49776 4.25220 3.89330
# Velocity P-wave (km/s) = 5.56844 7.42780 6.56429
#
# Compressibility (1/GPa) = 0.02825739
#
# Stress axis : x y z
#
# Youngs Moduli (GPa) = 92.69287 35.83393 106.50017
#
# Poissons Ratio (x) = 0.11806 0.30701
# Poissons Ratio (y) = 0.30540 0.39789
# Poissons Ratio (z) = 0.26721 0.13388
#
# Static dielectric constant tensor:
#      x y z
#    x 2.008560 0.051190 -0.038660 
#    y 0.051190 1.950350 0.017080 
#    z -0.038660 0.017080 1.966830 
# 
# From -- ./inp_files/422972.got.cif
#   From: 2010.05.17/outbox.cif.g08.bks.cpg/sg2_212_cif.got.tgz:422972.got - 2010.06.03 11:33:40.
