data_PCOD9071402
_publ_section_title
;
Structure prediction by ZEFSAII (Michael W. Deem and Ramdas Pophale) SiO2 
 PCOD9071402
Probable space group: P -1
;
_chemical_formula_sum "Si O2"
_cell_formula_units_Z 15
_cell_length_a 5.237481
_cell_length_b 8.306849
_cell_length_c 15.714862
_cell_angle_alpha 113.934608
_cell_angle_beta 91.099578
_cell_angle_gamma 60.905191
_cell_volume 532.312608
_symmetry_space_group_name_H-M "P -1"
_symmetry_group_IT_number 2
_symmetry_cell_setting 'triclinic'
loop_
_space_group_symop_operation_xyz
x,y,z
-x,-y,-z
loop_
_atom_site_type_symbol
_atom_site_label
_atom_site_fract_x
_atom_site_fract_y
_atom_site_fract_z
Si Si1 0.496751 0.821777 0.513727
Si Si2 0.000000 0.500000 0.500000
Si Si3 0.877460 0.111516 0.659117
Si Si4 0.545730 0.194350 0.025731
Si Si5 0.148335 0.695355 0.809147
Si Si6 0.424408 0.535478 0.381512
Si Si7 0.393718 0.937157 0.180181
Si Si8 0.978707 0.611964 0.177310
O O1 0.775970 0.760729 0.567466
O O2 0.142358 0.541959 0.416863
O O3 0.500000 0.000000 0.500000
O O4 0.194075 0.925824 0.590723
O O5 0.353269 0.442198 0.545156
O O6 0.911329 0.306373 0.727835
O O7 0.669953 0.226212 0.598106
O O8 0.741057 0.081835 0.736836
O O9 0.779100 0.189421 0.093387
O O10 0.245300 0.418479 0.088144
O O11 0.636923 0.185506 0.926203
O O12 0.500000 0.000000 0.000000
O O13 0.370116 0.639265 0.719814
O O14 0.203841 0.484597 0.804417
O O15 0.809160 0.829034 0.802804
O O16 0.750833 0.818430 0.168344
#
# Coordination Sequence:
#
# PCOD9071402 Si02
#       8
#     2   1   2   2   2   2   2   2
#     4  12  27  49  79 109 154 196 254 311 378 447
#     4  12  28  46  80 106 152 202 248 308 382 442
#     4  12  27  49  76 114 150 199 249 311 375 447
#     4  12  27  51  76 112 151 200 251 312 375 450
#     4  12  27  51  78 110 154 196 255 311 374 449
#     4  12  26  52  75 113 153 199 252 313 375 453
#     4  12  28  46  80 109 152 199 252 307 381 444
#     4  12  26  49  77 110 155 195 249 314 370 450
#
# _framework density 28.178929
#
# number of rings (size 3 to 8) (size 9 to 14) (size 15 to 20)
#    0.000    0.000    5.333    3.200    1.867    3.200 
#    2.400    0.000    0.000    0.000    0.000    0.000 
#    0.000    0.000    0.000    0.000    0.000    0.000 
#
# Total GULP energy -83878.818265 kJ/mol
# GULP energy per Si atom -5591.921218 kJ/mol
# Density = 2.811479 g / cm^3
# Si number density = 28.178929 Si / 1000 Ang^3
#
#
#
# Elastic Constant Matrix: (Units=GPa)
#
#
# Indices 1 2 3 4 5 6 
#
# 1 120.2410 47.7336 56.3478 13.1702 -2.2433 3.6860
# 2 47.7336 173.6687 45.8788 4.3562 -6.4624 -41.0810
# 3 56.3478 45.8788 221.9799 5.9420 -9.1159 8.8667
# 4 13.1702 4.3562 5.9420 43.8084 5.1753 -10.3291
# 5 -2.2433 -6.4624 -9.1159 5.1753 53.1980 14.6869
# 6 3.6860 -41.0810 8.8667 -10.3291 14.6869 67.8276
#
#
#
# Elastic Compliance Matrix: (Units=1/GPa)
#
#
# Indices 1 2 3 4 5 6 
#
# 1 0.010914 -0.003076 -0.001885 -0.003523 0.000919 -0.002945
# 2 -0.003076 0.008224 -0.001246 0.001783 -0.001126 0.005826
# 3 -0.001885 -0.001246 0.005375 -0.000585 0.001219 -0.001708
# 4 -0.003523 0.001783 -0.000585 0.025748 -0.004246 0.006188
# 5 0.000919 -0.001126 0.001219 -0.004246 0.021002 -0.006085
# 6 -0.002945 0.005826 -0.001708 0.006188 -0.006085 0.020915
#
#
# Mechanical properties :
#
#
# Convention : Reuss Voigt Hill
#
# Bulk Modulus (GPa) = 82.64510 90.64557 86.64533
# Shear Modulus (GPa) = 46.02964 57.36210 51.69587
#
# Velocity S-wave (km/s) = 4.04601 4.51670 4.28782
# Velocity P-wave (km/s) = 7.15677 7.70963 7.43834
#
# Compressibility (1/GPa) = 0.01209993
#
# Stress axis : x y z
#
# Youngs Moduli (GPa) = 91.62161 121.59176 186.05391
#
# Poissons Ratio (x) = 0.37402 0.35073
# Poissons Ratio (y) = 0.28183 0.23176
# Poissons Ratio (z) = 0.17272 0.15146
#
# Static dielectric constant tensor:
#      x y z
#    x 2.326030 -0.184180 0.148550 
#    y -0.184180 2.643210 -0.194280 
#    z 0.148550 -0.194280 2.260660 
# 
# From -- ./inp_files/547377.got.cif
#   From: 2010.05.17/outbox.cif.g08.bks.cpg/sg2_274_cif.got.tgz:547377.got - 2010.06.03 11:33:40.
