data_PCOD9071147
_publ_section_title
;
Structure prediction by ZEFSAII (Michael W. Deem and Ramdas Pophale) SiO2 
 PCOD9071147
Probable space group: P -1
;
_chemical_formula_sum "Si O2"
_cell_formula_units_Z 16
_cell_length_a 16.060364
_cell_length_b 9.337220
_cell_length_c 17.233707
_cell_angle_alpha 40.842361
_cell_angle_beta 140.353451
_cell_angle_gamma 152.333209
_cell_volume 741.012363
_symmetry_space_group_name_H-M "P -1"
_symmetry_group_IT_number 2
_symmetry_cell_setting 'triclinic'
loop_
_space_group_symop_operation_xyz
x,y,z
-x,-y,-z
loop_
_atom_site_type_symbol
_atom_site_label
_atom_site_fract_x
_atom_site_fract_y
_atom_site_fract_z
Si Si1 0.708238 0.411001 0.907750
Si Si2 0.595487 0.334961 0.400925
Si Si3 0.609906 0.279214 0.121393
Si Si4 0.625120 0.658430 0.874061
Si Si5 0.008683 0.256778 0.429167
Si Si6 0.978039 0.606406 0.150243
Si Si7 0.342323 0.008521 0.612315
Si Si8 0.623552 0.654999 0.636408
O O1 0.609727 0.433348 0.895890
O O2 0.765181 0.676762 0.780072
O O3 0.554669 0.069044 0.895523
O O4 0.875418 0.485324 0.041849
O O5 0.509560 0.321963 0.265742
O O6 0.812934 0.535826 0.471074
O O7 0.536513 0.444490 0.378994
O O8 0.500000 0.000000 0.500000
O O9 0.814383 0.487252 0.141126
O O10 0.626268 0.202677 0.251197
O O11 0.575437 0.488879 0.989399
O O12 0.838800 0.014156 0.877639
O O13 0.038794 0.450872 0.296511
O O14 0.000000 0.000000 0.500000
O O15 0.826084 0.110279 0.405152
O O16 0.529686 0.368412 0.627228
O O17 0.302998 0.048110 0.481510
#
# Coordination Sequence:
#
# PCOD9071147 Si02
#       8
#     2   2   2   2   2   2   2   2
#     4   9  17  28  49  75  98 130 174 213 253 295
#     4  11  21  35  52  79 108 137 172 210 266 310
#     4   9  17  28  49  75  99 129 172 219 248 294
#     4  10  18  29  48  70 103 136 166 213 255 302
#     4  11  21  33  54  81 103 136 174 217 255 309
#     4  10  18  29  47  72 103 133 169 211 257 303
#     4   9  18  34  55  80 103 133 178 211 258 305
#     4   9  18  34  56  77 105 138 167 218 259 304
#
# _framework density 21.592084
#
# number of rings (size 3 to 8) (size 9 to 14) (size 15 to 20)
#    0.000    2.250    2.500    3.000    3.500    0.000 
#    0.000    0.625    0.000    3.000    0.000    0.000 
#    0.000    0.000    0.000    0.000    0.000    0.000 
#
# Total GULP energy -89107.151295 kJ/mol
# GULP energy per Si atom -5569.196956 kJ/mol
# Density = 2.154294 g / cm^3
# Si number density = 21.592084 Si / 1000 Ang^3
#
#
#
# Elastic Constant Matrix: (Units=GPa)
#
#
# Indices 1 2 3 4 5 6 
#
# 1 44.6704 10.8388 27.3031 -5.1349 -14.0375 -4.2601
# 2 10.8388 71.4887 52.8663 1.4259 -5.5981 3.0886
# 3 27.3031 52.8663 252.2558 -15.1917 -22.8552 19.3149
# 4 -5.1349 1.4259 -15.1917 35.5561 8.7725 0.7144
# 5 -14.0375 -5.5981 -22.8552 8.7725 23.0346 -9.4072
# 6 -4.2601 3.0886 19.3149 0.7144 -9.4072 -0.6596
#
#
#
# Elastic Compliance Matrix: (Units=1/GPa)
#
#
# Indices 1 2 3 4 5 6 
#
# 1 0.018347 -0.002527 0.001074 0.004923 -0.004169 -0.034100
# 2 -0.002527 0.016928 -0.003361 -0.002383 -0.000302 -0.001100
# 3 0.001074 -0.003361 0.004662 0.000286 0.007470 0.007628
# 4 0.004923 -0.002383 0.000286 0.029060 -0.001412 0.017019
# 5 -0.004169 -0.000302 0.007470 -0.001412 0.021668 -0.066309
# 6 -0.034100 -0.001100 0.007628 0.017019 -0.066309 -0.113489
#
#
# Mechanical properties :
#
#
# Convention : Reuss Voigt Hill
#
# Bulk Modulus (GPa) = 32.99380 61.15904 47.07642
# Shear Modulus (GPa) = -1616.95280 30.07999 -793.43640
#
# Velocity S-wave (km/s) = -27.39506 3.73648 -19.19021
# Velocity P-wave (km/s) = 31.39011 6.85575 21.66031
#
# Compressibility (1/GPa) = 0.03030872
#
# Stress axis : x y z
#
# Youngs Moduli (GPa) = 54.50469 59.07326 214.48570
#
# Poissons Ratio (x) = 0.14928 -0.23025
# Poissons Ratio (y) = 0.13773 0.72086
# Poissons Ratio (z) = -0.05851 0.19854
#
# Static dielectric constant tensor:
#      x y z
#    x 1.800830 0.005210 -0.009440 
#    y 0.005210 1.713510 -0.030640 
#    z -0.009440 -0.030640 1.873510 
# 
# From -- ./inp_files/186113.got.cif
#   From: 2010.05.17/outbox.cif.g08.bks.cpg/sg2_94_cif.got.tgz:186113.got - 2010.06.03 11:33:40.
