data_PCOD9071888
_publ_section_title
;
Structure prediction by ZEFSAII (Michael W. Deem and Ramdas Pophale) SiO2 
 PCOD9071888
Probable space group: P -1
;
_chemical_formula_sum "Si O2"
_cell_formula_units_Z 16
_cell_length_a 16.914421
_cell_length_b 9.608901
_cell_length_c 33.375467
_cell_angle_alpha 33.928864
_cell_angle_beta 161.571216
_cell_angle_gamma 145.554879
_cell_volume 935.296898
_symmetry_space_group_name_H-M "P -1"
_symmetry_group_IT_number 2
_symmetry_cell_setting 'triclinic'
loop_
_space_group_symop_operation_xyz
x,y,z
-x,-y,-z
loop_
_atom_site_type_symbol
_atom_site_label
_atom_site_fract_x
_atom_site_fract_y
_atom_site_fract_z
Si Si1 0.628229 0.796004 0.351359
Si Si2 0.295897 0.540298 0.682801
Si Si3 0.102141 0.152092 0.613602
Si Si4 0.195095 0.608626 0.789013
Si Si5 0.805388 0.745295 0.053139
Si Si6 0.100997 0.612462 0.654456
Si Si7 0.033526 0.707661 0.089929
Si Si8 0.901778 0.664459 0.948131
O O1 0.690061 0.763761 0.341997
O O2 0.331788 0.711734 0.238191
O O3 0.814317 0.652886 0.499555
O O4 0.723537 0.099577 0.331671
O O5 0.206729 0.299887 0.668504
O O6 0.195262 0.474325 0.695157
O O7 0.598624 0.638149 0.804032
O O8 0.148501 0.754850 0.544402
O O9 0.062405 0.850046 0.671268
O O10 0.124621 0.405199 0.838815
O O11 0.135032 0.503014 0.740518
O O12 0.500261 0.720617 0.911991
O O13 0.879855 0.620098 0.077563
O O14 0.948022 0.041011 0.053096
O O15 0.947080 0.581131 0.035697
O O16 0.000000 0.000000 0.000000
O O17 0.000000 0.500000 0.000000
#
# Coordination Sequence:
#
# PCOD9071888 Si02
#       8
#     2   2   2   2   2   2   2   2
#     4   9  16  28  46  70  94 123 163 196 238 278
#     4  10  18  30  51  78  97 121 166 200 238 281
#     4   9  18  32  51  72 100 130 155 199 240 281
#     4  10  19  35  49  68  99 133 164 192 237 289
#     4  10  21  33  50  71  98 131 162 194 239 294
#     4   9  16  28  49  69  92 125 161 202 230 274
#     4  10  18  30  47  69  96 124 157 199 240 281
#     4  11  20  32  52  76  99 122 156 206 247 278
#
# _framework density 17.106867999999999
#
# number of rings (size 3 to 8) (size 9 to 14) (size 15 to 20)
#    0.000    2.250    0.000    7.500    0.000    0.000 
#    0.000    3.750    0.000    4.500    0.000    7.000 
#    0.000    0.000    0.000    0.000    0.000    0.000 
#
# Total GULP energy -89216.475634 kJ/mol
# GULP energy per Si atom -5576.029727 kJ/mol
# Density = 1.706793 g / cm^3
# Si number density = 17.106868 Si / 1000 Ang^3
#
#
#
# Elastic Constant Matrix: (Units=GPa)
#
#
# Indices 1 2 3 4 5 6 
#
# 1 132.6781 44.0839 34.4930 1.5028 -23.5601 -17.6595
# 2 44.0839 37.3298 22.6007 2.7714 -4.7110 -6.7051
# 3 34.4930 22.6007 64.4619 9.1506 -1.1567 2.0974
# 4 1.5028 2.7714 9.1506 16.0367 3.5666 -1.6513
# 5 -23.5601 -4.7110 -1.1567 3.5666 34.1550 -1.1260
# 6 -17.6595 -6.7051 2.0974 -1.6513 -1.1260 29.1445
#
#
#
# Elastic Compliance Matrix: (Units=1/GPa)
#
#
# Indices 1 2 3 4 5 6 
#
# 1 0.015613 -0.013909 -0.003816 0.001890 0.008755 0.006980
# 2 -0.013909 0.049605 -0.010044 -0.000522 -0.002921 0.003565
# 3 -0.003816 -0.010044 0.022845 -0.011148 -0.002310 -0.006988
# 4 0.001890 -0.000522 -0.011148 0.070615 -0.006336 0.005583
# 5 0.008755 -0.002921 -0.002310 -0.006336 0.035690 0.005819
# 6 0.006980 0.003565 -0.006988 0.005583 0.005819 0.040405
#
#
# Mechanical properties :
#
#
# Convention : Reuss Voigt Hill
#
# Bulk Modulus (GPa) = 30.74524 48.53610 39.64067
# Shear Modulus (GPa) = 16.60294 24.75338 20.67816
#
# Velocity S-wave (km/s) = 3.11873 3.80805 3.48050
# Velocity P-wave (km/s) = 5.56598 6.91151 6.27491
#
# Compressibility (1/GPa) = 0.03252536
#
# Stress axis : x y z
#
# Youngs Moduli (GPa) = 64.05002 20.15925 43.77397
#
# Poissons Ratio (x) = 0.28039 0.16704
# Poissons Ratio (y) = 0.89087 0.43965
# Poissons Ratio (z) = 0.24441 0.20247
#
# Static dielectric constant tensor:
#      x y z
#    x 1.613140 -0.021150 -0.010030 
#    y -0.021150 1.554050 0.000770 
#    z -0.010030 0.000770 1.588570 
# 
# From -- ./inp_files/268894.got.cif
#   From: 2010.05.17/outbox.cif.g08.bks.cpg/sg2_135_cif.got.tgz:268894.got - 2010.06.03 11:33:40.
