data_PCOD9071353
_publ_section_title
;
Structure prediction by ZEFSAII (Michael W. Deem and Ramdas Pophale) SiO2 
 PCOD9071353
Probable space group: P -1
;
_chemical_formula_sum "Si O2"
_cell_formula_units_Z 12
_cell_length_a 11.053068
_cell_length_b 9.092880
_cell_length_c 8.644143
_cell_angle_alpha 67.309063
_cell_angle_beta 85.269845
_cell_angle_gamma 43.315708
_cell_volume 522.203889
_symmetry_space_group_name_H-M "P -1"
_symmetry_group_IT_number 2
_symmetry_cell_setting 'triclinic'
loop_
_space_group_symop_operation_xyz
x,y,z
-x,-y,-z
loop_
_atom_site_type_symbol
_atom_site_label
_atom_site_fract_x
_atom_site_fract_y
_atom_site_fract_z
Si Si1 0.706517 0.468035 0.569775
Si Si2 0.478522 0.071327 0.791224
Si Si3 0.911944 0.946801 0.135651
Si Si4 0.143443 0.975014 0.418204
Si Si5 0.607551 0.163685 0.294629
Si Si6 0.881604 0.772227 0.919369
O O1 0.653458 0.655867 0.371969
O O2 0.918709 0.276724 0.682719
O O3 0.294254 0.708373 0.431773
O O4 0.574244 0.607210 0.679614
O O5 0.437431 0.955677 0.740240
O O6 0.682560 0.939164 0.798285
O O7 0.500000 0.000000 0.000000
O O8 0.717992 0.168092 0.158375
O O9 0.866888 0.848510 0.062758
O O10 0.000000 0.000000 0.000000
O O11 0.235849 0.999031 0.522797
O O12 0.032799 0.175126 0.215618
O O13 0.000000 0.000000 0.500000
O O14 0.000000 0.500000 0.000000
#
# Coordination Sequence:
#
# PCOD9071353 Si02
#       6
#     2   2   2   2   2   2
#     4  12  27  49  78 113 157 196 258 315 385 456
#     4  12  28  50  75 113 149 206 254 314 391 449
#     4  12  26  50  75 117 151 200 257 309 385 458
#     4  12  26  49  76 113 151 205 252 315 388 449
#     4  12  26  48  78 108 154 200 252 313 383 454
#     4  12  27  49  75 111 158 195 264 316 373 467
#
# _framework density 22.979527999999998
#
# number of rings (size 3 to 8) (size 9 to 14) (size 15 to 20)
#    0.000    0.000    6.667    2.000    4.667    1.333 
#    3.000    0.000    0.000    0.000    0.000    0.000 
#    0.000    0.000    0.000    0.000    0.000    0.000 
#
# Total GULP energy -66980.645173 kJ/mol
# GULP energy per Si atom -5581.720431 kJ/mol
# Density = 2.292723 g / cm^3
# Si number density = 22.979528 Si / 1000 Ang^3
#
#
#
# Elastic Constant Matrix: (Units=GPa)
#
#
# Indices 1 2 3 4 5 6 
#
# 1 93.6000 34.6442 50.4335 6.7416 23.9339 5.5719
# 2 34.6442 124.6463 67.1375 14.7363 -13.1864 1.3881
# 3 50.4335 67.1375 149.4974 2.3953 -5.8425 11.2124
# 4 6.7416 14.7363 2.3953 46.9598 -0.9400 0.9129
# 5 23.9339 -13.1864 -5.8425 -0.9400 59.3525 11.8290
# 6 5.5719 1.3881 11.2124 0.9129 11.8290 45.9401
#
#
#
# Elastic Compliance Matrix: (Units=1/GPa)
#
#
# Indices 1 2 3 4 5 6 
#
# 1 0.016223 -0.002682 -0.004651 -0.001433 -0.007879 0.001306
# 2 -0.002682 0.011724 -0.004206 -0.003021 0.003177 0.000240
# 3 -0.004651 -0.004206 0.010408 0.001555 0.002493 -0.002522
# 4 -0.001433 -0.003021 0.001555 0.022394 0.000555 -0.000702
# 5 -0.007879 0.003177 0.002493 0.000555 0.022070 -0.005443
# 6 0.001306 0.000240 -0.002522 -0.000702 -0.005443 0.023633
#
#
# Mechanical properties :
#
#
# Convention : Reuss Voigt Hill
#
# Bulk Modulus (GPa) = 65.45733 74.68602 70.07167
# Shear Modulus (GPa) = 37.14091 44.81905 40.97998
#
# Velocity S-wave (km/s) = 4.02464 4.42111 4.22753
# Velocity P-wave (km/s) = 7.08123 7.65724 7.37486
#
# Compressibility (1/GPa) = 0.01527713
#
# Stress axis : x y z
#
# Youngs Moduli (GPa) = 61.64194 85.29514 96.07552
#
# Poissons Ratio (x) = 0.22879 0.44685
# Poissons Ratio (y) = 0.16535 0.40406
# Poissons Ratio (z) = 0.28670 0.35872
#
# Static dielectric constant tensor:
#      x y z
#    x 1.871250 -0.014410 -0.028210 
#    y -0.014410 1.860850 0.036310 
#    z -0.028210 0.036310 1.879770 
# 
# From -- ./inp_files/256303.got.cif
#   From: 2010.05.17/outbox.cif.g08.bks.cpg/sg2_129_cif.got.tgz:256303.got - 2010.06.03 11:33:40.
