data_PCOD9071940
_publ_section_title
;
Structure prediction by ZEFSAII (Michael W. Deem and Ramdas Pophale) SiO2 
 PCOD9071940
Probable space group: P -1
;
_chemical_formula_sum "Si O2"
_cell_formula_units_Z 16
_cell_length_a 26.006131
_cell_length_b 6.884902
_cell_length_c 5.481491
_cell_angle_alpha 97.003331
_cell_angle_beta 112.401328
_cell_angle_gamma 128.684277
_cell_volume 613.830183
_symmetry_space_group_name_H-M "P -1"
_symmetry_group_IT_number 2
_symmetry_cell_setting 'triclinic'
loop_
_space_group_symop_operation_xyz
x,y,z
-x,-y,-z
loop_
_atom_site_type_symbol
_atom_site_label
_atom_site_fract_x
_atom_site_fract_y
_atom_site_fract_z
Si Si1 0.810382 0.096996 0.842427
Si Si2 0.424244 0.140059 0.616377
Si Si3 0.004000 0.684908 0.291707
Si Si4 0.384896 0.052131 0.034412
Si Si5 0.677679 0.506565 0.659676
Si Si6 0.031970 0.310490 0.274725
Si Si7 0.591384 0.338068 0.978490
Si Si8 0.786948 0.255826 0.322146
O O1 0.771474 0.788091 0.796964
O O2 0.781329 0.100447 0.526689
O O3 0.907875 0.375620 0.067002
O O4 0.778467 0.141223 0.020441
O O5 0.505304 0.219235 0.768866
O O6 0.412360 0.225284 0.358627
O O7 0.349621 0.789876 0.426818
O O8 0.415387 0.227915 0.868579
O O9 0.017876 0.838061 0.588719
O O10 0.050068 0.596269 0.356108
O O11 0.014438 0.831193 0.085090
O O12 0.422586 0.933136 0.086982
O O13 0.287431 0.786707 0.802033
O O14 0.650239 0.519343 0.876845
O O15 0.629545 0.473424 0.335406
O O16 0.119497 0.434507 0.454105
#
# Coordination Sequence:
#
# PCOD9071940 Si02
#       8
#     2   2   2   2   2   2   2   2
#     4  10  19  30  45  68  98 123 141 173 223 275
#     4  10  19  33  53  67  80 110 156 202 222 243
#     4   8  14  25  41  61  86 117 150 176 201 244
#     4  10  18  30  49  70  88 112 147 189 228 258
#     4  10  18  30  49  70  88 112 147 189 228 258
#     4   8  14  25  41  61  86 117 150 176 201 244
#     4  10  19  33  53  67  80 110 156 202 222 243
#     4  10  19  30  45  68  98 123 141 173 223 275
#
# _framework density 26.065839
#
# number of rings (size 3 to 8) (size 9 to 14) (size 15 to 20)
#    0.000    2.500    0.000    5.250    0.000    0.000 
#    0.000    0.000    0.000   25.500    0.000    7.000 
#    0.000    0.000    0.000    0.000    0.000    0.000 
#
# Total GULP energy -89438.551963 kJ/mol
# GULP energy per Si atom -5589.909498 kJ/mol
# Density = 2.600651 g / cm^3
# Si number density = 26.065839 Si / 1000 Ang^3
#
#
#
# Elastic Constant Matrix: (Units=GPa)
#
#
# Indices 1 2 3 4 5 6 
#
# 1 76.5971 39.5117 51.6369 -9.4908 -4.3197 25.8148
# 2 39.5117 107.8843 34.6214 -5.5885 -21.3087 3.5451
# 3 51.6369 34.6214 157.5451 -47.6995 -29.6557 30.1466
# 4 -9.4908 -5.5885 -47.6995 48.6326 25.3063 -14.2602
# 5 -4.3197 -21.3087 -29.6557 25.3063 49.1205 -19.5925
# 6 25.8148 3.5451 30.1466 -14.2602 -19.5925 38.4414
#
#
#
# Elastic Compliance Matrix: (Units=1/GPa)
#
#
# Indices 1 2 3 4 5 6 
#
# 1 0.028671 -0.010727 -0.005688 -0.000152 -0.013827 -0.020907
# 2 -0.010727 0.015226 -0.000998 -0.004124 0.011546 0.010937
# 3 -0.005688 -0.000998 0.011698 0.009482 0.000688 -0.001394
# 4 -0.000152 -0.004124 0.009482 0.037188 -0.015699 -0.001160
# 5 -0.013827 0.011546 0.000688 -0.015699 0.041916 0.023221
# 6 -0.020907 0.010937 -0.001394 -0.001160 0.023221 0.051543
#
#
# Mechanical properties :
#
#
# Convention : Reuss Voigt Hill
#
# Bulk Modulus (GPa) = 48.14913 65.95183 57.05048
# Shear Modulus (GPa) = 21.93076 41.65599 31.79338
#
# Velocity S-wave (km/s) = 2.90377 4.00197 3.49626
# Velocity P-wave (km/s) = 5.45479 6.83457 6.18328
#
# Compressibility (1/GPa) = 0.02076881
#
# Stress axis : x y z
#
# Youngs Moduli (GPa) = 34.87887 65.67868 85.48390
#
# Poissons Ratio (x) = 0.70454 0.48621
# Poissons Ratio (y) = 0.37415 0.08532
# Poissons Ratio (z) = 0.19838 0.06555
#
# Static dielectric constant tensor:
#      x y z
#    x 2.054560 0.009800 -0.080110 
#    y 0.009800 2.074050 -0.043400 
#    z -0.080110 -0.043400 2.115890 
# 
# From -- ./inp_files/51748.got.cif
#   From: 2010.05.17/outbox.cif.g08.bks.cpg/sg2_26_cif.got.tgz:51748.got - 2010.06.03 11:33:40.
