data_PCOD9071344
_publ_section_title
;
Structure prediction by ZEFSAII (Michael W. Deem and Ramdas Pophale) SiO2 
 PCOD9071344
Probable space group: P -1
;
_chemical_formula_sum "Si O2"
_cell_formula_units_Z 12
_cell_length_a 12.058790
_cell_length_b 5.104474
_cell_length_c 12.936031
_cell_angle_alpha 99.330050
_cell_angle_beta 60.559021
_cell_angle_gamma 60.350530
_cell_volume 508.957837
_symmetry_space_group_name_H-M "P -1"
_symmetry_group_IT_number 2
_symmetry_cell_setting 'triclinic'
loop_
_space_group_symop_operation_xyz
x,y,z
-x,-y,-z
loop_
_atom_site_type_symbol
_atom_site_label
_atom_site_fract_x
_atom_site_fract_y
_atom_site_fract_z
Si Si1 0.159145 0.876121 0.982598
Si Si2 0.839865 0.563219 0.867871
Si Si3 0.627399 0.751813 0.522597
Si Si4 0.361723 0.555377 0.142524
Si Si5 0.001731 0.383599 0.373602
Si Si6 0.487978 0.548189 0.301623
O O1 0.314146 0.663228 0.817470
O O2 0.167990 0.653960 0.056726
O O3 0.154424 0.172298 0.054669
O O4 0.000000 0.000000 0.000000
O O5 0.678475 0.692437 0.883155
O O6 0.983063 0.398831 0.703236
O O7 0.557259 0.577506 0.590972
O O8 0.835733 0.452402 0.411374
O O9 0.500000 0.000000 0.500000
O O10 0.602239 0.043176 0.625634
O O11 0.432894 0.472722 0.219389
O O12 0.178156 0.967932 0.254961
O O13 0.500000 0.500000 0.000000
O O14 0.000000 0.500000 0.500000
#
# Coordination Sequence:
#
# PCOD9071344 Si02
#       6
#     2   2   2   2   2   2
#     4  12  28  48  77 112 153 204 260 322 391 464
#     4  12  26  48  77 112 149 199 258 320 391 456
#     4  12  30  49  76 111 157 210 259 321 387 475
#     4  12  26  49  81 118 155 200 265 327 394 459
#     4  12  27  49  79 114 159 207 261 320 396 466
#     4  12  27  49  78 111 156 201 264 323 391 462
#
# _framework density 23.577590000000001
#
# number of rings (size 3 to 8) (size 9 to 14) (size 15 to 20)
#    0.000    0.000    5.000    3.000    7.000    2.667 
#    0.000    0.000    0.000    0.000    0.000    0.000 
#    0.000    0.000    0.000    0.000    0.000    0.000 
#
# Total GULP energy -67042.022117 kJ/mol
# GULP energy per Si atom -5586.835176 kJ/mol
# Density = 2.352393 g / cm^3
# Si number density = 23.577590 Si / 1000 Ang^3
#
#
#
# Elastic Constant Matrix: (Units=GPa)
#
#
# Indices 1 2 3 4 5 6 
#
# 1 139.9329 67.7525 47.7488 14.3917 -32.6536 2.3989
# 2 67.7525 37.1070 33.7816 14.4741 -38.0936 22.9802
# 3 47.7488 33.7816 117.1565 0.8807 -46.2478 3.3956
# 4 14.3917 14.4741 0.8807 26.9061 15.7441 -12.9301
# 5 -32.6536 -38.0936 -46.2478 15.7441 41.8299 10.6550
# 6 2.3989 22.9802 3.3956 -12.9301 10.6550 59.1666
#
#
#
# Elastic Compliance Matrix: (Units=1/GPa)
#
#
# Indices 1 2 3 4 5 6 
#
# 1 0.014167 -0.006130 0.001349 -0.013692 0.013042 -0.003612
# 2 -0.006130 -0.000779 -0.009141 0.026557 -0.028665 0.012042
# 3 0.001349 -0.009141 0.013130 0.000803 0.006499 0.001747
# 4 -0.013692 0.026557 0.000803 0.022984 0.007286 -0.006095
# 5 0.013042 -0.028665 0.006499 0.007286 0.009867 0.010047
# 6 -0.003612 0.012042 0.001747 -0.006095 0.010047 0.009129
#
#
# Mechanical properties :
#
#
# Convention : Reuss Voigt Hill
#
# Bulk Modulus (GPa) = -754.57857 65.86246 -344.35806
# Shear Modulus (GPa) = 52.13778 35.24141 43.68960
#
# Velocity S-wave (km/s) = 4.70758 3.87033 4.30933
# Velocity P-wave (km/s) = 17.06420 6.92586 11.02768
#
# Compressibility (1/GPa) = -0.00132524
#
# Stress axis : x y z
#
# Youngs Moduli (GPa) = 70.58468 -1283.01488 76.16132
#
# Poissons Ratio (x) = -7.86521 -0.10278
# Poissons Ratio (y) = 0.43270 0.69618
# Poissons Ratio (z) = -0.09525 -11.72782
#
# Static dielectric constant tensor:
#      x y z
#    x 1.889950 0.008690 0.032830 
#    y 0.008690 1.903880 0.089520 
#    z 0.032830 0.089520 1.857940 
# 
# From -- ./inp_files/408599.got.cif
#   From: 2010.05.17/outbox.cif.g08.bks.cpg/sg2_205_cif.got.tgz:408599.got - 2010.06.03 11:33:40.
