data_PCOD9071277
_publ_section_title
;
Structure prediction by ZEFSAII (Michael W. Deem and Ramdas Pophale) SiO2 
 PCOD9071277
Probable space group: P -1
;
_chemical_formula_sum "Si O2"
_cell_formula_units_Z 16
_cell_length_a 8.375555
_cell_length_b 15.665212
_cell_length_c 8.347513
_cell_angle_alpha 64.696909
_cell_angle_beta 127.479530
_cell_angle_gamma 85.561682
_cell_volume 693.412550
_symmetry_space_group_name_H-M "P -1"
_symmetry_group_IT_number 2
_symmetry_cell_setting 'triclinic'
loop_
_space_group_symop_operation_xyz
x,y,z
-x,-y,-z
loop_
_atom_site_type_symbol
_atom_site_label
_atom_site_fract_x
_atom_site_fract_y
_atom_site_fract_z
Si Si1 0.217394 0.934948 0.294810
Si Si2 0.678256 0.802461 0.495136
Si Si3 0.784592 0.985058 0.430209
Si Si4 0.319368 0.550008 0.491296
Si Si5 0.615603 0.794842 0.104824
Si Si6 0.137654 0.736268 0.452446
Si Si7 0.888996 0.588624 0.998050
Si Si8 0.514403 0.625214 0.991016
O O1 0.446294 0.886269 0.371384
O O2 0.184582 0.836150 0.417795
O O3 0.232615 0.002420 0.398445
O O4 0.000000 0.000000 0.000000
O O5 0.811501 0.870563 0.488965
O O6 0.617697 0.769536 0.314506
O O7 0.807535 0.702623 0.770864
O O8 0.000000 0.000000 0.500000
O O9 0.561042 0.081783 0.137621
O O10 0.500000 0.500000 0.500000
O O11 0.268607 0.665727 0.433954
O O12 0.403453 0.468666 0.755720
O O13 0.080883 0.564920 0.266473
O O14 0.873775 0.769350 0.245573
O O15 0.542682 0.721312 0.014125
O O16 0.258833 0.664510 0.739840
O O17 0.677214 0.590847 0.962223
O O18 0.000000 0.500000 0.000000
#
# Coordination Sequence:
#
# PCOD9071277 Si02
#       8
#     2   2   2   2   2   2   2   2
#     4  12  26  47  76 109 154 192 252 322 378 456
#     4  12  27  45  78 111 151 202 255 313 381 458
#     4  12  26  50  76 112 153 202 255 312 386 454
#     4  12  29  45  77 111 151 200 260 314 382 459
#     4  12  26  47  76 111 151 201 252 312 385 453
#     4  12  26  48  75 111 152 199 255 309 386 453
#     4  12  26  48  75 113 153 200 256 314 382 454
#     4  12  26  52  74 108 155 201 249 322 381 451
#
# _framework density 23.074289
#
# number of rings (size 3 to 8) (size 9 to 14) (size 15 to 20)
#    0.000    0.000    3.750    5.250    7.000    0.000 
#    0.000    0.000    0.000    0.000    0.000    0.000 
#    0.000    0.000    0.000    0.000    0.000    0.000 
#
# Total GULP energy -89727.469553 kJ/mol
# GULP energy per Si atom -5607.966847 kJ/mol
# Density = 2.302177 g / cm^3
# Si number density = 23.074289 Si / 1000 Ang^3
#
#
#
# Elastic Constant Matrix: (Units=GPa)
#
#
# Indices 1 2 3 4 5 6 
#
# 1 98.5087 17.3212 36.4023 -10.1542 7.9965 -10.9974
# 2 17.3212 105.9880 23.6331 1.1935 0.8468 -6.2953
# 3 36.4023 23.6331 170.2812 -7.2143 2.3418 9.3301
# 4 -10.1542 1.1935 -7.2143 37.9274 5.5886 -1.6897
# 5 7.9965 0.8468 2.3418 5.5886 43.7685 0.8895
# 6 -10.9974 -6.2953 9.3301 -1.6897 0.8895 40.3294
#
#
#
# Elastic Compliance Matrix: (Units=1/GPa)
#
#
# Indices 1 2 3 4 5 6 
#
# 1 0.012292 -0.001237 -0.002491 0.003415 -0.002605 0.003936
# 2 -0.001237 0.010010 -0.001244 -0.000843 0.000177 0.001474
# 3 -0.002491 -0.001244 0.006731 0.000530 0.000100 -0.002411
# 4 0.003415 -0.000843 0.000530 0.028123 -0.004267 0.001949
# 5 -0.002605 0.000177 0.000100 -0.004267 0.023888 -0.001412
# 6 0.003936 0.001474 -0.002411 0.001949 -0.001412 0.026770
#
#
# Mechanical properties :
#
#
# Convention : Reuss Voigt Hill
#
# Bulk Modulus (GPa) = 52.38594 58.83237 55.60915
# Shear Modulus (GPa) = 40.28290 44.23313 42.25801
#
# Velocity S-wave (km/s) = 4.18280 4.38309 4.28412
# Velocity P-wave (km/s) = 6.78824 7.15315 6.97308
#
# Compressibility (1/GPa) = 0.01908909
#
# Stress axis : x y z
#
# Youngs Moduli (GPa) = 81.35109 99.89843 148.56637
#
# Poissons Ratio (x) = 0.12360 0.37012
# Poissons Ratio (y) = 0.10065 0.18477
# Poissons Ratio (z) = 0.20267 0.12424
#
# Static dielectric constant tensor:
#      x y z
#    x 1.866740 -0.008850 0.011480 
#    y -0.008850 1.880910 -0.032480 
#    z 0.011480 -0.032480 1.853820 
# 
# From -- ./inp_files/206529.got.cif
#   From: 2010.05.17/outbox.cif.g08.bks.cpg/sg2_104_cif.got.tgz:206529.got - 2010.06.03 11:33:40.
