data_PCOD9071740
_publ_section_title
;
Structure prediction by ZEFSAII (Michael W. Deem and Ramdas Pophale) SiO2 
 PCOD9071740
Probable space group: P -1
;
_chemical_formula_sum "Si O2"
_cell_formula_units_Z 14
_cell_length_a 12.399122
_cell_length_b 7.605116
_cell_length_c 7.514237
_cell_angle_alpha 101.218327
_cell_angle_beta 127.390896
_cell_angle_gamma 63.219075
_cell_volume 499.446988
_symmetry_space_group_name_H-M "P -1"
_symmetry_group_IT_number 2
_symmetry_cell_setting 'triclinic'
loop_
_space_group_symop_operation_xyz
x,y,z
-x,-y,-z
loop_
_atom_site_type_symbol
_atom_site_label
_atom_site_fract_x
_atom_site_fract_y
_atom_site_fract_z
Si Si1 0.027137 0.282214 0.636768
Si Si2 0.872956 0.135635 0.169731
Si Si3 0.341758 0.241169 0.064574
Si Si4 0.556021 0.191114 0.834998
Si Si5 0.144220 0.366273 0.235738
Si Si6 0.433357 0.586309 0.647616
Si Si7 0.233977 0.918076 0.296008
O O1 0.965662 0.228360 0.385648
O O2 0.895633 0.485090 0.610880
O O3 0.053835 0.098902 0.761329
O O4 0.191876 0.282866 0.808255
O O5 0.700105 0.208387 0.072345
O O6 0.855488 0.161961 0.944839
O O7 0.276878 0.316326 0.213705
O O8 0.442866 0.350600 0.131427
O O9 0.448489 0.005100 0.132185
O O10 0.618829 0.123785 0.683855
O O11 0.161440 0.153399 0.278636
O O12 0.427320 0.407548 0.718452
O O13 0.000000 0.500000 0.000000
O O14 0.500000 0.500000 0.500000
O O15 0.285129 0.784363 0.494693
#
# Coordination Sequence:
#
# PCOD9071740 Si02
#       7
#     2   2   2   2   2   2   2
#     4   9  15  27  49  71  97 127 152 197 242 286
#     4   8  14  27  46  71  93 125 159 191 238 285
#     4   9  17  29  48  77  93 123 165 193 239 288
#     4   7  15  29  43  70  95 119 152 201 231 270
#     4   9  14  27  44  71 100 121 153 197 243 278
#     4  10  18  29  49  73  97 124 160 208 232 269
#     4   8  15  26  44  69  90 123 153 195 234 273
#
# _framework density 28.031006000000001
#
# number of rings (size 3 to 8) (size 9 to 14) (size 15 to 20)
#    0.857    2.571    2.857    0.000    0.000    5.143 
#    0.000    0.714    0.000   56.571    0.000    0.000 
#    0.000    0.000    0.000    0.000    0.000    0.000 
#
# Total GULP energy -78301.906407 kJ/mol
# GULP energy per Si atom -5592.993315 kJ/mol
# Density = 2.796721 g / cm^3
# Si number density = 28.031006 Si / 1000 Ang^3
#
#
#
# Elastic Constant Matrix: (Units=GPa)
#
#
# Indices 1 2 3 4 5 6 
#
# 1 86.9612 59.4652 45.7433 -11.2020 -8.3731 5.8983
# 2 59.4652 245.4891 82.8840 -15.3351 -8.1085 37.6575
# 3 45.7433 82.8840 192.0609 -2.3096 8.2876 7.6165
# 4 -11.2020 -15.3351 -2.3096 36.0697 0.0656 -0.5044
# 5 -8.3731 -8.1085 8.2876 0.0656 40.3353 -6.6317
# 6 5.8983 37.6575 7.6165 -0.5044 -6.6317 14.6977
#
#
#
# Elastic Compliance Matrix: (Units=1/GPa)
#
#
# Indices 1 2 3 4 5 6 
#
# 1 0.015662 -0.003490 -0.002595 0.003290 0.004055 0.005944
# 2 -0.003490 0.008971 -0.002080 0.002302 -0.002005 -0.021332
# 3 -0.002595 -0.002080 0.006718 -0.001229 -0.002017 0.001938
# 4 0.003290 0.002302 -0.001229 0.029570 0.000470 -0.005355
# 5 0.004055 -0.002005 -0.002017 0.000470 0.028511 0.017434
# 6 0.005944 -0.021332 0.001938 -0.005355 0.017434 0.126986
#
#
# Mechanical properties :
#
#
# Convention : Reuss Voigt Hill
#
# Bulk Modulus (GPa) = 66.57620 100.07740 83.32680
# Shear Modulus (GPa) = 21.02996 40.64846 30.83921
#
# Velocity S-wave (km/s) = 2.74202 3.81218 3.32050
# Velocity P-wave (km/s) = 5.81613 7.42677 6.67024
#
# Compressibility (1/GPa) = 0.01502038
#
# Stress axis : x y z
#
# Youngs Moduli (GPa) = 63.84857 111.46953 148.85652
#
# Poissons Ratio (x) = 0.38902 0.38633
# Poissons Ratio (y) = 0.22282 0.30964
# Poissons Ratio (z) = 0.16571 0.23187
#
# Static dielectric constant tensor:
#      x y z
#    x 2.270710 -0.091640 -0.016290 
#    y -0.091640 2.193510 0.014610 
#    z -0.016290 0.014610 2.228740 
# 
# From -- ./inp_files/301415.got.cif
#   From: 2010.05.17/outbox.cif.g08.bks.cpg/sg2_151_cif.got.tgz:301415.got - 2010.06.03 11:33:40.
