data_PCOD9071351
_publ_section_title
;
Structure prediction by ZEFSAII (Michael W. Deem and Ramdas Pophale) SiO2 
 PCOD9071351
Probable space group: P -1
;
_chemical_formula_sum "Si O2"
_cell_formula_units_Z 14
_cell_length_a 14.692149
_cell_length_b 18.469705
_cell_length_c 7.416652
_cell_angle_alpha 47.277494
_cell_angle_beta 132.762935
_cell_angle_gamma 157.722608
_cell_volume 550.963057
_symmetry_space_group_name_H-M "P -1"
_symmetry_group_IT_number 2
_symmetry_cell_setting 'triclinic'
loop_
_space_group_symop_operation_xyz
x,y,z
-x,-y,-z
loop_
_atom_site_type_symbol
_atom_site_label
_atom_site_fract_x
_atom_site_fract_y
_atom_site_fract_z
Si Si1 0.772515 0.408253 0.408828
Si Si2 0.470262 0.831674 0.853104
Si Si3 0.981741 0.228840 0.777592
Si Si4 0.198117 0.186981 0.320700
Si Si5 0.013855 0.284525 0.304153
Si Si6 0.000000 0.500000 0.000000
Si Si7 0.500000 0.500000 0.500000
Si Si8 0.586423 0.857519 0.339719
O O1 0.683451 0.314190 0.648807
O O2 0.000000 0.500000 0.500000
O O3 0.845787 0.571055 0.241691
O O4 0.586097 0.617609 0.602294
O O5 0.561561 0.824140 0.150744
O O6 0.430085 0.752779 0.740768
O O7 0.221660 0.702072 0.824877
O O8 0.703782 0.061374 0.747724
O O9 0.007945 0.252463 0.560055
O O10 0.066986 0.180082 0.039187
O O11 0.306489 0.168443 0.386572
O O12 0.000000 0.000000 0.500000
O O13 0.232537 0.373623 0.357034
O O14 0.758860 0.068199 0.247469
O O15 0.047084 0.423766 0.096067
#
# Coordination Sequence:
#
# PCOD9071351 Si02
#       8
#     2   2   2   2   2   1   1   2
#     4  12  29  51  78 115 158 212 271 338 403 488
#     4  12  26  49  80 114 162 207 267 334 406 484
#     4  12  28  50  80 119 158 213 277 332 407 485
#     4  12  26  48  77 117 155 209 272 328 405 486
#     4  12  28  53  82 120 163 218 272 341 410 491
#     4  12  30  48  82 120 160 214 268 336 414 482
#     4  12  26  50  82 108 166 212 264 336 410 484
#     4  12  27  53  78 117 164 211 270 338 413 481
#
# _framework density 25.410052
#
# number of rings (size 3 to 8) (size 9 to 14) (size 15 to 20)
#    0.000    0.000    4.286    4.286    8.000    4.571 
#    0.000    0.000    0.000    0.000    0.000    0.000 
#    0.000    0.000    0.000    0.000    0.000    0.000 
#
# Total GULP energy -78055.302557 kJ/mol
# GULP energy per Si atom -5575.378754 kJ/mol
# Density = 2.535222 g / cm^3
# Si number density = 25.410052 Si / 1000 Ang^3
#
#
#
# Elastic Constant Matrix: (Units=GPa)
#
#
# Indices 1 2 3 4 5 6 
#
# 1 82.0501 1.7585 23.1021 -14.2166 2.6917 9.0201
# 2 1.7585 108.4192 11.0613 -24.6464 6.4673 1.8160
# 3 23.1021 11.0613 125.0640 -5.7033 5.0767 -1.4839
# 4 -14.2166 -24.6464 -5.7033 29.9155 -3.0992 -4.9004
# 5 2.6917 6.4673 5.0767 -3.0992 45.3171 5.5309
# 6 9.0201 1.8160 -1.4839 -4.9004 5.5309 63.3490
#
#
#
# Elastic Compliance Matrix: (Units=1/GPa)
#
#
# Indices 1 2 3 4 5 6 
#
# 1 0.014324 0.001763 -0.002472 0.007521 -0.000121 -0.001556
# 2 0.001763 0.011661 -0.000847 0.010224 -0.001008 0.000274
# 3 -0.002472 -0.000847 0.008557 -0.000219 -0.000783 0.000628
# 4 0.007521 0.010224 -0.000219 0.045828 0.000998 0.002089
# 5 -0.000121 -0.001008 -0.000783 0.000998 0.022602 -0.001868
# 6 -0.001556 0.000274 0.000628 0.002089 -0.001868 0.016339
#
#
# Mechanical properties :
#
#
# Convention : Reuss Voigt Hill
#
# Bulk Modulus (GPa) = 31.81733 43.04191 37.42962
# Shear Modulus (GPa) = 37.62243 46.35707 41.98975
#
# Velocity S-wave (km/s) = 3.85205 4.27589 4.06949
# Velocity P-wave (km/s) = 5.68622 6.43065 6.06986
#
# Compressibility (1/GPa) = 0.03142941
#
# Stress axis : x y z
#
# Youngs Moduli (GPa) = 69.81215 85.75662 116.86725
#
# Poissons Ratio (x) = -0.15118 0.28895
# Poissons Ratio (y) = -0.12307 0.09894
# Poissons Ratio (z) = 0.17261 0.07260
#
# Static dielectric constant tensor:
#      x y z
#    x 1.963500 0.025010 -0.047280 
#    y 0.025010 1.860830 -0.083050 
#    z -0.047280 -0.083050 1.953010 
# 
# From -- ./inp_files/278850.got.cif
#   From: 2010.05.17/outbox.cif.g08.bks.cpg/sg2_140_cif.got.tgz:278850.got - 2010.06.03 11:33:40.
