data_PCOD9071325
_publ_section_title
;
Structure prediction by ZEFSAII (Michael W. Deem and Ramdas Pophale) SiO2 
 PCOD9071325
Probable space group: P -1
;
_chemical_formula_sum "Si O2"
_cell_formula_units_Z 14
_cell_length_a 5.066189
_cell_length_b 11.993248
_cell_length_c 12.651225
_cell_angle_alpha 51.304488
_cell_angle_beta 99.863841
_cell_angle_gamma 99.625991
_cell_volume 589.268201
_symmetry_space_group_name_H-M "P -1"
_symmetry_group_IT_number 2
_symmetry_cell_setting 'triclinic'
loop_
_space_group_symop_operation_xyz
x,y,z
-x,-y,-z
loop_
_atom_site_type_symbol
_atom_site_label
_atom_site_fract_x
_atom_site_fract_y
_atom_site_fract_z
Si Si1 0.334880 0.468531 0.400416
Si Si2 0.158346 0.371109 0.041876
Si Si3 0.094300 0.190634 0.453105
Si Si4 0.762540 0.929837 0.097373
Si Si5 0.798585 0.608596 0.219207
Si Si6 0.460173 0.775987 0.714222
Si Si7 0.842084 0.062940 0.251812
O O1 0.500000 0.500000 0.500000
O O2 0.207577 0.306878 0.477436
O O3 0.551734 0.499864 0.303680
O O4 0.083187 0.563598 0.309545
O O5 0.431164 0.355439 0.135870
O O6 0.993914 0.216874 0.145150
O O7 0.189615 0.381159 0.912398
O O8 0.000000 0.500000 0.000000
O O9 0.025177 0.040913 0.595018
O O10 0.331465 0.183624 0.388325
O O11 0.834685 0.245667 0.344864
O O12 0.803225 0.975476 0.193923
O O13 0.742072 0.760993 0.175166
O O14 0.500000 0.000000 0.000000
O O15 0.000000 0.000000 0.000000
O O16 0.427813 0.897614 0.729276
#
# Coordination Sequence:
#
# PCOD9071325 Si02
#       7
#     2   2   2   2   2   2   2
#     4  12  28  52  78 114 152 203 258 317 381 457
#     4  12  29  50  79 118 157 204 252 319 390 459
#     4  12  28  49  80 112 153 206 257 317 381 454
#     4  12  26  48  75 110 153 199 252 311 377 454
#     4  12  27  51  80 115 157 200 256 316 388 455
#     4  12  27  51  74 115 154 199 258 313 385 455
#     4  12  28  49  80 113 156 201 261 316 382 456
#
# _framework density 23.758282000000001
#
# number of rings (size 3 to 8) (size 9 to 14) (size 15 to 20)
#    0.000    0.000    2.857    5.571    6.000    1.714 
#    0.000    0.714    0.000    0.000    0.000    0.000 
#    0.000    0.000    0.000    0.000    0.000    0.000 
#
# Total GULP energy -78532.172870 kJ/mol
# GULP energy per Si atom -5609.440919 kJ/mol
# Density = 2.370421 g / cm^3
# Si number density = 23.758282 Si / 1000 Ang^3
#
#
#
# Elastic Constant Matrix: (Units=GPa)
#
#
# Indices 1 2 3 4 5 6 
#
# 1 150.0532 50.5834 63.8863 -8.5299 16.6849 -12.5183
# 2 50.5834 185.8954 81.7007 9.2218 3.3101 -4.0602
# 3 63.8863 81.7007 165.3376 -5.0821 10.6130 -7.4063
# 4 -8.5299 9.2218 -5.0821 45.8366 -1.6119 -1.9026
# 5 16.6849 3.3101 10.6130 -1.6119 41.6866 -8.4313
# 6 -12.5183 -4.0602 -7.4063 -1.9026 -8.4313 41.4759
#
#
#
# Elastic Compliance Matrix: (Units=1/GPa)
#
#
# Indices 1 2 3 4 5 6 
#
# 1 0.008614 -0.001279 -0.002424 0.001577 -0.002336 0.001639
# 2 -0.001279 0.007210 -0.003181 -0.002028 0.000628 -0.000214
# 3 -0.002424 -0.003181 0.008664 0.001135 -0.000862 0.000381
# 4 0.001577 -0.002028 0.001135 0.022727 0.000446 0.001613
# 5 -0.002336 0.000628 -0.000862 0.000446 0.026023 0.004513
# 6 0.001639 -0.000214 0.000381 0.001613 0.004513 0.025644
#
#
# Mechanical properties :
#
#
# Convention : Reuss Voigt Hill
#
# Bulk Modulus (GPa) = 93.28937 99.29189 96.29063
# Shear Modulus (GPa) = 43.02050 46.14088 44.58069
#
# Velocity S-wave (km/s) = 4.25992 4.41170 4.33647
# Velocity P-wave (km/s) = 7.97165 8.23615 8.10498
#
# Compressibility (1/GPa) = 0.01071933
#
# Stress axis : x y z
#
# Youngs Moduli (GPa) = 116.09072 138.69304 115.41948
#
# Poissons Ratio (x) = 0.17742 0.27982
# Poissons Ratio (y) = 0.14851 0.36712
# Poissons Ratio (z) = 0.28145 0.44115
#
# Static dielectric constant tensor:
#      x y z
#    x 2.173950 0.188340 0.321790 
#    y 0.188340 2.019540 0.167240 
#    z 0.321790 0.167240 2.271810 
# 
# From -- ./inp_files/362816.got.cif
#   From: 2010.05.17/outbox.cif.g08.bks.cpg/sg2_182_cif.got.tgz:362816.got - 2010.06.03 11:33:40.
