data_PCOD9071478
_publ_section_title
;
Structure prediction by ZEFSAII (Michael W. Deem and Ramdas Pophale) SiO2 
 PCOD9071478
Probable space group: P -1
;
_chemical_formula_sum "Si O2"
_cell_formula_units_Z 16
_cell_length_a 9.080222
_cell_length_b 5.265033
_cell_length_c 13.948364
_cell_angle_alpha 99.895000
_cell_angle_beta 100.212938
_cell_angle_gamma 74.775435
_cell_volume 627.705489
_symmetry_space_group_name_H-M "P -1"
_symmetry_group_IT_number 2
_symmetry_cell_setting 'triclinic'
loop_
_space_group_symop_operation_xyz
x,y,z
-x,-y,-z
loop_
_atom_site_type_symbol
_atom_site_label
_atom_site_fract_x
_atom_site_fract_y
_atom_site_fract_z
Si Si1 0.006134 0.137521 0.717789
Si Si2 0.706245 0.465334 0.606906
Si Si3 0.913934 0.916516 0.892617
Si Si4 0.483941 0.932115 0.351009
Si Si5 0.636292 0.832087 0.940490
Si Si6 0.830341 0.561721 0.121002
Si Si7 0.252445 0.806840 0.603096
Si Si8 0.576156 0.469396 0.206219
O O1 0.866535 0.360527 0.674124
O O2 0.152772 0.235618 0.780557
O O3 0.947790 0.019921 0.799311
O O4 0.080190 0.935128 0.628803
O O5 0.629675 0.774185 0.638759
O O6 0.738969 0.400539 0.494890
O O7 0.594519 0.274015 0.614475
O O8 0.735148 0.987969 0.899601
O O9 0.995725 0.605450 0.878942
O O10 0.000000 0.000000 0.000000
O O11 0.520932 0.781134 0.243811
O O12 0.648839 0.982887 0.405852
O O13 0.655579 0.332736 0.302553
O O14 0.565118 0.642038 0.853221
O O15 0.500000 0.000000 0.000000
O O16 0.761114 0.680359 0.021615
O O17 0.709288 0.405446 0.137168
#
# Coordination Sequence:
#
# PCOD9071478 Si02
#       8
#     2   2   2   2   2   2   2   2
#     4  12  28  50  78 117 157 216 270 332 413 483
#     4  12  31  48  84 120 163 215 276 344 408 492
#     4  12  27  50  77 109 162 211 267 333 400 487
#     4  12  28  51  79 120 163 214 275 339 412 481
#     4  12  28  50  79 120 159 212 275 335 409 482
#     4  12  26  51  73 112 157 211 268 328 407 480
#     4  12  26  55  78 116 164 215 275 338 413 483
#     4  12  27  47  85 115 164 217 274 336 408 489
#
# _framework density 25.489661999999999
#
# number of rings (size 3 to 8) (size 9 to 14) (size 15 to 20)
#    0.000    0.000    5.000    3.375    7.000    0.000 
#    0.000    1.875    0.000    0.000    0.000    0.000 
#    0.000    0.000    0.000    0.000    0.000    0.000 
#
# Total GULP energy -89664.598220 kJ/mol
# GULP energy per Si atom -5604.037389 kJ/mol
# Density = 2.543165 g / cm^3
# Si number density = 25.489662 Si / 1000 Ang^3
#
#
#
# Elastic Constant Matrix: (Units=GPa)
#
#
# Indices 1 2 3 4 5 6 
#
# 1 132.5422 38.4592 62.9788 4.5977 -32.0150 8.1341
# 2 38.4592 108.7249 42.3657 12.0199 -15.7223 -12.6251
# 3 62.9788 42.3657 120.5842 12.9996 -3.2602 -16.7060
# 4 4.5977 12.0199 12.9996 45.0993 -6.9314 -2.5115
# 5 -32.0150 -15.7223 -3.2602 -6.9314 43.6520 9.8111
# 6 8.1341 -12.6251 -16.7060 -2.5115 9.8111 36.1515
#
#
#
# Elastic Compliance Matrix: (Units=1/GPa)
#
#
# Indices 1 2 3 4 5 6 
#
# 1 0.016930 -0.001880 -0.009892 0.003125 0.014355 -0.012716
# 2 -0.001880 0.011587 -0.002473 -0.001768 0.001713 0.002739
# 3 -0.009892 -0.002473 0.016030 -0.003878 -0.010090 0.011239
# 4 0.003125 -0.001768 -0.003878 0.024180 0.005886 -0.003030
# 5 0.014355 0.001713 -0.010090 0.005886 0.038106 -0.017227
# 6 -0.012716 0.002739 0.011239 -0.003030 -0.017227 0.041137
#
#
# Mechanical properties :
#
#
# Convention : Reuss Voigt Hill
#
# Bulk Modulus (GPa) = 62.27427 72.16208 67.21818
# Shear Modulus (GPa) = 27.50077 39.51707 33.50892
#
# Velocity S-wave (km/s) = 3.28822 3.94168 3.62969
# Velocity P-wave (km/s) = 6.23705 7.00625 6.63281
#
# Compressibility (1/GPa) = 0.01605800
#
# Stress axis : x y z
#
# Youngs Moduli (GPa) = 59.06716 86.30040 62.38170
#
# Poissons Ratio (x) = 0.16227 0.61707
# Poissons Ratio (y) = 0.11107 0.15425
# Poissons Ratio (z) = 0.58429 0.21339
#
# Static dielectric constant tensor:
#      x y z
#    x 2.032200 0.059450 0.001110 
#    y 0.059450 2.172200 0.101840 
#    z 0.001110 0.101840 2.110920 
# 
# From -- ./inp_files/488666.got.cif
#   From: 2010.05.17/outbox.cif.g08.bks.cpg/sg2_245_cif.got.tgz:488666.got - 2010.06.03 11:33:40.
