data_PCOD9071870
_publ_section_title
;
Structure prediction by ZEFSAII (Michael W. Deem and Ramdas Pophale) SiO2 
 PCOD9071870
Probable space group: P -1
;
_chemical_formula_sum "Si O2"
_cell_formula_units_Z 16
_cell_length_a 8.064189
_cell_length_b 16.560969
_cell_length_c 12.941455
_cell_angle_alpha 154.754565
_cell_angle_beta 83.664872
_cell_angle_gamma 86.317987
_cell_volume 675.560207
_symmetry_space_group_name_H-M "P -1"
_symmetry_group_IT_number 2
_symmetry_cell_setting 'triclinic'
loop_
_space_group_symop_operation_xyz
x,y,z
-x,-y,-z
loop_
_atom_site_type_symbol
_atom_site_label
_atom_site_fract_x
_atom_site_fract_y
_atom_site_fract_z
Si Si1 0.191817 0.938328 0.854088
Si Si2 0.076848 0.248088 0.040115
Si Si3 0.804508 0.157977 0.795852
Si Si4 0.289251 0.159556 0.284770
Si Si5 0.862515 0.393462 0.639857
Si Si6 0.940535 0.308222 0.766602
Si Si7 0.464838 0.766807 0.930620
Si Si8 0.725638 0.502581 0.456797
O O1 0.299312 0.021461 0.022942
O O2 0.238426 0.706249 0.545757
O O3 0.178515 0.054726 0.880995
O O4 0.000000 0.000000 0.000000
O O5 0.172334 0.371054 0.110501
O O6 0.937916 0.404106 0.311370
O O7 0.946736 0.193792 0.906583
O O8 0.815254 0.275862 0.827783
O O9 0.885770 0.910301 0.492680
O O10 0.609105 0.243243 0.962479
O O11 0.079753 0.266802 0.458447
O O12 0.346193 0.341400 0.454022
O O13 0.403259 0.005966 0.186063
O O14 0.843404 0.347529 0.707499
O O15 0.000000 0.500000 0.000000
O O16 0.659039 0.634659 0.716907
O O17 0.346666 0.677166 0.760497
#
# Coordination Sequence:
#
# PCOD9071870 Si02
#       8
#     2   2   2   2   2   2   2   2
#     4  10  19  30  46  67 101 134 158 189 236 284
#     4  10  18  31  47  71 100 130 155 193 237 287
#     4  10  19  29  48  67  98 126 158 197 242 287
#     4  10  19  31  47  68 100 135 157 192 233 288
#     4  10  18  30  45  67  98 126 158 196 235 286
#     4  11  19  30  47  70  94 131 159 197 246 287
#     4  10  18  33  47  70 100 130 157 198 235 281
#     4   9  19  29  49  69  96 130 164 190 234 285
#
# _framework density 23.684049000000002
#
# number of rings (size 3 to 8) (size 9 to 14) (size 15 to 20)
#    0.000    2.000    3.750    2.625    0.000    5.500 
#    0.000    0.000    0.000    0.000    0.000    0.875 
#    0.000   29.500    0.000    0.250    0.000    0.000 
#
# Total GULP energy -89407.772072 kJ/mol
# GULP energy per Si atom -5587.985754 kJ/mol
# Density = 2.363014 g / cm^3
# Si number density = 23.684049 Si / 1000 Ang^3
#
#
#
# Elastic Constant Matrix: (Units=GPa)
#
#
# Indices 1 2 3 4 5 6 
#
# 1 52.7403 18.7924 12.0362 -3.5198 5.1830 11.5445
# 2 18.7924 184.6707 47.0139 14.9863 -0.5451 20.3965
# 3 12.0362 47.0139 94.7773 12.3570 9.7172 16.9590
# 4 -3.5198 14.9863 12.3570 50.2131 7.0884 2.1363
# 5 5.1830 -0.5451 9.7172 7.0884 33.4097 -9.0988
# 6 11.5445 20.3965 16.9590 2.1363 -9.0988 25.9650
#
#
#
# Elastic Compliance Matrix: (Units=1/GPa)
#
#
# Indices 1 2 3 4 5 6 
#
# 1 0.023115 -0.001370 0.000308 0.003591 -0.007850 -0.012449
# 2 -0.001370 0.006599 -0.002517 -0.001428 0.000652 -0.002584
# 3 0.000308 -0.002517 0.014368 -0.001413 -0.006623 -0.009749
# 4 0.003591 -0.001428 -0.001413 0.021893 -0.005730 -0.003361
# 5 -0.007850 0.000652 -0.006623 -0.005730 0.040262 0.021885
# 6 -0.012449 -0.002584 -0.009749 -0.003361 0.021885 0.060391
#
#
# Mechanical properties :
#
#
# Convention : Reuss Voigt Hill
#
# Bulk Modulus (GPa) = 27.08338 54.20817 40.64578
# Shear Modulus (GPa) = 26.86816 38.87394 32.87105
#
# Velocity S-wave (km/s) = 3.37180 4.05576 3.72949
# Velocity P-wave (km/s) = 5.15934 6.69851 5.97866
#
# Compressibility (1/GPa) = 0.03692301
#
# Stress axis : x y z
#
# Youngs Moduli (GPa) = 43.26233 151.54727 69.59721
#
# Poissons Ratio (x) = 0.20768 -0.02147
# Poissons Ratio (y) = 0.05929 0.17521
# Poissons Ratio (z) = -0.01334 0.38151
#
# Static dielectric constant tensor:
#      x y z
#    x 1.967360 0.003960 -0.031200 
#    y 0.003960 1.933610 0.021500 
#    z -0.031200 0.021500 1.911820 
# 
# From -- ./inp_files/426304.got.cif
#   From: 2010.05.17/outbox.cif.g08.bks.cpg/sg2_214_cif.got.tgz:426304.got - 2010.06.03 11:33:40.
