data_PCOD9071476
_publ_section_title
;
Structure prediction by ZEFSAII (Michael W. Deem and Ramdas Pophale) SiO2 
 PCOD9071476
Probable space group: P -1
;
_chemical_formula_sum "Si O2"
_cell_formula_units_Z 12
_cell_length_a 9.659589
_cell_length_b 9.667473
_cell_length_c 5.018487
_cell_angle_alpha 110.008674
_cell_angle_beta 71.870549
_cell_angle_gamma 93.845830
_cell_volume 418.089747
_symmetry_space_group_name_H-M "P -1"
_symmetry_group_IT_number 2
_symmetry_cell_setting 'triclinic'
loop_
_space_group_symop_operation_xyz
x,y,z
-x,-y,-z
loop_
_atom_site_type_symbol
_atom_site_label
_atom_site_fract_x
_atom_site_fract_y
_atom_site_fract_z
Si Si1 0.808285 0.101781 0.209882
Si Si2 0.810338 0.909962 0.559783
Si Si3 0.827385 0.519431 0.058069
Si Si4 0.585705 0.680241 0.561374
Si Si5 0.608481 0.305321 0.791229
Si Si6 0.038504 0.326393 0.318956
O O1 0.668296 0.161302 0.500908
O O2 0.905277 0.243718 0.212907
O O3 0.214276 0.972431 0.108644
O O4 0.874152 0.982380 0.304220
O O5 0.658354 0.833810 0.551671
O O6 0.916953 0.780065 0.533430
O O7 0.749301 0.388972 0.867344
O O8 0.724911 0.563369 0.398016
O O9 0.492596 0.708272 0.899860
O O10 0.000000 0.500000 0.000000
O O11 0.490427 0.620904 0.334565
O O12 0.825610 0.661342 0.955134
O O13 0.000000 0.500000 0.500000
#
# Coordination Sequence:
#
# PCOD9071476 Si02
#       6
#     2   2   2   2   2   2
#     4  12  28  51  83 123 171 220 277 350 426 501
#     4  12  28  52  80 123 171 223 277 348 424 503
#     4  12  28  50  88 125 170 218 288 354 420 492
#     4  12  28  52  81 122 170 222 279 346 424 500
#     4  12  28  52  83 124 168 222 276 352 421 503
#     4  12  26  50  84 124 169 217 288 352 421 491
#
# _framework density 28.701972999999999
#
# number of rings (size 3 to 8) (size 9 to 14) (size 15 to 20)
#    0.000    0.000    1.667    7.000    4.667    5.333 
#    0.000    0.000    0.000    0.000    0.000    0.000 
#    0.000    0.000    0.000    0.000    0.000    0.000 
#
# Total GULP energy -67297.974676 kJ/mol
# GULP energy per Si atom -5608.164556 kJ/mol
# Density = 2.863665 g / cm^3
# Si number density = 28.701973 Si / 1000 Ang^3
#
#
#
# Elastic Constant Matrix: (Units=GPa)
#
#
# Indices 1 2 3 4 5 6 
#
# 1 181.7214 50.3227 72.8630 7.5995 6.5249 16.0268
# 2 50.3227 117.9945 41.9453 4.5187 1.3219 28.0559
# 3 72.8630 41.9453 214.2165 1.5224 -2.5389 25.5672
# 4 7.5995 4.5187 1.5224 69.4082 1.5471 -0.5930
# 5 6.5249 1.3219 -2.5389 1.5471 56.7176 0.8932
# 6 16.0268 28.0559 25.5672 -0.5930 0.8932 65.5409
#
#
#
# Elastic Compliance Matrix: (Units=1/GPa)
#
#
# Indices 1 2 3 4 5 6 
#
# 1 0.006952 -0.002254 -0.001932 -0.000554 -0.000819 0.000025
# 2 -0.002254 0.010636 -0.000875 -0.000459 0.000042 -0.003665
# 3 -0.001932 -0.000875 0.005665 0.000121 0.000515 -0.001369
# 4 -0.000554 -0.000459 0.000121 0.014506 -0.000322 0.000420
# 5 -0.000819 0.000042 0.000515 -0.000322 0.017760 -0.000264
# 6 0.000025 -0.003665 -0.001369 0.000420 -0.000264 0.017362
#
#
# Mechanical properties :
#
#
# Convention : Reuss Voigt Hill
#
# Bulk Modulus (GPa) = 76.14965 93.79938 84.97451
# Shear Modulus (GPa) = 57.22141 61.58675 59.40408
#
# Velocity S-wave (km/s) = 4.46986 4.63723 4.55432
# Velocity P-wave (km/s) = 7.29577 7.83730 7.57138
#
# Compressibility (1/GPa) = 0.01313204
#
# Stress axis : x y z
#
# Youngs Moduli (GPa) = 143.84175 94.02351 176.51397
#
# Poissons Ratio (x) = 0.21189 0.34104
# Poissons Ratio (y) = 0.32416 0.15442
# Poissons Ratio (z) = 0.27792 0.08225
#
# Static dielectric constant tensor:
#      x y z
#    x 2.343290 -0.128300 -0.013150 
#    y -0.128300 2.387990 -0.091730 
#    z -0.013150 -0.091730 2.504630 
# 
# From -- ./inp_files/166250.got.cif
#   From: 2010.05.17/outbox.cif.g08.bks.cpg/sg2_84_cif.got.tgz:166250.got - 2010.06.03 11:33:40.
