data_PCOD9071621
_publ_section_title
;
Structure prediction by ZEFSAII (Michael W. Deem and Ramdas Pophale) SiO2 
 PCOD9071621
Probable space group: P -1
;
_chemical_formula_sum "Si O2"
_cell_formula_units_Z 10
_cell_length_a 7.855779
_cell_length_b 5.041656
_cell_length_c 14.037547
_cell_angle_alpha 71.590313
_cell_angle_beta 129.857374
_cell_angle_gamma 115.699051
_cell_volume 383.994612
_symmetry_space_group_name_H-M "P -1"
_symmetry_group_IT_number 2
_symmetry_cell_setting 'triclinic'
loop_
_space_group_symop_operation_xyz
x,y,z
-x,-y,-z
loop_
_atom_site_type_symbol
_atom_site_label
_atom_site_fract_x
_atom_site_fract_y
_atom_site_fract_z
Si Si1 0.728417 0.560099 0.511044
Si Si2 0.484265 0.292202 0.762953
Si Si3 0.095060 0.867373 0.141000
Si Si4 0.654965 0.348707 0.013396
Si Si5 0.020918 0.929286 0.321280
O O1 0.500000 0.500000 0.500000
O O2 0.624370 0.538821 0.370651
O O3 0.883331 0.347405 0.602583
O O4 0.873237 0.871019 0.572261
O O5 0.639254 0.126767 0.781661
O O6 0.250417 0.116879 0.755179
O O7 0.655020 0.443992 0.892140
O O8 0.079662 0.013557 0.221518
O O9 0.918011 0.526595 0.123806
O O10 0.000000 0.000000 0.000000
O O11 0.500000 0.500000 0.000000
O O12 0.500000 0.000000 0.000000
#
# Coordination Sequence:
#
# PCOD9071621 Si02
#       5
#     2   2   2   2   2
#     4  12  28  52  81 117 158 215 272 334 407 482
#     4  12  28  49  85 111 167 210 274 332 410 476
#     4  12  29  51  86 123 164 217 276 335 413 489
#     4  12  28  51  79 118 161 209 266 333 404 482
#     4  12  29  52  80 118 163 208 276 335 404 488
#
# _framework density 26.042031000000001
#
# number of rings (size 3 to 8) (size 9 to 14) (size 15 to 20)
#    0.000    0.000    4.000    3.600    5.600    3.200 
#    0.000    0.000    0.000    0.000    0.000    0.000 
#    0.000    0.000    0.000    0.000    0.000    0.000 
#
# Total GULP energy -55889.985378 kJ/mol
# GULP energy per Si atom -5588.998538 kJ/mol
# Density = 2.598276 g / cm^3
# Si number density = 26.042031 Si / 1000 Ang^3
#
#
#
# Elastic Constant Matrix: (Units=GPa)
#
#
# Indices 1 2 3 4 5 6 
#
# 1 233.2742 7.9379 19.7689 6.5006 -5.1899 -0.3676
# 2 7.9379 155.4158 45.1368 -4.5494 27.5218 -41.0220
# 3 19.7689 45.1368 148.9767 -7.1012 -2.4176 3.9897
# 4 6.5006 -4.5494 -7.1012 43.4576 -6.8226 -6.9375
# 5 -5.1899 27.5218 -2.4176 -6.8226 91.0924 -5.5631
# 6 -0.3676 -41.0220 3.9897 -6.9375 -5.5631 36.3816
#
#
#
# Elastic Compliance Matrix: (Units=1/GPa)
#
#
# Indices 1 2 3 4 5 6 
#
# 1 0.004365 -0.000178 -0.000552 -0.000761 0.000218 -0.000208
# 2 -0.000178 0.011690 -0.003812 0.002394 -0.002630 0.013651
# 3 -0.000552 -0.003812 0.008109 0.000384 0.001062 -0.004958
# 4 -0.000761 0.002394 0.000384 0.024905 0.001575 0.007639
# 5 0.000218 -0.002630 0.001062 0.001575 0.011872 -0.000964
# 6 -0.000208 0.013651 -0.004958 0.007639 -0.000964 0.044730
#
#
# Mechanical properties :
#
#
# Convention : Reuss Voigt Hill
#
# Bulk Modulus (GPa) = 66.32110 75.92820 71.12465
# Shear Modulus (GPa) = 41.74210 65.17453 53.45832
#
# Velocity S-wave (km/s) = 4.00793 5.00809 4.53567
# Velocity P-wave (km/s) = 6.85130 7.91585 7.40273
#
# Compressibility (1/GPa) = 0.01507816
#
# Stress axis : x y z
#
# Youngs Moduli (GPa) = 229.07326 85.54534 123.31870
#
# Poissons Ratio (x) = 0.01526 0.06812
# Poissons Ratio (y) = 0.04087 0.47012
# Poissons Ratio (z) = 0.12653 0.32612
#
# Static dielectric constant tensor:
#      x y z
#    x 1.842580 -0.015450 -0.150760 
#    y -0.015450 2.082560 -0.112420 
#    z -0.150760 -0.112420 1.689090 
# 
# From -- ./inp_files/486422.got.cif
#   From: 2010.05.17/outbox.cif.g08.bks.cpg/sg2_244_cif.got.tgz:486422.got - 2010.06.03 11:33:40.
