data_PCOD9071099
_publ_section_title
;
Structure prediction by ZEFSAII (Michael W. Deem and Ramdas Pophale) SiO2 
 PCOD9071099
Probable space group: P -1
;
_chemical_formula_sum "Si O2"
_cell_formula_units_Z 14
_cell_length_a 8.062312
_cell_length_b 15.635393
_cell_length_c 21.126914
_cell_angle_alpha 155.876781
_cell_angle_beta 145.377940
_cell_angle_gamma 32.932904
_cell_volume 572.006811
_symmetry_space_group_name_H-M "P -1"
_symmetry_group_IT_number 2
_symmetry_cell_setting 'triclinic'
loop_
_space_group_symop_operation_xyz
x,y,z
-x,-y,-z
loop_
_atom_site_type_symbol
_atom_site_label
_atom_site_fract_x
_atom_site_fract_y
_atom_site_fract_z
Si Si1 0.683497 0.906717 0.116200
Si Si2 0.148975 0.671257 0.993865
Si Si3 0.169378 0.143061 0.307380
Si Si4 0.765553 0.609900 0.718907
Si Si5 0.215657 0.869035 0.577582
Si Si6 0.748204 0.370786 0.220024
Si Si7 0.473748 0.883216 0.478442
O O1 0.953290 0.741142 0.044333
O O2 0.530506 0.156795 0.205948
O O3 0.798519 0.953192 0.251648
O O4 0.414447 0.802887 0.965729
O O5 0.154294 0.903084 0.123412
O O6 0.500000 0.500000 0.000000
O O7 0.975643 0.573013 0.822900
O O8 0.489496 0.156030 0.389912
O O9 0.231667 0.138069 0.398463
O O10 0.877969 0.326922 0.303317
O O11 0.715599 0.377584 0.537821
O O12 0.959043 0.653919 0.750462
O O13 0.871806 0.962042 0.500612
O O14 0.505525 0.626289 0.307317
O O15 0.500000 0.000000 0.500000
#
# Coordination Sequence:
#
# PCOD9071099 Si02
#       7
#     2   2   2   2   2   2   2
#     4  12  27  49  77 116 155 209 259 314 398 460
#     4  12  29  48  77 115 159 203 261 327 389 460
#     4  12  27  50  76 112 157 203 267 312 386 469
#     4  12  25  50  75 115 161 204 260 321 383 466
#     4  12  27  47  81 112 158 205 262 320 388 455
#     4  12  27  49  80 112 158 206 263 315 383 469
#     4  12  27  49  76 118 158 204 254 327 392 456
#
# _framework density 24.475232999999999
#
# number of rings (size 3 to 8) (size 9 to 14) (size 15 to 20)
#    0.000    0.000    4.286    4.714    6.000    0.571 
#    0.000    0.000    0.000    0.000    0.000    0.000 
#    0.000    0.000    0.000    0.000    0.000    0.000 
#
# Total GULP energy -78517.348873 kJ/mol
# GULP energy per Si atom -5608.382062 kJ/mol
# Density = 2.441953 g / cm^3
# Si number density = 24.475233 Si / 1000 Ang^3
#
#
#
# Elastic Constant Matrix: (Units=GPa)
#
#
# Indices 1 2 3 4 5 6 
#
# 1 106.3712 28.2277 35.1503 2.0292 8.2285 5.3618
# 2 28.2277 127.1691 29.5388 14.1369 -3.8885 13.8170
# 3 35.1503 29.5388 130.6736 -0.3719 10.9004 15.4526
# 4 2.0292 14.1369 -0.3719 36.2500 7.7370 -1.9986
# 5 8.2285 -3.8885 10.9004 7.7370 42.2815 -8.7583
# 6 5.3618 13.8170 15.4526 -1.9986 -8.7583 40.3850
#
#
#
# Elastic Compliance Matrix: (Units=1/GPa)
#
#
# Indices 1 2 3 4 5 6 
#
# 1 0.010821 -0.001956 -0.002281 0.000513 -0.001848 -0.000270
# 2 -0.001956 0.009400 -0.001517 -0.004105 0.001940 -0.002158
# 3 -0.002281 -0.001517 0.009254 0.001272 -0.002999 -0.003306
# 4 0.000513 -0.004105 0.001272 0.030548 -0.006184 0.001020
# 5 -0.001848 0.001940 -0.002999 -0.006184 0.027413 0.006368
# 6 -0.000270 -0.002158 -0.003306 0.001020 0.006368 0.028233
#
#
# Mechanical properties :
#
#
# Convention : Reuss Voigt Hill
#
# Bulk Modulus (GPa) = 55.65964 61.11638 58.38801
# Shear Modulus (GPa) = 37.54733 41.86977 39.70855
#
# Velocity S-wave (km/s) = 3.92100 4.14055 4.03227
# Velocity P-wave (km/s) = 6.57948 6.91981 6.75179
#
# Compressibility (1/GPa) = 0.01796634
#
# Stress axis : x y z
#
# Youngs Moduli (GPa) = 92.41586 106.37909 108.06212
#
# Poissons Ratio (x) = 0.20810 0.24649
# Poissons Ratio (y) = 0.18079 0.16394
# Poissons Ratio (z) = 0.21080 0.16138
#
# Static dielectric constant tensor:
#      x y z
#    x 1.965780 0.005470 -0.013570 
#    y 0.005470 1.920850 -0.022330 
#    z -0.013570 -0.022330 1.929270 
# 
# From -- ./inp_files/608478.got.cif
#   From: 2010.05.17/outbox.cif.g08.bks.cpg/sg2_305_cif.got.tgz:608478.got - 2010.06.03 11:33:40.
