data_PCOD9071292
_publ_section_title
;
Structure prediction by ZEFSAII (Michael W. Deem and Ramdas Pophale) SiO2 
 PCOD9071292
Probable space group: P -1
;
_chemical_formula_sum "Si O2"
_cell_formula_units_Z 14
_cell_length_a 16.007014
_cell_length_b 9.883918
_cell_length_c 16.456543
_cell_angle_alpha 25.793006
_cell_angle_beta 146.760597
_cell_angle_gamma 145.407980
_cell_volume 593.509721
_symmetry_space_group_name_H-M "P -1"
_symmetry_group_IT_number 2
_symmetry_cell_setting 'triclinic'
loop_
_space_group_symop_operation_xyz
x,y,z
-x,-y,-z
loop_
_atom_site_type_symbol
_atom_site_label
_atom_site_fract_x
_atom_site_fract_y
_atom_site_fract_z
Si Si1 0.125406 0.726851 0.130312
Si Si2 0.315996 0.476108 0.860588
Si Si3 0.233264 0.283936 0.173495
Si Si4 0.369122 0.580386 0.289810
Si Si5 0.371446 0.836591 0.867663
Si Si6 0.151584 0.230223 0.545067
Si Si7 0.147259 0.553888 0.528338
O O1 0.212142 0.577620 0.212599
O O2 0.172181 0.575551 0.332028
O O3 0.935852 0.634445 0.012833
O O4 0.202404 0.114903 0.981285
O O5 0.287132 0.715320 0.777992
O O6 0.287720 0.568232 0.696831
O O7 0.500000 0.500000 0.000000
O O8 0.316585 0.355571 0.290340
O O9 0.184817 0.900394 0.328051
O O10 0.347199 0.515833 0.075176
O O11 0.500000 0.500000 0.500000
O O12 0.451617 0.944823 0.126912
O O13 0.292873 0.077839 0.721139
O O14 0.125403 0.274967 0.594449
O O15 0.000000 0.000000 0.500000
O O16 0.000000 0.500000 0.500000
#
# Coordination Sequence:
#
# PCOD9071292 Si02
#       7
#     2   2   2   2   2   2   2
#     4  12  26  47  78 110 153 200 258 304 388 444
#     4  12  27  50  77 110 153 202 252 313 378 454
#     4  12  28  46  78 111 154 199 261 312 382 452
#     4  12  26  48  76 115 156 202 251 318 381 451
#     4  12  26  49  78 111 157 198 252 314 383 445
#     4  12  27  46  78 115 153 195 254 321 377 450
#     4  12  28  48  76 113 153 198 258 314 384 450
#
# _framework density 23.588494000000001
#
# number of rings (size 3 to 8) (size 9 to 14) (size 15 to 20)
#    0.000    0.000    5.714    3.429    4.000    2.286 
#    0.000    2.143    0.000    0.000    0.000    0.000 
#    0.000    0.000    0.000    0.000    0.000    0.000 
#
# Total GULP energy -78422.971559 kJ/mol
# GULP energy per Si atom -5601.640826 kJ/mol
# Density = 2.353481 g / cm^3
# Si number density = 23.588494 Si / 1000 Ang^3
#
#
#
# Elastic Constant Matrix: (Units=GPa)
#
#
# Indices 1 2 3 4 5 6 
#
# 1 120.9683 45.2087 32.2633 4.9338 -15.3155 -29.4427
# 2 45.2087 81.5876 17.0663 -4.1008 -6.5580 -23.1278
# 3 32.2633 17.0663 95.6089 -4.9564 -9.1362 -1.3804
# 4 4.9338 -4.1008 -4.9564 41.5741 7.7288 -4.6748
# 5 -15.3155 -6.5580 -9.1362 7.7288 27.1332 -5.4990
# 6 -29.4427 -23.1278 -1.3804 -4.6748 -5.4990 58.5943
#
#
#
# Elastic Compliance Matrix: (Units=1/GPa)
#
#
# Indices 1 2 3 4 5 6 
#
# 1 0.013117 -0.004797 -0.002976 -0.003149 0.007163 0.005049
# 2 -0.004797 0.016598 -0.001046 0.002360 0.001174 0.004415
# 3 -0.002976 -0.001046 0.011829 0.001240 0.001414 -0.001398
# 4 -0.003149 0.002360 0.001240 0.026407 -0.008165 0.000719
# 5 0.007163 0.001174 0.001414 -0.008165 0.045548 0.007719
# 6 0.005049 0.004415 -0.001398 0.000719 0.007719 0.022095
#
#
# Mechanical properties :
#
#
# Convention : Reuss Voigt Hill
#
# Bulk Modulus (GPa) = 41.82882 54.13793 47.98337
# Shear Modulus (GPa) = 31.01712 39.03543 35.02627
#
# Velocity S-wave (km/s) = 3.63012 4.07240 3.85760
# Velocity P-wave (km/s) = 5.94488 6.71665 6.34252
#
# Compressibility (1/GPa) = 0.02390696
#
# Stress axis : x y z
#
# Youngs Moduli (GPa) = 76.23557 60.24751 84.53509
#
# Poissons Ratio (x) = 0.28903 0.25158
# Poissons Ratio (y) = 0.36573 0.08839
# Poissons Ratio (z) = 0.22688 0.06300
#
# Static dielectric constant tensor:
#      x y z
#    x 1.901290 -0.007430 0.003370 
#    y -0.007430 1.896690 -0.009840 
#    z 0.003370 -0.009840 2.065270 
# 
# From -- ./inp_files/189717.got.cif
#   From: 2010.05.17/outbox.cif.g08.bks.cpg/sg2_95_cif.got.tgz:189717.got - 2010.06.03 11:33:40.
