data_PCOD9071038
_publ_section_title
;
Structure prediction by ZEFSAII (Michael W. Deem and Ramdas Pophale) SiO2 
 PCOD9071038
Probable space group: P -1
;
_chemical_formula_sum "Si O2"
_cell_formula_units_Z 16
_cell_length_a 9.020275
_cell_length_b 9.106627
_cell_length_c 14.731350
_cell_angle_alpha 85.692446
_cell_angle_beta 39.421950
_cell_angle_gamma 72.677548
_cell_volume 709.238762
_symmetry_space_group_name_H-M "P -1"
_symmetry_group_IT_number 2
_symmetry_cell_setting 'triclinic'
loop_
_space_group_symop_operation_xyz
x,y,z
-x,-y,-z
loop_
_atom_site_type_symbol
_atom_site_label
_atom_site_fract_x
_atom_site_fract_y
_atom_site_fract_z
Si Si1 0.360252 0.143871 0.831769
Si Si2 0.250778 0.658781 0.112028
Si Si3 0.356348 0.804799 0.872963
Si Si4 0.265942 0.344557 0.692624
Si Si5 0.944991 0.666444 0.567823
Si Si6 0.091376 0.681592 0.848342
Si Si7 0.816045 0.222986 0.389919
Si Si8 0.116261 0.876149 0.338955
O O1 0.316160 0.202299 0.747045
O O2 0.649265 0.103319 0.722407
O O3 0.286353 0.992451 0.888909
O O4 0.174562 0.282136 0.977877
O O5 0.234795 0.764842 0.202159
O O6 0.996479 0.622488 0.234299
O O7 0.500000 0.500000 0.000000
O O8 0.254242 0.755856 0.015009
O O9 0.658700 0.729209 0.733963
O O10 0.255948 0.735575 0.838657
O O11 0.230439 0.499400 0.762001
O O12 0.514814 0.294087 0.516315
O O13 0.000000 0.500000 0.500000
O O14 0.117067 0.667594 0.572840
O O15 0.990070 0.786283 0.468357
O O16 0.053767 0.776741 0.767522
O O17 0.921503 0.045720 0.388936
#
# Coordination Sequence:
#
# PCOD9071038 Si02
#       8
#     2   2   2   2   2   2   2   2
#     4  12  25  49  76 102 149 192 239 295 363 425
#     4  12  29  47  75 110 144 189 247 296 362 429
#     4  12  27  47  72 108 146 187 241 300 361 423
#     4  12  27  48  73 102 150 191 239 296 358 434
#     4  12  26  46  73 105 150 189 237 300 358 429
#     4  12  28  45  75 107 146 192 239 301 359 423
#     4  12  27  49  73 108 145 193 244 292 362 431
#     4  12  27  48  76 107 145 196 238 299 358 427
#
# _framework density 22.559398999999999
#
# number of rings (size 3 to 8) (size 9 to 14) (size 15 to 20)
#    0.000    0.000    3.750    5.250   10.500    1.500 
#    0.000    0.000    0.000    0.000    0.000    0.000 
#    0.000    0.000    0.000    0.000    0.000    0.000 
#
# Total GULP energy -89713.139426 kJ/mol
# GULP energy per Si atom -5607.071214 kJ/mol
# Density = 2.250805 g / cm^3
# Si number density = 22.559399 Si / 1000 Ang^3
#
#
#
# Elastic Constant Matrix: (Units=GPa)
#
#
# Indices 1 2 3 4 5 6 
#
# 1 103.3583 22.9216 7.2953 -3.9799 -8.5319 9.8668
# 2 22.9216 77.8611 1.9681 -2.8879 -8.6160 10.0320
# 3 7.2953 1.9681 66.8565 -0.5433 -12.8984 2.6921
# 4 -3.9799 -2.8879 -0.5433 45.9698 -9.8691 4.1725
# 5 -8.5319 -8.6160 -12.8984 -9.8691 51.2328 2.1690
# 6 9.8668 10.0320 2.6921 4.1725 2.1690 29.8842
#
#
#
# Elastic Compliance Matrix: (Units=1/GPa)
#
#
# Indices 1 2 3 4 5 6 
#
# 1 0.010750 -0.002543 -0.000663 0.001370 0.001584 -0.002942
# 2 -0.002543 0.014518 0.000562 0.001682 0.002675 -0.004514
# 3 -0.000663 0.000562 0.015933 0.001266 0.004319 -0.001895
# 4 0.001370 0.001682 0.001266 0.023631 0.005587 -0.004836
# 5 0.001584 0.002675 0.004319 0.005587 0.022575 -0.004229
# 6 -0.002942 -0.004514 -0.001895 -0.004836 -0.004229 0.037102
#
#
# Mechanical properties :
#
#
# Convention : Reuss Voigt Hill
#
# Bulk Modulus (GPa) = 27.84532 34.71620 31.28076
# Shear Modulus (GPa) = 35.26881 39.81009 37.53945
#
# Velocity S-wave (km/s) = 3.95824 4.20537 4.08367
# Velocity P-wave (km/s) = 5.76716 6.24518 6.01093
#
# Compressibility (1/GPa) = 0.03591268
#
# Stress axis : x y z
#
# Youngs Moduli (GPa) = 93.02146 68.88155 62.76232
#
# Poissons Ratio (x) = 0.17515 0.04161
# Poissons Ratio (y) = 0.23653 -0.03524
# Poissons Ratio (z) = 0.06167 -0.03868
#
# Static dielectric constant tensor:
#      x y z
#    x 1.810370 -0.010410 -0.016360 
#    y -0.010410 1.841960 0.002290 
#    z -0.016360 0.002290 1.796810 
# 
# From -- ./inp_files/207349.got.cif
#   From: 2010.05.17/outbox.cif.g08.bks.cpg/sg2_104_cif.got.tgz:207349.got - 2010.06.03 11:33:40.
