data_PCOD9071700
_publ_section_title
;
Structure prediction by ZEFSAII (Michael W. Deem and Ramdas Pophale) SiO2 
 PCOD9071700
Probable space group: P -1
;
_chemical_formula_sum "Si O2"
_cell_formula_units_Z 10
_cell_length_a 7.526267
_cell_length_b 7.671299
_cell_length_c 8.833107
_cell_angle_alpha 109.526071
_cell_angle_beta 125.828959
_cell_angle_gamma 99.538907
_cell_volume 343.373054
_symmetry_space_group_name_H-M "P -1"
_symmetry_group_IT_number 2
_symmetry_cell_setting 'triclinic'
loop_
_space_group_symop_operation_xyz
x,y,z
-x,-y,-z
loop_
_atom_site_type_symbol
_atom_site_label
_atom_site_fract_x
_atom_site_fract_y
_atom_site_fract_z
Si Si1 0.043501 0.832571 0.571902
Si Si2 0.805091 0.072167 0.864208
Si Si3 0.748788 0.295580 0.615711
Si Si4 0.458705 0.781175 0.016243
Si Si5 0.526839 0.548874 0.279212
O O1 0.071517 0.668725 0.425773
O O2 0.804601 0.707880 0.519536
O O3 0.311504 0.985571 0.815061
O O4 0.000000 0.000000 0.500000
O O5 0.863659 0.207885 0.778114
O O6 0.773159 0.207561 0.021609
O O7 0.524959 0.886965 0.628150
O O8 0.000000 0.000000 0.000000
O O9 0.676939 0.459924 0.707301
O O10 0.507534 0.662828 0.150005
O O11 0.472181 0.659046 0.839363
#
# Coordination Sequence:
#
# PCOD9071700 Si02
#       5
#     2   2   2   2   2
#     4   9  16  29  51  74 101 135 166 208 257 297
#     4   9  16  30  52  74 102 136 167 210 257 297
#     4   9  18  32  52  76 100 136 175 203 255 314
#     4   8  16  29  47  74 101 130 170 207 250 306
#     4   9  16  31  51  73 105 131 164 218 251 292
#
# _framework density 29.122844000000001
#
# number of rings (size 3 to 8) (size 9 to 14) (size 15 to 20)
#    0.000    3.200    0.000    3.600    0.000    0.000 
#    0.000   21.000    0.000   48.000    0.000    0.000 
#    0.000    0.000    0.000    0.000    0.000    0.000 
#
# Total GULP energy -56039.257770 kJ/mol
# GULP energy per Si atom -5603.925777 kJ/mol
# Density = 2.905656 g / cm^3
# Si number density = 29.122844 Si / 1000 Ang^3
#
#
#
# Elastic Constant Matrix: (Units=GPa)
#
#
# Indices 1 2 3 4 5 6 
#
# 1 175.4749 71.0555 39.5270 9.6656 -4.6423 -33.0218
# 2 71.0555 142.7234 69.6281 -21.8484 -19.8065 -43.8524
# 3 39.5270 69.6281 136.3330 -12.5155 10.1822 -32.1352
# 4 9.6656 -21.8484 -12.5155 71.8771 -11.0449 -14.5440
# 5 -4.6423 -19.8065 10.1822 -11.0449 36.1014 -8.2800
# 6 -33.0218 -43.8524 -32.1352 -14.5440 -8.2800 60.9955
#
#
#
# Elastic Compliance Matrix: (Units=1/GPa)
#
#
# Indices 1 2 3 4 5 6 
#
# 1 0.007635 -0.004704 0.000054 -0.002892 -0.002558 -0.000257
# 2 -0.004704 0.022416 -0.006739 0.012745 0.021147 0.015928
# 3 0.000054 -0.006739 0.011128 -0.001287 -0.007280 -0.000248
# 4 -0.002892 0.012745 -0.001287 0.023695 0.017666 0.014967
# 5 -0.002558 0.021147 -0.007280 0.017666 0.051283 0.021157
# 6 -0.000257 0.015928 -0.000248 0.014967 0.021157 0.034017
#
#
# Mechanical properties :
#
#
# Convention : Reuss Voigt Hill
#
# Bulk Modulus (GPa) = 54.34768 90.55027 72.44898
# Shear Modulus (GPa) = 27.91943 52.08284 40.00114
#
# Velocity S-wave (km/s) = 3.09961 4.23352 3.71014
# Velocity P-wave (km/s) = 5.61357 7.42003 6.57910
#
# Compressibility (1/GPa) = 0.01840005
#
# Stress axis : x y z
#
# Youngs Moduli (GPa) = 130.97992 44.61074 89.86050
#
# Poissons Ratio (x) = 0.20985 -0.00484
# Poissons Ratio (y) = 0.61613 0.60560
# Poissons Ratio (z) = -0.00705 0.30065
#
# Static dielectric constant tensor:
#      x y z
#    x 2.123990 0.019980 -0.009730 
#    y 0.019980 2.419730 -0.059150 
#    z -0.009730 -0.059150 2.348620 
# 
# From -- ./inp_files/146483.got.cif
#   From: 2010.05.17/outbox.cif.g08.bks.cpg/sg2_74_cif.got.tgz:146483.got - 2010.06.03 11:33:40.
