data_PCOD9071472
_publ_section_title
;
Structure prediction by ZEFSAII (Michael W. Deem and Ramdas Pophale) SiO2 
 PCOD9071472
Probable space group: P -1
;
_chemical_formula_sum "Si O2"
_cell_formula_units_Z 12
_cell_length_a 21.104119
_cell_length_b 14.181308
_cell_length_c 4.976701
_cell_angle_alpha 76.852922
_cell_angle_beta 86.469088
_cell_angle_gamma 21.606068
_cell_volume 485.177366
_symmetry_space_group_name_H-M "P -1"
_symmetry_group_IT_number 2
_symmetry_cell_setting 'triclinic'
loop_
_space_group_symop_operation_xyz
x,y,z
-x,-y,-z
loop_
_atom_site_type_symbol
_atom_site_label
_atom_site_fract_x
_atom_site_fract_y
_atom_site_fract_z
Si Si1 0.421216 0.008636 0.942419
Si Si2 0.026444 0.860536 0.432241
Si Si3 0.574172 0.679862 0.601920
Si Si4 0.641543 0.361618 0.878181
Si Si5 0.009110 0.601242 0.434603
Si Si6 0.893008 0.881213 0.758409
O O1 0.533214 0.788079 0.827753
O O2 0.161682 0.895177 0.847548
O O3 0.215985 0.324463 0.672701
O O4 0.500000 0.000000 0.000000
O O5 0.214956 0.596190 0.377535
O O6 0.036408 0.759995 0.710395
O O7 0.000000 0.000000 0.500000
O O8 0.288853 0.801314 0.287798
O O9 0.429231 0.931922 0.257754
O O10 0.562877 0.580201 0.682849
O O11 0.500000 0.500000 0.000000
O O12 0.866241 0.853424 0.522941
O O13 0.000000 0.500000 0.500000
O O14 0.972264 0.701936 0.093040
#
# Coordination Sequence:
#
# PCOD9071472 Si02
#       6
#     2   2   2   2   2   2
#     4  12  29  49  81 117 159 206 268 320 384 472
#     4  12  26  50  81 120 160 203 257 323 406 473
#     4  12  28  50  84 120 161 203 265 328 397 468
#     4  12  30  51  83 120 157 207 263 334 402 466
#     4  12  29  53  80 113 161 214 264 320 395 470
#     4  12  27  52  85 114 159 206 268 322 401 467
#
# _framework density 24.733224
#
# number of rings (size 3 to 8) (size 9 to 14) (size 15 to 20)
#    0.000    0.000    3.333    4.500    7.000    2.000 
#    3.000    0.000    0.000    0.000    0.000    0.000 
#    0.000    0.000    0.000    0.000    0.000    0.000 
#
# Total GULP energy -67399.659571 kJ/mol
# GULP energy per Si atom -5616.638298 kJ/mol
# Density = 2.467693 g / cm^3
# Si number density = 24.733224 Si / 1000 Ang^3
#
#
#
# Elastic Constant Matrix: (Units=GPa)
#
#
# Indices 1 2 3 4 5 6 
#
# 1 139.0522 73.2843 44.1788 18.2820 -49.3432 22.3537
# 2 73.2843 123.8098 2.4622 19.4082 -12.6503 18.4097
# 3 44.1788 2.4622 134.5329 5.8507 -43.2604 11.3984
# 4 18.2820 19.4082 5.8507 47.3648 5.4656 9.9787
# 5 -49.3432 -12.6503 -43.2604 5.4656 53.4644 -10.6197
# 6 22.3537 18.4097 11.3984 9.9787 -10.6197 65.0161
#
#
#
# Elastic Compliance Matrix: (Units=1/GPa)
#
#
# Indices 1 2 3 4 5 6 
#
# 1 0.017234 -0.007956 -0.000852 -0.004752 0.013709 -0.000555
# 2 -0.007956 0.012926 0.001571 -0.001756 -0.003119 -0.001440
# 3 -0.000852 0.001571 0.010473 -0.002509 0.008266 -0.000253
# 4 -0.004752 -0.001756 -0.002509 0.025777 -0.010068 -0.003030
# 5 0.013709 -0.003119 0.008266 -0.010068 0.038855 0.002612
# 6 -0.000555 -0.001440 -0.000253 -0.003030 0.002612 0.016915
#
#
# Mechanical properties :
#
#
# Convention : Reuss Voigt Hill
#
# Bulk Modulus (GPa) = 38.22678 70.80505 54.51591
# Shear Modulus (GPa) = 34.39473 51.66704 43.03088
#
# Velocity S-wave (km/s) = 3.73316 4.57549 4.17562
# Velocity P-wave (km/s) = 5.83705 7.52350 6.73328
#
# Compressibility (1/GPa) = 0.02615967
#
# Stress axis : x y z
#
# Youngs Moduli (GPa) = 58.02535 77.36634 95.48752
#
# Poissons Ratio (x) = 0.61551 0.08133
# Poissons Ratio (y) = 0.46164 -0.15005
# Poissons Ratio (z) = 0.04942 -0.12157
#
# Static dielectric constant tensor:
#      x y z
#    x 1.888900 -0.014700 0.016470 
#    y -0.014700 1.981070 -0.020670 
#    z 0.016470 -0.020670 1.957080 
# 
# From -- ./inp_files/107958.got.cif
#   From: 2010.05.17/outbox.cif.g08.bks.cpg/sg2_54_cif.got.tgz:107958.got - 2010.06.03 11:33:40.
