data_PCOD9071408
_publ_section_title
;
Structure prediction by ZEFSAII (Michael W. Deem and Ramdas Pophale) SiO2 
 PCOD9071408
Probable space group: P -1
;
_chemical_formula_sum "Si O2"
_cell_formula_units_Z 14
_cell_length_a 14.953127
_cell_length_b 8.268674
_cell_length_c 14.858946
_cell_angle_alpha 129.759660
_cell_angle_beta 28.383389
_cell_angle_gamma 111.968496
_cell_volume 575.062815
_symmetry_space_group_name_H-M "P -1"
_symmetry_group_IT_number 2
_symmetry_cell_setting 'triclinic'
loop_
_space_group_symop_operation_xyz
x,y,z
-x,-y,-z
loop_
_atom_site_type_symbol
_atom_site_label
_atom_site_fract_x
_atom_site_fract_y
_atom_site_fract_z
Si Si1 0.565935 0.043332 0.055033
Si Si2 0.233190 0.979785 0.783891
Si Si3 0.966104 0.317799 0.529262
Si Si4 0.631014 0.171714 0.710109
Si Si5 0.235523 0.426645 0.025601
Si Si6 0.056664 0.223396 0.842385
Si Si7 0.382480 0.567168 0.769150
O O1 0.486505 0.306595 0.263388
O O2 0.505314 0.889865 0.121081
O O3 0.500000 0.000000 0.000000
O O4 0.822993 0.938875 0.774797
O O5 0.229542 0.181656 0.924600
O O6 0.220379 0.071284 0.724986
O O7 0.439949 0.707185 0.517742
O O8 0.000000 0.000000 0.000000
O O9 0.756993 0.296624 0.684484
O O10 0.000000 0.500000 0.500000
O O11 0.950293 0.395464 0.675309
O O12 0.463248 0.345333 0.844858
O O13 0.809257 0.920238 0.415206
O O14 0.249568 0.536618 0.958182
O O15 0.811537 0.260937 0.068222
O O16 0.000000 0.500000 0.000000
#
# Coordination Sequence:
#
# PCOD9071408 Si02
#       7
#     2   2   2   2   2   2   2
#     4  12  30  47  77 116 154 205 260 317 389 462
#     4  12  30  48  77 117 155 205 260 319 387 464
#     4  12  28  49  78 113 150 203 259 316 392 457
#     4  12  27  51  77 114 157 203 257 321 390 459
#     4  12  26  49  80 109 153 205 259 321 387 457
#     4  12  26  49  78 111 157 203 255 316 389 454
#     4  12  27  50  76 113 157 200 260 316 386 469
#
# _framework density 24.345165999999999
#
# number of rings (size 3 to 8) (size 9 to 14) (size 15 to 20)
#    0.000    0.000    5.714    2.571   12.000    1.714 
#    0.000    0.000    0.000    0.000    0.000    0.000 
#    0.000    0.000    0.000    0.000    0.000    0.000 
#
# Total GULP energy -78389.068556 kJ/mol
# GULP energy per Si atom -5599.219183 kJ/mol
# Density = 2.428976 g / cm^3
# Si number density = 24.345166 Si / 1000 Ang^3
#
#
#
# Elastic Constant Matrix: (Units=GPa)
#
#
# Indices 1 2 3 4 5 6 
#
# 1 101.1378 11.2821 25.9199 -1.2257 7.2193 27.0240
# 2 11.2821 72.2677 24.0039 -4.7771 21.9248 34.6868
# 3 25.9199 24.0039 129.7918 -0.7738 15.4158 4.6562
# 4 -1.2257 -4.7771 -0.7738 39.6766 2.9387 4.6804
# 5 7.2193 21.9248 15.4158 2.9387 50.4989 2.2523
# 6 27.0240 34.6868 4.6562 4.6804 2.2523 49.2579
#
#
#
# Elastic Compliance Matrix: (Units=1/GPa)
#
#
# Indices 1 2 3 4 5 6 
#
# 1 0.013089 0.004941 -0.002801 0.002392 -0.002833 -0.010493
# 2 0.004941 0.029733 -0.004212 0.007279 -0.011709 -0.023406
# 3 -0.002801 -0.004212 0.008978 -0.000815 -0.000632 0.003760
# 4 0.002392 0.007279 -0.000815 0.027503 -0.004463 -0.008770
# 5 -0.002833 -0.011709 -0.000632 -0.004463 0.025337 0.009125
# 6 -0.010493 -0.023406 0.003760 -0.008770 0.009125 0.042601
#
#
# Mechanical properties :
#
#
# Convention : Reuss Voigt Hill
#
# Bulk Modulus (GPa) = 20.98305 47.28990 34.13648
# Shear Modulus (GPa) = 29.89166 44.01944 36.95555
#
# Velocity S-wave (km/s) = 3.50784 4.25683 3.90036
# Velocity P-wave (km/s) = 5.00442 6.60513 5.85969
#
# Compressibility (1/GPa) = 0.04765751
#
# Stress axis : x y z
#
# Youngs Moduli (GPa) = 76.39956 33.63246 111.38110
#
# Poissons Ratio (x) = -0.16617 0.31193
# Poissons Ratio (y) = -0.37748 0.46911
# Poissons Ratio (z) = 0.21396 0.14165
#
# Static dielectric constant tensor:
#      x y z
#    x 2.100180 -0.197720 0.005640 
#    y -0.197720 2.236360 -0.056950 
#    z 0.005640 -0.056950 2.008840 
# 
# From -- ./inp_files/530101.got.cif
#   From: 2010.05.17/outbox.cif.g08.bks.cpg/sg2_266_cif.got.tgz:530101.got - 2010.06.03 11:33:40.
