data_PCOD9071232
_publ_section_title
;
Structure prediction by ZEFSAII (Michael W. Deem and Ramdas Pophale) SiO2 
 PCOD9071232
Probable space group: P -1
;
_chemical_formula_sum "Si O2"
_cell_formula_units_Z 15
_cell_length_a 13.681798
_cell_length_b 16.578842
_cell_length_c 9.873347
_cell_angle_alpha 123.405639
_cell_angle_beta 45.850382
_cell_angle_gamma 154.345338
_cell_volume 673.828170
_symmetry_space_group_name_H-M "P -1"
_symmetry_group_IT_number 2
_symmetry_cell_setting 'triclinic'
loop_
_space_group_symop_operation_xyz
x,y,z
-x,-y,-z
loop_
_atom_site_type_symbol
_atom_site_label
_atom_site_fract_x
_atom_site_fract_y
_atom_site_fract_z
Si Si1 0.919863 0.464298 0.388311
Si Si2 0.273454 0.154430 0.966630
Si Si3 0.804512 0.651280 0.322328
Si Si4 0.114008 0.328448 0.432391
Si Si5 0.500000 0.500000 0.000000
Si Si6 0.837122 0.962969 0.733114
Si Si7 0.775012 0.414036 0.045892
Si Si8 0.589248 0.949860 0.421484
O O1 0.883026 0.553840 0.472250
O O2 0.641224 0.233983 0.427197
O O3 0.000000 0.500000 0.500000
O O4 0.148384 0.563427 0.160800
O O5 0.377339 0.111664 0.782876
O O6 0.467968 0.361952 0.930592
O O7 0.204283 0.114746 0.155428
O O8 0.000000 0.000000 0.000000
O O9 0.500000 0.500000 0.500000
O O10 0.931320 0.726599 0.419789
O O11 0.797949 0.541413 0.166528
O O12 0.980109 0.830964 0.229193
O O13 0.385159 0.451776 0.219595
O O14 0.874734 0.140333 0.395530
O O15 0.535684 0.804308 0.826133
O O16 0.000000 0.000000 0.500000
O O17 0.000000 0.500000 0.000000
O O18 0.500000 0.000000 0.500000
#
# Coordination Sequence:
#
# PCOD9071232 Si02
#       8
#     2   2   2   2   1   2   2   2
#     4  12  26  47  75 110 158 198 257 322 390 467
#     4  12  28  46  79 115 149 201 259 321 387 462
#     4  12  29  49  79 108 154 211 264 319 390 467
#     4  12  27  46  75 114 154 206 257 322 393 463
#     4  12  26  46  76 108 152 196 256 312 386 450
#     4  12  29  50  79 114 155 202 264 319 390 477
#     4  12  29  50  76 113 153 209 260 320 398 464
#     4  12  27  45  75 114 152 197 248 320 396 465
#
# _framework density 22.260867000000001
#
# number of rings (size 3 to 8) (size 9 to 14) (size 15 to 20)
#    0.000    0.000    6.667    1.600    5.600    0.533 
#    0.000    0.000    0.000    0.000    0.000    0.000 
#    0.000    0.000    0.000    0.000    0.000    0.000 
#
# Total GULP energy -83754.770550 kJ/mol
# GULP energy per Si atom -5583.651370 kJ/mol
# Density = 2.221020 g / cm^3
# Si number density = 22.260867 Si / 1000 Ang^3
#
#
#
# Elastic Constant Matrix: (Units=GPa)
#
#
# Indices 1 2 3 4 5 6 
#
# 1 96.5213 35.9736 30.3022 3.9646 -0.1731 -4.8145
# 2 35.9736 124.2061 32.1752 2.6033 -13.8111 -27.8385
# 3 30.3022 32.1752 162.6514 8.4894 -14.9891 -6.6866
# 4 3.9646 2.6033 8.4894 42.0867 -11.2456 -3.1583
# 5 -0.1731 -13.8111 -14.9891 -11.2456 43.1057 5.8487
# 6 -4.8145 -27.8385 -6.6866 -3.1583 5.8487 44.3598
#
#
#
# Elastic Compliance Matrix: (Units=1/GPa)
#
#
# Indices 1 2 3 4 5 6 
#
# 1 0.012197 -0.003479 -0.001733 -0.001147 -0.001837 -0.000960
# 2 -0.003479 0.010966 -0.001088 0.001009 0.002560 0.006074
# 3 -0.001733 -0.001088 0.006889 -0.000665 0.001884 -0.000128
# 4 -0.001147 0.001009 -0.000665 0.025816 0.006636 0.001371
# 5 -0.001837 0.002560 0.001884 0.006636 0.026580 -0.001341
# 6 -0.000960 0.006074 -0.000128 0.001371 -0.001341 0.026506
#
#
# Mechanical properties :
#
#
# Convention : Reuss Voigt Hill
#
# Bulk Modulus (GPa) = 57.30152 64.47563 60.88857
# Shear Modulus (GPa) = 39.25516 44.90564 42.08040
#
# Velocity S-wave (km/s) = 4.20386 4.49625 4.35251
# Velocity P-wave (km/s) = 7.02567 7.48208 7.25746
#
# Compressibility (1/GPa) = 0.01745154
#
# Stress axis : x y z
#
# Youngs Moduli (GPa) = 81.98674 91.19423 145.15321
#
# Poissons Ratio (x) = 0.31728 0.25155
# Poissons Ratio (y) = 0.28525 0.15793
# Poissons Ratio (z) = 0.14208 0.09922
#
# Static dielectric constant tensor:
#      x y z
#    x 1.821960 0.039760 -0.026630 
#    y 0.039760 1.841870 -0.009540 
#    z -0.026630 -0.009540 1.801960 
# 
# From -- ./inp_files/274017.got.cif
#   From: 2010.05.17/outbox.cif.g08.bks.cpg/sg2_138_cif.got.tgz:274017.got - 2010.06.03 11:33:40.
