data_PCOD9071813
_publ_section_title
;
Structure prediction by ZEFSAII (Michael W. Deem and Ramdas Pophale) SiO2 
 PCOD9071813
Probable space group: P -1
;
_chemical_formula_sum "Si O2"
_cell_formula_units_Z 16
_cell_length_a 8.031219
_cell_length_b 10.284080
_cell_length_c 11.529166
_cell_angle_alpha 129.679848
_cell_angle_beta 61.052674
_cell_angle_gamma 99.965895
_cell_volume 628.096870
_symmetry_space_group_name_H-M "P -1"
_symmetry_group_IT_number 2
_symmetry_cell_setting 'triclinic'
loop_
_space_group_symop_operation_xyz
x,y,z
-x,-y,-z
loop_
_atom_site_type_symbol
_atom_site_label
_atom_site_fract_x
_atom_site_fract_y
_atom_site_fract_z
Si Si1 0.264987 0.375919 0.854267
Si Si2 0.619278 0.985764 0.633642
Si Si3 0.571384 0.323340 0.987073
Si Si4 0.167834 0.509982 0.350007
Si Si5 0.664998 0.159441 0.497080
Si Si6 0.721992 0.124529 0.044166
Si Si7 0.262276 0.192735 0.283542
Si Si8 0.959226 0.384246 0.134261
O O1 0.461848 0.264585 0.677585
O O2 0.161215 0.469135 0.827259
O O3 0.322114 0.526147 0.002037
O O4 0.127677 0.293294 0.936644
O O5 0.552728 0.174383 0.820457
O O6 0.727270 0.014725 0.493063
O O7 0.422798 0.916134 0.629578
O O8 0.759565 0.869914 0.613512
O O9 0.379339 0.413121 0.170377
O O10 0.710769 0.218273 0.977033
O O11 0.194666 0.704472 0.480684
O O12 0.165159 0.387324 0.394103
O O13 0.033663 0.476571 0.270176
O O14 0.499182 0.155561 0.177812
O O15 0.848390 0.237374 0.134387
O O16 0.792713 0.926481 0.870469
#
# Coordination Sequence:
#
# PCOD9071813 Si02
#       8
#     2   2   2   2   2   2   2   2
#     4   9  18  32  52  79 108 138 172 212 257 305
#     4  10  19  33  57  79 102 134 176 219 257 299
#     4   8  15  31  53  76 102 134 173 213 253 302
#     4  10  19  32  54  81 105 134 175 216 254 305
#     4  10  21  35  54  80 104 135 179 215 251 307
#     4   8  16  30  50  77 103 131 169 213 259 305
#     4   9  18  34  54  75 103 136 172 215 260 305
#     4  10  18  29  52  80 109 137 168 213 263 306
#
# _framework density 25.473779
#
# number of rings (size 3 to 8) (size 9 to 14) (size 15 to 20)
#    0.000    2.750    0.000    3.000    0.000    4.000 
#    0.000    0.000    0.000   34.500    0.000    0.000 
#    0.000    0.000    0.000    0.000    0.000    0.000 
#
# Total GULP energy -89362.422131 kJ/mol
# GULP energy per Si atom -5585.151383 kJ/mol
# Density = 2.541580 g / cm^3
# Si number density = 25.473779 Si / 1000 Ang^3
#
#
#
# Elastic Constant Matrix: (Units=GPa)
#
#
# Indices 1 2 3 4 5 6 
#
# 1 83.4081 35.5734 30.7037 9.6203 32.1830 -3.8046
# 2 35.5734 113.3881 30.2304 13.2543 26.6468 -6.3233
# 3 30.7037 30.2304 89.1239 16.3402 31.1243 0.4295
# 4 9.6203 13.2543 16.3402 36.6477 8.0527 11.5814
# 5 32.1830 26.6468 31.1243 8.0527 46.1771 7.6945
# 6 -3.8046 -6.3233 0.4295 11.5814 7.6945 51.3719
#
#
#
# Elastic Compliance Matrix: (Units=1/GPa)
#
#
# Indices 1 2 3 4 5 6 
#
# 1 0.017858 -0.002428 -0.001416 -0.001870 -0.010264 0.002994
# 2 -0.002428 0.011281 -0.001080 -0.002860 -0.004001 0.002462
# 3 -0.001416 -0.001080 0.016025 -0.005142 -0.008641 0.002082
# 4 -0.001870 -0.002860 -0.005142 0.033273 0.001991 -0.008247
# 5 -0.010264 -0.004001 -0.008641 0.001991 0.037810 -0.007292
# 6 0.002994 0.002462 0.002082 -0.008247 -0.007292 0.022925
#
#
# Mechanical properties :
#
#
# Convention : Reuss Voigt Hill
#
# Bulk Modulus (GPa) = 28.31575 53.21499 40.76537
# Shear Modulus (GPa) = 31.09600 39.46686 35.28143
#
# Velocity S-wave (km/s) = 3.49765 3.94040 3.72561
# Velocity P-wave (km/s) = 5.23939 6.45274 5.87746
#
# Compressibility (1/GPa) = 0.03531604
#
# Stress axis : x y z
#
# Youngs Moduli (GPa) = 55.99583 88.64661 62.40272
#
# Poissons Ratio (x) = 0.21520 0.08837
# Poissons Ratio (y) = 0.13593 0.06742
# Poissons Ratio (z) = 0.07930 0.09577
#
# Static dielectric constant tensor:
#      x y z
#    x 2.147190 0.043100 0.013860 
#    y 0.043100 2.096570 0.013720 
#    z 0.013860 0.013720 2.009400 
# 
# From -- ./inp_files/391336.got.cif
#   From: 2010.05.17/outbox.cif.g08.bks.cpg/sg2_196_cif.got.tgz:391336.got - 2010.06.03 11:33:40.
