data_PCOD9071515
_publ_section_title
;
Structure prediction by ZEFSAII (Michael W. Deem and Ramdas Pophale) SiO2 
 PCOD9071515
Probable space group: P -1
;
_chemical_formula_sum "Si O2"
_cell_formula_units_Z 10
_cell_length_a 14.570420
_cell_length_b 14.193129
_cell_length_c 8.729801
_cell_angle_alpha 137.066353
_cell_angle_beta 139.376347
_cell_angle_gamma 18.472950
_cell_volume 371.783638
_symmetry_space_group_name_H-M "P -1"
_symmetry_group_IT_number 2
_symmetry_cell_setting 'triclinic'
loop_
_space_group_symop_operation_xyz
x,y,z
-x,-y,-z
loop_
_atom_site_type_symbol
_atom_site_label
_atom_site_fract_x
_atom_site_fract_y
_atom_site_fract_z
Si Si1 0.264439 0.203501 0.804225
Si Si2 0.659534 0.048655 0.675028
Si Si3 0.708105 0.476086 0.450153
Si Si4 0.157692 0.866525 0.376803
Si Si5 0.767463 0.507452 0.082904
O O1 0.161636 0.443020 0.899291
O O2 0.971347 0.362879 0.661334
O O3 0.426411 0.990263 0.608229
O O4 0.500000 0.000000 0.000000
O O5 0.531762 0.293581 0.716813
O O6 0.530989 0.177847 0.836031
O O7 0.997945 0.705812 0.732249
O O8 0.476282 0.671045 0.532260
O O9 0.903422 0.166641 0.312170
O O10 0.238208 0.642929 0.162105
O O11 0.000000 0.000000 0.500000
#
# Coordination Sequence:
#
# PCOD9071515 Si02
#       5
#     2   2   2   2   2
#     4  12  30  54  86 124 171 218 280 343 413 490
#     4  12  26  54  84 123 167 213 284 336 411 499
#     4  12  27  53  83 121 167 216 279 337 411 492
#     4  12  29  54  81 122 173 215 275 343 421 492
#     4  12  29  52  87 121 166 223 270 342 417 490
#
# _framework density 26.897365000000001
#
# number of rings (size 3 to 8) (size 9 to 14) (size 15 to 20)
#    0.000    0.000    4.000    3.000    5.600    8.800 
#    0.000    1.000    0.000    0.000    0.000    0.000 
#    0.000    0.000    0.000    0.000    0.000    0.000 
#
# Total GULP energy -55978.706722 kJ/mol
# GULP energy per Si atom -5597.870672 kJ/mol
# Density = 2.683615 g / cm^3
# Si number density = 26.897365 Si / 1000 Ang^3
#
#
#
# Elastic Constant Matrix: (Units=GPa)
#
#
# Indices 1 2 3 4 5 6 
#
# 1 158.3608 55.7734 50.3699 -1.3883 24.0684 -0.9561
# 2 55.7734 137.4357 16.1442 3.9239 20.8540 12.6423
# 3 50.3699 16.1442 105.9789 0.5574 10.8167 2.1005
# 4 -1.3883 3.9239 0.5574 56.0500 7.0224 -10.6879
# 5 24.0684 20.8540 10.8167 7.0224 27.8783 2.3737
# 6 -0.9561 12.6423 2.1005 -10.6879 2.3737 71.1649
#
#
#
# Elastic Compliance Matrix: (Units=1/GPa)
#
#
# Indices 1 2 3 4 5 6 
#
# 1 0.009126 -0.002681 -0.003452 0.001269 -0.004943 0.001056
# 2 -0.002681 0.009152 0.000365 -0.000461 -0.004421 -0.001594
# 3 -0.003452 0.000365 0.011190 -0.000102 -0.001575 -0.000404
# 4 0.001269 -0.000461 -0.000102 0.019244 -0.005830 0.003187
# 5 -0.004943 -0.004421 -0.001575 -0.005830 0.045663 -0.001633
# 6 0.001056 -0.001594 -0.000404 0.003187 -0.001633 0.014894
#
#
# Mechanical properties :
#
#
# Convention : Reuss Voigt Hill
#
# Bulk Modulus (GPa) = 55.76511 71.81671 63.79091
# Shear Modulus (GPa) = 39.43767 49.65117 44.54442
#
# Velocity S-wave (km/s) = 3.83329 4.30111 4.07392
# Velocity P-wave (km/s) = 6.35372 7.17108 6.77473
#
# Compressibility (1/GPa) = 0.01793236
#
# Stress axis : x y z
#
# Youngs Moduli (GPa) = 109.58017 109.26648 89.36475
#
# Poissons Ratio (x) = 0.29296 0.30848
# Poissons Ratio (y) = 0.29381 -0.03266
# Poissons Ratio (z) = 0.37827 -0.03993
#
# Static dielectric constant tensor:
#      x y z
#    x 2.209480 -0.004880 0.015420 
#    y -0.004880 2.049980 -0.026880 
#    z 0.015420 -0.026880 2.090650 
# 
# From -- ./inp_files/311957.got.cif
#   From: 2010.05.17/outbox.cif.g08.bks.cpg/sg2_156_cif.got.tgz:311957.got - 2010.06.03 11:33:40.
