data_PCOD9071758
_publ_section_title
;
Structure prediction by ZEFSAII (Michael W. Deem and Ramdas Pophale) SiO2 
 PCOD9071758
Probable space group: P -1
;
_chemical_formula_sum "Si O2"
_cell_formula_units_Z 16
_cell_length_a 21.491912
_cell_length_b 7.922475
_cell_length_c 9.134977
_cell_angle_alpha 111.834510
_cell_angle_beta 56.872724
_cell_angle_gamma 64.111400
_cell_volume 686.624992
_symmetry_space_group_name_H-M "P -1"
_symmetry_group_IT_number 2
_symmetry_cell_setting 'triclinic'
loop_
_space_group_symop_operation_xyz
x,y,z
-x,-y,-z
loop_
_atom_site_type_symbol
_atom_site_label
_atom_site_fract_x
_atom_site_fract_y
_atom_site_fract_z
Si Si1 0.146712 0.641052 0.194227
Si Si2 0.622079 0.842475 0.100274
Si Si3 0.560879 0.112546 0.600260
Si Si4 0.497237 0.592206 0.696754
Si Si5 0.769457 0.211311 0.333088
Si Si6 0.191306 0.515921 0.792514
Si Si7 0.929086 0.818576 0.261354
Si Si8 0.956768 0.543603 0.731411
O O1 0.141649 0.430562 0.130819
O O2 0.230946 0.523888 0.187157
O O3 0.203949 0.603273 0.957222
O O4 0.000000 0.000000 0.500000
O O5 0.523230 0.877249 0.215318
O O6 0.591972 0.982142 0.349873
O O7 0.604958 0.037475 0.069065
O O8 0.483421 0.455356 0.784466
O O9 0.693425 0.862393 0.446546
O O10 0.500000 0.500000 0.500000
O O11 0.634667 0.407714 0.505085
O O12 0.783128 0.396855 0.341092
O O13 0.798912 0.115994 0.434259
O O14 0.884470 0.864853 0.993052
O O15 0.043736 0.737365 0.058454
O O16 0.924841 0.770167 0.421101
O O17 0.000000 0.500000 0.000000
O O18 0.000000 0.500000 0.500000
#
# Coordination Sequence:
#
# PCOD9071758 Si02
#       8
#     2   2   2   2   2   2   2   2
#     4  10  20  34  49  74 110 147 184 231 279 338
#     4   9  17  30  45  71 105 140 177 226 283 326
#     4   9  16  28  46  71 104 139 173 223 286 324
#     4  10  18  29  49  78 111 142 178 232 289 326
#     4  11  19  32  53  83 116 142 185 237 285 337
#     4  10  18  31  52  77 113 144 179 230 287 337
#     4   9  19  33  51  78 114 145 182 235 286 330
#     4  10  20  35  51  77 110 150 189 224 281 342
#
# _framework density 23.302385999999998
#
# number of rings (size 3 to 8) (size 9 to 14) (size 15 to 20)
#    0.000    2.250    1.250    4.875    1.750    0.000 
#    2.250    0.000    0.000    0.000    0.000    7.000 
#   11.250    0.250    0.000    0.000    0.000    0.000 
#
# Total GULP energy -89239.648784 kJ/mol
# GULP energy per Si atom -5577.478049 kJ/mol
# Density = 2.324935 g / cm^3
# Si number density = 23.302386 Si / 1000 Ang^3
#
#
#
# Elastic Constant Matrix: (Units=GPa)
#
#
# Indices 1 2 3 4 5 6 
#
# 1 63.1915 30.7003 6.7997 1.7793 -9.6638 -7.5332
# 2 30.7003 156.2985 24.9676 16.3988 -9.6521 -9.1010
# 3 6.7997 24.9676 24.5838 16.2913 -6.9947 -9.0659
# 4 1.7793 16.3988 16.2913 33.6824 -8.5243 -7.2149
# 5 -9.6638 -9.6521 -6.9947 -8.5243 26.6214 7.0161
# 6 -7.5332 -9.1010 -9.0659 -7.2149 7.0161 44.7290
#
#
#
# Elastic Compliance Matrix: (Units=1/GPa)
#
#
# Indices 1 2 3 4 5 6 
#
# 1 0.018583 -0.003264 -0.001716 0.003253 0.005692 0.001750
# 2 -0.003264 0.008227 -0.007395 -0.000385 -0.000160 -0.000412
# 3 -0.001716 -0.007395 0.071265 -0.028054 0.004481 0.007423
# 4 0.003253 -0.000385 -0.028054 0.045485 0.008007 0.000864
# 5 0.005692 -0.000160 0.004481 0.008007 0.044322 -0.003826
# 6 0.001750 -0.000412 0.007423 0.000864 -0.003826 0.024812
#
#
# Mechanical properties :
#
#
# Convention : Reuss Voigt Hill
#
# Bulk Modulus (GPa) = 13.63768 41.00101 27.31934
# Shear Modulus (GPa) = 19.09236 33.11365 26.10300
#
# Velocity S-wave (km/s) = 2.86550 3.77376 3.35055
# Velocity P-wave (km/s) = 4.10040 6.05159 5.16890
#
# Compressibility (1/GPa) = 0.07332628
#
# Stress axis : x y z
#
# Youngs Moduli (GPa) = 53.81359 121.55229 14.03204
#
# Poissons Ratio (x) = 0.39672 0.02408
# Poissons Ratio (y) = 0.17564 0.10376
# Poissons Ratio (z) = 0.09233 0.89885
#
# Static dielectric constant tensor:
#      x y z
#    x 1.949470 -0.019640 0.018910 
#    y -0.019640 1.906140 0.033520 
#    z 0.018910 0.033520 1.940780 
# 
# From -- ./inp_files/352248.got.cif
#   From: 2010.05.17/outbox.cif.g08.bks.cpg/sg2_177_cif.got.tgz:352248.got - 2010.06.03 11:33:40.
