data_PCOD9071822
_publ_section_title
;
Structure prediction by ZEFSAII (Michael W. Deem and Ramdas Pophale) SiO2 
 PCOD9071822
Probable space group: P -1
;
_chemical_formula_sum "Si O2"
_cell_formula_units_Z 12
_cell_length_a 6.859338
_cell_length_b 7.279736
_cell_length_c 9.559296
_cell_angle_alpha 81.547037
_cell_angle_beta 107.950643
_cell_angle_gamma 72.927534
_cell_volume 419.027522
_symmetry_space_group_name_H-M "P -1"
_symmetry_group_IT_number 2
_symmetry_cell_setting 'triclinic'
loop_
_space_group_symop_operation_xyz
x,y,z
-x,-y,-z
loop_
_atom_site_type_symbol
_atom_site_label
_atom_site_fract_x
_atom_site_fract_y
_atom_site_fract_z
Si Si1 0.731692 0.216457 0.456620
Si Si2 0.321183 0.599422 0.290633
Si Si3 0.342798 0.268858 0.897416
Si Si4 0.999947 0.603907 0.638512
Si Si5 0.558100 0.925790 0.780149
Si Si6 0.999068 0.721029 0.993950
O O1 0.568828 0.448730 0.368613
O O2 0.738764 0.229907 0.624092
O O3 0.952989 0.200423 0.422755
O O4 0.594078 0.091515 0.376660
O O5 0.196297 0.447100 0.325274
O O6 0.240549 0.683988 0.107267
O O7 0.204430 0.492247 0.799789
O O8 0.144206 0.189598 0.906555
O O9 0.458946 0.140542 0.805215
O O10 0.464544 0.219183 0.079577
O O11 0.000000 0.500000 0.500000
O O12 0.823774 0.852329 0.828007
O O13 0.000000 0.500000 0.000000
#
# Coordination Sequence:
#
# PCOD9071822 Si02
#       6
#     2   2   2   2   2   2
#     4  10  18  29  53  77  95 130 179 200 245 301
#     4   9  17  31  47  75 101 127 164 217 237 285
#     4   8  17  31  49  71 108 130 159 211 261 288
#     4   9  18  32  50  74 100 133 166 208 248 295
#     4   9  17  30  51  77  97 137 164 203 260 300
#     4   9  14  28  50  72  92 133 169 196 245 295
#
# _framework density 28.637740999999998
#
# number of rings (size 3 to 8) (size 9 to 14) (size 15 to 20)
#    1.000    2.000    1.667    0.000    0.000    0.667 
#    0.000    7.500    0.000   14.000    0.000    0.000 
#    0.000    0.000    0.000    0.000    0.000    0.000 
#
# Total GULP energy -66812.219435 kJ/mol
# GULP energy per Si atom -5567.684953 kJ/mol
# Density = 2.857256 g / cm^3
# Si number density = 28.637741 Si / 1000 Ang^3
#
#
#
# Elastic Constant Matrix: (Units=GPa)
#
#
# Indices 1 2 3 4 5 6 
#
# 1 77.3226 19.1330 27.4260 -3.4267 -10.8377 11.4932
# 2 19.1330 87.6063 36.5138 1.9160 14.9473 8.4390
# 3 27.4260 36.5138 165.4385 20.0615 21.7705 13.9394
# 4 -3.4267 1.9160 20.0615 52.5978 3.1438 1.0311
# 5 -10.8377 14.9473 21.7705 3.1438 46.3459 -3.2949
# 6 11.4932 8.4390 13.9394 1.0311 -3.2949 36.8050
#
#
#
# Elastic Compliance Matrix: (Units=1/GPa)
#
#
# Indices 1 2 3 4 5 6 
#
# 1 0.015952 -0.003098 -0.002702 0.001898 0.005671 -0.002793
# 2 -0.003098 0.013789 -0.001815 0.000293 -0.004475 -0.001916
# 3 -0.002702 -0.001815 0.007894 -0.002861 -0.003701 -0.001981
# 4 0.001898 0.000293 -0.002861 0.020200 0.000315 -0.000114
# 5 0.005671 -0.004475 -0.003701 0.000315 0.026277 0.003001
# 6 -0.002793 -0.001916 -0.001981 -0.000114 0.003001 0.029504
#
#
# Mechanical properties :
#
#
# Convention : Reuss Voigt Hill
#
# Bulk Modulus (GPa) = 44.63161 55.16811 49.89986
# Shear Modulus (GPa) = 36.67999 43.63606 40.15802
#
# Velocity S-wave (km/s) = 3.58275 3.90773 3.74876
# Velocity P-wave (km/s) = 5.72132 6.29813 6.01664
#
# Compressibility (1/GPa) = 0.02240565
#
# Stress axis : x y z
#
# Youngs Moduli (GPa) = 62.68840 72.51908 126.67927
#
# Poissons Ratio (x) = 0.22465 0.34227
# Poissons Ratio (y) = 0.19420 0.22994
# Poissons Ratio (z) = 0.16938 0.13163
#
# Static dielectric constant tensor:
#      x y z
#    x 2.456040 -0.106480 -0.048020 
#    y -0.106480 2.213910 -0.038790 
#    z -0.048020 -0.038790 2.296360 
# 
# From -- ./inp_files/163509.got.cif
#   From: 2010.05.17/outbox.cif.g08.bks.cpg/sg2_82_cif.got.tgz:163509.got - 2010.06.03 11:33:40.
