data_PCOD9071963
_publ_section_title
;
Structure prediction by ZEFSAII (Michael W. Deem and Ramdas Pophale) SiO2 
 PCOD9071963
Probable space group: P -1
;
_chemical_formula_sum "Si O2"
_cell_formula_units_Z 16
_cell_length_a 11.884878
_cell_length_b 17.273012
_cell_length_c 9.631348
_cell_angle_alpha 36.504713
_cell_angle_beta 144.707563
_cell_angle_gamma 148.846758
_cell_volume 553.065854
_symmetry_space_group_name_H-M "P -1"
_symmetry_group_IT_number 2
_symmetry_cell_setting 'triclinic'
loop_
_space_group_symop_operation_xyz
x,y,z
-x,-y,-z
loop_
_atom_site_type_symbol
_atom_site_label
_atom_site_fract_x
_atom_site_fract_y
_atom_site_fract_z
Si Si1 0.207663 0.356140 0.786601
Si Si2 0.280060 0.561538 0.199498
Si Si3 0.454924 0.859759 0.056508
Si Si4 0.516113 0.172917 0.211278
Si Si5 0.136434 0.913020 0.372203
Si Si6 0.928450 0.712312 0.785998
Si Si7 0.255415 0.543703 0.798794
Si Si8 0.992304 0.074802 0.199954
O O1 0.190979 0.490235 0.650891
O O2 0.066242 0.262270 0.640533
O O3 0.486142 0.427377 0.955659
O O4 0.092910 0.220513 0.984958
O O5 0.419447 0.692580 0.029094
O O6 0.402809 0.681715 0.281989
O O7 0.263417 0.406523 0.351475
O O8 0.000000 0.500000 0.000000
O O9 0.706492 0.962187 0.081290
O O10 0.180467 0.792551 0.848136
O O11 0.500000 0.000000 0.000000
O O12 0.625753 0.084275 0.387008
O O13 0.677775 0.282471 0.347502
O O14 0.244653 0.055230 0.158582
O O15 0.076002 0.974055 0.357612
O O16 0.915159 0.839818 0.678454
O O17 0.911993 0.594188 0.060058
#
# Coordination Sequence:
#
# PCOD9071963 Si02
#       8
#     2   2   2   2   2   2   2   2
#     4  10  19  31  52  81 102 142 181 224 259 309
#     4   9  17  33  57  75  95 137 181 219 255 310
#     4   9  17  29  50  81 100 123 172 229 263 301
#     4  10  21  36  50  78 113 147 172 215 272 331
#     4  11  22  32  50  79 119 144 170 213 278 327
#     4   8  17  30  49  77  99 132 173 224 258 301
#     4   9  18  33  53  74 107 137 187 220 256 314
#     4  10  18  30  49  77 107 133 178 220 261 308
#
# _framework density 28.929649000000001
#
# number of rings (size 3 to 8) (size 9 to 14) (size 15 to 20)
#    0.000    2.500    1.250    1.125    3.500    0.500 
#    0.000    0.000    0.000   13.500    0.000    0.000 
#    0.000    0.000    0.000    0.125    0.000    0.000 
#
# Total GULP energy -89346.667356 kJ/mol
# GULP energy per Si atom -5584.166710 kJ/mol
# Density = 2.886380 g / cm^3
# Si number density = 28.929649 Si / 1000 Ang^3
#
#
#
# Elastic Constant Matrix: (Units=GPa)
#
#
# Indices 1 2 3 4 5 6 
#
# 1 237.0233 88.3267 57.0300 -9.4830 51.9314 0.2885
# 2 88.3267 198.9959 44.9724 -5.7079 22.0022 -31.9422
# 3 57.0300 44.9724 87.4995 -10.9359 27.8239 -12.4685
# 4 -9.4830 -5.7079 -10.9359 48.2755 -13.6744 22.5841
# 5 51.9314 22.0022 27.8239 -13.6744 55.1686 -15.7969
# 6 0.2885 -31.9422 -12.4685 22.5841 -15.7969 81.9139
#
#
#
# Elastic Compliance Matrix: (Units=1/GPa)
#
#
# Indices 1 2 3 4 5 6 
#
# 1 0.006629 -0.002332 -0.001831 0.000253 -0.004965 -0.002238
# 2 -0.002332 0.006841 -0.002063 -0.001171 0.001043 0.002886
# 3 -0.001831 -0.002063 0.015423 0.001419 -0.004815 0.000230
# 4 0.000253 -0.001171 0.001419 0.025041 0.003889 -0.006395
# 5 -0.004965 0.001043 -0.004815 0.003889 0.026865 0.003800
# 6 -0.002238 0.002886 0.000230 -0.006395 0.003800 0.015872
#
#
# Mechanical properties :
#
#
# Convention : Reuss Voigt Hill
#
# Bulk Modulus (GPa) = 60.81921 100.46413 80.64167
# Shear Modulus (GPa) = 43.62908 59.28423 51.45665
#
# Velocity S-wave (km/s) = 3.88765 4.53178 4.22202
# Velocity P-wave (km/s) = 6.42032 7.88576 7.19047
#
# Compressibility (1/GPa) = 0.01644217
#
# Stress axis : x y z
#
# Youngs Moduli (GPa) = 150.84969 146.18336 64.83617
#
# Poissons Ratio (x) = 0.34086 0.11870
# Poissons Ratio (y) = 0.35174 0.13376
# Poissons Ratio (z) = 0.27617 0.30159
#
# Static dielectric constant tensor:
#      x y z
#    x 2.333640 -0.141670 -0.022080 
#    y -0.141670 2.210000 -0.011840 
#    z -0.022080 -0.011840 2.410120 
# 
# From -- ./inp_files/284971.got.cif
#   From: 2010.05.17/outbox.cif.g08.bks.cpg/sg2_143_cif.got.tgz:284971.got - 2010.06.03 11:33:40.
