data_PCOD9071420
_publ_section_title
;
Structure prediction by ZEFSAII (Michael W. Deem and Ramdas Pophale) SiO2 
 PCOD9071420
Probable space group: P -1
;
_chemical_formula_sum "Si O2"
_cell_formula_units_Z 12
_cell_length_a 7.838002
_cell_length_b 9.126719
_cell_length_c 14.840585
_cell_angle_alpha 29.606268
_cell_angle_beta 104.797963
_cell_angle_gamma 112.555114
_cell_volume 477.218976
_symmetry_space_group_name_H-M "P -1"
_symmetry_group_IT_number 2
_symmetry_cell_setting 'triclinic'
loop_
_space_group_symop_operation_xyz
x,y,z
-x,-y,-z
loop_
_atom_site_type_symbol
_atom_site_label
_atom_site_fract_x
_atom_site_fract_y
_atom_site_fract_z
Si Si1 0.843259 0.048009 0.518725
Si Si2 0.417280 0.209312 0.527404
Si Si3 0.214145 0.639423 0.921035
Si Si4 0.934380 0.751501 0.203908
Si Si5 0.768846 0.998514 0.739673
Si Si6 0.418368 0.099632 0.847063
O O1 0.869457 0.414533 0.328594
O O2 0.644578 0.845657 0.555938
O O3 0.853745 0.976436 0.663949
O O4 0.000000 0.000000 0.500000
O O5 0.446603 0.575689 0.352797
O O6 0.253329 0.941377 0.700487
O O7 0.598949 0.121033 0.626867
O O8 0.352732 0.796950 0.937014
O O9 0.271309 0.355352 0.039082
O O10 0.000000 0.500000 0.000000
O O11 0.764554 0.815144 0.197676
O O12 0.091858 0.784905 0.283495
O O13 0.000000 0.000000 0.000000
O O14 0.500000 0.000000 0.000000
#
# Coordination Sequence:
#
# PCOD9071420 Si02
#       6
#     2   2   2   2   2   2
#     4  12  28  48  79 114 158 206 265 326 399 471
#     4  12  28  49  80 116 158 210 265 330 396 471
#     4  12  26  49  79 117 157 206 262 325 399 479
#     4  12  29  50  77 116 162 211 262 328 401 468
#     4  12  26  51  81 113 162 206 268 326 397 477
#     4  12  29  50  77 115 165 206 269 324 397 472
#
# _framework density 25.145689000000001
#
# number of rings (size 3 to 8) (size 9 to 14) (size 15 to 20)
#    0.000    0.000    3.333    5.000    9.333    0.000 
#    0.000    0.000    0.000    0.000    0.000    0.000 
#    0.000    0.000    0.000    0.000    0.000    0.000 
#
# Total GULP energy -67239.245902 kJ/mol
# GULP energy per Si atom -5603.270492 kJ/mol
# Density = 2.508846 g / cm^3
# Si number density = 25.145689 Si / 1000 Ang^3
#
#
#
# Elastic Constant Matrix: (Units=GPa)
#
#
# Indices 1 2 3 4 5 6 
#
# 1 110.6884 23.1723 15.8833 7.8850 12.9832 8.6626
# 2 23.1723 142.7177 12.7356 3.5066 12.5083 24.0517
# 3 15.8833 12.7356 143.4142 -4.0764 -9.4826 18.9877
# 4 7.8850 3.5066 -4.0764 60.6358 -5.3593 6.0553
# 5 12.9832 12.5083 -9.4826 -5.3593 40.5241 11.0470
# 6 8.6626 24.0517 18.9877 6.0553 11.0470 41.0722
#
#
#
# Elastic Compliance Matrix: (Units=1/GPa)
#
#
# Indices 1 2 3 4 5 6 
#
# 1 0.009973 -0.001225 -0.001324 -0.001661 -0.003456 0.000400
# 2 -0.001225 0.007993 -0.000092 0.000017 -0.000971 -0.004121
# 3 -0.001324 -0.000092 0.008034 0.001515 0.003794 -0.004624
# 4 -0.001661 0.000017 0.001515 0.017603 0.004333 -0.004120
# 5 -0.003456 -0.000971 0.003794 0.004333 0.030046 -0.009176
# 6 0.000400 -0.004121 -0.004624 -0.004120 -0.009176 0.031890
#
#
# Mechanical properties :
#
#
# Convention : Reuss Voigt Hill
#
# Bulk Modulus (GPa) = 48.26982 55.60030 51.93506
# Shear Modulus (GPa) = 42.47093 51.44835 46.95964
#
# Velocity S-wave (km/s) = 4.11420 4.52819 4.32615
# Velocity P-wave (km/s) = 6.46580 7.03553 6.75667
#
# Compressibility (1/GPa) = 0.02071688
#
# Stress axis : x y z
#
# Youngs Moduli (GPa) = 100.26908 125.10739 124.47337
#
# Poissons Ratio (x) = 0.15324 0.16486
# Poissons Ratio (y) = 0.12282 0.01148
# Poissons Ratio (z) = 0.13281 0.01154
#
# Static dielectric constant tensor:
#      x y z
#    x 2.057540 0.048730 -0.045740 
#    y 0.048730 2.015180 0.088670 
#    z -0.045740 0.088670 2.040140 
# 
# From -- ./inp_files/160066.got.cif
#   From: 2010.05.17/outbox.cif.g08.bks.cpg/sg2_81_cif.got.tgz:160066.got - 2010.06.03 11:33:40.
