data_PCOD9071715
_publ_section_title
;
Structure prediction by ZEFSAII (Michael W. Deem and Ramdas Pophale) SiO2 
 PCOD9071715
Probable space group: P -1
;
_chemical_formula_sum "Si O2"
_cell_formula_units_Z 12
_cell_length_a 9.275236
_cell_length_b 6.945784
_cell_length_c 13.974021
_cell_angle_alpha 135.417893
_cell_angle_beta 139.411558
_cell_angle_gamma 60.985410
_cell_volume 408.054373
_symmetry_space_group_name_H-M "P -1"
_symmetry_group_IT_number 2
_symmetry_cell_setting 'triclinic'
loop_
_space_group_symop_operation_xyz
x,y,z
-x,-y,-z
loop_
_atom_site_type_symbol
_atom_site_label
_atom_site_fract_x
_atom_site_fract_y
_atom_site_fract_z
Si Si1 0.627033 0.788570 0.743675
Si Si2 0.294760 0.747733 0.920007
Si Si3 0.842006 0.459532 0.571657
Si Si4 0.795165 0.820168 0.141819
Si Si5 0.784667 0.856978 0.521088
Si Si6 0.300847 0.649157 0.207346
O O1 0.747534 0.681208 0.675012
O O2 0.358355 0.783258 0.598592
O O3 0.652462 0.564330 0.760652
O O4 0.738995 0.078124 0.940628
O O5 0.556525 0.729971 0.037346
O O6 0.107462 0.485088 0.730904
O O7 0.245772 0.949951 0.878473
O O8 0.823862 0.579845 0.498807
O O9 0.841493 0.541181 0.009740
O O10 0.995159 0.987265 0.362855
O O11 0.539862 0.772124 0.325616
O O12 0.768068 0.088592 0.678109
#
# Coordination Sequence:
#
# PCOD9071715 Si02
#       6
#     2   2   2   2   2   2
#     4   9  17  29  46  66  86 111 143 177 212 250
#     4   9  17  28  43  65  90 113 140 176 214 251
#     4   9  17  29  46  66  86 111 143 177 212 250
#     4   9  17  28  43  65  90 113 140 176 214 251
#     4   9  17  29  46  66  86 111 143 177 212 250
#     4   9  17  29  46  66  86 111 143 177 212 250
#
# _framework density 29.407844000000001
#
# number of rings (size 3 to 8) (size 9 to 14) (size 15 to 20)
#    0.000    3.000    0.000    1.000    0.000    1.333 
#    0.000    6.667    0.000    4.000    0.000    9.333 
#    0.000    0.000    0.000    0.000    0.000    0.000 
#
# Total GULP energy -67192.123858 kJ/mol
# GULP energy per Si atom -5599.343655 kJ/mol
# Density = 2.934091 g / cm^3
# Si number density = 29.407844 Si / 1000 Ang^3
#
#
#
# Elastic Constant Matrix: (Units=GPa)
#
#
# Indices 1 2 3 4 5 6 
#
# 1 102.7183 30.0935 22.0793 8.9834 26.3979 -1.8025
# 2 30.0935 78.2224 24.0296 3.6236 14.3845 23.2217
# 3 22.0793 24.0296 201.3540 -2.5897 25.1035 3.5197
# 4 8.9834 3.6236 -2.5897 44.9639 -16.6317 17.4260
# 5 26.3979 14.3845 25.1035 -16.6317 61.4701 11.4166
# 6 -1.8025 23.2217 3.5197 17.4260 11.4166 54.9853
#
#
#
# Elastic Compliance Matrix: (Units=1/GPa)
#
#
# Indices 1 2 3 4 5 6 
#
# 1 0.014492 -0.005784 -0.000078 -0.008421 -0.008482 0.007353
# 2 -0.005784 0.017686 -0.001476 0.003794 0.001667 -0.009113
# 3 -0.000078 -0.001476 0.005400 -0.000748 -0.002209 0.000971
# 4 -0.008421 0.003794 -0.000748 0.035779 0.015768 -0.016443
# 5 -0.008482 0.001667 -0.002209 0.015768 0.026807 -0.011404
# 6 0.007353 -0.009113 0.000971 -0.016443 -0.011404 0.029793
#
#
# Mechanical properties :
#
#
# Convention : Reuss Voigt Hill
#
# Bulk Modulus (GPa) = 43.66684 59.41104 51.53894
# Shear Modulus (GPa) = 32.83697 52.69004 42.76351
#
# Velocity S-wave (km/s) = 3.34519 4.23744 3.81747
# Velocity P-wave (km/s) = 5.45906 6.64737 6.08230
#
# Compressibility (1/GPa) = 0.02290067
#
# Stress axis : x y z
#
# Youngs Moduli (GPa) = 69.00321 56.54268 185.18831
#
# Poissons Ratio (x) = 0.32706 0.01448
# Poissons Ratio (y) = 0.39913 0.27336
# Poissons Ratio (z) = 0.00539 0.08346
#
# Static dielectric constant tensor:
#      x y z
#    x 2.326850 -0.060010 0.007580 
#    y -0.060010 2.566300 -0.166430 
#    z 0.007580 -0.166430 2.211370 
# 
# From -- ./inp_files/145010.got.cif
#   From: 2010.05.17/outbox.cif.g08.bks.cpg/sg2_73_cif.got.tgz:145010.got - 2010.06.03 11:33:40.
