data_PCOD9071241
_publ_section_title
;
Structure prediction by ZEFSAII (Michael W. Deem and Ramdas Pophale) SiO2 
 PCOD9071241
Probable space group: P -1
;
_chemical_formula_sum "Si O2"
_cell_formula_units_Z 14
_cell_length_a 8.577649
_cell_length_b 11.719554
_cell_length_c 9.060891
_cell_angle_alpha 97.906852
_cell_angle_beta 130.572737
_cell_angle_gamma 66.089827
_cell_volume 621.986431
_symmetry_space_group_name_H-M "P -1"
_symmetry_group_IT_number 2
_symmetry_cell_setting 'triclinic'
loop_
_space_group_symop_operation_xyz
x,y,z
-x,-y,-z
loop_
_atom_site_type_symbol
_atom_site_label
_atom_site_fract_x
_atom_site_fract_y
_atom_site_fract_z
Si Si1 0.773112 0.020946 0.279726
Si Si2 0.377784 0.692376 0.864657
Si Si3 0.839921 0.452935 0.487288
Si Si4 0.919641 0.847799 0.054767
Si Si5 0.419481 0.706053 0.233949
Si Si6 0.128588 0.388881 0.946094
Si Si7 0.540652 0.039270 0.693618
O O1 0.675111 0.161980 0.177393
O O2 0.840115 0.920113 0.171906
O O3 0.604048 0.997273 0.282684
O O4 0.000000 0.000000 0.500000
O O5 0.219991 0.645703 0.663130
O O6 0.358303 0.679772 0.025822
O O7 0.638421 0.611224 0.966164
O O8 0.604776 0.576422 0.390896
O O9 0.000000 0.500000 0.500000
O O10 0.970797 0.398302 0.709808
O O11 0.822871 0.742048 0.964843
O O12 0.188047 0.773034 0.193207
O O13 0.802998 0.954343 0.878584
O O14 0.517318 0.812512 0.303625
O O15 0.000000 0.500000 0.000000
O O16 0.500000 0.000000 0.500000
#
# Coordination Sequence:
#
# PCOD9071241 Si02
#       7
#     2   2   2   2   2   2   2
#     4  12  26  46  77 107 148 196 245 305 372 445
#     4  12  26  51  76 108 150 198 253 305 374 446
#     4  12  29  48  78 109 146 197 254 307 372 442
#     4  12  26  49  72 110 149 193 246 305 374 439
#     4  12  27  46  77 111 150 194 249 308 374 441
#     4  12  28  49  77 108 150 200 248 307 370 444
#     4  12  27  45  74 113 149 192 248 305 372 442
#
# _framework density 22.508528999999999
#
# number of rings (size 3 to 8) (size 9 to 14) (size 15 to 20)
#    0.000    0.000    4.286    4.714    8.000    3.429 
#    0.000    0.000    0.000    0.000    0.000    0.000 
#    0.000    0.000    0.000    0.000    0.000    0.000 
#
# Total GULP energy -78495.188483 kJ/mol
# GULP energy per Si atom -5606.799177 kJ/mol
# Density = 2.245730 g / cm^3
# Si number density = 22.508529 Si / 1000 Ang^3
#
#
#
# Elastic Constant Matrix: (Units=GPa)
#
#
# Indices 1 2 3 4 5 6 
#
# 1 115.6205 40.0561 24.5143 6.2367 9.8237 -17.0618
# 2 40.0561 115.4358 2.0246 24.4595 -0.8156 -13.4761
# 3 24.5143 2.0246 80.0832 23.5014 0.1689 -19.4217
# 4 6.2367 24.4595 23.5014 46.2557 -2.0702 3.6473
# 5 9.8237 -0.8156 0.1689 -2.0702 33.0779 2.5068
# 6 -17.0618 -13.4761 -19.4217 3.6473 2.5068 42.7331
#
#
#
# Elastic Compliance Matrix: (Units=1/GPa)
#
#
# Indices 1 2 3 4 5 6 
#
# 1 0.011253 -0.004161 -0.003617 0.002247 -0.003403 0.001545
# 2 -0.004161 0.012520 0.004831 -0.008899 0.000568 0.005208
# 3 -0.003617 0.004831 0.019732 -0.012916 -0.000487 0.010178
# 4 0.002247 -0.008899 -0.012916 0.033527 0.002093 -0.010764
# 5 -0.003403 0.000568 -0.000487 0.002093 0.031650 -0.003436
# 6 0.001545 0.005208 0.010178 -0.010764 -0.003436 0.031406
#
#
# Mechanical properties :
#
#
# Convention : Reuss Voigt Hill
#
# Bulk Modulus (GPa) = 26.58889 49.36994 37.97941
# Shear Modulus (GPa) = 31.54173 40.71632 36.12903
#
# Velocity S-wave (km/s) = 3.74749 4.25776 4.01075
# Velocity P-wave (km/s) = 5.52841 6.79359 6.19339
#
# Compressibility (1/GPa) = 0.03760969
#
# Stress axis : x y z
#
# Youngs Moduli (GPa) = 88.86201 79.87452 50.67894
#
# Poissons Ratio (x) = 0.33238 0.18331
# Poissons Ratio (y) = 0.36978 -0.24481
# Poissons Ratio (z) = 0.32143 -0.38585
#
# Static dielectric constant tensor:
#      x y z
#    x 1.827780 -0.006610 0.017660 
#    y -0.006610 1.770840 -0.038380 
#    z 0.017660 -0.038380 1.803810 
# 
# From -- ./inp_files/181079.got.cif
#   From: 2010.05.17/outbox.cif.g08.bks.cpg/sg2_91_cif.got.tgz:181079.got - 2010.06.03 11:33:40.
