data_PCOD9071654
_publ_section_title
;
Structure prediction by ZEFSAII (Michael W. Deem and Ramdas Pophale) SiO2 
 PCOD9071654
Probable space group: P -1
;
_chemical_formula_sum "Si O2"
_cell_formula_units_Z 16
_cell_length_a 14.837994
_cell_length_b 20.313723
_cell_length_c 17.304455
_cell_angle_alpha 159.194686
_cell_angle_beta 29.594854
_cell_angle_gamma 134.952912
_cell_volume 727.763829
_symmetry_space_group_name_H-M "P -1"
_symmetry_group_IT_number 2
_symmetry_cell_setting 'triclinic'
loop_
_space_group_symop_operation_xyz
x,y,z
-x,-y,-z
loop_
_atom_site_type_symbol
_atom_site_label
_atom_site_fract_x
_atom_site_fract_y
_atom_site_fract_z
Si Si1 0.897799 0.865807 0.949694
Si Si2 0.888923 0.747500 0.993312
Si Si3 0.754340 0.013324 0.776222
Si Si4 0.598685 0.327935 0.094736
Si Si5 0.755107 0.592233 0.341830
Si Si6 0.386416 0.275455 0.051910
Si Si7 0.909515 0.273791 0.021465
Si Si8 0.620894 0.591950 0.963621
O O1 0.838100 0.903748 0.126742
O O2 0.694080 0.889321 0.080430
O O3 0.123155 0.609932 0.480323
O O4 0.000000 0.000000 0.000000
O O5 0.688189 0.718348 0.108223
O O6 0.143919 0.516606 0.525357
O O7 0.921278 0.795053 0.108762
O O8 0.822520 0.756490 0.445053
O O9 0.732398 0.109962 0.813494
O O10 0.498002 0.206822 0.213379
O O11 0.909146 0.059344 0.760641
O O12 0.712112 0.460996 0.165050
O O13 0.558520 0.244179 0.953744
O O14 0.344495 0.524041 0.533822
O O15 0.909784 0.406980 0.091694
O O16 0.480568 0.284712 0.908297
O O17 0.500000 0.500000 0.000000
#
# Coordination Sequence:
#
# PCOD9071654 Si02
#       8
#     2   2   2   2   2   2   2   2
#     4   9  17  31  46  70  94 117 157 193 230 274
#     4   8  15  29  44  61  91 123 151 186 227 277
#     4   8  13  21  32  57  85 109 146 184 228 266
#     4   8  13  23  36  54  86 119 144 182 228 269
#     4   8  13  21  34  55  85 113 143 185 226 269
#     4   8  15  29  44  61  91 123 151 186 227 277
#     4   8  13  23  36  54  86 119 144 182 228 269
#     4   9  17  31  50  66  90 125 155 187 232 282
#
# _framework density 21.985154999999999
#
# number of rings (size 3 to 8) (size 9 to 14) (size 15 to 20)
#    0.000    3.750    0.000    3.000    0.000    0.000 
#   18.000    2.500    0.000    0.000    0.000    3.500 
#    0.000    2.000    0.000    1.250    0.000    1.500 
#
# Total GULP energy -89090.042014 kJ/mol
# GULP energy per Si atom -5568.127626 kJ/mol
# Density = 2.193512 g / cm^3
# Si number density = 21.985155 Si / 1000 Ang^3
#
#
#
# Elastic Constant Matrix: (Units=GPa)
#
#
# Indices 1 2 3 4 5 6 
#
# 1 250.1180 115.8703 39.7936 27.5942 17.1368 31.9294
# 2 115.8703 178.6159 38.3719 22.4883 12.2544 21.4853
# 3 39.7936 38.3719 80.3268 -3.2508 20.2399 6.4825
# 4 27.5942 22.4883 -3.2508 50.6915 3.4188 7.7733
# 5 17.1368 12.2544 20.2399 3.4188 24.5828 -0.5837
# 6 31.9294 21.4853 6.4825 7.7733 -0.5837 14.4114
#
#
#
# Elastic Compliance Matrix: (Units=1/GPa)
#
#
# Indices 1 2 3 4 5 6 
#
# 1 0.007115 -0.002875 -0.000456 -0.000713 -0.003314 -0.011023
# 2 -0.002875 0.008783 -0.002392 -0.001743 -0.000275 -0.004721
# 3 -0.000456 -0.002392 0.018089 0.004424 -0.014153 -0.006520
# 4 -0.000713 -0.001743 0.004424 0.023177 -0.005750 -0.010546
# 5 -0.003314 -0.000275 -0.014153 -0.005750 0.056041 0.019490
# 6 -0.011023 -0.004721 -0.006520 -0.010546 0.019490 0.110261
#
#
# Mechanical properties :
#
#
# Convention : Reuss Voigt Hill
#
# Bulk Modulus (GPa) = 44.36033 99.68136 72.02085
# Shear Modulus (GPa) = 20.62479 38.93879 29.78179
#
# Velocity S-wave (km/s) = 3.06620 4.21306 3.68453
# Velocity P-wave (km/s) = 5.72334 8.31295 7.13659
#
# Compressibility (1/GPa) = 0.02254266
#
# Stress axis : x y z
#
# Youngs Moduli (GPa) = 140.54088 113.84988 55.28224
#
# Poissons Ratio (x) = 0.32729 0.02520
# Poissons Ratio (y) = 0.40402 0.13224
# Poissons Ratio (z) = 0.06407 0.27233
#
# Static dielectric constant tensor:
#      x y z
#    x 1.816440 0.113190 0.207750 
#    y 0.113190 2.374920 1.020990 
#    z 0.207750 1.020990 3.704910 
# 
# From -- ./inp_files/217419.got.cif
#   From: 2010.05.17/outbox.cif.g08.bks.cpg/sg2_109_cif.got.tgz:217419.got - 2010.06.03 11:33:40.
