data_PCOD9071426
_publ_section_title
;
Structure prediction by ZEFSAII (Michael W. Deem and Ramdas Pophale) SiO2 
 PCOD9071426
Probable space group: P -1
;
_chemical_formula_sum "Si O2"
_cell_formula_units_Z 12
_cell_length_a 8.678839
_cell_length_b 8.783271
_cell_length_c 15.578297
_cell_angle_alpha 133.335409
_cell_angle_beta 129.140310
_cell_angle_gamma 86.874360
_cell_volume 496.575992
_symmetry_space_group_name_H-M "P -1"
_symmetry_group_IT_number 2
_symmetry_cell_setting 'triclinic'
loop_
_space_group_symop_operation_xyz
x,y,z
-x,-y,-z
loop_
_atom_site_type_symbol
_atom_site_label
_atom_site_fract_x
_atom_site_fract_y
_atom_site_fract_z
Si Si1 0.129773 0.171928 0.025434
Si Si2 0.654073 0.589006 0.324962
Si Si3 0.399543 0.606136 0.071985
Si Si4 0.798001 0.293971 0.696208
Si Si5 0.196397 0.748848 0.524418
Si Si6 0.733816 0.672218 0.576431
O O1 0.412179 0.260889 0.137551
O O2 0.170857 0.446146 0.159657
O O3 0.939864 0.977998 0.807094
O O4 0.000000 0.000000 0.000000
O O5 0.525616 0.629437 0.217429
O O6 0.692920 0.715753 0.481617
O O7 0.933704 0.695148 0.434669
O O8 0.541914 0.932517 0.232269
O O9 0.500000 0.500000 0.000000
O O10 0.077582 0.391608 0.867369
O O11 0.806468 0.288871 0.593656
O O12 0.500000 0.000000 0.500000
O O13 0.177957 0.507251 0.466595
O O14 0.500000 0.500000 0.500000
#
# Coordination Sequence:
#
# PCOD9071426 Si02
#       6
#     2   2   2   2   2   2
#     4  12  26  49  80 114 158 214 269 328 404 478
#     4  12  28  48  80 117 164 211 267 331 409 470
#     4  12  29  51  82 115 164 211 270 331 408 482
#     4  12  28  53  85 120 159 211 275 335 403 480
#     4  12  27  49  81 119 161 210 271 335 402 478
#     4  12  26  50  78 114 163 206 269 332 395 479
#
# _framework density 24.165485
#
# number of rings (size 3 to 8) (size 9 to 14) (size 15 to 20)
#    0.000    0.000    5.000    3.000    4.667    4.667 
#    0.000    2.500    0.000    0.000    0.000    0.000 
#    0.000    0.000    0.000    0.000    0.000    0.000 
#
# Total GULP energy -67119.632888 kJ/mol
# GULP energy per Si atom -5593.302741 kJ/mol
# Density = 2.411048 g / cm^3
# Si number density = 24.165485 Si / 1000 Ang^3
#
#
#
# Elastic Constant Matrix: (Units=GPa)
#
#
# Indices 1 2 3 4 5 6 
#
# 1 127.1479 64.5840 91.8556 -3.5321 2.2150 8.7859
# 2 64.5840 129.4751 79.1962 -5.5760 -5.7548 -4.7300
# 3 91.8556 79.1962 229.1106 3.4293 -5.4203 -5.5993
# 4 -3.5321 -5.5760 3.4293 51.5332 7.1662 -7.6382
# 5 2.2150 -5.7548 -5.4203 7.1662 65.7633 -4.7743
# 6 8.7859 -4.7300 -5.5993 -7.6382 -4.7743 41.1273
#
#
#
# Elastic Compliance Matrix: (Units=1/GPa)
#
#
# Indices 1 2 3 4 5 6 
#
# 1 0.013248 -0.004405 -0.003926 0.000307 -0.001478 -0.003986
# 2 -0.004405 0.011397 -0.002112 0.001276 0.001001 0.002317
# 3 -0.003926 -0.002112 0.006733 -0.000829 0.000697 0.001439
# 4 0.000307 0.001276 -0.000829 0.020412 -0.001935 0.003535
# 5 -0.001478 0.001001 0.000697 -0.001935 0.015757 0.001996
# 6 -0.003986 0.002317 0.001439 0.003535 0.001996 0.026517
#
#
# Mechanical properties :
#
#
# Convention : Reuss Voigt Hill
#
# Bulk Modulus (GPa) = 95.31356 106.33391 100.82374
# Shear Modulus (GPa) = 42.21291 48.35796 45.28543
#
# Velocity S-wave (km/s) = 4.18404 4.47824 4.33364
# Velocity P-wave (km/s) = 7.92901 8.41650 8.17639
#
# Compressibility (1/GPa) = 0.01049169
#
# Stress axis : x y z
#
# Youngs Moduli (GPa) = 75.48170 87.74286 148.52600
#
# Poissons Ratio (x) = 0.38653 0.58308
# Poissons Ratio (y) = 0.33251 0.31372
# Poissons Ratio (z) = 0.29632 0.18533
#
# Static dielectric constant tensor:
#      x y z
#    x 1.945970 -0.023360 0.034060 
#    y -0.023360 1.998970 0.027900 
#    z 0.034060 0.027900 2.070380 
# 
# From -- ./inp_files/209001.got.cif
#   From: 2010.05.17/outbox.cif.g08.bks.cpg/sg2_105_cif.got.tgz:209001.got - 2010.06.03 11:33:40.
