data_PCOD9071924
_publ_section_title
;
Structure prediction by ZEFSAII (Michael W. Deem and Ramdas Pophale) SiO2 
 PCOD9071924
Probable space group: P -1
;
_chemical_formula_sum "Si O2"
_cell_formula_units_Z 16
_cell_length_a 20.945760
_cell_length_b 10.065976
_cell_length_c 12.805618
_cell_angle_alpha 116.437037
_cell_angle_beta 141.901109
_cell_angle_gamma 34.204736
_cell_volume 754.207096
_symmetry_space_group_name_H-M "P -1"
_symmetry_group_IT_number 2
_symmetry_cell_setting 'triclinic'
loop_
_space_group_symop_operation_xyz
x,y,z
-x,-y,-z
loop_
_atom_site_type_symbol
_atom_site_label
_atom_site_fract_x
_atom_site_fract_y
_atom_site_fract_z
Si Si1 0.145051 0.136859 0.640166
Si Si2 0.382083 0.342407 0.935077
Si Si3 0.961931 0.684571 0.889879
Si Si4 0.968035 0.732703 0.140085
Si Si5 0.611022 0.898493 0.500342
Si Si6 0.055114 0.306723 0.357788
Si Si7 0.520339 0.061918 0.217902
Si Si8 0.267892 0.774191 0.838801
O O1 0.038446 0.252133 0.430638
O O2 0.053144 0.397698 0.668298
O O3 0.383556 0.884716 0.843788
O O4 0.136988 0.001968 0.654277
O O5 0.354186 0.330070 0.016188
O O6 0.387985 0.191464 0.816046
O O7 0.249840 0.633850 0.814550
O O8 0.728536 0.910178 0.670250
O O9 0.000250 0.693797 0.825704
O O10 0.084132 0.378388 0.958624
O O11 0.992604 0.742308 0.052992
O O12 0.194980 0.454310 0.386873
O O13 0.797452 0.035793 0.085232
O O14 0.474861 0.070989 0.281175
O O15 0.500000 0.000000 0.500000
O O16 0.296259 0.048278 0.571571
O O17 0.500000 0.500000 0.000000
#
# Coordination Sequence:
#
# PCOD9071924 Si02
#       8
#     2   2   2   2   2   2   2   2
#     4   9  16  27  46  71  97 120 157 191 238 283
#     4   9  19  29  47  66  93 132 152 195 234 286
#     4   8  16  29  49  69  93 122 157 199 234 274
#     4   9  17  31  47  71  94 121 163 194 236 284
#     4   9  17  28  49  71  91 118 159 207 233 264
#     4   9  15  28  49  70  96 122 151 206 234 270
#     4   9  17  32  45  68  93 120 168 190 235 283
#     4  10  18  30  48  73 101 127 156 195 244 286
#
# _framework density 21.214333
#
# number of rings (size 3 to 8) (size 9 to 14) (size 15 to 20)
#    0.750    2.250    1.250    0.000    0.000    3.000 
#    0.000    2.500    0.000   14.250    0.000    0.000 
#    0.000    0.000    0.000    0.000    0.000    0.000 
#
# Total GULP energy -89089.082992 kJ/mol
# GULP energy per Si atom -5568.067687 kJ/mol
# Density = 2.116605 g / cm^3
# Si number density = 21.214333 Si / 1000 Ang^3
#
#
#
# Elastic Constant Matrix: (Units=GPa)
#
#
# Indices 1 2 3 4 5 6 
#
# 1 116.6134 38.9657 45.6879 5.6429 -48.2690 -15.0567
# 2 38.9657 65.9781 30.5016 -7.9292 -19.0633 -12.0489
# 3 45.6879 30.5016 122.2642 9.3779 -42.7578 -7.7245
# 4 5.6429 -7.9292 9.3779 17.9360 -8.1581 -9.2782
# 5 -48.2690 -19.0633 -42.7578 -8.1581 53.9359 -0.1425
# 6 -15.0567 -12.0489 -7.7245 -9.2782 -0.1425 31.3772
#
#
#
# Elastic Compliance Matrix: (Units=1/GPa)
#
#
# Indices 1 2 3 4 5 6 
#
# 1 0.016400 -0.003956 -0.000144 0.003164 0.013662 0.007313
# 2 -0.003956 0.027437 -0.003943 0.026748 0.007119 0.015609
# 3 -0.000144 -0.003943 0.012175 -0.004647 0.007426 0.000074
# 4 0.003164 0.026748 -0.004647 0.100916 0.023973 0.040595
# 5 0.013662 0.007119 0.007426 0.023973 0.042845 0.018401
# 6 0.007313 0.015609 0.000074 0.040595 0.018401 0.053479
#
#
# Mechanical properties :
#
#
# Convention : Reuss Voigt Hill
#
# Bulk Modulus (GPa) = 25.04584 59.46290 42.25437
# Shear Modulus (GPa) = 17.69001 33.29654 25.49327
#
# Velocity S-wave (km/s) = 2.89081 3.96603 3.47032
# Velocity P-wave (km/s) = 4.79313 7.00449 6.00154
#
# Compressibility (1/GPa) = 0.03992678
#
# Stress axis : x y z
#
# Youngs Moduli (GPa) = 60.97638 36.44679 82.13804
#
# Poissons Ratio (x) = 0.14417 0.01185
# Poissons Ratio (y) = 0.24120 0.32383
# Poissons Ratio (z) = 0.00880 0.14369
#
# Static dielectric constant tensor:
#      x y z
#    x 1.856390 -0.025230 0.009340 
#    y -0.025230 1.724640 -0.013940 
#    z 0.009340 -0.013940 1.850000 
# 
# From -- ./inp_files/474678.got.cif
#   From: 2010.05.17/outbox.cif.g08.bks.cpg/sg2_238_cif.got.tgz:474678.got - 2010.06.03 11:33:40.
