data_PCOD9071622
_publ_section_title
;
Structure prediction by ZEFSAII (Michael W. Deem and Ramdas Pophale) SiO2 
 PCOD9071622
Probable space group: P -1
;
_chemical_formula_sum "Si O2"
_cell_formula_units_Z 12
_cell_length_a 13.196338
_cell_length_b 9.236169
_cell_length_c 5.275404
_cell_angle_alpha 78.425341
_cell_angle_beta 57.637275
_cell_angle_gamma 57.152715
_cell_volume 452.621760
_symmetry_space_group_name_H-M "P -1"
_symmetry_group_IT_number 2
_symmetry_cell_setting 'triclinic'
loop_
_space_group_symop_operation_xyz
x,y,z
-x,-y,-z
loop_
_atom_site_type_symbol
_atom_site_label
_atom_site_fract_x
_atom_site_fract_y
_atom_site_fract_z
Si Si1 0.853090 0.530963 0.296128
Si Si2 0.539071 0.806195 0.431820
Si Si3 0.260471 0.967065 0.976127
Si Si4 0.159241 0.184849 0.514256
Si Si5 0.862450 0.265992 0.703291
Si Si6 0.556367 0.546179 0.159262
O O1 0.700493 0.663755 0.333309
O O2 0.843472 0.637182 0.525163
O O3 0.867365 0.348414 0.398894
O O4 0.000000 0.500000 0.000000
O O5 0.519319 0.743069 0.203092
O O6 0.500000 0.000000 0.500000
O O7 0.416607 0.810322 0.762779
O O8 0.211446 0.078897 0.744140
O O9 0.251779 0.080668 0.186051
O O10 0.004269 0.222052 0.663824
O O11 0.162015 0.892600 0.206940
O O12 0.724185 0.421286 0.965072
O O13 0.500000 0.500000 0.500000
O O14 0.500000 0.500000 0.000000
#
# Coordination Sequence:
#
# PCOD9071622 Si02
#       6
#     2   2   2   2   2   2
#     4  12  28  53  87 124 172 223 287 348 435 507
#     4  12  28  53  88 124 176 223 286 355 431 511
#     4  12  29  51  83 123 169 221 286 346 431 505
#     4  12  28  52  79 123 171 224 278 346 431 513
#     4  12  28  49  85 117 173 220 288 352 423 502
#     4  12  28  51  80 121 164 216 283 351 418 498
#
# _framework density 26.512205000000002
#
# number of rings (size 3 to 8) (size 9 to 14) (size 15 to 20)
#    0.000    0.000    3.333    4.500    4.667    4.667 
#    0.000    0.000    0.000    0.000    0.000    0.000 
#    0.000    0.000    0.000    0.000    0.000    0.000 
#
# Total GULP energy -67186.088784 kJ/mol
# GULP energy per Si atom -5598.840732 kJ/mol
# Density = 2.645186 g / cm^3
# Si number density = 26.512205 Si / 1000 Ang^3
#
#
#
# Elastic Constant Matrix: (Units=GPa)
#
#
# Indices 1 2 3 4 5 6 
#
# 1 159.0450 63.7398 65.2261 18.7730 2.0000 -9.4749
# 2 63.7398 118.0767 34.5841 -5.0640 25.7575 -2.9621
# 3 65.2261 34.5841 160.9885 18.8762 1.0672 -20.0500
# 4 18.7730 -5.0640 18.8762 67.2726 11.5022 4.7485
# 5 2.0000 25.7575 1.0672 11.5022 64.7240 17.3429
# 6 -9.4749 -2.9621 -20.0500 4.7485 17.3429 55.6543
#
#
#
# Elastic Compliance Matrix: (Units=1/GPa)
#
#
# Indices 1 2 3 4 5 6 
#
# 1 0.009652 -0.005086 -0.002510 -0.002758 0.002257 0.000000
# 2 -0.005086 0.012969 -0.000985 0.003610 -0.005897 0.000999
# 3 -0.002510 -0.000985 0.007967 -0.001785 -0.000028 0.002552
# 4 -0.002758 0.003610 -0.001785 0.017183 -0.004076 -0.001116
# 5 0.002257 -0.005897 -0.000028 -0.004076 0.020014 -0.005829
# 6 0.000000 0.000999 0.002552 -0.001116 -0.005829 0.020852
#
#
# Mechanical properties :
#
#
# Convention : Reuss Voigt Hill
#
# Bulk Modulus (GPa) = 74.47536 85.02335 79.74936
# Shear Modulus (GPa) = 45.34092 55.83420 50.58756
#
# Velocity S-wave (km/s) = 4.13993 4.59408 4.37290
# Velocity P-wave (km/s) = 7.14171 7.76401 7.45935
#
# Compressibility (1/GPa) = 0.01342726
#
# Stress axis : x y z
#
# Youngs Moduli (GPa) = 103.60239 77.10403 125.51296
#
# Poissons Ratio (x) = 0.39216 0.31499
# Poissons Ratio (y) = 0.52693 0.12365
# Poissons Ratio (z) = 0.26000 0.07596
#
# Static dielectric constant tensor:
#      x y z
#    x 2.179690 -0.061260 0.079830 
#    y -0.061260 2.243770 -0.143980 
#    z 0.079830 -0.143980 2.172830 
# 
# From -- ./inp_files/87319.got.cif
#   From: 2010.05.17/outbox.cif.g08.bks.cpg/sg2_44_cif.got.tgz:87319.got - 2010.06.03 11:33:40.
