data_PCOD9071560
_publ_section_title
;
Structure prediction by ZEFSAII (Michael W. Deem and Ramdas Pophale) SiO2 
 PCOD9071560
Probable space group: P -1
;
_chemical_formula_sum "Si O2"
_cell_formula_units_Z 12
_cell_length_a 5.106032
_cell_length_b 14.344736
_cell_length_c 9.404887
_cell_angle_alpha 44.749628
_cell_angle_beta 78.336805
_cell_angle_gamma 83.255104
_cell_volume 474.608879
_symmetry_space_group_name_H-M "P -1"
_symmetry_group_IT_number 2
_symmetry_cell_setting 'triclinic'
loop_
_space_group_symop_operation_xyz
x,y,z
-x,-y,-z
loop_
_atom_site_type_symbol
_atom_site_label
_atom_site_fract_x
_atom_site_fract_y
_atom_site_fract_z
Si Si1 0.274134 0.776514 0.437779
Si Si2 0.358192 0.013549 0.347684
Si Si3 0.781344 0.096360 0.979762
Si Si4 0.790898 0.485649 0.413684
Si Si5 0.724800 0.405281 0.121065
Si Si6 0.967254 0.740538 0.975771
O O1 0.176500 0.892865 0.426600
O O2 0.370182 0.844187 0.204884
O O3 0.115523 0.649960 0.524137
O O4 0.411498 0.684950 0.639203
O O5 0.500000 0.000000 0.500000
O O6 0.194661 0.145863 0.205749
O O7 0.591703 0.023632 0.193343
O O8 0.930716 0.207450 0.939069
O O9 0.000000 0.000000 0.000000
O O10 0.500000 0.500000 0.500000
O O11 0.000000 0.500000 0.500000
O O12 0.801170 0.605774 0.171124
O O13 0.790979 0.300455 0.105006
O O14 0.500000 0.500000 0.000000
O O15 0.000000 0.500000 0.000000
#
# Coordination Sequence:
#
# PCOD9071560 Si02
#       6
#     2   2   2   2   2   2
#     4  12  27  49  83 119 163 216 280 345 419 494
#     4  12  30  52  82 119 171 221 282 346 428 508
#     4  12  27  48  82 121 165 211 284 347 422 499
#     4  12  28  47  81 121 163 214 276 348 418 491
#     4  12  31  52  80 123 168 220 278 343 423 506
#     4  12  28  53  80 119 167 220 281 352 424 507
#
# _framework density 25.283974000000001
#
# number of rings (size 3 to 8) (size 9 to 14) (size 15 to 20)
#    0.000    0.000    5.000    2.500   11.667    1.333 
#    0.000    0.000    0.000    0.000    0.000    0.000 
#    0.000    0.000    0.000    0.000    0.000    0.000 
#
# Total GULP energy -66951.770144 kJ/mol
# GULP energy per Si atom -5579.314179 kJ/mol
# Density = 2.522643 g / cm^3
# Si number density = 25.283974 Si / 1000 Ang^3
#
#
#
# Elastic Constant Matrix: (Units=GPa)
#
#
# Indices 1 2 3 4 5 6 
#
# 1 122.2457 55.1361 49.7285 7.8224 21.0862 -21.9118
# 2 55.1361 196.8578 75.7686 8.1991 18.1023 5.4675
# 3 49.7285 75.7686 204.3537 28.4667 33.5585 -8.6303
# 4 7.8224 8.1991 28.4667 53.5365 -0.3947 -7.0950
# 5 21.0862 18.1023 33.5585 -0.3947 43.5090 0.8512
# 6 -21.9118 5.4675 -8.6303 -7.0950 0.8512 31.8998
#
#
#
# Elastic Compliance Matrix: (Units=1/GPa)
#
#
# Indices 1 2 3 4 5 6 
#
# 1 0.012126 -0.002944 -0.000839 0.000257 -0.004174 0.008775
# 2 -0.002944 0.006749 -0.001972 -0.000048 0.000212 -0.003729
# 3 -0.000839 -0.001972 0.007014 -0.003195 -0.004232 0.001061
# 4 0.000257 -0.000048 -0.003195 0.020883 0.002473 0.003899
# 5 -0.004174 0.000212 -0.004232 0.002473 0.028289 -0.004253
# 6 0.008775 -0.003729 0.001061 0.003899 -0.004253 0.039283
#
#
# Mechanical properties :
#
#
# Convention : Reuss Voigt Hill
#
# Bulk Modulus (GPa) = 69.54355 98.30261 83.92308
# Shear Modulus (GPa) = 38.27163 48.64399 43.45781
#
# Velocity S-wave (km/s) = 3.89481 4.39099 4.15033
# Velocity P-wave (km/s) = 6.91309 8.04186 7.49875
#
# Compressibility (1/GPa) = 0.01437948
#
# Stress axis : x y z
#
# Youngs Moduli (GPa) = 82.46903 148.16423 142.57857
#
# Poissons Ratio (x) = 0.43618 0.11963
# Poissons Ratio (y) = 0.24278 0.28112
# Poissons Ratio (z) = 0.06920 0.29213
#
# Static dielectric constant tensor:
#      x y z
#    x 1.981650 0.115200 -0.055600 
#    y 0.115200 1.490280 -0.525560 
#    z -0.055600 -0.525560 1.620010 
# 
# From -- ./inp_files/132728.got.cif
#   From: 2010.05.17/outbox.cif.g08.bks.cpg/sg2_67_cif.got.tgz:132728.got - 2010.06.03 11:33:40.
