data_PCOD9071814
_publ_section_title
;
Structure prediction by ZEFSAII (Michael W. Deem and Ramdas Pophale) SiO2 
 PCOD9071814
Probable space group: P -1
;
_chemical_formula_sum "Si O2"
_cell_formula_units_Z 16
_cell_length_a 18.000000
_cell_length_b 24.000000
_cell_length_c 12.000000
_cell_angle_alpha 150.000000
_cell_angle_beta 150.000000
_cell_angle_gamma 20.000000
_cell_volume 844.160077
_symmetry_space_group_name_H-M "P -1"
_symmetry_group_IT_number 2
_symmetry_cell_setting 'triclinic'
loop_
_space_group_symop_operation_xyz
x,y,z
-x,-y,-z
loop_
_atom_site_type_symbol
_atom_site_label
_atom_site_fract_x
_atom_site_fract_y
_atom_site_fract_z
Si Si1 0.619699 0.393684 0.149010
Si Si2 0.710240 0.869171 0.352804
Si Si3 0.289366 0.947882 0.961549
Si Si4 0.906989 0.602530 0.349920
Si Si5 0.925056 0.640593 0.025468
Si Si6 0.364610 0.397503 0.309951
Si Si7 0.142935 0.675321 0.889746
Si Si8 0.600826 0.164032 0.835236
O O1 0.630476 0.492381 0.420325
O O2 0.788589 0.316070 0.128943
O O3 0.369247 0.536537 0.016330
O O4 0.658089 0.251789 0.010142
O O5 0.840905 0.715768 0.348841
O O6 0.697812 0.002607 0.612161
O O7 0.460191 0.955501 0.179044
O O8 0.813232 0.796467 0.235275
O O9 0.394945 0.791577 0.747422
O O10 0.313029 0.893750 0.025902
O O11 0.036036 0.142121 0.963770
O O12 0.672162 0.698431 0.268357
O O13 0.049392 0.413199 0.163906
O O14 0.038321 0.613289 0.619167
O O15 0.774051 0.620825 0.837188
O O16 0.192871 0.505868 0.169779
#
# Coordination Sequence:
#
# PCOD9071814 Si02
#       8
#     2   2   2   2   2   2   2   2
#     4  11  26  38  53  83 123 152 180 226 291 340
#     4  10  16  31  58  90 110 137 189 241 274 317
#     4  10  19  35  62  83 107 147 195 235 270 324
#     4  11  16  35  61  82 108 146 196 225 272 332
#     4  10  16  31  61  86 105 146 191 234 272 326
#     4  10  18  35  57  85 114 143 190 230 280 332
#     4  11  22  41  57  78 114 162 188 217 278 350
#     4  11  21  35  57  92 114 137 187 247 279 316
#
# _framework density 18.953751
#
# number of rings (size 3 to 8) (size 9 to 14) (size 15 to 20)
#    0.000    1.500    8.750    0.750    0.000    2.000 
#    0.000    0.000    0.000    0.750    0.000    0.000 
#    0.000    0.000    0.000    0.000    0.000    0.000 
#
# Total GULP energy -89093.959795 kJ/mol
# GULP energy per Si atom -5568.372487 kJ/mol
# Density = 1.891061 g / cm^3
# Si number density = 18.953751 Si / 1000 Ang^3
#
#
#
# Elastic Constant Matrix: (Units=GPa)
#
#
# Indices 1 2 3 4 5 6 
#
# 1 15.5456 8.5274 14.0181 13.9021 -10.7013 -6.2297
# 2 8.5274 62.8006 17.1183 13.9406 -9.3196 -22.7717
# 3 14.0181 17.1183 119.9222 27.8270 -14.2994 -1.8973
# 4 13.9021 13.9406 27.8270 42.4097 -13.4463 -7.8474
# 5 -10.7013 -9.3196 -14.2994 -13.4463 17.7787 11.1231
# 6 -6.2297 -22.7717 -1.8973 -7.8474 11.1231 24.0395
#
#
#
# Elastic Compliance Matrix: (Units=1/GPa)
#
#
# Indices 1 2 3 4 5 6 
#
# 1 0.126281 -0.005859 -0.002103 -0.020254 0.060755 -0.007714
# 2 -0.005859 0.026788 -0.003391 -0.003377 -0.012434 0.028240
# 3 -0.002103 -0.003391 0.010827 -0.004476 0.007051 -0.007626
# 4 -0.020254 -0.003377 -0.004476 0.037789 0.012396 -0.002200
# 5 0.060755 -0.012434 0.007051 0.012396 0.135090 -0.053937
# 6 -0.007714 0.028240 -0.007626 -0.002200 -0.053937 0.089986
#
#
# Mechanical properties :
#
#
# Convention : Reuss Voigt Hill
#
# Bulk Modulus (GPa) = 7.08268 30.84399 18.96333
# Shear Modulus (GPa) = 10.06990 27.41924 18.74457
#
# Velocity S-wave (km/s) = 2.30747 3.80760 3.14819
# Velocity P-wave (km/s) = 3.29305 5.96984 4.82095
#
# Compressibility (1/GPa) = 0.14118952
#
# Stress axis : x y z
#
# Youngs Moduli (GPa) = 7.91887 37.33082 92.35894
#
# Poissons Ratio (x) = 0.21872 0.19422
# Poissons Ratio (y) = 0.04640 0.31321
# Poissons Ratio (z) = 0.01665 0.12660
#
# Static dielectric constant tensor:
#      x y z
#    x 1.669430 -0.011760 -0.013570 
#    y -0.011760 1.703210 0.008960 
#    z -0.013570 0.008960 1.659310 
# 
# From -- ./inp_files/467487.got.cif
#   From: 2010.05.17/outbox.ucp.g08.bks.cvg/sg2_234_cif.got.tgz:467487.got - 2010.06.11 11:32:03.
