data_PCOD9071712
_publ_section_title
;
Structure prediction by ZEFSAII (Michael W. Deem and Ramdas Pophale) SiO2 
 PCOD9071712
Probable space group: P -1
;
_chemical_formula_sum "Si O2"
_cell_formula_units_Z 16
_cell_length_a 15.093694
_cell_length_b 11.476631
_cell_length_c 6.410300
_cell_angle_alpha 124.799865
_cell_angle_beta 81.553324
_cell_angle_gamma 133.579969
_cell_volume 601.134425
_symmetry_space_group_name_H-M "P -1"
_symmetry_group_IT_number 2
_symmetry_cell_setting 'triclinic'
loop_
_space_group_symop_operation_xyz
x,y,z
-x,-y,-z
loop_
_atom_site_type_symbol
_atom_site_label
_atom_site_fract_x
_atom_site_fract_y
_atom_site_fract_z
Si Si1 0.167251 0.615248 0.942364
Si Si2 0.357023 0.401072 0.505362
Si Si3 0.530943 0.244057 0.425589
Si Si4 0.079284 0.713380 0.563042
Si Si5 0.266000 0.048519 0.410261
Si Si6 0.934784 0.024503 0.291899
Si Si7 0.657185 0.119317 0.225486
Si Si8 0.807577 0.640968 0.160512
O O1 0.257331 0.689742 0.781800
O O2 0.203063 0.541278 0.028207
O O3 0.011297 0.408546 0.737379
O O4 0.204622 0.822726 0.163146
O O5 0.500000 0.500000 0.500000
O O6 0.351930 0.512061 0.439143
O O7 0.267220 0.155190 0.319992
O O8 0.326354 0.448047 0.782338
O O9 0.422406 0.199457 0.557024
O O10 0.577977 0.149462 0.402700
O O11 0.447004 0.099370 0.095854
O O12 0.056119 0.851153 0.771213
O O13 0.233832 0.846340 0.655874
O O14 0.000000 0.500000 0.500000
O O15 0.179145 0.026585 0.587372
O O16 0.078510 0.192170 0.529046
O O17 0.871602 0.793727 0.093967
#
# Coordination Sequence:
#
# PCOD9071712 Si02
#       8
#     2   2   2   2   2   2   2   2
#     4   9  16  29  50  77  98 126 164 198 243 287
#     4   9  16  28  46  75  99 123 154 206 245 275
#     4   9  16  28  50  74  95 125 168 203 238 278
#     4   9  18  30  47  71 100 129 157 201 246 289
#     4   9  18  29  47  78  99 124 161 204 243 282
#     4   9  18  31  47  74  98 129 162 198 246 288
#     4   9  16  28  48  77  94 124 170 205 232 285
#     4   9  16  28  48  71  97 124 163 202 233 286
#
# _framework density 26.616340000000001
#
# number of rings (size 3 to 8) (size 9 to 14) (size 15 to 20)
#    0.000    3.000    1.250    0.000    0.000    2.000 
#    0.000    0.625    0.000    3.750   58.500    0.000 
#    0.000    0.000    0.000    0.000    0.000    0.000 
#
# Total GULP energy -89148.896218 kJ/mol
# GULP energy per Si atom -5571.806014 kJ/mol
# Density = 2.655576 g / cm^3
# Si number density = 26.616340 Si / 1000 Ang^3
#
#
#
# Elastic Constant Matrix: (Units=GPa)
#
#
# Indices 1 2 3 4 5 6 
#
# 1 163.1809 41.9703 49.6636 8.2927 -8.6765 -10.7707
# 2 41.9703 126.1553 23.4187 39.3471 -20.8736 -11.3282
# 3 49.6636 23.4187 77.4167 13.0318 21.9502 -10.5114
# 4 8.2927 39.3471 13.0318 18.9892 0.3114 -24.0242
# 5 -8.6765 -20.8736 21.9502 0.3114 34.6093 10.1372
# 6 -10.7707 -11.3282 -10.5114 -24.0242 10.1372 56.5842
#
#
#
# Elastic Compliance Matrix: (Units=1/GPa)
#
#
# Indices 1 2 3 4 5 6 
#
# 1 0.008884 0.000674 -0.008174 -0.002938 0.008570 -0.002475
# 2 0.000674 -0.016857 0.002831 0.074819 -0.022135 0.033011
# 3 -0.008174 0.002831 0.025065 -0.024302 -0.014851 -0.003990
# 4 -0.002938 0.074819 -0.024302 -0.201737 0.088444 -0.091593
# 5 0.008570 -0.022135 -0.014851 0.088444 0.017883 0.028788
# 6 -0.002475 0.033011 -0.003990 -0.091593 0.028788 -0.020976
#
#
# Mechanical properties :
#
#
# Convention : Reuss Voigt Hill
#
# Bulk Modulus (GPa) = 128.99413 66.31758 97.65585
# Shear Modulus (GPa) = -28.43917 38.81655 5.18869
#
# Velocity S-wave (km/s) = -3.27232 3.82301 1.39774
# Velocity P-wave (km/s) = 5.85594 6.66764 6.27493
#
# Compressibility (1/GPa) = 0.00775229
#
# Stress axis : x y z
#
# Youngs Moduli (GPa) = 112.55762 -59.32375 39.89672
#
# Poissons Ratio (x) = 0.03997 0.32614
# Poissons Ratio (y) = -0.07584 -0.11293
# Poissons Ratio (z) = 0.92010 0.16792
#
# Static dielectric constant tensor:
#      x y z
#    x 2.177700 -0.041080 -0.036090 
#    y -0.041080 2.241610 -0.064100 
#    z -0.036090 -0.064100 2.178380 
# 
# From -- ./inp_files/305724.got.cif
#   From: 2010.05.17/outbox.cif.g08.bks.cpg/sg2_153_cif.got.tgz:305724.got - 2010.06.03 11:33:40.
