data_PCOD9071994
_publ_section_title
;
Structure prediction by ZEFSAII (Michael W. Deem and Ramdas Pophale) SiO2 
 PCOD9071994
Probable space group: P -1
;
_chemical_formula_sum "Si O2"
_cell_formula_units_Z 16
_cell_length_a 21.574219
_cell_length_b 9.204483
_cell_length_c 7.196799
_cell_angle_alpha 69.018034
_cell_angle_beta 110.716665
_cell_angle_gamma 150.402429
_cell_volume 656.263692
_symmetry_space_group_name_H-M "P -1"
_symmetry_group_IT_number 2
_symmetry_cell_setting 'triclinic'
loop_
_space_group_symop_operation_xyz
x,y,z
-x,-y,-z
loop_
_atom_site_type_symbol
_atom_site_label
_atom_site_fract_x
_atom_site_fract_y
_atom_site_fract_z
Si Si1 0.845001 0.033790 0.350125
Si Si2 0.124967 0.241113 0.898464
Si Si3 0.300225 0.315755 0.040278
Si Si4 0.049098 0.283333 0.266816
Si Si5 0.285164 0.526845 0.413088
Si Si6 0.487111 0.860871 0.760920
Si Si7 0.602186 0.794422 0.850857
Si Si8 0.823007 0.328052 0.116385
O O1 0.839053 0.204053 0.308851
O O2 0.990850 0.275178 0.366873
O O3 0.771471 0.872103 0.145661
O O4 0.775529 0.766070 0.523387
O O5 0.210339 0.269602 0.045515
O O6 0.186211 0.531743 0.841565
O O7 0.064698 0.068168 0.720039
O O8 0.000000 0.000000 0.000000
O O9 0.430576 0.664932 0.970710
O O10 0.333068 0.210395 0.203487
O O11 0.177135 0.441727 0.337799
O O12 0.066202 0.423870 0.034197
O O13 0.366220 0.696236 0.611884
O O14 0.394130 0.789326 0.261344
O O15 0.531871 0.807014 0.697266
O O16 0.500000 0.500000 0.000000
O O17 0.702292 0.062898 0.979336
#
# Coordination Sequence:
#
# PCOD9071994 Si02
#       8
#     2   2   2   2   2   2   2   2
#     4   9  18  30  50  79 101 127 167 213 254 295
#     4   9  19  33  51  76 106 133 164 207 253 306
#     4   8  16  31  52  77 102 128 166 213 254 293
#     4  10  18  32  52  75 104 133 167 206 254 301
#     4  10  18  30  50  75 104 132 166 209 253 296
#     4   9  17  30  49  76 101 133 168 210 249 295
#     4   9  16  30  52  77 103 124 164 214 251 287
#     4  10  18  32  52  77 101 133 166 208 257 295
#
# _framework density 24.380444000000001
#
# number of rings (size 3 to 8) (size 9 to 14) (size 15 to 20)
#    0.000    2.750    1.250    1.500    0.000    1.000 
#    0.000    3.125    0.000    0.750    3.250    0.000 
#    0.000    0.000    0.000    0.000    0.000    0.000 
#
# Total GULP energy -89188.341457 kJ/mol
# GULP energy per Si atom -5574.271341 kJ/mol
# Density = 2.432495 g / cm^3
# Si number density = 24.380444 Si / 1000 Ang^3
#
#
#
# Elastic Constant Matrix: (Units=GPa)
#
#
# Indices 1 2 3 4 5 6 
#
# 1 124.2300 43.1980 35.1728 -12.1712 47.3064 0.9540
# 2 43.1980 125.7854 27.4845 -17.9904 17.3398 3.6698
# 3 35.1728 27.4845 67.4749 -13.5826 29.9119 -4.2181
# 4 -12.1712 -17.9904 -13.5826 29.3835 -5.1602 5.6820
# 5 47.3064 17.3398 29.9119 -5.1602 40.1090 0.4227
# 6 0.9540 3.6698 -4.2181 5.6820 0.4227 33.6793
#
#
#
# Elastic Compliance Matrix: (Units=1/GPa)
#
#
# Indices 1 2 3 4 5 6 
#
# 1 0.015783 -0.002910 0.001452 0.002260 -0.018149 -0.000102
# 2 -0.002910 0.009969 -0.002473 0.004432 0.001558 -0.002081
# 3 0.001452 -0.002473 0.024652 0.006828 -0.018174 0.002392
# 4 0.002260 0.004432 0.006828 0.041366 -0.004282 -0.006617
# 5 -0.018149 0.001558 -0.018174 -0.004282 0.058687 -0.001946
# 6 -0.000102 -0.002081 0.002392 -0.006617 -0.001946 0.031362
#
#
# Mechanical properties :
#
#
# Convention : Reuss Voigt Hill
#
# Bulk Modulus (GPa) = 23.50578 58.80011 41.15295
# Shear Modulus (GPa) = 24.52644 34.74336 29.63490
#
# Velocity S-wave (km/s) = 3.17517 3.77908 3.49021
# Velocity P-wave (km/s) = 4.80671 6.57358 5.75832
#
# Compressibility (1/GPa) = 0.04254273
#
# Stress axis : x y z
#
# Youngs Moduli (GPa) = 63.35741 100.30735 40.56538
#
# Poissons Ratio (x) = 0.29186 -0.05888
# Poissons Ratio (y) = 0.18435 0.10031
# Poissons Ratio (z) = -0.09197 0.24804
#
# Static dielectric constant tensor:
#      x y z
#    x 2.096100 -0.012460 -0.047670 
#    y -0.012460 1.978410 0.012310 
#    z -0.047670 0.012310 2.069180 
# 
# From -- ./inp_files/221694.got.cif
#   From: 2010.05.17/outbox.cif.g08.bks.cpg/sg2_111_cif.got.tgz:221694.got - 2010.06.03 11:33:40.
