data_PCOD9071436
_publ_section_title
;
Structure prediction by ZEFSAII (Michael W. Deem and Ramdas Pophale) SiO2 
 PCOD9071436
Probable space group: P -1
;
_chemical_formula_sum "Si O2"
_cell_formula_units_Z 14
_cell_length_a 5.157127
_cell_length_b 10.406094
_cell_length_c 11.726603
_cell_angle_alpha 119.232457
_cell_angle_beta 100.835048
_cell_angle_gamma 83.973257
_cell_volume 539.314368
_symmetry_space_group_name_H-M "P -1"
_symmetry_group_IT_number 2
_symmetry_cell_setting 'triclinic'
loop_
_space_group_symop_operation_xyz
x,y,z
-x,-y,-z
loop_
_atom_site_type_symbol
_atom_site_label
_atom_site_fract_x
_atom_site_fract_y
_atom_site_fract_z
Si Si1 0.590845 0.720863 0.847964
Si Si2 0.684164 0.558441 0.199597
Si Si3 0.756752 0.207307 0.762807
Si Si4 0.437308 0.807649 0.616913
Si Si5 0.918421 0.637632 0.476637
Si Si6 0.000000 0.500000 0.000000
Si Si7 0.878180 0.141710 0.990755
Si Si8 0.500000 0.000000 0.500000
O O1 0.509424 0.553484 0.794475
O O2 0.544106 0.781299 0.742789
O O3 0.394607 0.814813 0.952648
O O4 0.892314 0.738723 0.918150
O O5 0.529265 0.710514 0.229279
O O6 0.908900 0.586930 0.324078
O O7 0.756125 0.469756 0.052931
O O8 0.748201 0.108441 0.606237
O O9 0.949570 0.347275 0.854822
O O10 0.830190 0.118176 0.844076
O O11 0.629641 0.699855 0.511894
O O12 0.136113 0.758154 0.571275
O O13 0.458844 0.958193 0.614162
O O14 0.000000 0.500000 0.500000
O O15 0.000000 0.000000 0.000000
#
# Coordination Sequence:
#
# PCOD9071436 Si02
#       8
#     2   2   2   2   2   1   2   1
#     4  12  27  49  85 119 159 213 287 350 412 493
#     4  12  27  47  82 118 164 211 288 347 422 484
#     4  12  27  51  80 119 165 219 275 347 418 493
#     4  12  27  51  79 122 165 222 275 341 426 502
#     4  12  26  49  82 118 165 214 282 353 413 492
#     4  12  26  50  82 120 162 216 280 356 408 494
#     4  12  28  51  79 118 162 220 277 341 419 507
#     4  12  28  54  78 120 176 220 272 340 422 520
#
# _framework density 25.958886
#
# number of rings (size 3 to 8) (size 9 to 14) (size 15 to 20)
#    0.000    0.000    4.286    4.714    2.000    0.571 
#    2.571    0.000    0.000    0.000    0.000    0.000 
#    0.000    0.000    0.000    0.000    0.000    0.000 
#
# Total GULP energy -77975.585741 kJ/mol
# GULP energy per Si atom -5569.684696 kJ/mol
# Density = 2.589980 g / cm^3
# Si number density = 25.958886 Si / 1000 Ang^3
#
#
#
# Elastic Constant Matrix: (Units=GPa)
#
#
# Indices 1 2 3 4 5 6 
#
# 1 45.5201 12.6489 17.0064 -11.2995 -1.7963 3.2420
# 2 12.6489 115.8097 33.6660 -31.6756 16.5496 -7.3937
# 3 17.0064 33.6660 179.5528 -37.0734 20.6992 17.9506
# 4 -11.2995 -31.6756 -37.0734 52.4569 8.1574 0.9626
# 5 -1.7963 16.5496 20.6992 8.1574 44.0789 5.5681
# 6 3.2420 -7.3937 17.9506 0.9626 5.5681 37.9323
#
#
#
# Elastic Compliance Matrix: (Units=1/GPa)
#
#
# Indices 1 2 3 4 5 6 
#
# 1 0.023926 -0.001898 -0.001368 0.002755 0.002091 -0.002144
# 2 -0.001898 0.012135 -0.000067 0.007816 -0.006467 0.003310
# 3 -0.001368 -0.000067 0.007731 0.005862 -0.004359 -0.003064
# 4 0.002755 0.007816 0.005862 0.030257 -0.011096 -0.000625
# 5 0.002091 -0.006467 -0.004359 -0.011096 0.029737 -0.003460
# 6 -0.002144 0.003310 -0.003064 -0.000625 -0.003460 0.029165
#
#
# Mechanical properties :
#
#
# Convention : Reuss Voigt Hill
#
# Bulk Modulus (GPa) = 26.93547 51.94725 39.44136
# Shear Modulus (GPa) = 32.89669 45.39771 39.14720
#
# Velocity S-wave (km/s) = 3.56372 4.18644 3.88757
# Velocity P-wave (km/s) = 5.22802 6.58963 5.94792
#
# Compressibility (1/GPa) = 0.03712577
#
# Stress axis : x y z
#
# Youngs Moduli (GPa) = 41.79572 82.40713 129.35286
#
# Poissons Ratio (x) = 0.15638 0.17697
# Poissons Ratio (y) = 0.07931 0.00869
# Poissons Ratio (z) = 0.05718 0.00553
#
# Static dielectric constant tensor:
#      x y z
#    x 2.126580 -0.100000 -0.007420 
#    y -0.100000 2.459390 0.190300 
#    z -0.007420 0.190300 2.084030 
# 
# From -- ./inp_files/363476.got.cif
#   From: 2010.05.17/outbox.cif.g08.bks.cpg/sg2_182_cif.got.tgz:363476.got - 2010.06.03 11:33:40.
