data_PCOD9071808
_publ_section_title
;
Structure prediction by ZEFSAII (Michael W. Deem and Ramdas Pophale) SiO2 
 PCOD9071808
Probable space group: P -1
;
_chemical_formula_sum "Si O2"
_cell_formula_units_Z 16
_cell_length_a 11.749678
_cell_length_b 14.673295
_cell_length_c 13.037133
_cell_angle_alpha 129.456290
_cell_angle_beta 112.631325
_cell_angle_gamma 28.126400
_cell_volume 716.569071
_symmetry_space_group_name_H-M "P -1"
_symmetry_group_IT_number 2
_symmetry_cell_setting 'triclinic'
loop_
_space_group_symop_operation_xyz
x,y,z
-x,-y,-z
loop_
_atom_site_type_symbol
_atom_site_label
_atom_site_fract_x
_atom_site_fract_y
_atom_site_fract_z
Si Si1 0.328587 0.176656 0.467993
Si Si2 0.660896 0.029359 0.323590
Si Si3 0.324194 0.703132 0.991820
Si Si4 0.806859 0.912405 0.786552
Si Si5 0.717781 0.444866 0.465976
Si Si6 0.185819 0.519716 0.262271
Si Si7 0.776318 0.730343 0.777425
Si Si8 0.311742 0.755258 0.805206
O O1 0.482555 0.151952 0.450090
O O2 0.355437 0.042575 0.306594
O O3 0.014739 0.474741 0.601241
O O4 0.500000 0.000000 0.500000
O O5 0.569515 0.238317 0.410938
O O6 0.522638 0.061519 0.213923
O O7 0.970626 0.740150 0.257607
O O8 0.324766 0.845729 0.090155
O O9 0.500000 0.500000 0.000000
O O10 0.405283 0.603313 0.831701
O O11 0.005613 0.939472 0.067086
O O12 0.814616 0.836591 0.844370
O O13 0.089552 0.684664 0.657332
O O14 0.864697 0.365610 0.564925
O O15 0.679739 0.339376 0.356412
O O16 0.171812 0.391376 0.189531
O O17 0.485372 0.310068 0.186318
#
# Coordination Sequence:
#
# PCOD9071808 Si02
#       8
#     2   2   2   2   2   2   2   2
#     4  11  16  29  54  90 122 148 185 232 292 354
#     4  10  18  29  51  86 124 154 186 218 293 357
#     4  10  24  46  65  79 104 159 211 255 287 327
#     4  10  18  36  58  85 120 147 198 241 282 346
#     4  10  19  34  56  86 124 157 187 241 293 344
#     4  11  21  34  56  91 127 156 181 234 307 359
#     4  10  19  33  54  91 125 154 180 238 292 353
#     4  10  24  42  59  84 115 152 209 248 284 349
#
# _framework density 22.328623
#
# number of rings (size 3 to 8) (size 9 to 14) (size 15 to 20)
#    0.000    1.750    5.000    1.125    0.000    5.500 
#    2.250    0.625    0.000    3.750    0.000    0.000 
#    0.000    0.000    0.000    0.000    0.000    0.000 
#
# Total GULP energy -89193.612693 kJ/mol
# GULP energy per Si atom -5574.600793 kJ/mol
# Density = 2.227780 g / cm^3
# Si number density = 22.328623 Si / 1000 Ang^3
#
#
#
# Elastic Constant Matrix: (Units=GPa)
#
#
# Indices 1 2 3 4 5 6 
#
# 1 106.1176 16.2844 27.3886 17.7358 -1.0148 2.6829
# 2 16.2844 103.0937 11.1898 13.0172 7.9990 9.1167
# 3 27.3886 11.1898 55.1578 -4.1512 10.4188 -0.3554
# 4 17.7358 13.0172 -4.1512 18.4298 3.0626 -0.3453
# 5 -1.0148 7.9990 10.4188 3.0626 32.8726 2.7721
# 6 2.6829 9.1167 -0.3554 -0.3453 2.7721 30.4400
#
#
#
# Elastic Compliance Matrix: (Units=1/GPa)
#
#
# Indices 1 2 3 4 5 6 
#
# 1 0.015052 0.000812 -0.010038 -0.018254 0.005350 -0.002381
# 2 0.000812 0.011520 -0.003398 -0.009670 -0.000495 -0.003626
# 3 -0.010038 -0.003398 0.027269 0.019973 -0.010272 0.003383
# 4 -0.018254 -0.009670 0.019973 0.085458 -0.013084 0.006899
# 5 0.005350 -0.000495 -0.010272 -0.013084 0.035503 -0.003825
# 6 -0.002381 -0.003626 0.003383 0.006899 -0.003825 0.034613
#
#
# Mechanical properties :
#
#
# Convention : Reuss Voigt Hill
#
# Bulk Modulus (GPa) = 34.97407 41.56607 38.27007
# Shear Modulus (GPa) = 20.47537 30.31557 25.39547
#
# Velocity S-wave (km/s) = 3.03149 3.68870 3.37612
# Velocity P-wave (km/s) = 5.28683 6.06613 5.68984
#
# Compressibility (1/GPa) = 0.02859261
#
# Stress axis : x y z
#
# Youngs Moduli (GPa) = 66.43680 86.80204 36.67171
#
# Poissons Ratio (x) = -0.07051 0.36813
# Poissons Ratio (y) = -0.05397 0.12462
# Poissons Ratio (z) = 0.66692 0.29497
#
# Static dielectric constant tensor:
#      x y z
#    x 1.913940 0.035440 -0.003690 
#    y 0.035440 1.848210 -0.041640 
#    z -0.003690 -0.041640 1.887940 
# 
# From -- ./inp_files/521675.got.cif
#   From: 2010.05.17/outbox.cif.g08.bks.cpg/sg2_261_cif.got.tgz:521675.got - 2010.06.03 11:33:40.
