data_PCOD9071074
_publ_section_title
;
Structure prediction by ZEFSAII (Michael W. Deem and Ramdas Pophale) SiO2 
 PCOD9071074
Probable space group: P -1
;
_chemical_formula_sum "Si O2"
_cell_formula_units_Z 11
_cell_length_a 13.189859
_cell_length_b 8.108101
_cell_length_c 9.265299
_cell_angle_alpha 65.181051
_cell_angle_beta 48.180017
_cell_angle_gamma 35.697549
_cell_volume 413.651850
_symmetry_space_group_name_H-M "P -1"
_symmetry_group_IT_number 2
_symmetry_cell_setting 'triclinic'
loop_
_space_group_symop_operation_xyz
x,y,z
-x,-y,-z
loop_
_atom_site_type_symbol
_atom_site_label
_atom_site_fract_x
_atom_site_fract_y
_atom_site_fract_z
Si Si1 0.500000 0.500000 0.000000
Si Si2 0.046980 0.266697 0.131477
Si Si3 0.665430 0.535634 0.569626
Si Si4 0.203081 0.225463 0.506928
Si Si5 0.597632 0.092467 0.843602
Si Si6 0.809331 0.053173 0.155696
O O1 0.308510 0.611582 0.256921
O O2 0.543690 0.614689 0.040001
O O3 0.835722 0.372272 0.336104
O O4 0.168120 0.161566 0.204831
O O5 0.000000 0.500000 0.000000
O O6 0.217852 0.970543 0.980685
O O7 0.665633 0.743155 0.556561
O O8 0.444559 0.682735 0.657353
O O9 0.109106 0.201255 0.733415
O O10 0.000000 0.500000 0.500000
O O11 0.359528 0.945601 0.353245
O O12 0.500000 0.000000 0.000000
O O13 0.000000 0.000000 0.000000
#
# Coordination Sequence:
#
# PCOD9071074 Si02
#       6
#     1   2   2   2   2   2
#     4  12  28  46  78 114 162 206 270 320 406 472
#     4  12  26  49  79 111 154 208 263 327 408 476
#     4  12  27  48  78 113 160 207 264 330 402 481
#     4  12  25  49  80 112 154 210 266 328 407 477
#     4  12  26  47  78 114 156 207 261 329 400 479
#     4  12  29  49  73 115 161 205 266 332 401 480
#
# _framework density 26.592410000000001
#
# number of rings (size 3 to 8) (size 9 to 14) (size 15 to 20)
#    0.000    0.000    7.273    0.545    7.636    2.909 
#    0.000    0.000    0.000    0.000    0.000    0.000 
#    0.000    0.000    0.000    0.000    0.000    0.000 
#
# Total GULP energy -61279.209305 kJ/mol
# GULP energy per Si atom -5570.837210 kJ/mol
# Density = 2.653188 g / cm^3
# Si number density = 26.592410 Si / 1000 Ang^3
#
#
#
# Elastic Constant Matrix: (Units=GPa)
#
#
# Indices 1 2 3 4 5 6 
#
# 1 106.2402 6.1614 31.3268 -4.6712 -16.4900 19.1290
# 2 6.1614 58.7667 25.1563 -11.3691 -12.4009 8.0981
# 3 31.3268 25.1563 210.0485 -19.0218 -16.5444 11.9282
# 4 -4.6712 -11.3691 -19.0218 60.8900 2.0564 2.5375
# 5 -16.4900 -12.4009 -16.5444 2.0564 79.4966 11.3199
# 6 19.1290 8.0981 11.9282 2.5375 11.3199 56.0131
#
#
#
# Elastic Compliance Matrix: (Units=1/GPa)
#
#
# Indices 1 2 3 4 5 6 
#
# 1 0.010921 0.000634 -0.001198 0.000664 0.002687 -0.004139
# 2 0.000634 0.019446 -0.001684 0.003189 0.003225 -0.003466
# 3 -0.001198 -0.001684 0.005347 0.001270 0.000665 -0.000678
# 4 0.000664 0.003189 0.001270 0.017521 0.000716 -0.001897
# 5 0.002687 0.003225 0.000665 0.000716 0.014396 -0.004467
# 6 -0.004139 -0.003466 -0.000678 -0.001897 -0.004467 0.020901
#
#
# Mechanical properties :
#
#
# Convention : Reuss Voigt Hill
#
# Bulk Modulus (GPa) = 32.03334 55.59382 43.81358
# Shear Modulus (GPa) = 48.34057 60.10734 54.22395
#
# Velocity S-wave (km/s) = 4.26823 4.75944 4.52051
# Velocity P-wave (km/s) = 6.03014 7.15222 6.61502
#
# Compressibility (1/GPa) = 0.03121748
#
# Stress axis : x y z
#
# Youngs Moduli (GPa) = 91.57014 51.42473 187.01988
#
# Poissons Ratio (x) = -0.03258 0.22401
# Poissons Ratio (y) = -0.05801 0.31490
# Poissons Ratio (z) = 0.10968 0.08659
#
# Static dielectric constant tensor:
#      x y z
#    x 1.228270 0.498140 0.094230 
#    y 0.498140 2.062890 0.131160 
#    z 0.094230 0.131160 2.009780 
# 
# From -- ./inp_files/183542.got.cif
#   From: 2010.05.17/outbox.cif.g08.bks.cpg/sg2_92_cif.got.tgz:183542.got - 2010.06.03 11:33:40.
