data_PCOD9071179
_publ_section_title
;
Structure prediction by ZEFSAII (Michael W. Deem and Ramdas Pophale) SiO2 
 PCOD9071179
Probable space group: P -1
;
_chemical_formula_sum "Si O2"
_cell_formula_units_Z 11
_cell_length_a 8.992783
_cell_length_b 12.498579
_cell_length_c 5.172948
_cell_angle_alpha 75.818859
_cell_angle_beta 87.489859
_cell_angle_gamma 48.633246
_cell_volume 417.447249
_symmetry_space_group_name_H-M "P -1"
_symmetry_group_IT_number 2
_symmetry_cell_setting 'triclinic'
loop_
_space_group_symop_operation_xyz
x,y,z
-x,-y,-z
loop_
_atom_site_type_symbol
_atom_site_label
_atom_site_fract_x
_atom_site_fract_y
_atom_site_fract_z
Si Si1 0.320317 0.352910 0.333513
Si Si2 0.937154 0.351311 0.550427
Si Si3 0.347255 0.640478 0.746376
Si Si4 0.472657 0.940411 0.285258
Si Si5 0.000000 0.500000 0.000000
Si Si6 0.957560 0.898545 0.957074
O O1 0.116616 0.529208 0.296137
O O2 0.524803 0.316937 0.359931
O O3 0.354960 0.236054 0.589409
O O4 0.251102 0.361157 0.045531
O O5 0.726990 0.397474 0.461097
O O6 0.053982 0.191126 0.766338
O O7 0.998420 0.388754 0.269567
O O8 0.500000 0.500000 0.000000
O O9 0.145576 0.772201 0.837841
O O10 0.500000 0.000000 0.500000
O O11 0.500000 0.000000 0.000000
O O12 0.249484 0.001341 0.243771
O O13 0.000000 0.000000 0.000000
#
# Coordination Sequence:
#
# PCOD9071179 Si02
#       6
#     2   2   2   2   1   2
#     4  12  28  48  80 113 162 213 278 338 422 503
#     4  12  26  48  79 117 157 214 278 350 411 511
#     4  12  26  49  81 115 158 207 282 345 415 502
#     4  12  33  54  82 122 177 227 281 353 438 513
#     4  12  26  44  78 112 158 204 274 336 414 494
#     4  12  30  53  83 121 166 222 286 352 428 509
#
# _framework density 26.350636999999999
#
# number of rings (size 3 to 8) (size 9 to 14) (size 15 to 20)
#    0.000    0.000    3.636    3.273   15.273    1.455 
#    0.000    0.000    0.000    0.000    0.000    0.000 
#    0.000    0.000    0.000    0.000    0.000    0.000 
#
# Total GULP energy -61447.267075 kJ/mol
# GULP energy per Si atom -5586.115189 kJ/mol
# Density = 2.629066 g / cm^3
# Si number density = 26.350637 Si / 1000 Ang^3
#
#
#
# Elastic Constant Matrix: (Units=GPa)
#
#
# Indices 1 2 3 4 5 6 
#
# 1 169.0011 40.1044 61.5102 -18.9175 14.6802 10.5835
# 2 40.1044 124.6438 75.0870 -15.3086 1.1110 7.3180
# 3 61.5102 75.0870 189.3152 -38.6735 -2.0906 18.9340
# 4 -18.9175 -15.3086 -38.6735 59.1690 -3.8823 0.8933
# 5 14.6802 1.1110 -2.0906 -3.8823 66.7668 -16.3480
# 6 10.5835 7.3180 18.9340 0.8933 -16.3480 41.2222
#
#
#
# Elastic Compliance Matrix: (Units=1/GPa)
#
#
# Indices 1 2 3 4 5 6 
#
# 1 0.007122 -0.001143 -0.001531 0.000878 -0.001965 -0.001721
# 2 -0.001143 0.010732 -0.003939 -0.000167 -0.000012 0.000196
# 3 -0.001531 -0.003939 0.008456 0.004075 0.000220 -0.002793
# 4 0.000878 -0.000167 0.004075 0.019871 0.000533 -0.002287
# 5 -0.001965 -0.000012 0.000220 0.000533 0.017216 0.007222
# 6 -0.001721 0.000196 -0.002793 -0.002287 0.007222 0.028862
#
#
# Mechanical properties :
#
#
# Convention : Reuss Voigt Hill
#
# Bulk Modulus (GPa) = 76.42899 92.92925 84.67912
# Shear Modulus (GPa) = 45.51816 53.84883 49.68350
#
# Velocity S-wave (km/s) = 4.16071 4.52547 4.34692
# Velocity P-wave (km/s) = 7.22147 7.91514 7.57625
#
# Compressibility (1/GPa) = 0.01308404
#
# Stress axis : x y z
#
# Youngs Moduli (GPa) = 140.40354 93.18334 118.25740
#
# Poissons Ratio (x) = 0.10650 0.18106
# Poissons Ratio (y) = 0.16047 0.46581
# Poissons Ratio (z) = 0.21497 0.36705
#
# Static dielectric constant tensor:
#      x y z
#    x 2.462330 0.472760 0.424350 
#    y 0.472760 2.801540 0.815270 
#    z 0.424350 0.815270 2.866500 
# 
# From -- ./inp_files/16961.got.cif
#   From: 2010.05.17/outbox.cif.g08.bks.cpg/sg2_9_cif.got.tgz:16961.got - 2010.06.03 11:33:40.
