data_PCOD9071544
_publ_section_title
;
Structure prediction by ZEFSAII (Michael W. Deem and Ramdas Pophale) SiO2 
 PCOD9071544
Probable space group: P -1
;
_chemical_formula_sum "Si O2"
_cell_formula_units_Z 14
_cell_length_a 12.125828
_cell_length_b 12.314334
_cell_length_c 5.357587
_cell_angle_alpha 66.292493
_cell_angle_beta 49.053228
_cell_angle_gamma 65.431284
_cell_volume 539.683727
_symmetry_space_group_name_H-M "P -1"
_symmetry_group_IT_number 2
_symmetry_cell_setting 'triclinic'
loop_
_space_group_symop_operation_xyz
x,y,z
-x,-y,-z
loop_
_atom_site_type_symbol
_atom_site_label
_atom_site_fract_x
_atom_site_fract_y
_atom_site_fract_z
Si Si1 0.579658 0.081631 0.629198
Si Si2 0.654384 0.497187 0.410815
Si Si3 0.015128 0.161317 0.524931
Si Si4 0.809221 0.890634 0.195685
Si Si5 0.066529 0.431315 0.218508
Si Si6 0.396901 0.284650 0.382661
Si Si7 0.707769 0.224173 0.688252
O O1 0.459461 0.198726 0.606603
O O2 0.701792 0.134917 0.551480
O O3 0.661808 0.996341 0.364161
O O4 0.500000 0.000000 0.000000
O O5 0.500000 0.500000 0.500000
O O6 0.630645 0.574667 0.629830
O O7 0.733415 0.356110 0.450663
O O8 0.758860 0.567345 0.038632
O O9 0.081137 0.105645 0.739015
O O10 0.034746 0.299173 0.377619
O O11 0.840480 0.168139 0.731227
O O12 0.109695 0.106089 0.191189
O O13 0.748419 0.765514 0.426121
O O14 0.000000 0.500000 0.500000
O O15 0.000000 0.500000 0.000000
O O16 0.539697 0.252400 0.020483
#
# Coordination Sequence:
#
# PCOD9071544 Si02
#       7
#     2   2   2   2   2   2   2
#     4  12  27  51  79 113 154 205 269 325 383 459
#     4  12  27  48  78 120 153 203 257 325 394 470
#     4  12  29  50  77 118 157 203 260 321 394 463
#     4  12  28  50  81 109 154 210 264 311 386 465
#     4  12  27  48  78 109 159 206 247 315 394 465
#     4  12  27  50  81 112 154 206 263 324 392 466
#     4  12  29  48  79 116 157 202 258 330 393 464
#
# _framework density 25.941120999999999
#
# number of rings (size 3 to 8) (size 9 to 14) (size 15 to 20)
#    0.000    0.000    5.714    2.571    8.000    1.143 
#    0.000    0.000    0.000    0.000    0.000    0.000 
#    0.000    0.000    0.000    0.000    0.000    0.000 
#
# Total GULP energy -78619.355857 kJ/mol
# GULP energy per Si atom -5615.668276 kJ/mol
# Density = 2.588208 g / cm^3
# Si number density = 25.941121 Si / 1000 Ang^3
#
#
#
# Elastic Constant Matrix: (Units=GPa)
#
#
# Indices 1 2 3 4 5 6 
#
# 1 171.8987 28.7358 24.8551 8.1249 -4.5199 13.8700
# 2 28.7358 149.3438 22.1931 0.5458 8.0334 31.2680
# 3 24.8551 22.1931 104.5665 14.0181 -2.7692 25.3692
# 4 8.1249 0.5458 14.0181 57.9782 7.1670 3.5102
# 5 -4.5199 8.0334 -2.7692 7.1670 47.6370 -2.2012
# 6 13.8700 31.2680 25.3692 3.5102 -2.2012 38.8127
#
#
#
# Elastic Compliance Matrix: (Units=1/GPa)
#
#
# Indices 1 2 3 4 5 6 
#
# 1 0.006228 -0.000939 -0.000998 -0.000673 0.000760 -0.000713
# 2 -0.000939 0.008353 -0.000122 0.000711 -0.001912 -0.006487
# 3 -0.000998 -0.000122 0.011874 -0.002383 0.000649 -0.007055
# 4 -0.000673 0.000711 -0.002383 0.018333 -0.003109 -0.000609
# 5 0.000760 -0.001912 0.000649 -0.003109 0.022002 0.002373
# 6 -0.000713 -0.006487 -0.007055 -0.000609 0.002373 0.036046
#
#
# Mechanical properties :
#
#
# Convention : Reuss Voigt Hill
#
# Bulk Modulus (GPa) = 44.76642 64.15300 54.45971
# Shear Modulus (GPa) = 43.70631 52.22057 47.96344
#
# Velocity S-wave (km/s) = 4.10912 4.49156 4.30459
# Velocity P-wave (km/s) = 6.30932 7.18907 6.76352
#
# Compressibility (1/GPa) = 0.02233817
#
# Stress axis : x y z
#
# Youngs Moduli (GPa) = 160.56597 119.71493 84.21415
#
# Poissons Ratio (x) = 0.11244 0.08402
# Poissons Ratio (y) = 0.15081 0.01026
# Poissons Ratio (z) = 0.16019 0.01458
#
# Static dielectric constant tensor:
#      x y z
#    x 2.063420 -0.008020 0.032570 
#    y -0.008020 2.028080 0.021750 
#    z 0.032570 0.021750 2.080820 
# 
# From -- ./inp_files/28507.got.cif
#   From: 2010.05.17/outbox.cif.g08.bks.cpg/sg2_15_cif.got.tgz:28507.got - 2010.06.03 11:33:40.
