data_PCOD9071912
_publ_section_title
;
Structure prediction by ZEFSAII (Michael W. Deem and Ramdas Pophale) SiO2 
 PCOD9071912
Probable space group: P -1
;
_chemical_formula_sum "Si O2"
_cell_formula_units_Z 16
_cell_length_a 15.000000
_cell_length_b 9.000000
_cell_length_c 9.000000
_cell_angle_alpha 80.000000
_cell_angle_beta 90.000000
_cell_angle_gamma 140.000000
_cell_volume 751.948787
_symmetry_space_group_name_H-M "P -1"
_symmetry_group_IT_number 2
_symmetry_cell_setting 'triclinic'
loop_
_space_group_symop_operation_xyz
x,y,z
-x,-y,-z
loop_
_atom_site_type_symbol
_atom_site_label
_atom_site_fract_x
_atom_site_fract_y
_atom_site_fract_z
Si Si1 0.498588 0.693751 0.362461
Si Si2 0.927570 0.674565 0.143291
Si Si3 0.624681 0.709574 0.071428
Si Si4 0.893634 0.959964 0.175960
Si Si5 0.108421 0.731516 0.356885
Si Si6 0.381484 0.833651 0.842279
Si Si7 0.739277 0.842956 0.496945
Si Si8 0.658273 0.063477 0.865810
O O1 0.549596 0.660538 0.230196
O O2 0.606730 0.781521 0.474748
O O3 0.338413 0.423094 0.436696
O O4 0.537794 0.916355 0.276482
O O5 0.942308 0.851485 0.202058
O O6 0.765454 0.405849 0.189423
O O7 0.020575 0.673676 0.226011
O O8 0.989097 0.790428 0.958175
O O9 0.753933 0.771960 0.101798
O O10 0.500000 0.500000 0.000000
O O11 0.690972 0.946286 0.959496
O O12 0.841329 0.961004 0.331723
O O13 0.229453 0.775580 0.292658
O O14 0.000000 0.500000 0.500000
O O15 0.177842 0.966601 0.402047
O O16 0.498555 0.857088 0.839715
O O17 0.343403 0.823418 0.015937
#
# Coordination Sequence:
#
# PCOD9071912 Si02
#       8
#     2   2   2   2   2   2   2   2
#     4   9  20  37  62  92 124 167 217 260 327 372
#     4  11  24  43  65  98 129 170 222 265 328 385
#     4  10  17  34  64  91 122 166 210 270 308 378
#     4  10  23  41  64  95 129 175 213 264 327 386
#     4  12  26  42  65 100 135 174 211 266 334 393
#     4  10  22  41  67  95 128 171 218 278 313 379
#     4  10  22  42  62  94 131 171 212 265 327 392
#     4  10  22  40  60  99 126 166 223 259 324 377
#
# _framework density 21.278044999999999
#
# number of rings (size 3 to 8) (size 9 to 14) (size 15 to 20)
#    0.000    1.750    1.250    2.250    1.750    4.000 
#    4.500    1.875    0.000    0.000    0.000    0.000 
#    0.000    0.000    0.000    0.000    0.000    0.000 
#
# Total GULP energy -89281.435319 kJ/mol
# GULP energy per Si atom -5580.089707 kJ/mol
# Density = 2.122962 g / cm^3
# Si number density = 21.278045 Si / 1000 Ang^3
#
#
#
# Elastic Constant Matrix: (Units=GPa)
#
#
# Indices 1 2 3 4 5 6 
#
# 1 71.4670 20.3303 22.6716 -11.2890 -5.3962 13.3363
# 2 20.3303 87.4500 38.0021 -10.7214 4.6083 16.7682
# 3 22.6716 38.0021 74.8827 -28.0854 -9.7264 5.4214
# 4 -11.2890 -10.7214 -28.0854 33.2843 8.0490 4.2672
# 5 -5.3962 4.6083 -9.7264 8.0490 22.1466 -0.0555
# 6 13.3363 16.7682 5.4214 4.2672 -0.0555 24.2522
#
#
#
# Elastic Compliance Matrix: (Units=1/GPa)
#
#
# Indices 1 2 3 4 5 6 
#
# 1 0.017549 -0.000831 -0.002286 0.004525 0.001777 -0.009357
# 2 -0.000831 0.017992 -0.008617 0.001585 -0.008333 -0.010354
# 3 -0.002286 -0.008617 0.025620 0.016700 0.006415 -0.001436
# 4 0.004525 0.001585 0.016700 0.050780 -0.010389 -0.016276
# 5 0.001777 -0.008333 0.006415 -0.010389 0.053927 0.005302
# 6 -0.009357 -0.010354 -0.001436 -0.016276 0.005302 0.056735
#
#
# Mechanical properties :
#
#
# Convention : Reuss Voigt Hill
#
# Bulk Modulus (GPa) = 26.53051 43.97865 35.25458
# Shear Modulus (GPa) = 19.33219 26.12300 22.72759
#
# Velocity S-wave (km/s) = 3.01749 3.50765 3.27176
# Velocity P-wave (km/s) = 4.96345 6.09248 5.55671
#
# Compressibility (1/GPa) = 0.03769245
#
# Stress axis : x y z
#
# Youngs Moduli (GPa) = 56.98293 55.58062 39.03168
#
# Poissons Ratio (x) = 0.04619 0.08922
# Poissons Ratio (y) = 0.04736 0.33635
# Poissons Ratio (z) = 0.13026 0.47896
#
# Static dielectric constant tensor:
#      x y z
#    x 1.761510 0.000760 0.027870 
#    y 0.000760 1.763060 0.001790 
#    z 0.027870 0.001790 1.837610 
# 
# From -- ./inp_files/279204.got.cif
#   From: 2010.05.17/outbox.ucp.g08.bks.cvg/sg2_140_cif.got.tgz:279204.got - 2010.06.11 11:32:03.
