data_PCOD9071882
_publ_section_title
;
Structure prediction by ZEFSAII (Michael W. Deem and Ramdas Pophale) SiO2 
 PCOD9071882
Probable space group: P -1
;
_chemical_formula_sum "Si O2"
_cell_formula_units_Z 14
_cell_length_a 18.453960
_cell_length_b 5.393458
_cell_length_c 13.232590
_cell_angle_alpha 75.047370
_cell_angle_beta 27.731912
_cell_angle_gamma 87.171286
_cell_volume 543.142079
_symmetry_space_group_name_H-M "P -1"
_symmetry_group_IT_number 2
_symmetry_cell_setting 'triclinic'
loop_
_space_group_symop_operation_xyz
x,y,z
-x,-y,-z
loop_
_atom_site_type_symbol
_atom_site_label
_atom_site_fract_x
_atom_site_fract_y
_atom_site_fract_z
Si Si1 0.174403 0.711078 0.584405
Si Si2 0.787150 0.756317 0.644146
Si Si3 0.915237 0.804777 0.031689
Si Si4 0.912326 0.230721 0.836747
Si Si5 0.580525 0.265359 0.521990
Si Si6 0.522180 0.275535 0.879287
Si Si7 0.415123 0.660949 0.734827
O O1 0.367858 0.745661 0.349824
O O2 0.055302 0.414668 0.719456
O O3 0.174766 0.935681 0.476243
O O4 0.074000 0.763357 0.793607
O O5 0.655006 0.538074 0.750884
O O6 0.972245 0.743797 0.408582
O O7 0.661704 0.709167 0.900142
O O8 0.763247 0.522172 0.282843
O O9 0.846878 0.938316 0.009537
O O10 0.000000 0.000000 0.000000
O O11 0.766335 0.347778 0.002651
O O12 0.449344 0.379144 0.725122
O O13 0.565616 0.278168 0.415415
O O14 0.545332 0.933594 0.607292
O O15 0.500000 0.000000 0.000000
#
# Coordination Sequence:
#
# PCOD9071882 Si02
#       7
#     2   2   2   2   2   2   2
#     4   9  17  28  42  62  91 126 160 190 242 287
#     4   8  15  24  42  65  92 118 148 189 242 299
#     4  11  22  33  44  65  98 134 174 204 236 286
#     4  10  18  30  46  69  92 128 158 201 249 289
#     4  10  20  33  49  70  90 131 166 210 253 285
#     4   8  13  25  41  62  89 122 147 187 235 299
#     4  10  19  33  53  68  95 121 169 211 253 300
#
# _framework density 25.775943000000002
#
# number of rings (size 3 to 8) (size 9 to 14) (size 15 to 20)
#    0.000    2.571    1.429    2.571    2.000    0.571 
#    0.000    0.000    0.000    0.000    0.000    0.000 
#    0.000    2.286    0.000    4.714    0.000    0.714 
#
# Total GULP energy -78090.580916 kJ/mol
# GULP energy per Si atom -5577.898637 kJ/mol
# Density = 2.571728 g / cm^3
# Si number density = 25.775943 Si / 1000 Ang^3
#
#
#
# Elastic Constant Matrix: (Units=GPa)
#
#
# Indices 1 2 3 4 5 6 
#
# 1 40.3250 22.9126 30.1273 -0.3288 -18.6886 -5.6988
# 2 22.9126 113.2439 65.3475 17.1941 -8.0577 14.3662
# 3 30.1273 65.3475 237.3470 59.3476 -0.9349 16.4940
# 4 -0.3288 17.1941 59.3476 72.6801 1.4161 -2.0130
# 5 -18.6886 -8.0577 -0.9349 1.4161 30.6811 0.2602
# 6 -5.6988 14.3662 16.4940 -2.0130 0.2602 30.9794
#
#
#
# Elastic Compliance Matrix: (Units=1/GPa)
#
#
# Indices 1 2 3 4 5 6 
#
# 1 0.049480 -0.007117 -0.007316 0.007804 0.027547 0.016573
# 2 -0.007117 0.012162 -0.001573 -0.001777 -0.001054 -0.006218
# 3 -0.007316 -0.001573 0.007316 -0.005684 -0.004343 -0.004844
# 4 0.007804 -0.001777 -0.005684 0.018974 0.003183 0.006492
# 5 0.027547 -0.001054 -0.004343 0.003183 0.048752 0.007666
# 6 0.016573 -0.006218 -0.004844 0.006492 0.007666 0.041148
#
#
# Mechanical properties :
#
#
# Convention : Reuss Voigt Hill
#
# Bulk Modulus (GPa) = 27.06600 69.74342 48.40471
# Shear Modulus (GPa) = 22.50647 45.03669 33.77158
#
# Velocity S-wave (km/s) = 2.95813 4.18453 3.62359
# Velocity P-wave (km/s) = 4.71070 7.10376 6.02719
#
# Compressibility (1/GPa) = 0.03694673
#
# Stress axis : x y z
#
# Youngs Moduli (GPa) = 20.21003 82.22565 136.69143
#
# Poissons Ratio (x) = 0.58521 0.99999
# Poissons Ratio (y) = 0.14384 0.21499
# Poissons Ratio (z) = 0.14785 0.12932
#
# Static dielectric constant tensor:
#      x y z
#    x 2.226640 0.057700 -0.115010 
#    y 0.057700 2.136160 -0.002000 
#    z -0.115010 -0.002000 0.961240 
# 
# From -- ./inp_files/42856.got.cif
#   From: 2010.05.17/outbox.cif.g08.bks.cpg/sg2_22_cif.got.tgz:42856.got - 2010.06.03 11:33:40.
