data_PCOD9071386
_publ_section_title
;
Structure prediction by ZEFSAII (Michael W. Deem and Ramdas Pophale) SiO2 
 PCOD9071386
Probable space group: P -1
;
_chemical_formula_sum "Si O2"
_cell_formula_units_Z 10
_cell_length_a 5.286606
_cell_length_b 4.530422
_cell_length_c 15.032090
_cell_angle_alpha 81.139489
_cell_angle_beta 72.253231
_cell_angle_gamma 91.034641
_cell_volume 337.992963
_symmetry_space_group_name_H-M "P -1"
_symmetry_group_IT_number 2
_symmetry_cell_setting 'triclinic'
loop_
_space_group_symop_operation_xyz
x,y,z
-x,-y,-z
loop_
_atom_site_type_symbol
_atom_site_label
_atom_site_fract_x
_atom_site_fract_y
_atom_site_fract_z
Si Si1 0.864488 0.272956 0.564389
Si Si2 0.825763 0.028408 0.104631
Si Si3 0.047143 0.090100 0.255311
Si Si4 0.632337 0.304907 0.419545
Si Si5 0.495447 0.524830 0.105985
O O1 0.578866 0.452801 0.590553
O O2 0.120758 0.522099 0.555122
O O3 0.000000 0.000000 0.500000
O O4 0.831052 0.087641 0.668801
O O5 0.952252 0.914119 0.185391
O O6 0.763786 0.369360 0.111922
O O7 0.544332 0.861671 0.117511
O O8 0.000000 0.000000 0.000000
O O9 0.778434 0.201823 0.322683
O O10 0.251939 0.354677 0.188733
O O11 0.500000 0.000000 0.500000
O O12 0.500000 0.500000 0.000000
#
# Coordination Sequence:
#
# PCOD9071386 Si02
#       5
#     2   2   2   2   2
#     4   9  22  45  78 116 169 216 290 343 421 506
#     4  12  29  53  84 125 168 222 294 353 426 524
#     4  12  26  48  88 119 175 228 279 355 440 496
#     4   8  23  47  76 118 164 219 292 336 419 514
#     4  12  29  54  84 121 172 225 286 358 432 509
#
# _framework density 29.586417999999998
#
# number of rings (size 3 to 8) (size 9 to 14) (size 15 to 20)
#    1.200    0.000    2.000    1.800    0.000   10.400 
#    0.000    0.000    0.000    8.400    0.000    0.000 
#    0.000    0.000    0.000    0.000    0.000    0.000 
#
# Total GULP energy -55966.505303 kJ/mol
# GULP energy per Si atom -5596.650530 kJ/mol
# Density = 2.951908 g / cm^3
# Si number density = 29.586418 Si / 1000 Ang^3
#
#
#
# Elastic Constant Matrix: (Units=GPa)
#
#
# Indices 1 2 3 4 5 6 
#
# 1 233.6471 92.4894 111.2183 -1.1333 7.3978 -27.5824
# 2 92.4894 199.2769 106.3013 -11.3018 -7.5745 -2.4666
# 3 111.2183 106.3013 288.4958 -25.4772 14.8326 4.1920
# 4 -1.1333 -11.3018 -25.4772 61.6220 5.7170 -5.7202
# 5 7.3978 -7.5745 14.8326 5.7170 67.2482 -1.6738
# 6 -27.5824 -2.4666 4.1920 -5.7202 -1.6738 79.0389
#
#
#
# Elastic Compliance Matrix: (Units=1/GPa)
#
#
# Indices 1 2 3 4 5 6 
#
# 1 0.006130 -0.001961 -0.001715 -0.000723 -0.000403 0.002108
# 2 -0.001961 0.006985 -0.001856 0.000321 0.001377 -0.000316
# 3 -0.001715 -0.001856 0.005045 0.001758 -0.001303 -0.000824
# 4 -0.000723 0.000321 0.001758 0.017241 -0.001716 0.000876
# 5 -0.000403 0.001377 -0.001303 -0.001716 0.015507 0.000176
# 6 0.002108 -0.000316 -0.000824 0.000876 0.000176 0.013489
#
#
# Mechanical properties :
#
#
# Convention : Reuss Voigt Hill
#
# Bulk Modulus (GPa) = 140.87783 149.04866 144.96324
# Shear Modulus (GPa) = 64.24617 69.00920 66.62769
#
# Velocity S-wave (km/s) = 4.66496 4.83480 4.75064
# Velocity P-wave (km/s) = 8.75985 9.03625 8.89912
#
# Compressibility (1/GPa) = 0.00709835
#
# Stress axis : x y z
#
# Youngs Moduli (GPa) = 163.11927 143.17067 198.20803
#
# Poissons Ratio (x) = 0.28075 0.33984
# Poissons Ratio (y) = 0.31986 0.36778
# Poissons Ratio (z) = 0.27968 0.26566
#
# Static dielectric constant tensor:
#      x y z
#    x 2.827600 0.141930 0.164320 
#    y 0.141930 2.330530 0.023770 
#    z 0.164320 0.023770 2.237050 
# 
# From -- ./inp_files/4774.got.cif
#   From: 2010.05.17/outbox.cif.g08.bks.cpg/sg2_3_cif.got.tgz:4774.got - 2010.06.03 11:33:40.
