data_PCOD9071618
_publ_section_title
;
Structure prediction by ZEFSAII (Michael W. Deem and Ramdas Pophale) SiO2 
 PCOD9071618
Probable space group: P -1
;
_chemical_formula_sum "Si O2"
_cell_formula_units_Z 9
_cell_length_a 6.989474
_cell_length_b 9.450188
_cell_length_c 6.801911
_cell_angle_alpha 63.921826
_cell_angle_beta 61.362415
_cell_angle_gamma 52.345025
_cell_volume 305.135553
_symmetry_space_group_name_H-M "P -1"
_symmetry_group_IT_number 2
_symmetry_cell_setting 'triclinic'
loop_
_space_group_symop_operation_xyz
x,y,z
-x,-y,-z
loop_
_atom_site_type_symbol
_atom_site_label
_atom_site_fract_x
_atom_site_fract_y
_atom_site_fract_z
Si Si1 0.428422 0.706806 0.433845
Si Si2 0.000000 0.000000 0.500000
Si Si3 0.993523 0.556941 0.197832
Si Si4 0.786132 0.196914 0.926396
Si Si5 0.337074 0.160990 0.326071
O O1 0.500000 0.500000 0.500000
O O2 0.694223 0.695404 0.296914
O O3 0.203025 0.814248 0.314946
O O4 0.239684 0.821016 0.628388
O O5 0.198451 0.079495 0.317808
O O6 0.158655 0.648463 0.119412
O O7 0.112537 0.364066 0.374013
O O8 0.000000 0.500000 0.000000
O O9 0.518221 0.215180 0.088278
O O10 0.000000 0.000000 0.000000
O O11 0.500000 0.000000 0.500000
#
# Coordination Sequence:
#
# PCOD9071618 Si02
#       5
#     2   1   2   2   2
#     4  12  28  49  80 115 159 212 268 328 396 476
#     4  12  28  50  78 116 162 204 272 324 408 460
#     4  12  28  52  82 116 162 211 269 330 404 480
#     4  12  29  50  78 118 160 212 267 330 404 475
#     4  12  28  46  82 115 162 204 263 331 398 480
#
# _framework density 29.495087000000002
#
# number of rings (size 3 to 8) (size 9 to 14) (size 15 to 20)
#    0.000    0.000    4.444    3.333    9.333    2.667 
#    0.000    0.000    0.000    0.000    0.000    0.000 
#    0.000    0.000    0.000    0.000    0.000    0.000 
#
# Total GULP energy -50336.341351 kJ/mol
# GULP energy per Si atom -5592.926817 kJ/mol
# Density = 2.942795 g / cm^3
# Si number density = 29.495087 Si / 1000 Ang^3
#
#
#
# Elastic Constant Matrix: (Units=GPa)
#
#
# Indices 1 2 3 4 5 6 
#
# 1 273.2102 106.7385 93.1254 -5.6951 -47.0918 23.2498
# 2 106.7385 248.3184 47.1779 -23.2429 -13.9577 -11.1599
# 3 93.1254 47.1779 110.5681 -10.5335 -22.8752 5.7566
# 4 -5.6951 -23.2429 -10.5335 65.0182 -12.5362 -17.0052
# 5 -47.0918 -13.9577 -22.8752 -12.5362 85.8058 -14.3612
# 6 23.2498 -11.1599 5.7566 -17.0052 -14.3612 100.9837
#
#
#
# Elastic Compliance Matrix: (Units=1/GPa)
#
#
# Indices 1 2 3 4 5 6 
#
# 1 0.006171 -0.001927 -0.004043 -0.000826 0.001656 -0.001307
# 2 -0.001927 0.005203 -0.000434 0.002031 0.000206 0.001415
# 3 -0.004043 -0.000434 0.013140 0.002126 0.001646 0.000726
# 4 -0.000826 0.002031 0.002126 0.018113 0.003739 0.003875
# 5 0.001656 0.000206 0.001646 0.003739 0.013943 0.002160
# 6 -0.001307 0.001415 0.000726 0.003875 0.002160 0.011278
#
#
# Mechanical properties :
#
#
# Convention : Reuss Voigt Hill
#
# Bulk Modulus (GPa) = 85.43637 125.13115 105.28376
# Shear Modulus (GPa) = 59.13055 76.03186 67.58120
#
# Velocity S-wave (km/s) = 4.48231 5.08269 4.79191
# Velocity P-wave (km/s) = 7.47110 8.77277 8.14797
#
# Compressibility (1/GPa) = 0.01170462
#
# Stress axis : x y z
#
# Youngs Moduli (GPa) = 162.05986 192.18515 76.10390
#
# Poissons Ratio (x) = 0.37039 0.30768
# Poissons Ratio (y) = 0.31233 0.03307
# Poissons Ratio (z) = 0.65519 0.08350
#
# Static dielectric constant tensor:
#      x y z
#    x 6.762540 8.368310 8.672390 
#    y 8.368310 18.370210 15.904680 
#    z 8.672390 15.904680 18.621110 
# 
# From -- ./inp_files/129189.got.cif
#   From: 2010.05.17/outbox.cif.g08.bks.cpg/sg2_65_cif.got.tgz:129189.got - 2010.06.03 11:33:40.
