data_PCOD9071469
_publ_section_title
;
Structure prediction by ZEFSAII (Michael W. Deem and Ramdas Pophale) SiO2 
 PCOD9071469
Probable space group: P -1
;
_chemical_formula_sum "Si O2"
_cell_formula_units_Z 16
_cell_length_a 12.476016
_cell_length_b 11.284016
_cell_length_c 6.732433
_cell_angle_alpha 53.735703
_cell_angle_beta 74.150339
_cell_angle_gamma 104.004171
_cell_volume 627.816597
_symmetry_space_group_name_H-M "P -1"
_symmetry_group_IT_number 2
_symmetry_cell_setting 'triclinic'
loop_
_space_group_symop_operation_xyz
x,y,z
-x,-y,-z
loop_
_atom_site_type_symbol
_atom_site_label
_atom_site_fract_x
_atom_site_fract_y
_atom_site_fract_z
Si Si1 0.785154 0.498883 0.607141
Si Si2 0.559364 0.310061 0.215399
Si Si3 0.066813 0.208464 0.429972
Si Si4 0.736111 0.911802 0.452978
Si Si5 0.640729 0.582678 0.251505
Si Si6 0.238847 0.031648 0.084305
Si Si7 0.889557 0.510542 0.162136
Si Si8 0.329472 0.860441 0.478500
O O1 0.870108 0.648325 0.571091
O O2 0.720749 0.549365 0.412451
O O3 0.883744 0.477990 0.433776
O O4 0.661847 0.354942 0.938622
O O5 0.615380 0.476112 0.166362
O O6 0.546814 0.143917 0.500117
O O7 0.412621 0.250094 0.285534
O O8 0.912533 0.091188 0.658220
O O9 0.298182 0.213942 0.983021
O O10 0.094333 0.312446 0.105896
O O11 0.854200 0.889453 0.490107
O O12 0.732330 0.067848 0.405238
O O13 0.755186 0.940477 0.179963
O O14 0.500000 0.500000 0.500000
O O15 0.326697 0.954485 0.187680
O O16 0.763831 0.340905 0.311500
O O17 0.000000 0.500000 0.000000
#
# Coordination Sequence:
#
# PCOD9071469 Si02
#       8
#     2   2   2   2   2   2   2   2
#     4  12  27  47  85 108 157 211 269 321 393 470
#     4  12  28  55  79 117 159 212 272 324 400 473
#     4  12  27  51  82 117 160 207 270 324 396 475
#     4  12  30  50  79 120 159 208 266 334 393 469
#     4  12  26  50  81 116 155 210 269 323 396 473
#     4  12  29  48  80 119 161 207 260 334 398 465
#     4  12  28  53  77 117 158 218 259 323 400 480
#     4  12  29  48  77 115 161 206 264 327 398 470
#
# _framework density 25.485149
#
# number of rings (size 3 to 8) (size 9 to 14) (size 15 to 20)
#    0.000    0.000    6.250    0.750    8.750    2.500 
#    0.000    0.000    0.000    0.000    0.000    0.000 
#    0.000    0.000    0.000    0.000    0.000    0.000 
#
# Total GULP energy -89561.585250 kJ/mol
# GULP energy per Si atom -5597.599078 kJ/mol
# Density = 2.542714 g / cm^3
# Si number density = 25.485149 Si / 1000 Ang^3
#
#
#
# Elastic Constant Matrix: (Units=GPa)
#
#
# Indices 1 2 3 4 5 6 
#
# 1 134.5675 14.0248 41.1851 -8.1274 28.2480 -9.7448
# 2 14.0248 111.0474 53.4436 -3.9688 -4.6755 2.5904
# 3 41.1851 53.4436 181.8167 22.4765 -2.3417 -1.2636
# 4 -8.1274 -3.9688 22.4765 49.1218 -2.9084 0.2894
# 5 28.2480 -4.6755 -2.3417 -2.9084 40.0460 -3.4920
# 6 -9.7448 2.5904 -1.2636 0.2894 -3.4920 39.8872
#
#
#
# Elastic Compliance Matrix: (Units=1/GPa)
#
#
# Indices 1 2 3 4 5 6 
#
# 1 0.009951 -0.000279 -0.002541 0.002369 -0.006876 0.001750
# 2 -0.000279 0.010852 -0.003421 0.002482 0.001376 -0.000779
# 3 -0.002541 -0.003421 0.007606 -0.004086 0.001542 0.000007
# 4 0.002369 0.002482 -0.004086 0.022822 0.000048 0.000127
# 5 -0.006876 0.001376 0.001542 0.000048 0.030156 0.000919
# 6 0.001750 -0.000779 0.000007 0.000127 0.000919 0.025629
#
#
# Mechanical properties :
#
#
# Convention : Reuss Voigt Hill
#
# Bulk Modulus (GPa) = 62.79086 71.63763 67.21424
# Shear Modulus (GPa) = 40.06155 47.06288 43.56221
#
# Velocity S-wave (km/s) = 3.96909 4.30196 4.13887
# Velocity P-wave (km/s) = 6.75993 7.26955 7.01937
#
# Compressibility (1/GPa) = 0.01592588
#
# Stress axis : x y z
#
# Youngs Moduli (GPa) = 100.48885 92.15157 131.46971
#
# Poissons Ratio (x) = 0.02575 0.33411
# Poissons Ratio (y) = 0.02808 0.44976
# Poissons Ratio (z) = 0.25538 0.31525
#
# Static dielectric constant tensor:
#      x y z
#    x 2.265340 -0.062470 -0.066090 
#    y -0.062470 2.025000 0.086780 
#    z -0.066090 0.086780 2.093070 
# 
# From -- ./inp_files/96895.got.cif
#   From: 2010.05.17/outbox.cif.g08.bks.cpg/sg2_49_cif.got.tgz:96895.got - 2010.06.03 11:33:40.
