data_PCOD9071766
_publ_section_title
;
Structure prediction by ZEFSAII (Michael W. Deem and Ramdas Pophale) SiO2 
 PCOD9071766
Probable space group: P -1
;
_chemical_formula_sum "Si O2"
_cell_formula_units_Z 14
_cell_length_a 15.090084
_cell_length_b 8.051004
_cell_length_c 9.265104
_cell_angle_alpha 46.302644
_cell_angle_beta 138.477114
_cell_angle_gamma 135.046560
_cell_volume 495.078693
_symmetry_space_group_name_H-M "P -1"
_symmetry_group_IT_number 2
_symmetry_cell_setting 'triclinic'
loop_
_space_group_symop_operation_xyz
x,y,z
-x,-y,-z
loop_
_atom_site_type_symbol
_atom_site_label
_atom_site_fract_x
_atom_site_fract_y
_atom_site_fract_z
Si Si1 0.115172 0.028322 0.835344
Si Si2 0.343693 0.827548 0.471569
Si Si3 0.637817 0.528827 0.030201
Si Si4 0.378134 0.115432 0.826706
Si Si5 0.909403 0.168188 0.697049
Si Si6 0.156912 0.618829 0.813814
Si Si7 0.841766 0.662555 0.594035
O O1 0.285055 0.183175 0.994856
O O2 0.117075 0.208394 0.592755
O O3 0.024419 0.063865 0.841320
O O4 0.996865 0.760048 0.802293
O O5 0.354398 0.652981 0.721828
O O6 0.247785 0.963670 0.344233
O O7 0.249796 0.631517 0.353848
O O8 0.500000 0.000000 0.500000
O O9 0.731998 0.503604 0.024795
O O10 0.474085 0.372891 0.870716
O O11 0.269764 0.220231 0.545134
O O12 0.248723 0.857204 0.882134
O O13 0.500000 0.000000 0.000000
O O14 0.872846 0.274026 0.438981
O O15 0.001789 0.396527 0.780762
#
# Coordination Sequence:
#
# PCOD9071766 Si02
#       7
#     2   2   2   2   2   2   2
#     4   9  17  30  51  82 102 122 168 226 258 300
#     4  10  21  34  49  72 106 143 174 207 244 302
#     4   8  17  30  49  76 105 131 161 202 269 304
#     4  10  18  29  49  83 113 131 151 214 280 310
#     4   9  15  29  50  71 101 134 166 204 256 299
#     4   8  13  24  48  76  97 123 160 203 257 306
#     4  10  19  30  53  82 106 126 171 213 260 307
#
# _framework density 28.278331999999999
#
# number of rings (size 3 to 8) (size 9 to 14) (size 15 to 20)
#    0.000    2.857    1.429    2.571    2.000    2.286 
#    0.000    0.714    0.000    0.857    0.000    6.000 
#    0.000    0.000    0.000    0.000    0.000    0.000 
#
# Total GULP energy -77944.211887 kJ/mol
# GULP energy per Si atom -5567.443706 kJ/mol
# Density = 2.821397 g / cm^3
# Si number density = 28.278332 Si / 1000 Ang^3
#
#
#
# Elastic Constant Matrix: (Units=GPa)
#
#
# Indices 1 2 3 4 5 6 
#
# 1 124.7205 43.3365 32.9413 6.0152 37.3162 27.4628
# 2 43.3365 235.7516 60.8757 62.7521 0.7273 -8.8042
# 3 32.9413 60.8757 93.1291 16.4441 11.0033 16.0009
# 4 6.0152 62.7521 16.4441 64.4163 7.5101 2.5736
# 5 37.3162 0.7273 11.0033 7.5101 57.2860 7.5980
# 6 27.4628 -8.8042 16.0009 2.5736 7.5980 49.6317
#
#
#
# Elastic Compliance Matrix: (Units=1/GPa)
#
#
# Indices 1 2 3 4 5 6 
#
# 1 0.013008 -0.003229 -0.001061 0.003370 -0.007821 -0.006406
# 2 -0.003229 0.007803 -0.003851 -0.006847 0.003072 0.004297
# 3 -0.001061 -0.003851 0.014503 0.000506 -0.001507 -0.004568
# 4 0.003370 -0.006847 0.000506 0.022441 -0.004658 -0.003693
# 5 -0.007821 0.003072 -0.001507 -0.004658 0.023139 0.002057
# 6 -0.006406 0.004297 -0.004568 -0.003693 0.002057 0.025805
#
#
# Mechanical properties :
#
#
# Convention : Reuss Voigt Hill
#
# Bulk Modulus (GPa) = 52.53872 80.87868 66.70870
# Shear Modulus (GPa) = 38.66214 55.36332 47.01273
#
# Velocity S-wave (km/s) = 3.70158 4.42950 4.08180
# Velocity P-wave (km/s) = 6.07358 7.40430 6.77171
#
# Compressibility (1/GPa) = 0.01903358
#
# Stress axis : x y z
#
# Youngs Moduli (GPa) = 76.87376 128.15170 68.94896
#
# Poissons Ratio (x) = 0.41386 0.07312
# Poissons Ratio (y) = 0.24826 0.26551
# Poissons Ratio (z) = 0.08153 0.49348
#
# Static dielectric constant tensor:
#      x y z
#    x 2.271480 -0.099370 0.012490 
#    y -0.099370 2.204920 -0.076440 
#    z 0.012490 -0.076440 2.363630 
# 
# From -- ./inp_files/444232.got.cif
#   From: 2010.05.17/outbox.cif.g08.bks.cpg/sg2_223_cif.got.tgz:444232.got - 2010.06.03 11:33:40.
