data_PCOD9071982
_publ_section_title
;
Structure prediction by ZEFSAII (Michael W. Deem and Ramdas Pophale) SiO2 
 PCOD9071982
Probable space group: P -1
;
_chemical_formula_sum "Si O2"
_cell_formula_units_Z 16
_cell_length_a 15.000000
_cell_length_b 12.000000
_cell_length_c 9.000000
_cell_angle_alpha 50.000000
_cell_angle_beta 130.000000
_cell_angle_gamma 110.000000
_cell_volume 943.640430
_symmetry_space_group_name_H-M "P -1"
_symmetry_group_IT_number 2
_symmetry_cell_setting 'triclinic'
loop_
_space_group_symop_operation_xyz
x,y,z
-x,-y,-z
loop_
_atom_site_type_symbol
_atom_site_label
_atom_site_fract_x
_atom_site_fract_y
_atom_site_fract_z
Si Si1 0.805944 0.094347 0.541827
Si Si2 0.467172 0.944564 0.264564
Si Si3 0.660436 0.874390 0.757752
Si Si4 0.907787 0.321335 0.654163
Si Si5 0.145813 0.338370 0.710027
Si Si6 0.022345 0.885977 0.822656
Si Si7 0.150495 0.131706 0.608428
Si Si8 0.649256 0.064908 0.137955
O O1 0.825148 0.232188 0.542918
O O2 0.739204 0.136747 0.279135
O O3 0.734791 0.985884 0.654159
O O4 0.930112 0.002816 0.711513
O O5 0.556369 0.849823 0.552868
O O6 0.388492 0.047088 0.209110
O O7 0.544270 0.038465 0.159909
O O8 0.396259 0.868093 0.126582
O O9 0.743610 0.730560 0.016281
O O10 0.858355 0.490225 0.471778
O O11 0.030499 0.314583 0.701887
O O12 0.928961 0.238616 0.904167
O O13 0.147908 0.249535 0.634158
O O14 0.948376 0.828882 0.656539
O O15 0.118694 0.980327 0.778018
O O16 0.275137 0.089381 0.697481
#
# Coordination Sequence:
#
# PCOD9071982 Si02
#       8
#     2   2   2   2   2   2   2   2
#     4  10  18  32  53  78 104 134 169 215 255 300
#     4   9  18  31  53  84  97 124 173 233 260 287
#     4  10  18  32  56  79 101 130 176 218 257 300
#     4  11  22  33  50  76 113 143 169 201 253 318
#     4  11  21  34  50  76 111 144 168 203 255 317
#     4  10  19  32  52  79 105 134 173 215 248 309
#     4  10  19  32  54  77 104 136 170 213 259 302
#     4   9  18  31  52  81 101 124 168 227 264 290
#
# _framework density 16.955611000000001
#
# number of rings (size 3 to 8) (size 9 to 14) (size 15 to 20)
#    0.000    2.000    3.750    1.125    0.000    0.500 
#    0.000    0.000    0.000    7.500    0.000    0.000 
#    0.000    0.000    0.000    0.000    0.000    0.000 
#
# Total GULP energy -89156.519373 kJ/mol
# GULP energy per Si atom -5572.282461 kJ/mol
# Density = 1.691702 g / cm^3
# Si number density = 16.955611 Si / 1000 Ang^3
#
#
#
# Elastic Constant Matrix: (Units=GPa)
#
#
# Indices 1 2 3 4 5 6 
#
# 1 73.9879 10.4307 22.3589 1.5461 -3.5988 -10.6267
# 2 10.4307 70.9751 86.0425 8.9713 -7.6538 -9.4189
# 3 22.3589 86.0425 122.8883 23.0941 -12.9180 -7.2420
# 4 1.5461 8.9713 23.0941 17.0196 -6.0709 -6.1041
# 5 -3.5988 -7.6538 -12.9180 -6.0709 27.5633 5.8176
# 6 -10.6267 -9.4189 -7.2420 -6.1041 5.8176 17.7235
#
#
#
# Elastic Compliance Matrix: (Units=1/GPa)
#
#
# Indices 1 2 3 4 5 6 
#
# 1 0.041251 0.138217 -0.122021 0.119528 -0.006429 0.091604
# 2 0.138217 0.756432 -0.647674 0.614397 -0.033598 0.442851
# 3 -0.122021 -0.647674 0.566448 -0.542386 0.031051 -0.382895
# 4 0.119528 0.614397 -0.542386 0.591833 -0.019253 0.386705
# 5 -0.006429 -0.033598 0.031051 -0.019253 0.042684 -0.029664
# 6 0.091604 0.442851 -0.382895 0.386705 -0.029664 0.333159
#
#
# Mechanical properties :
#
#
# Convention : Reuss Voigt Hill
#
# Bulk Modulus (GPa) = 9.88378 56.16842 33.02610
# Shear Modulus (GPa) = 1.37798 22.39588 11.88693
#
# Velocity S-wave (km/s) = 0.90248 3.63830 2.65063
# Velocity P-wave (km/s) = 2.63208 7.13080 5.37476
#
# Compressibility (1/GPa) = 0.10117582
#
# Stress axis : x y z
#
# Youngs Moduli (GPa) = 24.24188 1.32200 1.76539
#
# Poissons Ratio (x) = -0.18272 0.21541
# Poissons Ratio (y) = -3.35065 1.14339
# Poissons Ratio (z) = 2.95802 0.85622
#
# Static dielectric constant tensor:
#      x y z
#    x 1.597050 0.016010 0.028730 
#    y 0.016010 1.555980 0.053240 
#    z 0.028730 0.053240 1.596340 
# 
# From -- ./inp_files/170426.got.cif
#   From: 2010.05.17/outbox.ucp.g08.bks.cvg/sg2_86_cif.got.tgz:170426.got - 2010.06.11 11:32:03.
