data_PCOD9071300
_publ_section_title
;
Structure prediction by ZEFSAII (Michael W. Deem and Ramdas Pophale) SiO2 
 PCOD9071300
Probable space group: P -1
;
_chemical_formula_sum "Si O2"
_cell_formula_units_Z 11
_cell_length_a 15.741894
_cell_length_b 15.131638
_cell_length_c 11.753974
_cell_angle_alpha 148.872822
_cell_angle_beta 32.184942
_cell_angle_gamma 160.666104
_cell_volume 466.833593
_symmetry_space_group_name_H-M "P -1"
_symmetry_group_IT_number 2
_symmetry_cell_setting 'triclinic'
loop_
_space_group_symop_operation_xyz
x,y,z
-x,-y,-z
loop_
_atom_site_type_symbol
_atom_site_label
_atom_site_fract_x
_atom_site_fract_y
_atom_site_fract_z
Si Si1 0.651010 0.350978 0.015854
Si Si2 0.102564 0.999850 0.765268
Si Si3 0.744348 0.230846 0.560835
Si Si4 0.618824 0.552828 0.647324
Si Si5 0.500000 0.000000 0.000000
Si Si6 0.986989 0.785118 0.300154
O O1 0.692465 0.335977 0.823952
O O2 0.458147 0.346953 0.227863
O O3 0.908095 0.629771 0.100111
O O4 0.543958 0.099912 0.929528
O O5 0.358632 0.288858 0.725141
O O6 0.189634 0.885218 0.575624
O O7 0.857805 0.790694 0.725202
O O8 0.000000 0.000000 0.000000
O O9 0.000000 0.500000 0.500000
O O10 0.500000 0.000000 0.500000
O O11 0.743608 0.534258 0.388101
O O12 0.241353 0.912976 0.204314
O O13 0.000000 0.000000 0.500000
#
# Coordination Sequence:
#
# PCOD9071300 Si02
#       6
#     2   2   2   2   1   2
#     4  12  28  47  79 114 165 209 276 337 421 486
#     4  12  26  49  79 114 157 215 278 334 413 491
#     4  12  28  50  79 114 159 210 272 344 410 487
#     4  12  26  47  79 112 161 213 270 339 409 493
#     4  12  28  46  80 116 168 208 280 332 422 484
#     4  12  27  51  76 118 163 220 271 343 415 492
#
# _framework density 23.562999999999999
#
# number of rings (size 3 to 8) (size 9 to 14) (size 15 to 20)
#    0.000    0.000    1.818    7.091    7.636    0.000 
#    0.000    0.000    0.000    0.000    0.000    0.000 
#    0.000    0.000    0.000    0.000    0.000    0.000 
#
# Total GULP energy -61359.548509 kJ/mol
# GULP energy per Si atom -5578.140774 kJ/mol
# Density = 2.350937 g / cm^3
# Si number density = 23.563000 Si / 1000 Ang^3
#
#
#
# Elastic Constant Matrix: (Units=GPa)
#
#
# Indices 1 2 3 4 5 6 
#
# 1 144.7903 77.8142 13.6957 -7.3152 -28.8435 13.8843
# 2 77.8142 191.2663 40.1530 -28.8799 4.8874 7.1641
# 3 13.6957 40.1530 72.6776 -25.8987 -4.1098 3.0072
# 4 -7.3152 -28.8799 -25.8987 35.8391 7.3659 4.2129
# 5 -28.8435 4.8874 -4.1098 7.3659 68.5723 -5.4445
# 6 13.8843 7.1641 3.0072 4.2129 -5.4445 52.8602
#
#
#
# Elastic Compliance Matrix: (Units=1/GPa)
#
#
# Indices 1 2 3 4 5 6 
#
# 1 0.010398 -0.004688 0.000103 -0.002414 0.004861 -0.001409
# 2 -0.004688 0.008452 -0.002156 0.005034 -0.003286 -0.000531
# 3 0.000103 -0.002156 0.019498 0.012621 -0.000138 -0.001864
# 4 -0.002414 0.005034 0.012621 0.042277 -0.005533 -0.004705
# 5 0.004861 -0.003286 -0.000138 -0.005533 0.017561 0.001426
# 6 -0.001409 -0.000531 -0.001864 -0.004705 0.001426 0.019988
#
#
# Mechanical properties :
#
#
# Convention : Reuss Voigt Hill
#
# Bulk Modulus (GPa) = 40.21483 74.67335 57.44409
# Shear Modulus (GPa) = 35.72860 49.92575 42.82718
#
# Velocity S-wave (km/s) = 3.89820 4.60806 4.26791
# Velocity P-wave (km/s) = 6.11271 7.75061 6.97987
#
# Compressibility (1/GPa) = 0.02486645
#
# Stress axis : x y z
#
# Youngs Moduli (GPa) = 96.17548 118.31363 51.28708
#
# Poissons Ratio (x) = 0.55464 -0.00531
# Poissons Ratio (y) = 0.45086 0.11059
# Poissons Ratio (z) = -0.00995 0.25512
#
# Static dielectric constant tensor:
#      x y z
#    x 1.820010 -0.085440 -0.002480 
#    y -0.085440 2.154710 0.132900 
#    z -0.002480 0.132900 1.977520 
# 
# From -- ./inp_files/67381.got.cif
#   From: 2010.05.17/outbox.cif.g08.bks.cpg/sg2_34_cif.got.tgz:67381.got - 2010.06.03 11:33:40.
