data_PCOD9071783
_publ_section_title
;
Structure prediction by ZEFSAII (Michael W. Deem and Ramdas Pophale) SiO2 
 PCOD9071783
Probable space group: P -1
;
_chemical_formula_sum "Si O2"
_cell_formula_units_Z 16
_cell_length_a 27.000000
_cell_length_b 27.000000
_cell_length_c 9.000000
_cell_angle_alpha 40.000000
_cell_angle_beta 40.000000
_cell_angle_gamma 10.000000
_cell_volume 728.340053
_symmetry_space_group_name_H-M "P -1"
_symmetry_group_IT_number 2
_symmetry_cell_setting 'triclinic'
loop_
_space_group_symop_operation_xyz
x,y,z
-x,-y,-z
loop_
_atom_site_type_symbol
_atom_site_label
_atom_site_fract_x
_atom_site_fract_y
_atom_site_fract_z
Si Si1 0.429103 0.444005 0.370258
Si Si2 0.600021 0.370969 0.849892
Si Si3 0.185889 0.437539 0.876455
Si Si4 0.303149 0.352112 0.457561
Si Si5 0.119493 0.109393 0.458304
Si Si6 0.148572 0.091338 0.793206
Si Si7 0.612111 0.901716 0.136454
Si Si8 0.080082 0.852947 0.762113
O O1 0.464793 0.475981 0.336798
O O2 0.096394 0.746958 0.432017
O O3 0.583878 0.211256 0.548351
O O4 0.509174 0.409925 0.112094
O O5 0.414393 0.522225 0.788638
O O6 0.927195 0.031990 0.851574
O O7 0.300912 0.348762 0.651413
O O8 0.015812 0.678178 0.767514
O O9 0.936188 0.615671 0.031299
O O10 0.436724 0.143982 0.049618
O O11 0.380813 0.190983 0.596840
O O12 0.007239 0.677233 0.345877
O O13 0.526045 0.203072 0.243030
O O14 0.124030 0.105080 0.638066
O O15 0.037884 0.119607 0.057132
O O16 0.500000 0.000000 0.000000
O O17 0.000000 0.000000 0.500000
#
# Coordination Sequence:
#
# PCOD9071783 Si02
#       8
#     2   2   2   2   2   2   2   2
#     4  11  20  33  55  73 103 128 169 221 246 298
#     4  11  22  38  53  77  96 132 173 212 264 302
#     4  10  18  25  41  63  96 129 166 195 237 293
#     4  10  18  27  44  61  91 131 169 210 231 280
#     4  11  18  30  47  74 100 134 164 210 246 290
#     4  11  19  31  46  69  93 127 176 207 244 296
#     4  10  16  27  37  60  91 131 168 196 232 286
#     4  12  24  39  55  73 103 135 171 219 259 303
#
# _framework density 21.967760999999999
#
# number of rings (size 3 to 8) (size 9 to 14) (size 15 to 20)
#    0.000    1.250    2.500    9.375    0.000    2.000 
#    0.000    0.000    0.000    0.000    0.000    0.000 
#    0.000    0.000    0.000   78.750    0.000    9.000 
#
# Total GULP energy -89111.275506 kJ/mol
# GULP energy per Si atom -5569.454719 kJ/mol
# Density = 2.191776 g / cm^3
# Si number density = 21.967761 Si / 1000 Ang^3
#
#
#
# Elastic Constant Matrix: (Units=GPa)
#
#
# Indices 1 2 3 4 5 6 
#
# 1 23.9010 8.8991 21.3651 0.9242 -27.2333 2.9279
# 2 8.8991 85.7884 12.9614 -5.5214 -12.7669 -1.1676
# 3 21.3651 12.9614 72.8005 -5.7610 -35.2504 6.4497
# 4 0.9242 -5.5214 -5.7610 35.3339 5.8973 -31.2619
# 5 -27.2333 -12.7669 -35.2504 5.8973 26.3173 -8.5086
# 6 2.9279 -1.1676 6.4497 -31.2619 -8.5086 31.5515
#
#
#
# Elastic Compliance Matrix: (Units=1/GPa)
#
#
# Indices 1 2 3 4 5 6 
#
# 1 -0.055089 -0.010186 -0.042218 -0.036064 -0.128882 -0.057123
# 2 -0.010186 0.015466 0.000433 0.033343 0.001330 0.034825
# 3 -0.042218 0.000433 0.015661 0.022665 -0.022000 0.017256
# 4 -0.036064 0.033343 0.022665 0.335274 0.045430 0.344396
# 5 -0.128882 0.001330 -0.022000 0.045430 -0.125417 0.027698
# 6 -0.057123 0.034825 0.017256 0.344396 0.027698 0.383461
#
#
# Mechanical properties :
#
#
# Convention : Reuss Voigt Hill
#
# Bulk Modulus (GPa) = -7.81845 29.88235 11.03195
# Shear Modulus (GPa) = 7.92817 27.92484 17.92650
#
# Velocity S-wave (km/s) = 1.90180 3.56922 2.85974
# Velocity P-wave (km/s) = 1.12057 5.53337 3.99210
#
# Compressibility (1/GPa) = -0.12790263
#
# Stress axis : x y z
#
# Youngs Moduli (GPa) = -18.15257 64.65946 63.85107
#
# Poissons Ratio (x) = 0.65859 2.69565
# Poissons Ratio (y) = -0.18489 -0.02764
# Poissons Ratio (z) = -0.76636 -0.02799
#
# Static dielectric constant tensor:
#      x y z
#    x 1.802650 -0.023830 -0.015050 
#    y -0.023830 1.699350 0.057500 
#    z -0.015050 0.057500 1.789500 
# 
# From -- ./inp_files/357959.got.cif
#   From: 2010.05.17/outbox.ucp.g08.bks.cvg/sg2_179_cif.got.tgz:357959.got - 2010.06.11 11:32:03.
