data_PCOD9071159
_publ_section_title
;
Structure prediction by ZEFSAII (Michael W. Deem and Ramdas Pophale) SiO2 
 PCOD9071159
Probable space group: P -1
;
_chemical_formula_sum "Si O2"
_cell_formula_units_Z 11
_cell_length_a 12.385075
_cell_length_b 12.073642
_cell_length_c 9.288532
_cell_angle_alpha 142.954437
_cell_angle_beta 144.014055
_cell_angle_gamma 35.506846
_cell_volume 432.618840
_symmetry_space_group_name_H-M "P -1"
_symmetry_group_IT_number 2
_symmetry_cell_setting 'triclinic'
loop_
_space_group_symop_operation_xyz
x,y,z
-x,-y,-z
loop_
_atom_site_type_symbol
_atom_site_label
_atom_site_fract_x
_atom_site_fract_y
_atom_site_fract_z
Si Si1 0.945566 0.571456 0.849270
Si Si2 0.500000 0.500000 0.000000
Si Si3 0.517377 0.064363 0.249259
Si Si4 0.745898 0.696922 0.325086
Si Si5 0.205318 0.964107 0.103858
Si Si6 0.055913 0.926694 0.321971
O O1 0.064995 0.704794 0.091669
O O2 0.050040 0.395488 0.656740
O O3 0.000000 0.500000 0.000000
O O4 0.695643 0.722132 0.726608
O O5 0.305154 0.481808 0.857403
O O6 0.385289 0.752611 0.141102
O O7 0.564783 0.873665 0.211581
O O8 0.500000 0.000000 0.000000
O O9 0.230967 0.166105 0.379286
O O10 0.727555 0.085050 0.500686
O O11 0.145680 0.931900 0.844897
O O12 0.000000 0.000000 0.000000
O O13 0.000000 0.000000 0.500000
#
# Coordination Sequence:
#
# PCOD9071159 Si02
#       6
#     2   1   2   2   2   2
#     4  12  27  51  85 123 167 225 278 355 425 506
#     4  12  30  52  92 120 166 244 270 350 438 502
#     4  12  25  53  83 120 172 220 283 358 423 503
#     4  12  28  56  79 131 171 217 295 346 426 515
#     4  12  28  55  81 123 173 217 285 357 416 513
#     4  12  26  52  84 123 170 222 288 358 420 505
#
# _framework density 25.426538000000001
#
# number of rings (size 3 to 8) (size 9 to 14) (size 15 to 20)
#    0.000    0.000    5.455    2.727    0.000    5.091 
#    0.000    0.000    0.000    0.000    0.000    0.000 
#    0.000    0.000    0.000    0.000    0.000    0.000 
#
# Total GULP energy -61371.981970 kJ/mol
# GULP energy per Si atom -5579.271088 kJ/mol
# Density = 2.536867 g / cm^3
# Si number density = 25.426538 Si / 1000 Ang^3
#
#
#
# Elastic Constant Matrix: (Units=GPa)
#
#
# Indices 1 2 3 4 5 6 
#
# 1 156.6252 71.0969 71.5769 -16.2920 -5.1339 -18.5508
# 2 71.0969 141.8202 54.0217 -9.5265 6.0878 -27.8074
# 3 71.5769 54.0217 157.2882 -6.9726 24.6558 6.1337
# 4 -16.2920 -9.5265 -6.9726 48.2878 6.3726 3.2832
# 5 -5.1339 6.0878 24.6558 6.3726 67.8912 9.9773
# 6 -18.5508 -27.8074 6.1337 3.2832 9.9773 57.5430
#
#
#
# Elastic Compliance Matrix: (Units=1/GPa)
#
#
# Indices 1 2 3 4 5 6 
#
# 1 0.010010 -0.003243 -0.003736 0.001825 0.001997 0.001608
# 2 -0.003243 0.010404 -0.002070 0.000510 -0.001116 0.004367
# 3 -0.003736 -0.002070 0.009377 0.000281 -0.003135 -0.002677
# 4 0.001825 0.000510 0.000281 0.021741 -0.002038 -0.000082
# 5 0.001997 -0.001116 -0.003135 -0.002038 0.016653 -0.002332
# 6 0.001608 0.004367 -0.002677 -0.000082 -0.002332 0.020702
#
#
# Mechanical properties :
#
#
# Convention : Reuss Voigt Hill
#
# Bulk Modulus (GPa) = 85.52580 94.34719 89.93649
# Shear Modulus (GPa) = 45.09252 52.01361 48.55306
#
# Velocity S-wave (km/s) = 4.21580 4.52778 4.37457
# Velocity P-wave (km/s) = 7.57672 8.03248 7.80793
#
# Compressibility (1/GPa) = 0.01169238
#
# Stress axis : x y z
#
# Youngs Moduli (GPa) = 99.90171 96.11710 106.63899
#
# Poissons Ratio (x) = 0.31169 0.39843
# Poissons Ratio (y) = 0.32396 0.22079
# Poissons Ratio (z) = 0.37326 0.19900
#
# Static dielectric constant tensor:
#      x y z
#    x 3.055890 -0.350280 0.022350 
#    y -0.350280 2.214120 -0.064330 
#    z 0.022350 -0.064330 1.994920 
# 
# From -- ./inp_files/194536.got.cif
#   From: 2010.05.17/outbox.cif.g08.bks.cpg/sg2_98_cif.got.tgz:194536.got - 2010.06.03 11:33:40.
