data_PCOD9071809
_publ_section_title
;
Structure prediction by ZEFSAII (Michael W. Deem and Ramdas Pophale) SiO2 
 PCOD9071809
Probable space group: P -1
;
_chemical_formula_sum "Si O2"
_cell_formula_units_Z 16
_cell_length_a 25.775797
_cell_length_b 8.702096
_cell_length_c 5.408858
_cell_angle_alpha 76.112253
_cell_angle_beta 129.096126
_cell_angle_gamma 135.294910
_cell_volume 612.306637
_symmetry_space_group_name_H-M "P -1"
_symmetry_group_IT_number 2
_symmetry_cell_setting 'triclinic'
loop_
_space_group_symop_operation_xyz
x,y,z
-x,-y,-z
loop_
_atom_site_type_symbol
_atom_site_label
_atom_site_fract_x
_atom_site_fract_y
_atom_site_fract_z
Si Si1 0.060848 0.442919 0.665078
Si Si2 0.639451 0.485989 0.745512
Si Si3 0.012552 0.710136 0.993899
Si Si4 0.207554 0.474042 0.944736
Si Si5 0.600478 0.919759 0.816981
Si Si6 0.372633 0.392969 0.834346
Si Si7 0.563601 0.949823 0.190092
Si Si8 0.118606 0.168008 0.294318
O O1 0.167280 0.584602 0.804309
O O2 0.000000 0.500000 0.500000
O O3 0.068705 0.405242 0.988698
O O4 0.995505 0.241069 0.331695
O O5 0.520033 0.267809 0.488374
O O6 0.667883 0.659393 0.545638
O O7 0.680839 0.395137 0.802033
O O8 0.674433 0.590552 0.086380
O O9 0.110248 0.960662 0.312717
O O10 0.000000 0.500000 0.000000
O O11 0.158638 0.305117 0.620413
O O12 0.170009 0.326010 0.141989
O O13 0.630701 0.026447 0.595445
O O14 0.622735 0.776411 0.990619
O O15 0.628957 0.062160 0.096003
O O16 0.484005 0.664853 0.042074
O O17 0.500000 0.000000 0.000000
O O18 0.000000 0.000000 0.000000
#
# Coordination Sequence:
#
# PCOD9071809 Si02
#       8
#     2   2   2   2   2   2   2   2
#     4  10  19  33  52  80 104 142 182 217 276 332
#     4  10  20  33  53  85 114 142 185 236 283 331
#     4  10  20  34  54  80 103 136 182 225 267 330
#     4  12  22  34  55  89 112 142 183 243 288 319
#     4  10  19  35  57  84 110 154 194 228 269 342
#     4  10  19  36  58  84 109 153 195 226 270 344
#     4  10  18  29  51  88 112 139 188 245 276 304
#     4  12  21  35  56  83 109 137 185 238 275 333
#
# _framework density 26.130697000000001
#
# number of rings (size 3 to 8) (size 9 to 14) (size 15 to 20)
#    0.000    1.500    2.500    6.000    0.000    0.000 
#    0.000    0.000    0.000    0.000  169.000    0.000 
#    0.000    0.000    0.000    0.000    0.000    0.000 
#
# Total GULP energy -89144.228761 kJ/mol
# GULP energy per Si atom -5571.514298 kJ/mol
# Density = 2.607122 g / cm^3
# Si number density = 26.130697 Si / 1000 Ang^3
#
#
#
# Elastic Constant Matrix: (Units=GPa)
#
#
# Indices 1 2 3 4 5 6 
#
# 1 172.5554 16.4804 42.4803 -13.9995 -30.6721 -7.0911
# 2 16.4804 71.4112 19.6064 -24.2639 -7.1407 -18.7787
# 3 42.4803 19.6064 97.9841 -19.8131 -46.3293 5.0967
# 4 -13.9995 -24.2639 -19.8131 37.1234 6.1774 -5.4979
# 5 -30.6721 -7.1407 -46.3293 6.1774 77.7545 -12.5513
# 6 -7.0911 -18.7787 5.0967 -5.4979 -12.5513 31.6549
#
#
#
# Elastic Compliance Matrix: (Units=1/GPa)
#
#
# Indices 1 2 3 4 5 6 
#
# 1 0.006883 0.000882 -0.001900 0.002348 0.002058 0.003595
# 2 0.000882 0.026818 -0.000878 0.019862 0.004155 0.021346
# 3 -0.001900 -0.000878 0.016509 0.006214 0.008660 0.000908
# 4 0.002348 0.019862 0.006214 0.046309 0.006301 0.021850
# 5 0.002058 0.004155 0.008660 0.006301 0.020446 0.010733
# 6 0.003595 0.021346 0.000908 0.021850 0.010733 0.052963
#
#
# Mechanical properties :
#
#
# Convention : Reuss Voigt Hill
#
# Bulk Modulus (GPa) = 21.54295 55.45389 38.49842
# Shear Modulus (GPa) = 26.42817 46.86545 36.64681
#
# Velocity S-wave (km/s) = 3.18368 4.23957 3.74898
# Velocity P-wave (km/s) = 4.66654 6.72555 5.78834
#
# Compressibility (1/GPa) = 0.04641890
#
# Stress axis : x y z
#
# Youngs Moduli (GPa) = 145.29255 37.28780 60.57403
#
# Poissons Ratio (x) = -0.03289 0.11507
# Poissons Ratio (y) = -0.12815 0.05318
# Poissons Ratio (z) = 0.27599 0.03274
#
# Static dielectric constant tensor:
#      x y z
#    x 2.151240 -0.103130 0.149080 
#    y -0.103130 2.344560 -0.278910 
#    z 0.149080 -0.278910 3.002330 
# 
# From -- ./inp_files/122893.got.cif
#   From: 2010.05.17/outbox.cif.g08.bks.cpg/sg2_62_cif.got.tgz:122893.got - 2010.06.03 11:33:40.
