data_PCOD9071691
_publ_section_title
;
Structure prediction by ZEFSAII (Michael W. Deem and Ramdas Pophale) SiO2 
 PCOD9071691
Probable space group: P -1
;
_chemical_formula_sum "Si O2"
_cell_formula_units_Z 12
_cell_length_a 5.266394
_cell_length_b 20.900002
_cell_length_c 5.266398
_cell_angle_alpha 46.627823
_cell_angle_beta 81.084833
_cell_angle_gamma 79.259740
_cell_volume 413.682485
_symmetry_space_group_name_H-M "P -1"
_symmetry_group_IT_number 2
_symmetry_cell_setting 'triclinic'
loop_
_space_group_symop_operation_xyz
x,y,z
-x,-y,-z
loop_
_atom_site_type_symbol
_atom_site_label
_atom_site_fract_x
_atom_site_fract_y
_atom_site_fract_z
Si Si1 0.990018 0.723119 0.365152
Si Si2 0.684578 0.613577 0.320211
Si Si3 0.689856 0.945227 0.318355
Si Si4 0.154037 0.554773 0.025538
Si Si5 0.839057 0.113577 0.974690
Si Si6 0.534509 0.776881 0.659373
O O1 0.805545 0.676379 0.334578
O O2 0.813099 0.750000 0.563098
O O3 0.073447 0.818502 0.012894
O O4 0.210297 0.645732 0.633717
O O5 0.626611 0.517880 0.696025
O O6 0.932710 0.584401 0.184261
O O7 0.468401 0.681498 0.028954
O O8 0.570912 0.854268 0.647492
O O9 0.937464 0.915599 0.185914
O O10 0.500000 0.000000 0.000000
O O11 0.750335 0.017880 0.319749
O O12 0.000000 0.500000 0.000000
O O13 0.636285 0.176379 0.665319
#
# Coordination Sequence:
#
# PCOD9071691 Si02
#       6
#     2   2   2   2   2   2
#     4   9  17  30  48  71  99 129 162 200 240 283
#     4   9  16  29  50  72  97 129 162 199 242 285
#     4   8  15  29  51  72  94 130 165 194 238 289
#     4   8  15  29  51  72  94 130 165 194 238 289
#     4   9  16  29  50  72  97 129 162 199 242 285
#     4   9  17  30  48  71  99 129 162 200 240 283
#
# _framework density 29.007753999999998
#
# number of rings (size 3 to 8) (size 9 to 14) (size 15 to 20)
#    0.000    3.333    0.000    0.000    0.000    0.000 
#    0.000    6.667    0.000   68.000    0.000    0.000 
#    0.000    0.000    0.000    0.000    0.000    0.000 
#
# Total GULP energy -67124.100960 kJ/mol
# GULP energy per Si atom -5593.675080 kJ/mol
# Density = 2.894173 g / cm^3
# Si number density = 29.007754 Si / 1000 Ang^3
#
#
#
# Elastic Constant Matrix: (Units=GPa)
#
#
# Indices 1 2 3 4 5 6 
#
# 1 68.8632 15.7835 39.3887 -19.1777 4.6887 -3.0874
# 2 15.7835 177.5610 38.1608 -39.9675 1.4356 15.1053
# 3 39.3887 38.1608 120.9095 -30.6495 1.8344 -15.5252
# 4 -19.1777 -39.9675 -30.6495 47.1861 -9.8576 12.6679
# 5 4.6887 1.4356 1.8344 -9.8576 64.6487 -1.0689
# 6 -3.0874 15.1053 -15.5252 12.6679 -1.0689 44.3715
#
#
#
# Elastic Compliance Matrix: (Units=1/GPa)
#
#
# Indices 1 2 3 4 5 6 
#
# 1 0.018820 0.000936 -0.005329 0.005554 -0.000429 -0.002470
# 2 0.000936 0.008127 -0.001587 0.007897 0.000910 -0.005489
# 3 -0.005329 -0.001587 0.011785 0.003385 0.000659 0.003342
# 4 0.005554 0.007897 0.003385 0.036374 0.004684 -0.011389
# 5 -0.000429 0.000910 0.000659 0.004684 0.016157 -0.001057
# 6 -0.002470 -0.005489 0.003342 -0.011389 -0.001057 0.028629
#
#
# Mechanical properties :
#
#
# Convention : Reuss Voigt Hill
#
# Bulk Modulus (GPa) = 37.35194 61.55551 49.45373
# Shear Modulus (GPa) = 35.51719 49.50797 42.51258
#
# Velocity S-wave (km/s) = 3.50294 4.13572 3.83242
# Velocity P-wave (km/s) = 5.40974 6.63868 6.05547
#
# Compressibility (1/GPa) = 0.02677237
#
# Stress axis : x y z
#
# Youngs Moduli (GPa) = 53.13368 123.04782 84.85474
#
# Poissons Ratio (x) = -0.11519 0.45222
# Poissons Ratio (y) = -0.04974 0.13464
# Poissons Ratio (z) = 0.28317 0.19524
#
# Static dielectric constant tensor:
#      x y z
#    x 2.278230 0.069150 -0.048090 
#    y 0.069150 2.206700 -0.018570 
#    z -0.048090 -0.018570 2.371140 
# 
# From -- ./inp_files/3372.got.cif
#   From: 2010.05.17/outbox.cif.g08.bks.cpg/sg2_2_cif.got.tgz:3372.got - 2010.06.03 11:33:40.
