data_PCOD9071223
_publ_section_title
;
Structure prediction by ZEFSAII (Michael W. Deem and Ramdas Pophale) SiO2 
 PCOD9071223
Probable space group: P -1
;
_chemical_formula_sum "Si O2"
_cell_formula_units_Z 14
_cell_length_a 9.394803
_cell_length_b 14.666500
_cell_length_c 9.362890
_cell_angle_alpha 87.308189
_cell_angle_beta 30.611201
_cell_angle_gamma 97.358124
_cell_volume 619.160060
_symmetry_space_group_name_H-M "P -1"
_symmetry_group_IT_number 2
_symmetry_cell_setting 'triclinic'
loop_
_space_group_symop_operation_xyz
x,y,z
-x,-y,-z
loop_
_atom_site_type_symbol
_atom_site_label
_atom_site_fract_x
_atom_site_fract_y
_atom_site_fract_z
Si Si1 0.227960 0.274803 0.266699
Si Si2 0.784613 0.767896 0.205383
Si Si3 0.906693 0.404076 0.681712
Si Si4 0.757905 0.880967 0.510211
Si Si5 0.399195 0.999862 0.922949
Si Si6 0.776145 0.191645 0.416071
Si Si7 0.841723 0.560016 0.223293
O O1 0.211304 0.176769 0.369981
O O2 0.074507 0.331967 0.494464
O O3 0.045157 0.252287 0.280243
O O4 0.563773 0.343764 0.959325
O O5 0.754712 0.814844 0.380626
O O6 0.460961 0.754262 0.418310
O O7 0.859899 0.669113 0.160921
O O8 0.055380 0.831219 0.866216
O O9 0.000000 0.500000 0.500000
O O10 0.009666 0.433544 0.750868
O O11 0.477904 0.915100 0.777089
O O12 0.047819 0.974785 0.233404
O O13 0.578565 0.098055 0.681264
O O14 0.500000 0.000000 0.000000
O O15 0.500000 0.500000 0.500000
O O16 0.000000 0.500000 0.000000
#
# Coordination Sequence:
#
# PCOD9071223 Si02
#       7
#     2   2   2   2   2   2   2
#     4  12  26  48  75 105 146 196 241 298 369 434
#     4  12  28  49  72 111 149 197 244 299 381 439
#     4  12  28  48  74 110 142 188 248 302 364 437
#     4  12  26  47  78 102 151 199 241 305 367 440
#     4  12  26  46  74 113 146 191 253 305 364 425
#     4  12  28  46  76 109 149 195 247 306 363 442
#     4  12  28  49  75 106 147 190 239 305 369 434
#
# _framework density 22.611277000000001
#
# number of rings (size 3 to 8) (size 9 to 14) (size 15 to 20)
#    0.000    0.000    2.857    6.000   10.000    3.429 
#    0.000    0.000    0.000    0.000    0.000    0.000 
#    0.000    0.000    0.000    0.000    0.000    0.000 
#
# Total GULP energy -78395.933116 kJ/mol
# GULP energy per Si atom -5599.709508 kJ/mol
# Density = 2.255981 g / cm^3
# Si number density = 22.611277 Si / 1000 Ang^3
#
#
#
# Elastic Constant Matrix: (Units=GPa)
#
#
# Indices 1 2 3 4 5 6 
#
# 1 159.2776 46.7109 47.8440 1.0788 -8.7121 -4.3052
# 2 46.7109 93.5226 32.4848 7.7496 5.8884 -7.3449
# 3 47.8440 32.4848 142.5182 -1.7956 -18.4007 -9.0921
# 4 1.0788 7.7496 -1.7956 51.9807 6.5231 5.9479
# 5 -8.7121 5.8884 -18.4007 6.5231 41.2196 1.2533
# 6 -4.3052 -7.3449 -9.0921 5.9479 1.2533 34.9244
#
#
#
# Elastic Compliance Matrix: (Units=1/GPa)
#
#
# Indices 1 2 3 4 5 6 
#
# 1 0.007869 -0.003466 -0.001688 0.000152 0.001389 -0.000274
# 2 -0.003466 0.013784 -0.002307 -0.001888 -0.003503 0.002318
# 3 -0.001688 -0.002307 0.008692 0.000039 0.003803 0.001427
# 4 0.000152 -0.001888 0.000039 0.020293 -0.002779 -0.003725
# 5 0.001389 -0.003503 0.003803 -0.002779 0.027194 -0.000078
# 6 -0.000274 0.002318 0.001427 -0.003725 -0.000078 0.030096
#
#
# Mechanical properties :
#
#
# Convention : Reuss Voigt Hill
#
# Bulk Modulus (GPa) = 64.83273 72.15532 68.49402
# Shear Modulus (GPa) = 39.06590 43.51020 41.28805
#
# Velocity S-wave (km/s) = 4.16109 4.39141 4.27780
# Velocity P-wave (km/s) = 7.19870 7.59560 7.39981
#
# Compressibility (1/GPa) = 0.01542431
#
# Stress axis : x y z
#
# Youngs Moduli (GPa) = 127.07605 72.54879 115.05373
#
# Poissons Ratio (x) = 0.25143 0.19422
# Poissons Ratio (y) = 0.44040 0.26537
# Poissons Ratio (z) = 0.21451 0.16733
#
# Static dielectric constant tensor:
#      x y z
#    x 2.091630 0.166420 0.047760 
#    y 0.166420 1.958440 -0.011380 
#    z 0.047760 -0.011380 1.803530 
# 
# From -- ./inp_files/201245.got.cif
#   From: 2010.05.17/outbox.cif.g08.bks.cpg/sg2_101_cif.got.tgz:201245.got - 2010.06.03 11:33:40.
