data_PCOD9071786
_publ_section_title
;
Structure prediction by ZEFSAII (Michael W. Deem and Ramdas Pophale) SiO2 
 PCOD9071786
Probable space group: P -1
;
_chemical_formula_sum "Si O2"
_cell_formula_units_Z 16
_cell_length_a 12.698021
_cell_length_b 9.709747
_cell_length_c 11.960450
_cell_angle_alpha 107.317549
_cell_angle_beta 121.442315
_cell_angle_gamma 114.432306
_cell_volume 859.559205
_symmetry_space_group_name_H-M "P -1"
_symmetry_group_IT_number 2
_symmetry_cell_setting 'triclinic'
loop_
_space_group_symop_operation_xyz
x,y,z
-x,-y,-z
loop_
_atom_site_type_symbol
_atom_site_label
_atom_site_fract_x
_atom_site_fract_y
_atom_site_fract_z
Si Si1 0.594583 0.875819 0.030388
Si Si2 0.068662 0.689514 0.653843
Si Si3 0.190905 0.718162 0.150471
Si Si4 0.744159 0.902925 0.724690
Si Si5 0.356093 0.610036 0.345820
Si Si6 0.612110 0.654402 0.813809
Si Si7 0.677061 0.194732 0.001971
Si Si8 0.776216 0.642668 0.569067
O O1 0.760459 0.081967 0.233709
O O2 0.426920 0.033429 0.067592
O O3 0.629388 0.748997 0.964576
O O4 0.428960 0.761737 0.989378
O O5 0.138480 0.679478 0.806609
O O6 0.000000 0.500000 0.500000
O O7 0.916419 0.677952 0.582027
O O8 0.300858 0.722463 0.304480
O O9 0.172514 0.874488 0.186292
O O10 0.290727 0.771244 0.102146
O O11 0.000000 0.500000 0.000000
O O12 0.551156 0.762608 0.534989
O O13 0.722110 0.829705 0.822265
O O14 0.829507 0.845990 0.686215
O O15 0.340212 0.475053 0.207148
O O16 0.245333 0.463902 0.353754
O O17 0.411237 0.504020 0.628500
#
# Coordination Sequence:
#
# PCOD9071786 Si02
#       8
#     2   2   2   2   2   2   2   2
#     4   9  18  33  54  74 102 136 174 211 260 297
#     4  10  18  29  50  80 102 124 169 223 261 291
#     4  12  22  34  50  78 112 141 167 209 261 312
#     4   9  18  35  52  74 107 141 173 210 252 308
#     4   9  20  32  53  79 104 141 173 205 259 314
#     4   9  16  34  56  77 102 135 177 217 251 301
#     4   9  20  34  49  76 103 136 175 208 257 303
#     4   9  18  31  54  81 104 130 175 221 256 292
#
# _framework density 18.614193
#
# number of rings (size 3 to 8) (size 9 to 14) (size 15 to 20)
#    0.750    1.750    1.250    3.375    0.000    1.000 
#    0.000    5.000    0.000    0.000    0.000    7.875 
#    0.000    0.000    0.000    0.000    0.000    0.000 
#
# Total GULP energy -89096.266541 kJ/mol
# GULP energy per Si atom -5568.516659 kJ/mol
# Density = 1.857183 g / cm^3
# Si number density = 18.614193 Si / 1000 Ang^3
#
#
#
# Elastic Constant Matrix: (Units=GPa)
#
#
# Indices 1 2 3 4 5 6 
#
# 1 92.9048 17.1658 12.7933 19.0943 -7.5917 -2.3798
# 2 17.1658 57.5869 14.1307 16.5109 -5.8762 -4.1888
# 3 12.7933 14.1307 37.2439 14.5880 -14.1438 -4.7705
# 4 19.0943 16.5109 14.5880 26.6776 -8.5509 -4.6295
# 5 -7.5917 -5.8762 -14.1438 -8.5509 26.0895 2.3494
# 6 -2.3798 -4.1888 -4.7705 -4.6295 2.3494 15.1397
#
#
#
# Elastic Compliance Matrix: (Units=1/GPa)
#
#
# Indices 1 2 3 4 5 6 
#
# 1 0.012757 -0.001390 -0.000696 -0.007912 0.000528 -0.001100
# 2 -0.001390 0.021722 -0.003945 -0.010407 -0.001201 0.001552
# 3 -0.000696 -0.003945 0.040504 -0.013176 0.016095 0.005035
# 4 -0.007912 -0.010407 -0.013176 0.060719 0.007286 0.009161
# 5 0.000528 -0.001201 0.016095 0.007286 0.049381 -0.000613
# 6 -0.001100 0.001552 0.005035 0.009161 -0.000613 0.070791
#
#
# Mechanical properties :
#
#
# Convention : Reuss Voigt Hill
#
# Bulk Modulus (GPa) = 15.89296 30.65727 23.27511
# Shear Modulus (GPa) = 17.30640 23.15776 20.23208
#
# Velocity S-wave (km/s) = 3.05247 3.53099 3.30042
# Velocity P-wave (km/s) = 4.58040 5.75582 5.20142
#
# Compressibility (1/GPa) = 0.06292094
#
# Stress axis : x y z
#
# Youngs Moduli (GPa) = 78.38582 46.03720 24.68878
#
# Poissons Ratio (x) = 0.06397 0.01720
# Poissons Ratio (y) = 0.10893 0.09740
# Poissons Ratio (z) = 0.05459 0.18162
#
# Static dielectric constant tensor:
#      x y z
#    x 1.663850 -0.006370 -0.017650 
#    y -0.006370 1.712430 -0.036150 
#    z -0.017650 -0.036150 1.705750 
# 
# From -- ./inp_files/417872.got.cif
#   From: 2010.05.17/outbox.cif.g08.bks.cpg/sg2_209_cif.got.tgz:417872.got - 2010.06.03 11:33:40.
