data_PCOD9071314
_publ_section_title
;
Structure prediction by ZEFSAII (Michael W. Deem and Ramdas Pophale) SiO2 
 PCOD9071314
Probable space group: P -1
;
_chemical_formula_sum "Si O2"
_cell_formula_units_Z 16
_cell_length_a 8.178879
_cell_length_b 18.134553
_cell_length_c 13.174223
_cell_angle_alpha 46.953991
_cell_angle_beta 133.006818
_cell_angle_gamma 147.417348
_cell_volume 740.070793
_symmetry_space_group_name_H-M "P -1"
_symmetry_group_IT_number 2
_symmetry_cell_setting 'triclinic'
loop_
_space_group_symop_operation_xyz
x,y,z
-x,-y,-z
loop_
_atom_site_type_symbol
_atom_site_label
_atom_site_fract_x
_atom_site_fract_y
_atom_site_fract_z
Si Si1 0.862903 0.892718 0.636776
Si Si2 0.708149 0.642705 0.387580
Si Si3 0.643872 0.884183 0.924034
Si Si4 0.369415 0.590968 0.090275
Si Si5 0.785220 0.035310 0.640186
Si Si6 0.746049 0.568463 0.129673
Si Si7 0.260766 0.859756 0.961389
Si Si8 0.157827 0.602954 0.567151
O O1 0.528161 0.745316 0.593233
O O2 0.068771 0.867061 0.792847
O O3 0.841200 0.956977 0.666348
O O4 0.000000 0.000000 0.500000
O O5 0.500000 0.500000 0.500000
O O6 0.478529 0.614812 0.230599
O O7 0.900870 0.795967 0.376600
O O8 0.982028 0.653722 0.455286
O O9 0.440953 0.842859 0.976608
O O10 0.645279 0.962833 0.759033
O O11 0.547627 0.744005 0.975068
O O12 0.000000 0.000000 0.000000
O O13 0.533150 0.544131 0.154682
O O14 0.000000 0.500000 0.000000
O O15 0.500000 0.000000 0.500000
O O16 0.868189 0.493690 0.268542
O O17 0.500000 0.500000 0.000000
O O18 0.036297 0.730506 0.066743
O O19 0.500000 0.000000 0.000000
O O20 0.000000 0.500000 0.500000
#
# Coordination Sequence:
#
# PCOD9071314 Si02
#       8
#     2   2   2   2   2   2   2   2
#     4  12  28  48  77 112 147 198 252 306 379 451
#     4  12  30  48  75 111 150 198 253 308 380 448
#     4  12  26  48  73 106 148 192 251 302 376 446
#     4  12  28  47  75 110 152 199 248 311 377 447
#     4  12  26  49  76 105 151 195 244 314 372 449
#     4  12  26  49  74 106 154 196 252 308 374 445
#     4  12  28  45  77 110 146 198 248 310 373 446
#     4  12  28  50  75 107 153 199 248 313 375 444
#
# _framework density 21.619554000000001
#
# number of rings (size 3 to 8) (size 9 to 14) (size 15 to 20)
#    0.000    0.000    5.000    3.750    8.750    0.000 
#    0.000    0.000    0.000    0.000    0.000    0.000 
#    0.000    0.000    0.000    0.000    0.000    0.000 
#
# Total GULP energy -89384.141154 kJ/mol
# GULP energy per Si atom -5586.508822 kJ/mol
# Density = 2.157035 g / cm^3
# Si number density = 21.619554 Si / 1000 Ang^3
#
#
#
# Elastic Constant Matrix: (Units=GPa)
#
#
# Indices 1 2 3 4 5 6 
#
# 1 68.3990 12.8738 7.0829 5.1717 7.8847 -0.0430
# 2 12.8738 168.8331 51.8028 7.4573 -12.2704 12.4959
# 3 7.0829 51.8028 148.5085 16.9201 -4.4770 19.8620
# 4 5.1717 7.4573 16.9201 46.5018 3.2659 -1.6972
# 5 7.8847 -12.2704 -4.4770 3.2659 42.2334 -2.8129
# 6 -0.0430 12.4959 19.8620 -1.6972 -2.8129 37.4431
#
#
#
# Elastic Compliance Matrix: (Units=1/GPa)
#
#
# Indices 1 2 3 4 5 6 
#
# 1 0.015343 -0.001282 -0.000288 -0.001163 -0.003157 0.000309
# 2 -0.001282 0.006905 -0.002103 -0.000377 0.001981 -0.001059
# 3 -0.000288 -0.002103 0.008322 -0.002818 0.000289 -0.003819
# 4 -0.001163 -0.000377 -0.002818 0.022938 -0.001797 0.002524
# 5 -0.003157 0.001981 0.000289 -0.001797 0.025078 0.000985
# 6 0.000309 -0.001059 -0.003819 0.002524 0.000985 0.029275
#
#
# Mechanical properties :
#
#
# Convention : Reuss Voigt Hill
#
# Bulk Modulus (GPa) = 43.06270 58.80661 50.93466
# Shear Modulus (GPa) = 40.66696 46.16772 43.41734
#
# Velocity S-wave (km/s) = 4.34179 4.62612 4.48621
# Velocity P-wave (km/s) = 6.71539 7.46956 7.10249
#
# Compressibility (1/GPa) = 0.02322195
#
# Stress axis : x y z
#
# Youngs Moduli (GPa) = 65.17461 144.81996 120.17033
#
# Poissons Ratio (x) = 0.18572 0.03466
# Poissons Ratio (y) = 0.08358 0.25274
# Poissons Ratio (z) = 0.01880 0.30459
#
# Static dielectric constant tensor:
#      x y z
#    x 1.917590 -0.117510 0.145500 
#    y -0.117510 1.710930 -0.008250 
#    z 0.145500 -0.008250 1.957030 
# 
# From -- ./inp_files/507286.got.cif
#   From: 2010.05.17/outbox.cif.g08.bks.cpg/sg2_254_cif.got.tgz:507286.got - 2010.06.03 11:33:40.
