data_PCOD9071082
_publ_section_title
;
Structure prediction by ZEFSAII (Michael W. Deem and Ramdas Pophale) SiO2 
 PCOD9071082
Probable space group: P -1
;
_chemical_formula_sum "Si O2"
_cell_formula_units_Z 13
_cell_length_a 9.366755
_cell_length_b 13.135567
_cell_length_c 16.838696
_cell_angle_alpha 22.758032
_cell_angle_beta 38.973840
_cell_angle_gamma 45.246879
_cell_volume 503.382356
_symmetry_space_group_name_H-M "P -1"
_symmetry_group_IT_number 2
_symmetry_cell_setting 'triclinic'
loop_
_space_group_symop_operation_xyz
x,y,z
-x,-y,-z
loop_
_atom_site_type_symbol
_atom_site_label
_atom_site_fract_x
_atom_site_fract_y
_atom_site_fract_z
Si Si1 0.464238 0.329605 0.477474
Si Si2 0.252149 0.856895 0.220413
Si Si3 0.500000 0.000000 0.500000
Si Si4 0.070009 0.926532 0.932507
Si Si5 0.822147 0.068204 0.616374
Si Si6 0.252671 0.515054 0.911870
Si Si7 0.257733 0.375471 0.227850
O O1 0.290933 0.546529 0.420389
O O2 0.653081 0.267305 0.505434
O O3 0.585666 0.424000 0.276645
O O4 0.319301 0.063913 0.710876
O O5 0.181577 0.912475 0.300478
O O6 0.097676 0.961084 0.141448
O O7 0.500000 0.000000 0.000000
O O8 0.712539 0.225530 0.237421
O O9 0.330455 0.227223 0.382162
O O10 0.097536 0.616367 0.137128
O O11 0.000000 0.000000 0.000000
O O12 0.085666 0.151742 0.421366
O O13 0.714971 0.772016 0.860964
O O14 0.000000 0.500000 0.000000
O O15 0.500000 0.500000 0.000000
#
# Coordination Sequence:
#
# PCOD9071082 Si02
#       7
#     2   2   1   2   2   2   2
#     4  12  27  49  79 114 162 209 268 334 411 484
#     4  12  25  49  82 114 160 207 264 335 412 485
#     4  12  28  50  78 114 164 210 272 328 404 480
#     4  12  28  50  80 122 162 215 273 339 412 492
#     4  12  27  50  80 118 158 211 273 338 408 485
#     4  12  28  49  79 115 160 212 272 332 408 481
#     4  12  29  48  81 114 165 211 275 332 411 482
#
# _framework density 25.825301
#
# number of rings (size 3 to 8) (size 9 to 14) (size 15 to 20)
#    0.000    0.000    3.077    5.538    8.615    0.615 
#    0.000    0.000    0.000    0.000    0.000    0.000 
#    0.000    0.000    0.000    0.000    0.000    0.000 
#
# Total GULP energy -72633.059631 kJ/mol
# GULP energy per Si atom -5587.158433 kJ/mol
# Density = 2.576652 g / cm^3
# Si number density = 25.825301 Si / 1000 Ang^3
#
#
#
# Elastic Constant Matrix: (Units=GPa)
#
#
# Indices 1 2 3 4 5 6 
#
# 1 179.7655 40.8758 72.4857 3.6886 21.9261 -34.8149
# 2 40.8758 76.5474 67.8787 1.7266 27.2726 -12.0152
# 3 72.4857 67.8787 193.9448 -5.4441 2.0288 3.3591
# 4 3.6886 1.7266 -5.4441 70.1077 -12.2197 9.9408
# 5 21.9261 27.2726 2.0288 -12.2197 74.1979 0.4595
# 6 -34.8149 -12.0152 3.3591 9.9408 0.4595 52.0685
#
#
#
# Elastic Compliance Matrix: (Units=1/GPa)
#
#
# Indices 1 2 3 4 5 6 
#
# 1 0.008543 0.000887 -0.003648 -0.002243 -0.003161 0.006608
# 2 0.000887 0.026298 -0.009693 -0.004434 -0.010444 0.008225
# 3 -0.003648 -0.009693 0.010045 0.002901 0.004880 -0.005921
# 4 -0.002243 -0.004434 0.002901 0.016414 0.004953 -0.005887
# 5 -0.003161 -0.010444 0.004880 0.004953 0.018970 -0.005952
# 6 0.006608 0.008225 -0.005921 -0.005887 -0.005952 0.027081
#
#
# Mechanical properties :
#
#
# Convention : Reuss Voigt Hill
#
# Bulk Modulus (GPa) = 50.05542 90.30422 70.17982
# Shear Modulus (GPa) = 35.99242 57.20932 46.60087
#
# Velocity S-wave (km/s) = 3.73726 4.71174 4.25251
# Velocity P-wave (km/s) = 6.16825 8.04015 7.16558
#
# Compressibility (1/GPa) = 0.01997786
#
# Stress axis : x y z
#
# Youngs Moduli (GPa) = 117.04847 38.02590 99.55419
#
# Poissons Ratio (x) = -0.03371 0.36314
# Poissons Ratio (y) = -0.10377 0.96498
# Poissons Ratio (z) = 0.42696 0.36858
#
# Static dielectric constant tensor:
#      x y z
#    x 2.147800 0.172300 -0.117640 
#    y 0.172300 2.117710 -0.048490 
#    z -0.117640 -0.048490 2.012760 
# 
# From -- ./inp_files/560659.got.cif
#   From: 2010.05.17/outbox.cif.g08.bks.cpg/sg2_281_cif.got.tgz:560659.got - 2010.06.03 11:33:40.
