data_PCOD9071396
_publ_section_title
;
Structure prediction by ZEFSAII (Michael W. Deem and Ramdas Pophale) SiO2 
 PCOD9071396
Probable space group: P -1
;
_chemical_formula_sum "Si O2"
_cell_formula_units_Z 11
_cell_length_a 5.545387
_cell_length_b 16.037140
_cell_length_c 4.934628
_cell_angle_alpha 65.603092
_cell_angle_beta 89.032766
_cell_angle_gamma 86.755216
_cell_volume 399.009717
_symmetry_space_group_name_H-M "P -1"
_symmetry_group_IT_number 2
_symmetry_cell_setting 'triclinic'
loop_
_space_group_symop_operation_xyz
x,y,z
-x,-y,-z
loop_
_atom_site_type_symbol
_atom_site_label
_atom_site_fract_x
_atom_site_fract_y
_atom_site_fract_z
Si Si1 0.644956 0.405201 0.177728
Si Si2 0.556512 0.050216 0.720296
Si Si3 0.000000 0.000000 0.000000
Si Si4 0.894845 0.325580 0.798705
Si Si5 0.704650 0.751561 0.510888
Si Si6 0.074544 0.850523 0.744417
O O1 0.753580 0.387337 0.495772
O O2 0.451398 0.327448 0.263365
O O3 0.500000 0.500000 0.000000
O O4 0.864385 0.386154 0.987780
O O5 0.464260 0.155849 0.638540
O O6 0.845984 0.079704 0.586868
O O7 0.500000 0.000000 0.500000
O O8 0.308049 0.001741 0.939648
O O9 0.979157 0.912467 0.906456
O O10 0.143386 0.289376 0.694541
O O11 0.764537 0.230456 0.002965
O O12 0.894271 0.788121 0.673354
#
# Coordination Sequence:
#
# PCOD9071396 Si02
#       6
#     2   2   1   2   2   2
#     4  12  29  54  88 125 164 213 271 339 419 497
#     4  12  26  49  76 111 159 220 274 338 407 474
#     4  12  28  46  72 114 160 212 288 332 386 494
#     4  12  26  54  80 125 167 210 275 335 408 505
#     4  12  27  50  84 113 169 222 268 342 417 474
#     4  12  26  50  75 116 166 216 278 340 398 491
#
# _framework density 27.568248000000001
#
# number of rings (size 3 to 8) (size 9 to 14) (size 15 to 20)
#    0.000    0.000    3.636    5.455    2.545    5.818 
#    3.273    0.000    0.000    0.000    0.000    0.000 
#    0.000    0.000    0.000    0.000    0.000    0.000 
#
# Total GULP energy -61508.177518 kJ/mol
# GULP energy per Si atom -5591.652502 kJ/mol
# Density = 2.750550 g / cm^3
# Si number density = 27.568248 Si / 1000 Ang^3
#
#
#
# Elastic Constant Matrix: (Units=GPa)
#
#
# Indices 1 2 3 4 5 6 
#
# 1 131.8121 11.0433 18.2668 8.0757 -9.1973 -17.7317
# 2 11.0433 148.6312 73.3748 -16.1685 -13.0748 -62.7572
# 3 18.2668 73.3748 201.0960 10.0438 -11.1458 -26.8909
# 4 8.0757 -16.1685 10.0438 81.7580 -14.0830 8.5489
# 5 -9.1973 -13.0748 -11.1458 -14.0830 42.2076 2.1874
# 6 -17.7317 -62.7572 -26.8909 8.5489 2.1874 55.2576
#
#
#
# Elastic Compliance Matrix: (Units=1/GPa)
#
#
# Indices 1 2 3 4 5 6 
#
# 1 0.008249 0.001503 -0.000631 -0.000574 0.001694 0.004069
# 2 0.001503 0.015928 -0.003664 0.002492 0.004284 0.016233
# 3 -0.000631 -0.003664 0.006286 -0.001319 0.000004 -0.001101
# 4 -0.000574 0.002492 -0.001319 0.013826 0.004929 -0.000330
# 5 0.001694 0.004284 0.000004 0.004929 0.026849 0.003586
# 6 0.004069 0.016233 -0.001101 -0.000330 0.003586 0.037212
#
#
# Mechanical properties :
#
#
# Convention : Reuss Voigt Hill
#
# Bulk Modulus (GPa) = 40.19624 76.32322 58.25973
# Shear Modulus (GPa) = 40.90762 61.10159 51.00461
#
# Velocity S-wave (km/s) = 3.85628 4.71295 4.30597
# Velocity P-wave (km/s) = 5.86857 7.57371 6.77500
#
# Compressibility (1/GPa) = 0.02487795
#
# Stress axis : x y z
#
# Youngs Moduli (GPa) = 121.22989 62.78408 159.08493
#
# Poissons Ratio (x) = -0.09439 0.10041
# Poissons Ratio (y) = -0.18226 0.58295
# Poissons Ratio (z) = 0.07652 0.23007
#
# Static dielectric constant tensor:
#      x y z
#    x 2.020030 0.014880 -0.304920 
#    y 0.014880 1.933390 0.058500 
#    z -0.304920 0.058500 1.953320 
# 
# From -- ./inp_files/5586.got.cif
#   From: 2010.05.17/outbox.cif.g08.bks.cpg/sg2_3_cif.got.tgz:5586.got - 2010.06.03 11:33:40.
