data_PCOD9071227
_publ_section_title
;
Structure prediction by ZEFSAII (Michael W. Deem and Ramdas Pophale) SiO2 
 PCOD9071227
Probable space group: P -1
;
_chemical_formula_sum "Si O2"
_cell_formula_units_Z 12
_cell_length_a 9.345937
_cell_length_b 12.460702
_cell_length_c 4.889272
_cell_angle_alpha 82.073127
_cell_angle_beta 84.533513
_cell_angle_gamma 67.575866
_cell_volume 520.740176
_symmetry_space_group_name_H-M "P -1"
_symmetry_group_IT_number 2
_symmetry_cell_setting 'triclinic'
loop_
_space_group_symop_operation_xyz
x,y,z
-x,-y,-z
loop_
_atom_site_type_symbol
_atom_site_label
_atom_site_fract_x
_atom_site_fract_y
_atom_site_fract_z
Si Si1 0.582126 0.374235 0.178795
Si Si2 0.788504 0.315202 0.693264
Si Si3 0.952659 0.937686 0.278120
Si Si4 0.835678 0.535738 0.881125
Si Si5 0.390284 0.059509 0.747110
Si Si6 0.679273 0.670570 0.391326
O O1 0.709992 0.359803 0.397971
O O2 0.455073 0.346352 0.392469
O O3 0.500000 0.500000 0.000000
O O4 0.282572 0.400193 0.874301
O O5 0.818151 0.421264 0.798072
O O6 0.668158 0.291653 0.937644
O O7 0.940383 0.199669 0.680569
O O8 0.773439 0.955252 0.262795
O O9 0.000000 0.000000 0.500000
O O10 0.000000 0.000000 0.000000
O O11 0.820448 0.620769 0.597267
O O12 0.000000 0.500000 0.000000
O O13 0.355391 0.196617 0.714374
O O14 0.500000 0.000000 0.500000
O O15 0.500000 0.000000 0.000000
#
# Coordination Sequence:
#
# PCOD9071227 Si02
#       6
#     2   2   2   2   2   2
#     4  12  26  46  75 116 154 200 251 305 389 466
#     4  12  27  46  78 108 157 198 254 316 383 460
#     4  12  29  53  80 114 152 205 266 323 388 457
#     4  12  26  46  75 109 151 199 247 315 392 462
#     4  12  29  53  82 111 153 206 264 322 386 458
#     4  12  27  47  76 112 156 196 255 316 384 462
#
# _framework density 23.044124
#
# number of rings (size 3 to 8) (size 9 to 14) (size 15 to 20)
#    0.000    0.000    1.667    7.000    7.000    2.667 
#    0.000    0.000    0.000    0.000    0.000    0.000 
#    0.000    0.000    0.000    0.000    0.000    0.000 
#
# Total GULP energy -67181.495100 kJ/mol
# GULP energy per Si atom -5598.457925 kJ/mol
# Density = 2.299167 g / cm^3
# Si number density = 23.044124 Si / 1000 Ang^3
#
#
#
# Elastic Constant Matrix: (Units=GPa)
#
#
# Indices 1 2 3 4 5 6 
#
# 1 165.9532 85.4126 78.5750 -10.2059 13.2499 -11.6342
# 2 85.4126 176.0064 99.3648 -12.5504 12.6448 -6.0213
# 3 78.5750 99.3648 254.8534 -7.1747 15.4878 -4.2068
# 4 -10.2059 -12.5504 -7.1747 43.4483 -12.4505 -7.4205
# 5 13.2499 12.6448 15.4878 -12.4505 45.5528 -4.8017
# 6 -11.6342 -6.0213 -4.2068 -7.4205 -4.8017 34.7020
#
#
#
# Elastic Compliance Matrix: (Units=1/GPa)
#
#
# Indices 1 2 3 4 5 6 
#
# 1 0.008575 -0.003242 -0.001274 0.001083 -0.000623 0.002303
# 2 -0.003242 0.008701 -0.002332 0.001357 -0.000267 0.000394
# 3 -0.001274 -0.002332 0.005263 -0.000444 -0.000937 -0.000418
# 4 0.001083 0.001357 -0.000444 0.027035 0.007626 0.007381
# 5 -0.000623 -0.000267 -0.000937 0.007626 0.025110 0.004737
# 6 0.002303 0.000394 -0.000418 0.007381 0.004737 0.031840
#
#
# Mechanical properties :
#
#
# Convention : Reuss Voigt Hill
#
# Bulk Modulus (GPa) = 113.06247 124.83531 118.94889
# Shear Modulus (GPa) = 40.59549 46.97133 43.78341
#
# Velocity S-wave (km/s) = 4.20174 4.51968 4.36361
# Velocity P-wave (km/s) = 8.52699 9.02920 8.78169
#
# Compressibility (1/GPa) = 0.00884467
#
# Stress axis : x y z
#
# Youngs Moduli (GPa) = 116.61924 114.93468 189.99667
#
# Poissons Ratio (x) = 0.37256 0.24198
# Poissons Ratio (y) = 0.37802 0.44306
# Poissons Ratio (z) = 0.14853 0.26802
#
# Static dielectric constant tensor:
#      x y z
#    x 1.988780 -0.009980 -0.007130 
#    y -0.009980 1.842290 -0.012490 
#    z -0.007130 -0.012490 1.776260 
# 
# From -- ./inp_files/27960.got.cif
#   From: 2010.05.17/outbox.cif.g08.bks.cpg/sg2_14_cif.got.tgz:27960.got - 2010.06.03 11:33:40.
