data_PCOD9071966
_publ_section_title
;
Structure prediction by ZEFSAII (Michael W. Deem and Ramdas Pophale) SiO2 
 PCOD9071966
Probable space group: P -1
;
_chemical_formula_sum "Si O2"
_cell_formula_units_Z 16
_cell_length_a 12.348286
_cell_length_b 11.568865
_cell_length_c 12.507159
_cell_angle_alpha 133.372222
_cell_angle_beta 31.918863
_cell_angle_gamma 136.844834
_cell_volume 634.765070
_symmetry_space_group_name_H-M "P -1"
_symmetry_group_IT_number 2
_symmetry_cell_setting 'triclinic'
loop_
_space_group_symop_operation_xyz
x,y,z
-x,-y,-z
loop_
_atom_site_type_symbol
_atom_site_label
_atom_site_fract_x
_atom_site_fract_y
_atom_site_fract_z
Si Si1 0.391465 0.259143 0.592269
Si Si2 0.810784 0.158024 0.110148
Si Si3 0.512221 0.093284 0.935536
Si Si4 0.862855 0.479429 0.860260
Si Si5 0.771711 0.878714 0.567514
Si Si6 0.245800 0.981981 0.706806
Si Si7 0.886858 0.628640 0.713471
Si Si8 0.712158 0.612439 0.624617
O O1 0.606887 0.216855 0.351217
O O2 0.252911 0.244966 0.591251
O O3 0.500821 0.443371 0.670315
O O4 0.247400 0.131050 0.721764
O O5 0.012709 0.349142 0.060234
O O6 0.820842 0.038208 0.125795
O O7 0.722950 0.021365 0.998729
O O8 0.660987 0.298442 0.942414
O O9 0.674442 0.014719 0.690205
O O10 0.500000 0.000000 0.000000
O O11 0.067956 0.419891 0.619207
O O12 0.787994 0.556595 0.866266
O O13 0.681216 0.757709 0.669483
O O14 0.000000 0.000000 0.500000
O O15 0.087379 0.806223 0.676740
O O16 0.500000 0.000000 0.500000
O O17 0.741322 0.646082 0.748055
O O18 0.000000 0.500000 0.500000
#
# Coordination Sequence:
#
# PCOD9071966 Si02
#       8
#     2   2   2   2   2   2   2   2
#     4   9  18  27  46  77 106 134 165 214 265 313
#     4   8  18  31  49  74 106 134 170 222 255 305
#     4  11  23  36  55  77 104 144 180 212 258 311
#     4   9  18  33  51  79 106 133 176 218 260 303
#     4  11  20  34  52  73 109 138 170 216 258 316
#     4   9  15  25  42  72 104 132 164 211 268 304
#     4   9  17  25  46  76 105 132 165 214 264 309
#     4  10  18  30  49  78 107 136 167 213 271 310
#
# _framework density 25.206177
#
# number of rings (size 3 to 8) (size 9 to 14) (size 15 to 20)
#    0.000    2.500    1.250    3.375   10.500    0.500 
#    0.000    0.000    0.000    0.750    0.000    2.625 
#    0.000    0.000    0.000    0.000    0.000    0.000 
#
# Total GULP energy -89268.134848 kJ/mol
# GULP energy per Si atom -5579.258428 kJ/mol
# Density = 2.514881 g / cm^3
# Si number density = 25.206177 Si / 1000 Ang^3
#
#
#
# Elastic Constant Matrix: (Units=GPa)
#
#
# Indices 1 2 3 4 5 6 
#
# 1 167.4699 109.9395 29.5992 -12.8129 29.1471 28.8749
# 2 109.9395 287.1775 66.3584 -34.5221 36.5965 21.7963
# 3 29.5992 66.3584 62.5998 -18.7835 1.1949 13.4383
# 4 -12.8129 -34.5221 -18.7835 44.3530 -11.9513 -2.5570
# 5 29.1471 36.5965 1.1949 -11.9513 35.0200 10.3480
# 6 28.8749 21.7963 13.4383 -2.5570 10.3480 52.6032
#
#
#
# Elastic Compliance Matrix: (Units=1/GPa)
#
#
# Indices 1 2 3 4 5 6 
#
# 1 0.009008 -0.002532 -0.001276 -0.001260 -0.004422 -0.002761
# 2 -0.002532 0.006242 -0.005329 0.000778 -0.004277 0.001044
# 3 -0.001276 -0.005329 0.025840 0.008912 0.010355 -0.005297
# 4 -0.001260 0.000778 0.008912 0.029295 0.010693 -0.002587
# 5 -0.004422 -0.004277 0.010355 0.010693 0.041819 -0.006153
# 6 -0.002761 0.001044 -0.005297 -0.002587 -0.006153 0.022531
#
#
# Mechanical properties :
#
#
# Convention : Reuss Voigt Hill
#
# Bulk Modulus (GPa) = 43.82760 103.22680 73.52720
# Shear Modulus (GPa) = 31.13051 47.15191 39.14121
#
# Velocity S-wave (km/s) = 3.51812 4.32979 3.94489
# Velocity P-wave (km/s) = 5.82480 8.12638 7.06988
#
# Compressibility (1/GPa) = 0.02281667
#
# Stress axis : x y z
#
# Youngs Moduli (GPa) = 111.00834 160.20145 38.69971
#
# Poissons Ratio (x) = 0.40565 0.04939
# Poissons Ratio (y) = 0.28108 0.20622
# Poissons Ratio (z) = 0.14166 0.85365
#
# Static dielectric constant tensor:
#      x y z
#    x 2.016700 -0.132740 -0.153660 
#    y -0.132740 1.393160 -0.442670 
#    z -0.153660 -0.442670 1.758350 
# 
# From -- ./inp_files/251998.got.cif
#   From: 2010.05.17/outbox.cif.g08.bks.cpg/sg2_126_cif.got.tgz:251998.got - 2010.06.03 11:33:40.
