data_PCOD9071941
_publ_section_title
;
Structure prediction by ZEFSAII (Michael W. Deem and Ramdas Pophale) SiO2 
 PCOD9071941
Probable space group: P -1
;
_chemical_formula_sum "Si O2"
_cell_formula_units_Z 12
_cell_length_a 13.843904
_cell_length_b 5.725416
_cell_length_c 7.085154
_cell_angle_alpha 73.362687
_cell_angle_beta 58.286623
_cell_angle_gamma 95.553620
_cell_volume 436.159403
_symmetry_space_group_name_H-M "P -1"
_symmetry_group_IT_number 2
_symmetry_cell_setting 'triclinic'
loop_
_space_group_symop_operation_xyz
x,y,z
-x,-y,-z
loop_
_atom_site_type_symbol
_atom_site_label
_atom_site_fract_x
_atom_site_fract_y
_atom_site_fract_z
Si Si1 0.677098 0.701976 0.795146
Si Si2 0.068021 0.969670 0.628673
Si Si3 0.714921 0.120993 0.233488
Si Si4 0.018897 0.596845 0.240231
Si Si5 0.642202 0.579901 0.311668
Si Si6 0.556759 0.192010 0.057475
O O1 0.792133 0.929916 0.581269
O O2 0.671093 0.414491 0.813176
O O3 0.500000 0.000000 0.000000
O O4 0.665933 0.666967 0.044348
O O5 0.029822 0.665386 0.770751
O O6 0.000000 0.000000 0.500000
O O7 0.039963 0.172135 0.754736
O O8 0.687051 0.329944 0.353940
O O9 0.711078 0.823446 0.311804
O O10 0.559186 0.720183 0.805873
O O11 0.842335 0.272832 0.978900
O O12 0.000000 0.500000 0.500000
O O13 0.500000 0.500000 0.500000
O O14 0.604005 0.085756 0.212560
#
# Coordination Sequence:
#
# PCOD9071941 Si02
#       6
#     2   2   2   2   2   2
#     4  10  21  33  48  79 110 135 168 209 252 311
#     4  10  19  29  48  72 104 133 158 201 258 313
#     4  11  21  36  52  78 110 132 170 212 254 308
#     4  10  18  30  49  72 102 134 156 204 260 310
#     4  11  21  34  51  72 106 144 173 207 247 299
#     4  10  19  31  52  70 107 144 161 205 265 303
#
# _framework density 27.512879999999999
#
# number of rings (size 3 to 8) (size 9 to 14) (size 15 to 20)
#    0.000    1.667    1.667    7.500    2.333    0.000 
#    0.000    0.000    0.000    0.000    0.000    0.000 
#    0.000  290.667    0.000    0.000    0.000    0.000 
#
# Total GULP energy -67091.691918 kJ/mol
# GULP energy per Si atom -5590.974327 kJ/mol
# Density = 2.745026 g / cm^3
# Si number density = 27.512880 Si / 1000 Ang^3
#
#
#
# Elastic Constant Matrix: (Units=GPa)
#
#
# Indices 1 2 3 4 5 6 
#
# 1 122.6194 34.0034 33.1378 -10.9623 -10.0208 -1.0472
# 2 34.0034 263.0726 87.1691 -20.7103 -14.0017 33.1690
# 3 33.1378 87.1691 174.2199 -20.0194 -36.3815 27.0843
# 4 -10.9623 -20.7103 -20.0194 46.3709 6.7928 -18.3900
# 5 -10.0208 -14.0017 -36.3815 6.7928 47.0401 -3.6501
# 6 -1.0472 33.1690 27.0843 -18.3900 -3.6501 35.6362
#
#
#
# Elastic Compliance Matrix: (Units=1/GPa)
#
#
# Indices 1 2 3 4 5 6 
#
# 1 0.009087 -0.000927 -0.001434 0.002446 0.000472 0.003530
# 2 -0.000927 0.004927 -0.001878 -0.000060 -0.000428 -0.003260
# 3 -0.001434 -0.001878 0.008811 0.000068 0.005600 -0.004382
# 4 0.002446 -0.000060 0.000068 0.028202 -0.002401 0.014384
# 5 0.000472 -0.000428 0.005600 -0.002401 0.025719 -0.002448
# 6 0.003530 -0.003260 -0.004382 0.014384 -0.002448 0.041702
#
#
# Mechanical properties :
#
#
# Convention : Reuss Voigt Hill
#
# Bulk Modulus (GPa) = 69.70149 96.50360 83.10254
# Shear Modulus (GPa) = 37.96260 52.84955 45.40608
#
# Velocity S-wave (km/s) = 3.71861 4.38756 4.06687
# Velocity P-wave (km/s) = 6.62016 7.79869 7.23347
#
# Compressibility (1/GPa) = 0.01434689
#
# Stress axis : x y z
#
# Youngs Moduli (GPa) = 110.04439 202.96435 113.49710
#
# Poissons Ratio (x) = 0.18812 0.16275
# Poissons Ratio (y) = 0.10199 0.21318
# Poissons Ratio (z) = 0.15780 0.38122
#
# Static dielectric constant tensor:
#      x y z
#    x 2.147000 -0.125910 0.120730 
#    y -0.125910 2.564650 -0.066550 
#    z 0.120730 -0.066550 2.207190 
# 
# From -- ./inp_files/468270.got.cif
#   From: 2010.05.17/outbox.cif.g08.bks.cpg/sg2_235_cif.got.tgz:468270.got - 2010.06.03 11:33:40.
