data_PCOD9071672
_publ_section_title
;
Structure prediction by ZEFSAII (Michael W. Deem and Ramdas Pophale) SiO2 
 PCOD9071672
Probable space group: P -1
;
_chemical_formula_sum "Si O2"
_cell_formula_units_Z 16
_cell_length_a 10.820237
_cell_length_b 12.721568
_cell_length_c 8.359503
_cell_angle_alpha 130.054145
_cell_angle_beta 95.879232
_cell_angle_gamma 48.575944
_cell_volume 545.667694
_symmetry_space_group_name_H-M "P -1"
_symmetry_group_IT_number 2
_symmetry_cell_setting 'triclinic'
loop_
_space_group_symop_operation_xyz
x,y,z
-x,-y,-z
loop_
_atom_site_type_symbol
_atom_site_label
_atom_site_fract_x
_atom_site_fract_y
_atom_site_fract_z
Si Si1 0.488596 0.492822 0.733401
Si Si2 0.757991 0.772686 0.550380
Si Si3 0.709515 0.726599 0.011689
Si Si4 0.180860 0.125092 0.020933
Si Si5 0.433150 0.350009 0.870697
Si Si6 0.357279 0.371836 0.414079
Si Si7 0.949411 0.004795 0.283329
Si Si8 0.868434 0.898873 0.465823
O O1 0.390155 0.502357 0.884042
O O2 0.374494 0.518791 0.596908
O O3 0.721209 0.252140 0.515862
O O4 0.501578 0.636435 0.937930
O O5 0.745088 0.623621 0.449007
O O6 0.877362 0.740719 0.390066
O O7 0.844044 0.771338 0.718642
O O8 0.524425 0.022516 0.757718
O O9 0.728791 0.612425 0.746216
O O10 0.832491 0.755588 0.011218
O O11 0.729859 0.619327 0.069333
O O12 0.412152 0.877185 0.803856
O O13 0.050743 0.101421 0.966027
O O14 0.634987 0.108425 0.594755
O O15 0.984803 0.871988 0.310132
O O16 0.081421 0.026862 0.321122
#
# Coordination Sequence:
#
# PCOD9071672 Si02
#       8
#     2   2   2   2   2   2   2   2
#     4   9  17  28  42  61  84 108 134 165 200 238
#     4   8  14  25  41  61  83 105 132 168 205 237
#     4   8  14  25  41  61  83 105 132 168 205 237
#     4   8  14  25  41  61  83 105 132 168 205 237
#     4   9  17  28  42  61  84 108 134 165 200 238
#     4   8  14  25  41  61  83 105 132 168 205 237
#     4   9  17  28  42  61  84 108 134 165 200 238
#     4   9  17  28  42  61  84 108 134 165 200 238
#
# _framework density 29.321877000000001
#
# number of rings (size 3 to 8) (size 9 to 14) (size 15 to 20)
#    0.000    3.500    0.000    1.500    0.000    2.000 
#    0.000    5.000    0.000    1.500    0.000   10.500 
#    0.000    0.000    0.000    0.000    0.000    0.000 
#
# Total GULP energy -89527.968672 kJ/mol
# GULP energy per Si atom -5595.498042 kJ/mol
# Density = 2.925514 g / cm^3
# Si number density = 29.321877 Si / 1000 Ang^3
#
#
#
# Elastic Constant Matrix: (Units=GPa)
#
#
# Indices 1 2 3 4 5 6 
#
# 1 186.8345 35.9513 59.3909 -2.7521 6.9405 22.6431
# 2 35.9513 70.9518 14.1420 2.8328 -15.5294 19.2112
# 3 59.3909 14.1420 73.5176 6.3646 0.3543 -10.8357
# 4 -2.7521 2.8328 6.3646 25.8830 -13.9696 -10.1098
# 5 6.9405 -15.5294 0.3543 -13.9696 77.5893 -7.1362
# 6 22.6431 19.2112 -10.8357 -10.1098 -7.1362 52.8367
#
#
#
# Elastic Compliance Matrix: (Units=1/GPa)
#
#
# Indices 1 2 3 4 5 6 
#
# 1 0.008701 -0.002035 -0.007342 0.000320 -0.001521 -0.004639
# 2 -0.002035 0.018056 -0.002555 -0.002543 0.002768 -0.006330
# 3 -0.007342 -0.002555 0.021420 -0.002436 0.000349 0.008049
# 4 0.000320 -0.002543 -0.002436 0.048791 0.009258 0.010874
# 5 -0.001521 0.002768 0.000349 0.009258 0.015574 0.003592
# 6 -0.004639 -0.006330 0.008049 0.010874 0.003592 0.027432
#
#
# Mechanical properties :
#
#
# Convention : Reuss Voigt Hill
#
# Bulk Modulus (GPa) = 41.13069 61.14135 51.13602
# Shear Modulus (GPa) = 29.07944 46.04978 37.56461
#
# Velocity S-wave (km/s) = 3.15259 3.96724 3.58315
# Velocity P-wave (km/s) = 5.22585 6.47166 5.88183
#
# Compressibility (1/GPa) = 0.02431274
#
# Stress axis : x y z
#
# Youngs Moduli (GPa) = 114.92698 55.38414 46.68469
#
# Poissons Ratio (x) = 0.11272 0.34275
# Poissons Ratio (y) = 0.23391 0.11929
# Poissons Ratio (z) = 0.84377 0.14151
#
# Static dielectric constant tensor:
#      x y z
#    x 2.188410 -0.031560 0.021800 
#    y -0.031560 2.310230 -0.008130 
#    z 0.021800 -0.008130 2.331060 
# 
# From -- ./inp_files/200814.got.cif
#   From: 2010.05.17/outbox.cif.g08.bks.cpg/sg2_101_cif.got.tgz:200814.got - 2010.06.03 11:33:40.
