data_PCOD9071262
_publ_section_title
;
Structure prediction by ZEFSAII (Michael W. Deem and Ramdas Pophale) SiO2 
 PCOD9071262
Probable space group: P -1
;
_chemical_formula_sum "Si O2"
_cell_formula_units_Z 12
_cell_length_a 11.848080
_cell_length_b 4.853675
_cell_length_c 13.507872
_cell_angle_alpha 74.323947
_cell_angle_beta 135.656204
_cell_angle_gamma 85.438405
_cell_volume 477.888899
_symmetry_space_group_name_H-M "P -1"
_symmetry_group_IT_number 2
_symmetry_cell_setting 'triclinic'
loop_
_space_group_symop_operation_xyz
x,y,z
-x,-y,-z
loop_
_atom_site_type_symbol
_atom_site_label
_atom_site_fract_x
_atom_site_fract_y
_atom_site_fract_z
Si Si1 0.604081 0.201321 0.663276
Si Si2 0.830993 0.941769 0.009060
Si Si3 0.621048 0.695600 0.049030
Si Si4 0.927489 0.745176 0.783657
Si Si5 0.262888 0.177078 0.548948
Si Si6 0.169885 0.685918 0.612974
O O1 0.500000 0.500000 0.500000
O O2 0.443724 0.147888 0.616792
O O3 0.746105 0.935306 0.710151
O O4 0.724514 0.193826 0.834658
O O5 0.698611 0.814037 0.993031
O O6 0.980272 0.618275 0.092761
O O7 0.935024 0.093356 0.128084
O O8 0.784695 0.514230 0.240807
O O9 0.500000 0.500000 0.000000
O O10 0.500000 0.000000 0.000000
O O11 0.870797 0.769463 0.631236
O O12 0.183108 0.458728 0.551162
O O13 0.305690 0.843074 0.658650
O O14 0.000000 0.000000 0.500000
#
# Coordination Sequence:
#
# PCOD9071262 Si02
#       6
#     2   2   2   2   2   2
#     4  12  27  49  78 111 150 200 252 309 375 447
#     4  12  27  49  75 110 152 197 249 312 372 443
#     4  12  26  47  74 108 148 195 246 304 371 441
#     4  12  27  48  75 111 152 199 248 307 375 443
#     4  12  27  48  76 112 152 197 250 310 370 444
#     4  12  26  47  76 110 147 196 251 308 369 442
#
# _framework density 25.110437999999998
#
# number of rings (size 3 to 8) (size 9 to 14) (size 15 to 20)
#    0.000    0.000    0.000   10.000    0.000    8.000 
#    0.000    0.000    0.000    0.000    0.000    0.000 
#    0.000    0.000    0.000    0.000    0.000    0.000 
#
# Total GULP energy -67184.516881 kJ/mol
# GULP energy per Si atom -5598.709740 kJ/mol
# Density = 2.505329 g / cm^3
# Si number density = 25.110438 Si / 1000 Ang^3
#
#
#
# Elastic Constant Matrix: (Units=GPa)
#
#
# Indices 1 2 3 4 5 6 
#
# 1 153.3445 46.0050 69.7292 16.2962 2.2885 -0.0410
# 2 46.0050 161.1885 58.3129 16.5579 6.0952 1.2503
# 3 69.7292 58.3129 169.8849 -11.6649 -7.8524 -3.2946
# 4 16.2962 16.5579 -11.6649 47.9155 6.6449 -0.7530
# 5 2.2885 6.0952 -7.8524 6.6449 42.6315 -5.2589
# 6 -0.0410 1.2503 -3.2946 -0.7530 -5.2589 46.3827
#
#
#
# Elastic Compliance Matrix: (Units=1/GPa)
#
#
# Indices 1 2 3 4 5 6 
#
# 1 0.008783 -0.000824 -0.003594 -0.003512 -0.000510 -0.000340
# 2 -0.000824 0.007710 -0.002569 -0.002858 -0.001156 -0.000568
# 3 -0.003594 -0.002569 0.008611 0.003994 0.001638 0.000928
# 4 -0.003512 -0.002858 0.003994 0.024366 -0.002406 0.000480
# 5 -0.000510 -0.001156 0.001638 -0.002406 0.024685 0.002907
# 6 -0.000340 -0.000568 0.000928 0.000480 0.002907 0.021978
#
#
# Mechanical properties :
#
#
# Convention : Reuss Voigt Hill
#
# Bulk Modulus (GPa) = 89.83678 92.50133 91.16906
# Shear Modulus (GPa) = 43.93027 48.07734 46.00380
#
# Velocity S-wave (km/s) = 4.18722 4.38040 4.28490
# Velocity P-wave (km/s) = 7.69619 7.90580 7.80170
#
# Compressibility (1/GPa) = 0.01113130
#
# Stress axis : x y z
#
# Youngs Moduli (GPa) = 113.85226 129.69788 116.12995
#
# Poissons Ratio (x) = 0.10689 0.41732
# Poissons Ratio (y) = 0.09383 0.29833
# Poissons Ratio (z) = 0.40913 0.33319
#
# Static dielectric constant tensor:
#      x y z
#    x 1.972300 -0.009170 -0.016000 
#    y -0.009170 1.924270 0.044620 
#    z -0.016000 0.044620 2.043990 
# 
# From -- ./inp_files/510292.got.cif
#   From: 2010.05.17/outbox.cif.g08.bks.cpg/sg2_256_cif.got.tgz:510292.got - 2010.06.03 11:33:40.
