data_PCOD9071707
_publ_section_title
;
Structure prediction by ZEFSAII (Michael W. Deem and Ramdas Pophale) SiO2 
 PCOD9071707
Probable space group: P -1
;
_chemical_formula_sum "Si O2"
_cell_formula_units_Z 10
_cell_length_a 7.009528
_cell_length_b 12.431622
_cell_length_c 14.997704
_cell_angle_alpha 159.783709
_cell_angle_beta 132.593618
_cell_angle_gamma 52.573793
_cell_volume 330.540151
_symmetry_space_group_name_H-M "P -1"
_symmetry_group_IT_number 2
_symmetry_cell_setting 'triclinic'
loop_
_space_group_symop_operation_xyz
x,y,z
-x,-y,-z
loop_
_atom_site_type_symbol
_atom_site_label
_atom_site_fract_x
_atom_site_fract_y
_atom_site_fract_z
Si Si1 0.223708 0.199966 0.573115
Si Si2 0.887696 0.413801 0.029363
Si Si3 0.524621 0.513280 0.751459
Si Si4 0.078911 0.087138 0.196142
Si Si5 0.690618 0.228534 0.333300
O O1 0.367846 0.442875 0.737836
O O2 0.257815 0.296175 0.761001
O O3 0.910490 0.201667 0.457126
O O4 0.263766 0.850962 0.284612
O O5 0.172497 0.524902 0.170230
O O6 0.930307 0.221885 0.985228
O O7 0.369658 0.260766 0.439700
O O8 0.538332 0.879494 0.012110
O O9 0.119792 0.728676 0.661491
O O10 0.000000 0.000000 0.000000
O O11 0.500000 0.500000 0.500000
#
# Coordination Sequence:
#
# PCOD9071707 Si02
#       5
#     2   2   2   2   2
#     4   9  19  35  44  58  63  75  88  90 106 119
#     4   9  19  35  44  58  63  75  88  90 106 119
#     4   8  18  36  50  46  72  76  74 100 104 108
#     4   9  19  35  44  58  63  75  88  90 106 119
#     4   9  19  35  44  58  63  75  88  90 106 119
#
# _framework density 30.253509999999999
#
# number of rings (size 3 to 8) (size 9 to 14) (size 15 to 20)
#    0.000    4.000    0.000    0.000    0.000   12.800 
#   21.600    6.000    0.000    0.000    0.000    0.000 
#    0.000    0.000    0.000    0.000    0.000    0.000 
#
# Total GULP energy -56023.194891 kJ/mol
# GULP energy per Si atom -5602.319489 kJ/mol
# Density = 3.018465 g / cm^3
# Si number density = 30.253510 Si / 1000 Ang^3
#
#
#
# Elastic Constant Matrix: (Units=GPa)
#
#
# Indices 1 2 3 4 5 6 
#
# 1 235.8377 30.7088 109.2222 8.5642 -7.9505 2.4554
# 2 30.7088 102.2601 24.3141 5.8756 4.3139 13.8846
# 3 109.2222 24.3141 256.6120 -19.8485 6.2129 8.8118
# 4 8.5642 5.8756 -19.8485 54.1788 -0.1724 6.7044
# 5 -7.9505 4.3139 6.2129 -0.1724 75.8737 5.4755
# 6 2.4554 13.8846 8.8118 6.7044 5.4755 50.0970
#
#
#
# Elastic Compliance Matrix: (Units=1/GPa)
#
#
# Indices 1 2 3 4 5 6 
#
# 1 0.005607 -0.001117 -0.002455 -0.001738 0.000804 0.000611
# 2 -0.001117 0.010661 -0.000496 -0.000835 -0.000493 -0.002647
# 3 -0.002455 -0.000496 0.005226 0.002470 -0.000584 -0.000928
# 4 -0.001738 -0.000835 0.002470 0.020073 -0.000090 -0.002794
# 5 0.000804 -0.000493 -0.000584 -0.000090 0.013430 -0.001256
# 6 0.000611 -0.002647 -0.000928 -0.002794 -0.001256 0.021339
#
#
# Mechanical properties :
#
#
# Convention : Reuss Voigt Hill
#
# Bulk Modulus (GPa) = 74.87424 102.57779 88.72602
# Shear Modulus (GPa) = 56.22681 64.72755 60.47718
#
# Velocity S-wave (km/s) = 4.31573 4.63050 4.47588
# Velocity P-wave (km/s) = 7.04534 7.91002 7.49016
#
# Compressibility (1/GPa) = 0.01335573
#
# Stress axis : x y z
#
# Youngs Moduli (GPa) = 178.35972 93.80295 191.34718
#
# Poissons Ratio (x) = 0.10477 0.46984
# Poissons Ratio (y) = 0.19922 0.09500
# Poissons Ratio (z) = 0.43795 0.04657
#
# Static dielectric constant tensor:
#      x y z
#    x 2.471290 -0.022360 -0.176280 
#    y -0.022360 2.397460 -0.006590 
#    z -0.176280 -0.006590 2.492200 
# 
# From -- ./inp_files/561288.got.cif
#   From: 2010.05.17/outbox.cif.g08.bks.cpg/sg2_281_cif.got.tgz:561288.got - 2010.06.03 11:33:40.
