data_PCOD9071486
_publ_section_title
;
Structure prediction by ZEFSAII (Michael W. Deem and Ramdas Pophale) SiO2 
 PCOD9071486
Probable space group: P -1
;
_chemical_formula_sum "Si O2"
_cell_formula_units_Z 10
_cell_length_a 10.729085
_cell_length_b 13.298528
_cell_length_c 12.215178
_cell_angle_alpha 35.031533
_cell_angle_beta 155.801909
_cell_angle_gamma 142.670101
_cell_volume 401.358117
_symmetry_space_group_name_H-M "P -1"
_symmetry_group_IT_number 2
_symmetry_cell_setting 'triclinic'
loop_
_space_group_symop_operation_xyz
x,y,z
-x,-y,-z
loop_
_atom_site_type_symbol
_atom_site_label
_atom_site_fract_x
_atom_site_fract_y
_atom_site_fract_z
Si Si1 0.141951 0.927068 0.312145
Si Si2 0.899505 0.240075 0.960673
Si Si3 0.127073 0.626530 0.757021
Si Si4 0.266551 0.389460 0.821401
Si Si5 0.183554 0.202108 0.450530
O O1 0.140452 0.776374 0.540553
O O2 0.925112 0.814919 0.144353
O O3 0.500000 0.000000 0.500000
O O4 0.988600 0.078327 0.109329
O O5 0.112539 0.265947 0.216151
O O6 0.545605 0.202906 0.748901
O O7 0.963385 0.423120 0.780246
O O8 0.946417 0.681698 0.666514
O O9 0.488774 0.619727 0.072447
O O10 0.000000 0.500000 0.500000
O O11 0.500000 0.500000 0.000000
O O12 0.000000 0.000000 0.500000
#
# Coordination Sequence:
#
# PCOD9071486 Si02
#       5
#     2   2   2   2   2
#     4  12  29  52  84 120 164 215 274 335 405 483
#     4  12  29  48  82 118 159 213 267 330 408 477
#     4  12  28  50  82 116 167 209 272 331 408 481
#     4  12  27  50  78 113 161 210 267 329 401 477
#     4  12  26  51  80 117 160 210 268 333 402 484
#
# _framework density 24.915403999999999
#
# number of rings (size 3 to 8) (size 9 to 14) (size 15 to 20)
#    0.000    0.000    4.000    4.200    5.600    2.400 
#    0.000    0.000    0.000    0.000    0.000    0.000 
#    0.000    0.000    0.000    0.000    0.000    0.000 
#
# Total GULP energy -56043.128241 kJ/mol
# GULP energy per Si atom -5604.312824 kJ/mol
# Density = 2.485870 g / cm^3
# Si number density = 24.915404 Si / 1000 Ang^3
#
#
#
# Elastic Constant Matrix: (Units=GPa)
#
#
# Indices 1 2 3 4 5 6 
#
# 1 129.9254 54.1083 57.4141 -21.3205 21.9978 -18.2233
# 2 54.1083 213.9767 64.8889 -18.5147 32.8049 -9.5544
# 3 57.4141 64.8889 170.7978 -5.7538 47.9998 -22.1746
# 4 -21.3205 -18.5147 -5.7538 58.7617 0.7290 1.7817
# 5 21.9978 32.8049 47.9998 0.7290 68.6938 -5.2704
# 6 -18.2233 -9.5544 -22.1746 1.7817 -5.2704 50.7801
#
#
#
# Elastic Compliance Matrix: (Units=1/GPa)
#
#
# Indices 1 2 3 4 5 6 
#
# 1 0.010238 -0.001407 -0.002270 0.002993 -0.000882 0.002222
# 2 -0.001407 0.005732 -0.001291 0.001192 -0.001411 -0.000179
# 3 -0.002270 -0.001291 0.008663 -0.000395 -0.004532 0.002269
# 4 0.002993 0.001192 -0.000395 0.018448 -0.001422 0.000331
# 5 -0.000882 -0.001411 -0.004532 -0.001422 0.018651 -0.000575
# 6 0.002222 -0.000179 0.002269 0.000331 -0.000575 0.021376
#
#
# Mechanical properties :
#
#
# Convention : Reuss Voigt Hill
#
# Bulk Modulus (GPa) = 68.04208 96.39139 82.21673
# Shear Modulus (GPa) = 51.04961 58.19969 54.62465
#
# Velocity S-wave (km/s) = 4.53141 4.83835 4.68739
# Velocity P-wave (km/s) = 7.39910 8.36566 7.89718
#
# Compressibility (1/GPa) = 0.01469679
#
# Stress axis : x y z
#
# Youngs Moduli (GPa) = 97.67796 174.44988 115.42941
#
# Poissons Ratio (x) = 0.24548 0.26200
# Poissons Ratio (y) = 0.13745 0.14905
# Poissons Ratio (z) = 0.22171 0.22526
#
# Static dielectric constant tensor:
#      x y z
#    x 2.129310 0.002290 -0.108310 
#    y 0.002290 1.983060 -0.047990 
#    z -0.108310 -0.047990 2.005850 
# 
# From -- ./inp_files/289288.got.cif
#   From: 2010.05.17/outbox.cif.g08.bks.cpg/sg2_145_cif.got.tgz:289288.got - 2010.06.03 11:33:40.
