data_PCOD9071858
_publ_section_title
;
Structure prediction by ZEFSAII (Michael W. Deem and Ramdas Pophale) SiO2 
 PCOD9071858
Probable space group: P -1
;
_chemical_formula_sum "Si O2"
_cell_formula_units_Z 12
_cell_length_a 9.614842
_cell_length_b 11.644413
_cell_length_c 8.434260
_cell_angle_alpha 62.928233
_cell_angle_beta 97.250028
_cell_angle_gamma 142.721459
_cell_volume 457.971072
_symmetry_space_group_name_H-M "P -1"
_symmetry_group_IT_number 2
_symmetry_cell_setting 'triclinic'
loop_
_space_group_symop_operation_xyz
x,y,z
-x,-y,-z
loop_
_atom_site_type_symbol
_atom_site_label
_atom_site_fract_x
_atom_site_fract_y
_atom_site_fract_z
Si Si1 0.775753 0.094362 0.367597
Si Si2 0.968267 0.624708 0.462057
Si Si3 0.408993 0.477075 0.694447
Si Si4 0.881053 0.923187 0.302734
Si Si5 0.505206 0.922519 0.888505
Si Si6 0.544781 0.735500 0.818913
O O1 0.973452 0.307368 0.387626
O O2 0.870420 0.060370 0.277108
O O3 0.637005 0.096561 0.245911
O O4 0.578381 0.868335 0.599040
O O5 0.719607 0.508309 0.440228
O O6 0.000000 0.500000 0.500000
O O7 0.197705 0.863154 0.245489
O O8 0.707708 0.712390 0.541592
O O9 0.269546 0.238210 0.775349
O O10 0.384713 0.500877 0.857042
O O11 0.166443 0.091681 0.227878
O O12 0.419137 0.710121 0.966948
O O13 0.500000 0.000000 0.000000
#
# Coordination Sequence:
#
# PCOD9071858 Si02
#       6
#     2   2   2   2   2   2
#     4  10  19  35  57  84 115 149 193 241 286 342
#     4  11  20  35  61  91 114 149 203 244 281 343
#     4  10  18  29  58  91 116 140 188 248 294 330
#     4  10  19  32  57  93 119 142 190 247 297 336
#     4  11  23  40  57  81 123 162 190 237 298 346
#     4  10  19  37  59  86 120 150 193 240 293 343
#
# _framework density 26.202527
#
# number of rings (size 3 to 8) (size 9 to 14) (size 15 to 20)
#    0.000    1.667    3.333    7.000    2.333    0.000 
#    0.000    4.167    0.000    1.000    0.000    0.000 
#    0.000    0.000    0.000    0.000    0.000    0.000 
#
# Total GULP energy -67096.972848 kJ/mol
# GULP energy per Si atom -5591.414404 kJ/mol
# Density = 2.614289 g / cm^3
# Si number density = 26.202527 Si / 1000 Ang^3
#
#
#
# Elastic Constant Matrix: (Units=GPa)
#
#
# Indices 1 2 3 4 5 6 
#
# 1 178.0338 71.2355 56.9580 35.4319 -43.1871 -21.3625
# 2 71.2355 141.3992 61.2206 51.6056 -27.3579 -30.1873
# 3 56.9580 61.2206 108.8468 23.1652 -25.8122 -9.6893
# 4 35.4319 51.6056 23.1652 36.7838 -11.1343 -21.1695
# 5 -43.1871 -27.3579 -25.8122 -11.1343 49.3893 29.4594
# 6 -21.3625 -30.1873 -9.6893 -21.1695 29.4594 53.3249
#
#
#
# Elastic Compliance Matrix: (Units=1/GPa)
#
#
# Indices 1 2 3 4 5 6 
#
# 1 0.009113 -0.001008 -0.001382 -0.006456 0.007568 -0.003915
# 2 -0.001008 0.016981 -0.004345 -0.019835 0.002173 -0.000655
# 3 -0.001382 -0.004345 0.013783 -0.002120 0.005840 -0.004577
# 4 -0.006456 -0.019835 -0.002120 0.070799 -0.015025 0.022207
# 5 0.007568 0.002173 0.005840 -0.015025 0.041935 -0.023808
# 6 -0.003915 -0.000655 -0.004577 0.022207 -0.023808 0.037951
#
#
# Mechanical properties :
#
#
# Convention : Reuss Voigt Hill
#
# Bulk Modulus (GPa) = 37.86845 89.67866 63.77355
# Shear Modulus (GPa) = 23.49250 43.82400 33.65825
#
# Velocity S-wave (km/s) = 2.99753 4.09407 3.58794
# Velocity P-wave (km/s) = 5.14430 7.52649 6.44639
#
# Compressibility (1/GPa) = 0.02640721
#
# Stress axis : x y z
#
# Youngs Moduli (GPa) = 109.72995 58.88930 72.55520
#
# Poissons Ratio (x) = 0.05939 0.10024
# Poissons Ratio (y) = 0.11066 0.31524
# Poissons Ratio (z) = 0.15160 0.25587
#
# Static dielectric constant tensor:
#      x y z
#    x 2.072390 -0.154620 0.009760 
#    y -0.154620 2.257240 -0.003080 
#    z 0.009760 -0.003080 2.147040 
# 
# From -- ./inp_files/164067.got.cif
#   From: 2010.05.17/outbox.cif.g08.bks.cpg/sg2_83_cif.got.tgz:164067.got - 2010.06.03 11:33:40.
