data_PCOD9071577
_publ_section_title
;
Structure prediction by ZEFSAII (Michael W. Deem and Ramdas Pophale) SiO2 
 PCOD9071577
Probable space group: P -1
;
_chemical_formula_sum "Si O2"
_cell_formula_units_Z 7
_cell_length_a 5.233440
_cell_length_b 9.087666
_cell_length_c 9.680976
_cell_angle_alpha 46.565201
_cell_angle_beta 111.987771
_cell_angle_gamma 127.317591
_cell_volume 265.179647
_symmetry_space_group_name_H-M "P -1"
_symmetry_group_IT_number 2
_symmetry_cell_setting 'triclinic'
loop_
_space_group_symop_operation_xyz
x,y,z
-x,-y,-z
loop_
_atom_site_type_symbol
_atom_site_label
_atom_site_fract_x
_atom_site_fract_y
_atom_site_fract_z
Si Si1 0.626999 0.915113 0.457913
Si Si2 0.806098 0.259700 0.023072
Si Si3 0.347595 0.396432 0.682869
Si Si4 0.000000 0.000000 0.000000
O O1 0.409597 0.632677 0.610975
O O2 0.500000 0.000000 0.500000
O O3 0.653275 0.041785 0.237180
O O4 0.000000 0.000000 0.500000
O O5 0.508439 0.270410 0.884464
O O6 0.000000 0.500000 0.000000
O O7 0.985455 0.197782 0.981661
O O8 0.500000 0.500000 0.500000
O O9 0.001991 0.165412 0.762328
#
# Coordination Sequence:
#
# PCOD9071577 Si02
#       4
#     2   2   2   1
#     4  12  28  50  82 119 163 218 279 340 417 493
#     4  12  27  50  78 117 161 212 277 337 408 498
#     4  12  28  49  77 115 164 212 269 345 410 489
#     4  12  28  48  80 116 164 210 280 334 420 488
#
# _framework density 26.397200999999999
#
# number of rings (size 3 to 8) (size 9 to 14) (size 15 to 20)
#    0.000    0.000    5.714    2.571    4.000    3.429 
#    0.000    0.000    0.000    0.000    0.000    0.000 
#    0.000    0.000    0.000    0.000    0.000    0.000 
#
# Total GULP energy -38987.215275 kJ/mol
# GULP energy per Si atom -5569.602182 kJ/mol
# Density = 2.633712 g / cm^3
# Si number density = 26.397201 Si / 1000 Ang^3
#
#
#
# Elastic Constant Matrix: (Units=GPa)
#
#
# Indices 1 2 3 4 5 6 
#
# 1 159.6047 55.5346 43.4657 14.1551 -1.5673 -41.6917
# 2 55.5346 155.8726 35.0273 -24.1479 8.0900 -55.7202
# 3 43.4657 35.0273 269.9149 -33.7605 -2.1555 -17.8521
# 4 14.1551 -24.1479 -33.7605 68.5691 -3.3569 3.0802
# 5 -1.5673 8.0900 -2.1555 -3.3569 46.1718 13.7812
# 6 -41.6917 -55.7202 -17.8521 3.0802 13.7812 67.8255
#
#
#
# Elastic Compliance Matrix: (Units=1/GPa)
#
#
# Indices 1 2 3 4 5 6 
#
# 1 0.008514 -0.001915 -0.001298 -0.003271 -0.000754 0.003620
# 2 -0.001915 0.010933 -0.000135 0.003590 -0.004254 0.008470
# 3 -0.001298 -0.000135 0.004226 0.002316 0.000336 0.000030
# 4 -0.003271 0.003590 0.002316 0.017657 0.000457 0.000654
# 5 -0.000754 -0.004254 0.000336 0.000457 0.025111 -0.008993
# 6 0.003620 0.008470 0.000030 0.000654 -0.008993 0.025733
#
#
# Mechanical properties :
#
#
# Convention : Reuss Voigt Hill
#
# Bulk Modulus (GPa) = 58.90617 94.82751 76.86684
# Shear Modulus (GPa) = 47.83377 66.60424 57.21901
#
# Velocity S-wave (km/s) = 4.26147 5.02855 4.66082
# Velocity P-wave (km/s) = 6.82475 8.34964 7.62541
#
# Compressibility (1/GPa) = 0.01697615
#
# Stress axis : x y z
#
# Youngs Moduli (GPa) = 117.45853 91.46543 236.64118
#
# Poissons Ratio (x) = 0.17515 0.30720
# Poissons Ratio (y) = 0.22493 0.03197
# Poissons Ratio (z) = 0.15248 0.01236
#
# Static dielectric constant tensor:
#      x y z
#    x 1.778870 -0.237860 0.062270 
#    y -0.237860 1.865720 0.140490 
#    z 0.062270 0.140490 2.098720 
# 
# From -- ./inp_files/22883.got.cif
#   From: 2010.05.17/outbox.cif.g08.bks.cpg/sg2_12_cif.got.tgz:22883.got - 2010.06.03 11:33:40.
