data_PCOD9071306
_publ_section_title
;
Structure prediction by ZEFSAII (Michael W. Deem and Ramdas Pophale) SiO2 
 PCOD9071306
Probable space group: P -1
;
_chemical_formula_sum "Si O2"
_cell_formula_units_Z 12
_cell_length_a 6.909029
_cell_length_b 10.774713
_cell_length_c 8.063663
_cell_angle_alpha 120.645895
_cell_angle_beta 81.227413
_cell_angle_gamma 114.182343
_cell_volume 469.909561
_symmetry_space_group_name_H-M "P -1"
_symmetry_group_IT_number 2
_symmetry_cell_setting 'triclinic'
loop_
_space_group_symop_operation_xyz
x,y,z
-x,-y,-z
loop_
_atom_site_type_symbol
_atom_site_label
_atom_site_fract_x
_atom_site_fract_y
_atom_site_fract_z
Si Si1 0.411495 0.125237 0.945253
Si Si2 0.727174 0.615306 0.982048
Si Si3 0.831899 0.210384 0.401243
Si Si4 0.762369 0.870582 0.664289
Si Si5 0.151494 0.784806 0.212874
Si Si6 0.617104 0.416560 0.544197
O O1 0.658935 0.213351 0.929711
O O2 0.329929 0.954755 0.759216
O O3 0.286383 0.219701 0.941680
O O4 0.650136 0.883851 0.860540
O O5 0.737074 0.535457 0.752827
O O6 0.500000 0.500000 0.000000
O O7 0.204539 0.768214 0.384874
O O8 0.071700 0.347782 0.901666
O O9 0.783043 0.345756 0.405283
O O10 0.058315 0.195284 0.358729
O O11 0.585391 0.742037 0.486307
O O12 0.853206 0.042121 0.688883
O O13 0.500000 0.500000 0.500000
#
# Coordination Sequence:
#
# PCOD9071306 Si02
#       6
#     2   2   2   2   2   2
#     4  12  26  47  79 117 156 206 262 316 382 472
#     4  12  28  49  76 115 162 200 261 325 389 457
#     4  12  27  47  82 114 154 208 263 314 385 467
#     4  12  26  48  79 118 156 202 263 316 388 469
#     4  12  27  48  83 116 155 208 258 319 388 468
#     4  12  28  50  72 113 157 201 257 326 384 452
#
# _framework density 25.536829000000001
#
# number of rings (size 3 to 8) (size 9 to 14) (size 15 to 20)
#    0.000    0.000    5.000    4.000    2.333    4.667 
#    0.000    0.000    0.000    0.000    0.000    0.000 
#    0.000    0.000    0.000    0.000    0.000    0.000 
#
# Total GULP energy -67287.588452 kJ/mol
# GULP energy per Si atom -5607.299038 kJ/mol
# Density = 2.547871 g / cm^3
# Si number density = 25.536829 Si / 1000 Ang^3
#
#
#
# Elastic Constant Matrix: (Units=GPa)
#
#
# Indices 1 2 3 4 5 6 
#
# 1 175.2322 39.7119 65.4919 7.1910 13.0813 -12.1514
# 2 39.7119 77.6342 45.8668 7.2369 0.3952 -18.9087
# 3 65.4919 45.8668 122.1784 5.7387 3.1700 -17.2084
# 4 7.1910 7.2369 5.7387 45.0125 2.2174 -10.1101
# 5 13.0813 0.3952 3.1700 2.2174 39.7256 11.9760
# 6 -12.1514 -18.9087 -17.2084 -10.1101 11.9760 52.5602
#
#
#
# Elastic Compliance Matrix: (Units=1/GPa)
#
#
# Indices 1 2 3 4 5 6 
#
# 1 0.007539 -0.001787 -0.003222 -0.000272 -0.002352 0.000529
# 2 -0.001787 0.017957 -0.005125 -0.000967 -0.000417 0.004278
# 3 -0.003222 -0.005125 0.012041 0.000143 -0.000293 0.001448
# 4 -0.000272 -0.000967 0.000143 0.023603 -0.002672 0.004785
# 5 -0.002352 -0.000417 -0.000293 -0.002672 0.028473 -0.007792
# 6 0.000529 0.004278 0.001448 0.004785 -0.007792 0.023857
#
#
# Mechanical properties :
#
#
# Convention : Reuss Voigt Hill
#
# Bulk Modulus (GPa) = 57.90533 75.24288 66.57410
# Shear Modulus (GPa) = 35.84397 42.39128 39.11762
#
# Velocity S-wave (km/s) = 3.75055 4.07874 3.91808
# Velocity P-wave (km/s) = 6.44050 7.19096 6.82605
#
# Compressibility (1/GPa) = 0.01726957
#
# Stress axis : x y z
#
# Youngs Moduli (GPa) = 132.63726 55.68938 83.05184
#
# Poissons Ratio (x) = 0.09950 0.26762
# Poissons Ratio (y) = 0.23698 0.42561
# Poissons Ratio (z) = 0.42740 0.28538
#
# Static dielectric constant tensor:
#      x y z
#    x 2.029340 0.022380 -0.060440 
#    y 0.022380 2.051020 -0.008500 
#    z -0.060440 -0.008500 1.964690 
# 
# From -- ./inp_files/365422.got.cif
#   From: 2010.05.17/outbox.cif.g08.bks.cpg/sg2_183_cif.got.tgz:365422.got - 2010.06.03 11:33:40.
