data_PCOD9071532
_publ_section_title
;
Structure prediction by ZEFSAII (Michael W. Deem and Ramdas Pophale) SiO2 
 PCOD9071532
Probable space group: P -1
;
_chemical_formula_sum "Si O2"
_cell_formula_units_Z 13
_cell_length_a 21.763461
_cell_length_b 6.771026
_cell_length_c 4.720070
_cell_angle_alpha 89.737323
_cell_angle_beta 95.921758
_cell_angle_gamma 132.913058
_cell_volume 504.634306
_symmetry_space_group_name_H-M "P -1"
_symmetry_group_IT_number 2
_symmetry_cell_setting 'triclinic'
loop_
_space_group_symop_operation_xyz
x,y,z
-x,-y,-z
loop_
_atom_site_type_symbol
_atom_site_label
_atom_site_fract_x
_atom_site_fract_y
_atom_site_fract_z
Si Si1 0.417621 0.877759 0.134926
Si Si2 0.347979 0.949697 0.576093
Si Si3 0.000000 0.000000 0.500000
Si Si4 0.797062 0.872540 0.160446
Si Si5 0.831508 0.574621 0.774188
Si Si6 0.935103 0.474827 0.169625
Si Si7 0.316579 0.305962 0.379848
O O1 0.422065 0.027664 0.408164
O O2 0.377632 0.593325 0.252299
O O3 0.360004 0.875938 0.886686
O O4 0.500000 0.000000 0.000000
O O5 0.255105 0.113053 0.095251
O O6 0.256140 0.687604 0.406803
O O7 0.354306 0.198907 0.553837
O O8 0.980184 0.726877 0.396551
O O9 0.903502 0.804425 0.590198
O O10 0.874759 0.180222 0.282853
O O11 0.819231 0.724152 0.996340
O O12 0.738384 0.707930 0.403497
O O13 0.877048 0.493869 0.955309
O O14 0.000000 0.500000 0.000000
#
# Coordination Sequence:
#
# PCOD9071532 Si02
#       7
#     2   2   1   2   2   2   2
#     4  12  29  52  85 129 169 211 274 355 432 513
#     4  12  27  51  85 121 166 223 282 343 421 525
#     4  12  28  46  78 110 172 214 288 360 426 480
#     4  12  27  47  80 117 164 220 287 349 420 506
#     4  12  28  48  78 117 163 225 290 347 427 507
#     4  12  28  49  73 119 167 225 288 362 427 498
#     4  12  27  49  83 121 162 222 276 348 423 508
#
# _framework density 25.761227999999999
#
# number of rings (size 3 to 8) (size 9 to 14) (size 15 to 20)
#    0.000    0.000    4.615    3.692    4.308    1.846 
#    0.000    0.000    0.000    0.000    0.000    0.000 
#    0.000    0.000    0.000    0.000    0.000    0.000 
#
# Total GULP energy -72658.918000 kJ/mol
# GULP energy per Si atom -5589.147538 kJ/mol
# Density = 2.570259 g / cm^3
# Si number density = 25.761228 Si / 1000 Ang^3
#
#
#
# Elastic Constant Matrix: (Units=GPa)
#
#
# Indices 1 2 3 4 5 6 
#
# 1 125.2562 72.6928 49.4707 -20.2181 -0.9712 -19.8420
# 2 72.6928 158.3090 69.9255 -15.4548 -16.8134 -39.5608
# 3 49.4707 69.9255 157.8963 -20.4881 -21.4103 -2.1624
# 4 -20.2181 -15.4548 -20.4881 43.7383 -3.2285 -6.2974
# 5 -0.9712 -16.8134 -21.4103 -3.2285 69.7120 -7.4917
# 6 -19.8420 -39.5608 -2.1624 -6.2974 -7.4917 32.2673
#
#
#
# Elastic Compliance Matrix: (Units=1/GPa)
#
#
# Indices 1 2 3 4 5 6 
#
# 1 0.011873 -0.003521 -0.001694 0.003904 -0.000649 0.003481
# 2 -0.003521 0.015313 -0.004188 0.004794 0.004549 0.018320
# 3 -0.001694 -0.004188 0.008990 0.001316 0.001248 -0.005028
# 4 0.003904 0.004794 0.001316 0.029507 0.004615 0.015197
# 5 -0.000649 0.004549 0.001248 0.004615 0.017119 0.010136
# 6 0.003481 0.018320 -0.005028 0.015197 0.010136 0.060575
#
#
# Mechanical properties :
#
#
# Convention : Reuss Voigt Hill
#
# Bulk Modulus (GPa) = 57.57760 91.73771 74.65766
# Shear Modulus (GPa) = 29.76641 45.76836 37.76738
#
# Velocity S-wave (km/s) = 3.40291 4.21959 3.83306
# Velocity P-wave (km/s) = 6.15132 7.70896 6.97376
#
# Compressibility (1/GPa) = 0.01736786
#
# Stress axis : x y z
#
# Youngs Moduli (GPa) = 84.22447 65.30404 111.23329
#
# Poissons Ratio (x) = 0.22997 0.18846
# Poissons Ratio (y) = 0.29660 0.46588
# Poissons Ratio (z) = 0.14270 0.27352
#
# Static dielectric constant tensor:
#      x y z
#    x 2.113000 0.012930 0.060450 
#    y 0.012930 1.968470 0.006360 
#    z 0.060450 0.006360 2.009550 
# 
# From -- ./inp_files/102597.got.cif
#   From: 2010.05.17/outbox.cif.g08.bks.cpg/sg2_52_cif.got.tgz:102597.got - 2010.06.03 11:33:40.
