data_PCOD9071909
_publ_section_title
;
Structure prediction by ZEFSAII (Michael W. Deem and Ramdas Pophale) SiO2 
 PCOD9071909
Probable space group: P -1
;
_chemical_formula_sum "Si O2"
_cell_formula_units_Z 15
_cell_length_a 11.408084
_cell_length_b 14.108975
_cell_length_c 7.682169
_cell_angle_alpha 122.891747
_cell_angle_beta 124.217567
_cell_angle_gamma 28.475842
_cell_volume 483.759260
_symmetry_space_group_name_H-M "P -1"
_symmetry_group_IT_number 2
_symmetry_cell_setting 'triclinic'
loop_
_space_group_symop_operation_xyz
x,y,z
-x,-y,-z
loop_
_atom_site_type_symbol
_atom_site_label
_atom_site_fract_x
_atom_site_fract_y
_atom_site_fract_z
Si Si1 0.527745 0.952590 0.721952
Si Si2 0.335537 0.869198 0.325803
Si Si3 0.046740 0.502307 0.839639
Si Si4 0.693890 0.316511 0.113747
Si Si5 0.727199 0.438994 0.767759
Si Si6 0.000000 0.000000 0.500000
Si Si7 0.257176 0.002902 0.857580
Si Si8 0.144660 0.579184 0.534146
O O1 0.410634 0.953232 0.471470
O O2 0.800183 0.723451 0.774759
O O3 0.346848 0.025544 0.799698
O O4 0.586184 0.046543 0.902989
O O5 0.116735 0.981801 0.396103
O O6 0.604434 0.641126 0.394545
O O7 0.265118 0.836796 0.070111
O O8 0.072618 0.372929 0.617479
O O9 0.000000 0.500000 0.000000
O O10 0.240279 0.476408 0.989867
O O11 0.535946 0.438802 0.280126
O O12 0.912355 0.267216 0.258802
O O13 0.500000 0.500000 0.000000
O O14 0.800971 0.430996 0.632219
O O15 0.948048 0.204486 0.776092
O O16 0.726774 0.138591 0.312196
#
# Coordination Sequence:
#
# PCOD9071909 Si02
#       8
#     2   2   2   2   2   1   2   2
#     4   8  15  28  45  65  94 121 152 193 233 274
#     4   9  18  32  48  69  95 123 155 197 238 278
#     4   8  15  28  47  73  98 124 160 198 232 276
#     4  10  19  30  44  69 102 126 155 199 238 275
#     4  10  18  30  50  72  96 127 161 193 235 288
#     4  10  18  30  48  64  90 122 158 194 232 280
#     4   9  16  27  45  69  89 119 158 192 229 277
#     4   9  17  31  50  71  98 126 154 195 241 280
#
# _framework density 31.007158
#
# number of rings (size 3 to 8) (size 9 to 14) (size 15 to 20)
#    0.000    2.933    0.000    2.000    0.000    0.000 
#    0.000   12.000    0.000    7.200    0.000    3.733 
#    0.000  102.400    0.000    0.000    0.000    0.000 
#
# Total GULP energy -83708.611290 kJ/mol
# GULP energy per Si atom -5580.574086 kJ/mol
# Density = 3.093658 g / cm^3
# Si number density = 31.007158 Si / 1000 Ang^3
#
#
#
# Elastic Constant Matrix: (Units=GPa)
#
#
# Indices 1 2 3 4 5 6 
#
# 1 64.4283 13.9192 6.0834 5.6622 3.7359 -9.5036
# 2 13.9192 85.2843 11.3478 -10.3101 4.0924 -11.9836
# 3 6.0834 11.3478 186.4646 -26.1834 30.7317 -26.4960
# 4 5.6622 -10.3101 -26.1834 61.7048 -14.4040 12.3829
# 5 3.7359 4.0924 30.7317 -14.4040 75.0974 -3.4472
# 6 -9.5036 -11.9836 -26.4960 12.3829 -3.4472 56.1942
#
#
#
# Elastic Compliance Matrix: (Units=1/GPa)
#
#
# Indices 1 2 3 4 5 6 
#
# 1 0.016828 -0.002628 -0.000234 -0.002872 -0.001023 0.002746
# 2 -0.002628 0.012657 -0.000158 0.001927 -0.000044 0.001753
# 3 -0.000234 -0.000158 0.006309 0.001695 -0.002127 0.002398
# 4 -0.002872 0.001927 0.001695 0.018818 0.002804 -0.003250
# 5 -0.001023 -0.000044 -0.002127 0.002804 0.014736 -0.000899
# 6 0.002746 0.001753 0.002398 -0.003250 -0.000899 0.020425
#
#
# Mechanical properties :
#
#
# Convention : Reuss Voigt Hill
#
# Bulk Modulus (GPa) = 33.60663 44.31977 38.96320
# Shear Modulus (GPa) = 47.29057 58.92107 53.10582
#
# Velocity S-wave (km/s) = 3.90955 4.36390 4.14296
# Velocity P-wave (km/s) = 5.58940 6.30206 5.95640
#
# Compressibility (1/GPa) = 0.02975604
#
# Stress axis : x y z
#
# Youngs Moduli (GPa) = 59.42616 79.00944 158.49477
#
# Poissons Ratio (x) = 0.20761 0.03703
# Poissons Ratio (y) = 0.15615 0.02497
# Poissons Ratio (z) = 0.01388 0.01245
#
# Static dielectric constant tensor:
#      x y z
#    x 2.254000 -0.101660 -0.247690 
#    y -0.101660 2.157530 -0.256140 
#    z -0.247690 -0.256140 2.302570 
# 
# From -- ./inp_files/282346.got.cif
#   From: 2010.05.17/outbox.cif.g08.bks.cpg/sg2_142_cif.got.tgz:282346.got - 2010.06.03 11:33:40.
