data_PCOD9071839
_publ_section_title
;
Structure prediction by ZEFSAII (Michael W. Deem and Ramdas Pophale) SiO2 
 PCOD9071839
Probable space group: P -1
;
_chemical_formula_sum "Si O2"
_cell_formula_units_Z 16
_cell_length_a 14.331990
_cell_length_b 11.683929
_cell_length_c 17.053235
_cell_angle_alpha 36.081229
_cell_angle_beta 24.256606
_cell_angle_gamma 32.067363
_cell_volume 614.510463
_symmetry_space_group_name_H-M "P -1"
_symmetry_group_IT_number 2
_symmetry_cell_setting 'triclinic'
loop_
_space_group_symop_operation_xyz
x,y,z
-x,-y,-z
loop_
_atom_site_type_symbol
_atom_site_label
_atom_site_fract_x
_atom_site_fract_y
_atom_site_fract_z
Si Si1 0.466358 0.106225 0.219018
Si Si2 0.777204 0.621984 0.221364
Si Si3 0.733344 0.010487 0.359034
Si Si4 0.337979 0.757694 0.862842
Si Si5 0.215186 0.711820 0.230131
Si Si6 0.472837 0.789300 0.114766
Si Si7 0.737128 0.389106 0.239007
Si Si8 0.898438 0.541874 0.791259
O O1 0.561117 0.111903 0.230981
O O2 0.180685 0.280585 0.315657
O O3 0.543642 0.863870 0.265591
O O4 0.640012 0.201013 0.989537
O O5 0.752500 0.435320 0.293077
O O6 0.852414 0.555209 0.291560
O O7 0.000482 0.649614 0.985747
O O8 0.823505 0.106399 0.162668
O O9 0.680335 0.193433 0.364208
O O10 0.500000 0.000000 0.500000
O O11 0.943017 0.787584 0.358315
O O12 0.601447 0.543414 0.755579
O O13 0.166094 0.647054 0.088339
O O14 0.214567 0.836775 0.241241
O O15 0.529756 0.619428 0.234776
O O16 0.692696 0.665305 0.950013
O O17 0.500000 0.000000 0.000000
#
# Coordination Sequence:
#
# PCOD9071839 Si02
#       8
#     2   2   2   2   2   2   2   2
#     4  10  18  31  55  82 111 137 168 218 294 333
#     4  10  18  29  54  79 114 139 160 226 291 321
#     4  12  24  38  54  76 109 158 195 215 254 312
#     4  10  20  36  50  80 112 138 181 229 260 335
#     4  10  19  34  52  79 110 142 173 224 278 314
#     4   9  16  27  50  77 111 137 162 212 284 333
#     4  10  18  35  48  79 118 137 181 222 262 333
#     4   9  17  28  44  79 108 134 167 204 276 334
#
# _framework density 26.036985000000001
#
# number of rings (size 3 to 8) (size 9 to 14) (size 15 to 20)
#    0.000    2.250    5.000    3.000    3.500    3.500 
#    0.000    0.000    0.000    0.750    0.000    1.750 
#    0.000    0.000    0.000    0.000    0.000    0.000 
#
# Total GULP energy -89423.930284 kJ/mol
# GULP energy per Si atom -5588.995643 kJ/mol
# Density = 2.597772 g / cm^3
# Si number density = 26.036985 Si / 1000 Ang^3
#
#
#
# Elastic Constant Matrix: (Units=GPa)
#
#
# Indices 1 2 3 4 5 6 
#
# 1 147.4277 59.6224 15.9179 2.0912 -31.7057 -0.2393
# 2 59.6224 126.2135 6.5347 -7.3813 -21.6386 6.5286
# 3 15.9179 6.5347 67.6810 -6.6019 -5.6692 10.0389
# 4 2.0912 -7.3813 -6.6019 19.5965 4.1096 -17.4156
# 5 -31.7057 -21.6386 -5.6692 4.1096 31.3538 -3.9967
# 6 -0.2393 6.5286 10.0389 -17.4156 -3.9967 58.3663
#
#
#
# Elastic Compliance Matrix: (Units=1/GPa)
#
#
# Indices 1 2 3 4 5 6 
#
# 1 0.010283 -0.003641 -0.001841 -0.004935 0.008181 -0.000146
# 2 -0.003641 0.010366 0.000476 0.003921 0.003060 0.000123
# 3 -0.001841 0.000476 0.015847 0.004289 0.000583 -0.001467
# 4 -0.004935 0.003921 0.004289 0.074445 -0.008662 0.020423
# 5 0.008181 0.003060 0.000583 -0.008662 0.043518 -0.000014
# 6 -0.000146 0.000123 -0.001467 0.020423 -0.000014 0.023464
#
#
# Mechanical properties :
#
#
# Convention : Reuss Voigt Hill
#
# Bulk Modulus (GPa) = 37.75894 56.16358 46.96126
# Shear Modulus (GPa) = 25.41114 39.14648 32.27881
#
# Velocity S-wave (km/s) = 3.12743 3.88170 3.52480
# Velocity P-wave (km/s) = 5.25115 6.45815 5.88567
#
# Compressibility (1/GPa) = 0.02648379
#
# Stress axis : x y z
#
# Youngs Moduli (GPa) = 97.24330 96.46972 63.10330
#
# Poissons Ratio (x) = 0.35124 0.11620
# Poissons Ratio (y) = 0.35405 -0.03004
# Poissons Ratio (z) = 0.17907 -0.04592
#
# Static dielectric constant tensor:
#      x y z
#    x 2.110710 -0.044320 0.026960 
#    y -0.044320 2.025030 0.025020 
#    z 0.026960 0.025020 2.202580 
# 
# From -- ./inp_files/597818.got.cif
#   From: 2010.05.17/outbox.cif.g08.bks.cpg/sg2_299_cif.got.tgz:597818.got - 2010.06.03 11:33:40.
