data_PCOD9071747
_publ_section_title
;
Structure prediction by ZEFSAII (Michael W. Deem and Ramdas Pophale) SiO2 
 PCOD9071747
Probable space group: P -1
;
_chemical_formula_sum "Si O2"
_cell_formula_units_Z 14
_cell_length_a 14.723366
_cell_length_b 6.681050
_cell_length_c 15.789455
_cell_angle_alpha 143.246172
_cell_angle_beta 35.715735
_cell_angle_gamma 139.432305
_cell_volume 515.392307
_symmetry_space_group_name_H-M "P -1"
_symmetry_group_IT_number 2
_symmetry_cell_setting 'triclinic'
loop_
_space_group_symop_operation_xyz
x,y,z
-x,-y,-z
loop_
_atom_site_type_symbol
_atom_site_label
_atom_site_fract_x
_atom_site_fract_y
_atom_site_fract_z
Si Si1 0.987542 0.278819 0.828892
Si Si2 0.733912 0.911610 0.224173
Si Si3 0.460226 0.534067 0.220532
Si Si4 0.514004 0.066136 0.884364
Si Si5 0.837180 0.970042 0.662638
Si Si6 0.636646 0.482165 0.324754
Si Si7 0.953040 0.938289 0.905851
O O1 0.185864 0.403727 0.724206
O O2 0.953017 0.636933 0.005894
O O3 0.893768 0.146855 0.769720
O O4 0.918020 0.963684 0.843046
O O5 0.565412 0.905244 0.304297
O O6 0.668064 0.742370 0.308164
O O7 0.812309 0.828056 0.044262
O O8 0.899264 0.209830 0.232151
O O9 0.540995 0.268422 0.121216
O O10 0.278109 0.419961 0.356754
O O11 0.463267 0.382531 0.072734
O O12 0.428263 0.893699 0.804207
O O13 0.711274 0.132219 0.762240
O O14 0.000000 0.000000 0.500000
O O15 0.500000 0.500000 0.500000
#
# Coordination Sequence:
#
# PCOD9071747 Si02
#       7
#     2   2   2   2   2   2   2
#     4  10  20  30  53  79 101 125 179 218 249 296
#     4   9  17  34  53  74 105 137 167 207 267 309
#     4   8  16  28  51  70  95 133 173 200 243 311
#     4   8  16  29  49  70  99 134 172 200 251 307
#     4  10  18  29  49  75 104 132 169 209 257 305
#     4  10  19  32  53  75 103 136 172 206 255 313
#     4   9  19  32  53  78 102 131 170 223 257 294
#
# _framework density 27.163775000000001
#
# number of rings (size 3 to 8) (size 9 to 14) (size 15 to 20)
#    0.857    2.000    0.000    1.714    6.000    0.000 
#    0.000    1.429    0.000    0.000    0.000    8.000 
#    0.000    0.000    0.000    0.000    0.000    0.000 
#
# Total GULP energy -77943.340000 kJ/mol
# GULP energy per Si atom -5567.381429 kJ/mol
# Density = 2.710195 g / cm^3
# Si number density = 27.163775 Si / 1000 Ang^3
#
#
#
# Elastic Constant Matrix: (Units=GPa)
#
#
# Indices 1 2 3 4 5 6 
#
# 1 128.7564 53.0796 35.5478 -16.9610 9.8088 18.5601
# 2 53.0796 106.8920 60.7052 -26.0513 -11.7089 9.2153
# 3 35.5478 60.7052 162.5636 -55.3047 -10.9227 10.6861
# 4 -16.9610 -26.0513 -55.3047 46.6490 6.6460 -6.2805
# 5 9.8088 -11.7089 -10.9227 6.6460 29.6242 -9.7281
# 6 18.5601 9.2153 10.6861 -6.2805 -9.7281 43.4205
#
#
#
# Elastic Compliance Matrix: (Units=1/GPa)
#
#
# Indices 1 2 3 4 5 6 
#
# 1 0.011854 -0.005942 -0.000141 0.001286 -0.008410 -0.005469
# 2 -0.005942 0.015284 -0.003598 0.001373 0.007015 0.001952
# 3 -0.000141 -0.003598 0.011454 0.011453 0.000181 -0.000298
# 4 0.001286 0.001373 0.011453 0.036884 -0.003654 0.000857
# 5 -0.008410 0.007015 0.000181 -0.003654 0.043936 0.011377
# 6 -0.005469 0.001952 -0.000298 0.000857 0.011377 0.027700
#
#
# Mechanical properties :
#
#
# Convention : Reuss Voigt Hill
#
# Bulk Modulus (GPa) = 52.00615 77.43080 64.71848
# Shear Modulus (GPa) = 28.92097 40.53068 34.72583
#
# Velocity S-wave (km/s) = 3.26650 3.86694 3.57933
# Velocity P-wave (km/s) = 5.78045 6.96453 6.39994
#
# Compressibility (1/GPa) = 0.01922850
#
# Stress axis : x y z
#
# Youngs Moduli (GPa) = 84.36113 65.42728 87.30705
#
# Poissons Ratio (x) = 0.38880 0.01232
# Poissons Ratio (y) = 0.50131 0.31413
# Poissons Ratio (z) = 0.01191 0.23541
#
# Static dielectric constant tensor:
#      x y z
#    x 2.516260 -0.206250 -0.221320 
#    y -0.206250 2.401250 0.108910 
#    z -0.221320 0.108910 2.243470 
# 
# From -- ./inp_files/277176.got.cif
#   From: 2010.05.17/outbox.cif.g08.bks.cpg/sg2_139_cif.got.tgz:277176.got - 2010.06.03 11:33:40.
