data_PCOD9071658
_publ_section_title
;
Structure prediction by ZEFSAII (Michael W. Deem and Ramdas Pophale) SiO2 
 PCOD9071658
Probable space group: P -1
;
_chemical_formula_sum "Si O2"
_cell_formula_units_Z 16
_cell_length_a 7.278845
_cell_length_b 19.053922
_cell_length_c 6.975304
_cell_angle_alpha 36.438242
_cell_angle_beta 99.285723
_cell_angle_gamma 85.784784
_cell_volume 531.864972
_symmetry_space_group_name_H-M "P -1"
_symmetry_group_IT_number 2
_symmetry_cell_setting 'triclinic'
loop_
_space_group_symop_operation_xyz
x,y,z
-x,-y,-z
loop_
_atom_site_type_symbol
_atom_site_label
_atom_site_fract_x
_atom_site_fract_y
_atom_site_fract_z
Si Si1 0.771422 0.065700 0.898562
Si Si2 0.318896 0.951516 0.630337
Si Si3 0.189853 0.185584 0.581798
Si Si4 0.241685 0.425874 0.173244
Si Si5 0.814166 0.448593 0.610293
Si Si6 0.067454 0.201746 0.092736
Si Si7 0.572036 0.697167 0.130827
Si Si8 0.216332 0.671521 0.713471
O O1 0.700611 0.214361 0.507783
O O2 0.705785 0.074092 0.092918
O O3 0.688421 0.959187 0.029010
O O4 0.000000 0.000000 0.000000
O O5 0.500000 0.000000 0.500000
O O6 0.119738 0.068206 0.292602
O O7 0.373004 0.817566 0.830278
O O8 0.268234 0.302297 0.320686
O O9 0.094734 0.172193 0.390658
O O10 0.010995 0.247188 0.563946
O O11 0.373846 0.360116 0.522073
O O12 0.297456 0.548318 0.865913
O O13 0.000000 0.500000 0.000000
O O14 0.621058 0.573024 0.280238
O O15 0.000000 0.500000 0.500000
O O16 0.802042 0.393252 0.942240
O O17 0.872004 0.322386 0.772777
O O18 0.251934 0.247925 0.988760
#
# Coordination Sequence:
#
# PCOD9071658 Si02
#       8
#     2   2   2   2   2   2   2   2
#     4   9  16  28  46  69  95 128 162 198 244 296
#     4   9  17  29  46  72  97 124 162 206 246 290
#     4   8  14  25  43  66  90 119 157 197 235 283
#     4   9  16  27  42  66  97 127 159 199 244 292
#     4   8  13  23  40  62  85 117 156 191 224 276
#     4   8  14  26  43  64  88 119 158 195 230 282
#     4   9  16  26  43  68  93 121 160 204 240 280
#     4   8  14  24  41  65  89 119 157 200 238 279
#
# _framework density 30.082827000000002
#
# number of rings (size 3 to 8) (size 9 to 14) (size 15 to 20)
#    0.000    3.500    0.000    1.500    0.000    0.000 
#    0.000    5.000    0.000    0.000    0.000  176.750 
#    0.000    0.000    0.000   13.125    0.000    0.000 
#
# Total GULP energy -89224.141107 kJ/mol
# GULP energy per Si atom -5576.508819 kJ/mol
# Density = 3.001436 g / cm^3
# Si number density = 30.082827 Si / 1000 Ang^3
#
#
#
# Elastic Constant Matrix: (Units=GPa)
#
#
# Indices 1 2 3 4 5 6 
#
# 1 137.2501 63.1599 64.3270 -23.4936 -16.2925 -14.6200
# 2 63.1599 139.4283 111.8569 -45.1256 -6.6145 -10.1925
# 3 64.3270 111.8569 265.9478 -67.9988 -35.8328 -2.7212
# 4 -23.4936 -45.1256 -67.9988 114.7625 -13.9347 4.6007
# 5 -16.2925 -6.6145 -35.8328 -13.9347 45.5081 -2.0833
# 6 -14.6200 -10.1925 -2.7212 4.6007 -2.0833 20.5328
#
#
#
# Elastic Compliance Matrix: (Units=1/GPa)
#
#
# Indices 1 2 3 4 5 6 
#
# 1 0.010189 -0.003617 -0.000247 0.000705 0.003400 0.005613
# 2 -0.003617 0.012955 -0.004569 0.001233 -0.002507 0.002719
# 3 -0.000247 -0.004569 0.007383 0.003321 0.006005 -0.001600
# 4 0.000705 0.001233 0.003321 0.012149 0.006744 -0.000484
# 5 0.003400 -0.002507 0.006005 0.006744 0.029779 0.003482
# 6 0.005613 0.002719 -0.001600 -0.000484 0.003482 0.054299
#
#
# Mechanical properties :
#
#
# Convention : Reuss Voigt Hill
#
# Bulk Modulus (GPa) = 73.20406 113.47931 93.34169
# Shear Modulus (GPa) = 33.74433 56.37952 45.06192
#
# Velocity S-wave (km/s) = 3.35283 4.33383 3.87451
# Velocity P-wave (km/s) = 6.27500 7.92761 7.14922
#
# Compressibility (1/GPa) = 0.01366044
#
# Stress axis : x y z
#
# Youngs Moduli (GPa) = 98.14880 77.19185 135.44213
#
# Poissons Ratio (x) = 0.27922 0.03349
# Poissons Ratio (y) = 0.35503 0.61877
# Poissons Ratio (z) = 0.02427 0.35265
#
# Static dielectric constant tensor:
#      x y z
#    x 2.321010 -0.026010 -0.024300 
#    y -0.026010 2.463700 0.052290 
#    z -0.024300 0.052290 2.440980 
# 
# From -- ./inp_files/225843.got.cif
#   From: 2010.05.17/outbox.cif.g08.bks.cpg/sg2_113_cif.got.tgz:225843.got - 2010.06.03 11:33:40.
