data_PCOD9071590
_publ_section_title
;
Structure prediction by ZEFSAII (Michael W. Deem and Ramdas Pophale) SiO2 
 PCOD9071590
Probable space group: P -1
;
_chemical_formula_sum "Si O2"
_cell_formula_units_Z 10
_cell_length_a 5.379978
_cell_length_b 13.486533
_cell_length_c 14.351891
_cell_angle_alpha 31.981608
_cell_angle_beta 129.399179
_cell_angle_gamma 133.225316
_cell_volume 397.963794
_symmetry_space_group_name_H-M "P -1"
_symmetry_group_IT_number 2
_symmetry_cell_setting 'triclinic'
loop_
_space_group_symop_operation_xyz
x,y,z
-x,-y,-z
loop_
_atom_site_type_symbol
_atom_site_label
_atom_site_fract_x
_atom_site_fract_y
_atom_site_fract_z
Si Si1 0.349743 0.177013 0.972610
Si Si2 0.293347 0.867853 0.454857
Si Si3 0.516985 0.471037 0.137741
Si Si4 0.236547 0.382131 0.609671
Si Si5 0.098048 0.897347 0.720069
O O1 0.333871 0.316347 0.945022
O O2 0.433374 0.324255 0.786790
O O3 0.652670 0.102383 0.134670
O O4 0.000000 0.000000 0.000000
O O5 0.275023 0.665815 0.665058
O O6 0.345444 0.023662 0.597599
O O7 0.025813 0.808428 0.353211
O O8 0.172090 0.008299 0.380632
O O9 0.124803 0.328266 0.184807
O O10 0.500000 0.500000 0.000000
O O11 0.500000 0.500000 0.500000
O O12 0.000000 0.500000 0.500000
#
# Coordination Sequence:
#
# PCOD9071590 Si02
#       5
#     2   2   2   2   2
#     4  12  28  53  81 120 163 211 273 331 402 479
#     4  12  27  52  83 116 158 214 268 325 402 481
#     4  12  29  52  82 120 164 213 269 335 402 480
#     4  12  27  50  83 115 160 213 268 333 399 474
#     4  12  28  51  82 119 161 208 264 331 403 477
#
# _framework density 25.127915000000002
#
# number of rings (size 3 to 8) (size 9 to 14) (size 15 to 20)
#    0.000    0.000    4.000    4.200    2.800    4.000 
#    0.000    0.000    0.000    0.000    0.000    0.000 
#    0.000    0.000    0.000    0.000    0.000    0.000 
#
# Total GULP energy -56084.451154 kJ/mol
# GULP energy per Si atom -5608.445115 kJ/mol
# Density = 2.507072 g / cm^3
# Si number density = 25.127915 Si / 1000 Ang^3
#
#
#
# Elastic Constant Matrix: (Units=GPa)
#
#
# Indices 1 2 3 4 5 6 
#
# 1 168.5142 52.8821 71.3040 -11.1134 -6.9023 -7.0951
# 2 52.8821 182.9585 29.7664 1.9471 -6.0538 -2.1797
# 3 71.3040 29.7664 179.9353 27.8635 -2.9002 -17.3104
# 4 -11.1134 1.9471 27.8635 57.6411 -5.7824 0.0768
# 5 -6.9023 -6.0538 -2.9002 -5.7824 54.9452 4.3743
# 6 -7.0951 -2.1797 -17.3104 0.0768 4.3743 46.6861
#
#
#
# Elastic Compliance Matrix: (Units=1/GPa)
#
#
# Indices 1 2 3 4 5 6 
#
# 1 0.008250 -0.001819 -0.003509 0.003452 0.001033 -0.000235
# 2 -0.001819 0.006043 -0.000220 -0.000409 0.000392 -0.000112
# 3 -0.003509 -0.000220 0.007918 -0.004573 -0.000725 0.002468
# 4 0.003452 -0.000409 -0.004573 0.020483 0.002418 -0.001450
# 5 0.001033 0.000392 -0.000725 0.002418 0.018737 -0.001853
# 6 -0.000235 -0.000112 0.002468 -0.001450 -0.001853 0.022470
#
#
# Mechanical properties :
#
#
# Convention : Reuss Voigt Hill
#
# Bulk Modulus (GPa) = 89.96277 93.25701 91.60989
# Shear Modulus (GPa) = 50.65772 57.01817 53.83795
#
# Velocity S-wave (km/s) = 4.49485 4.76869 4.63380
# Velocity P-wave (km/s) = 7.92578 8.21669 8.07255
#
# Compressibility (1/GPa) = 0.01111571
#
# Stress axis : x y z
#
# Youngs Moduli (GPa) = 121.21473 165.47366 126.29091
#
# Poissons Ratio (x) = 0.30100 0.44313
# Poissons Ratio (y) = 0.22049 0.02778
# Poissons Ratio (z) = 0.42532 0.03640
#
# Static dielectric constant tensor:
#      x y z
#    x 1.977040 0.033480 0.041970 
#    y 0.033480 2.006110 -0.005400 
#    z 0.041970 -0.005400 1.991730 
# 
# From -- ./inp_files/361005.got.cif
#   From: 2010.05.17/outbox.cif.g08.bks.cpg/sg2_181_cif.got.tgz:361005.got - 2010.06.03 11:33:40.
