data_PCOD9071465
_publ_section_title
;
Structure prediction by ZEFSAII (Michael W. Deem and Ramdas Pophale) SiO2 
 PCOD9071465
Probable space group: P -1
;
_chemical_formula_sum "Si O2"
_cell_formula_units_Z 13
_cell_length_a 8.886021
_cell_length_b 12.774253
_cell_length_c 8.871365
_cell_angle_alpha 66.729889
_cell_angle_beta 147.173699
_cell_angle_gamma 113.382197
_cell_volume 497.212080
_symmetry_space_group_name_H-M "P -1"
_symmetry_group_IT_number 2
_symmetry_cell_setting 'triclinic'
loop_
_space_group_symop_operation_xyz
x,y,z
-x,-y,-z
loop_
_atom_site_type_symbol
_atom_site_label
_atom_site_fract_x
_atom_site_fract_y
_atom_site_fract_z
Si Si1 0.000000 0.500000 0.500000
Si Si2 0.844403 0.517578 0.014494
Si Si3 0.548252 0.710420 0.142752
Si Si4 0.984333 0.033478 0.143928
Si Si5 0.426108 0.678902 0.617104
Si Si6 0.510518 0.821047 0.353669
Si Si7 0.127544 0.800807 0.513539
O O1 0.001773 0.496968 0.690462
O O2 0.290650 0.590163 0.682050
O O3 0.582481 0.416557 0.852713
O O4 0.722343 0.637301 0.861108
O O5 0.000000 0.500000 0.000000
O O6 0.633918 0.779809 0.326782
O O7 0.840487 0.710562 0.296790
O O8 0.306029 0.772366 0.824274
O O9 0.240387 0.125700 0.359021
O O10 0.014760 0.921957 0.334202
O O11 0.698184 0.085650 0.901072
O O12 0.000000 0.000000 0.000000
O O13 0.343717 0.709368 0.359950
O O14 0.350093 0.793146 0.571551
#
# Coordination Sequence:
#
# PCOD9071465 Si02
#       7
#     1   2   2   2   2   2   2
#     4  12  26  50  80 116 154 218 266 328 394 492
#     4  12  30  50  80 119 165 210 270 332 401 483
#     4  12  29  52  77 120 158 210 259 332 405 470
#     4  12  27  50  80 118 152 207 266 329 395 475
#     4  12  28  47  81 115 156 211 265 323 397 480
#     4  12  29  49  82 116 159 205 266 328 399 479
#     4  12  28  49  84 111 160 208 263 330 399 470
#
# _framework density 26.145785
#
# number of rings (size 3 to 8) (size 9 to 14) (size 15 to 20)
#    0.000    0.000    3.077    4.615   10.769    4.923 
#    0.000    0.000    0.000    0.000    0.000    0.000 
#    0.000    0.000    0.000    0.000    0.000    0.000 
#
# Total GULP energy -72548.017401 kJ/mol
# GULP energy per Si atom -5580.616723 kJ/mol
# Density = 2.608628 g / cm^3
# Si number density = 26.145785 Si / 1000 Ang^3
#
#
#
# Elastic Constant Matrix: (Units=GPa)
#
#
# Indices 1 2 3 4 5 6 
#
# 1 158.1609 34.4073 55.4040 -0.0898 -8.3206 -7.1391
# 2 34.4073 61.7260 52.3520 -13.2309 1.4685 22.6428
# 3 55.4040 52.3520 152.3707 -5.9600 5.4354 -11.1000
# 4 -0.0898 -13.2309 -5.9600 49.9626 -6.9513 -5.8182
# 5 -8.3206 1.4685 5.4354 -6.9513 40.6254 -0.4454
# 6 -7.1391 22.6428 -11.1000 -5.8182 -0.4454 44.0984
#
#
#
# Elastic Compliance Matrix: (Units=1/GPa)
#
#
# Indices 1 2 3 4 5 6 
#
# 1 0.008063 -0.005239 -0.000963 -0.000800 0.001873 0.003666
# 2 -0.005239 0.041267 -0.013824 0.006412 0.000112 -0.024669
# 3 -0.000963 -0.013824 0.012386 -0.001237 -0.001458 0.009882
# 4 -0.000800 0.006412 -0.001237 0.021960 0.003519 -0.000800
# 5 0.001873 0.000112 -0.001458 0.003519 0.025798 0.000604
# 6 0.003666 -0.024669 0.009882 -0.000800 0.000604 0.038325
#
#
# Mechanical properties :
#
#
# Convention : Reuss Voigt Hill
#
# Bulk Modulus (GPa) = 46.15806 72.95382 59.55594
# Shear Modulus (GPa) = 25.63149 42.27691 33.95420
#
# Velocity S-wave (km/s) = 3.13442 4.02552 3.60759
# Velocity P-wave (km/s) = 5.54904 7.04057 6.33883
#
# Compressibility (1/GPa) = 0.02166469
#
# Stress axis : x y z
#
# Youngs Moduli (GPa) = 124.01937 24.23268 80.73471
#
# Poissons Ratio (x) = 0.12695 0.07774
# Poissons Ratio (y) = 0.64972 1.11607
# Poissons Ratio (z) = 0.11942 0.33499
#
# Static dielectric constant tensor:
#      x y z
#    x 1.813840 0.011150 -0.142160 
#    y 0.011150 2.457360 -0.073010 
#    z -0.142160 -0.073010 1.987110 
# 
# From -- ./inp_files/206122.got.cif
#   From: 2010.05.17/outbox.cif.g08.bks.cpg/sg2_104_cif.got.tgz:206122.got - 2010.06.03 11:33:40.
