data_PCOD9071549
_publ_section_title
;
Structure prediction by ZEFSAII (Michael W. Deem and Ramdas Pophale) SiO2 
 PCOD9071549
Probable space group: P -1
;
_chemical_formula_sum "Si O2"
_cell_formula_units_Z 16
_cell_length_a 7.569992
_cell_length_b 15.528243
_cell_length_c 12.937340
_cell_angle_alpha 150.875827
_cell_angle_beta 63.702464
_cell_angle_gamma 116.076889
_cell_volume 658.729101
_symmetry_space_group_name_H-M "P -1"
_symmetry_group_IT_number 2
_symmetry_cell_setting 'triclinic'
loop_
_space_group_symop_operation_xyz
x,y,z
-x,-y,-z
loop_
_atom_site_type_symbol
_atom_site_label
_atom_site_fract_x
_atom_site_fract_y
_atom_site_fract_z
Si Si1 0.367500 0.948561 0.343859
Si Si2 0.919372 0.264757 0.681641
Si Si3 0.044137 0.090084 0.926610
Si Si4 0.713675 0.578129 0.151292
Si Si5 0.706654 0.206830 0.247815
Si Si6 0.655664 0.098448 0.934935
Si Si7 0.664390 0.681133 0.043650
Si Si8 0.301130 0.766399 0.504839
O O1 0.176031 0.923397 0.441645
O O2 0.528008 0.841362 0.246504
O O3 0.480079 0.145610 0.497259
O O4 0.335125 0.861349 0.146354
O O5 0.831837 0.301248 0.630111
O O6 0.154344 0.307223 0.678130
O O7 0.820609 0.397683 0.923552
O O8 0.162658 0.260745 0.019927
O O9 0.192372 0.944513 0.746184
O O10 0.928598 0.153773 0.121445
O O11 0.858316 0.016039 0.824123
O O12 0.743923 0.657986 0.112650
O O13 0.481484 0.497581 0.136221
O O14 0.659350 0.249463 0.183415
O O15 0.700980 0.322867 0.474345
O O16 0.538118 0.040820 0.140368
#
# Coordination Sequence:
#
# PCOD9071549 Si02
#       8
#     2   2   2   2   2   2   2   2
#     4   9  17  30  48  76  98 122 153 191 245 283
#     4  10  19  32  50  68  98 129 157 195 233 284
#     4   9  16  28  49  76  94 124 150 193 241 278
#     4   9  19  34  48  68  90 131 168 192 232 274
#     4   8  16  29  47  70 102 129 149 183 234 295
#     4   8  15  28  47  71 102 126 151 179 229 300
#     4   9  17  31  52  70  89 120 167 201 229 276
#     4  10  18  29  47  77 103 121 151 192 242 285
#
# _framework density 24.289197000000001
#
# number of rings (size 3 to 8) (size 9 to 14) (size 15 to 20)
#    0.750    2.250    0.000    1.500    0.000    0.000 
#    0.000   13.125    0.000    1.500    0.000    0.000 
#    0.000    0.000    0.000    0.000    0.000    0.000 
#
# Total GULP energy -89154.276417 kJ/mol
# GULP energy per Si atom -5572.142276 kJ/mol
# Density = 2.423391 g / cm^3
# Si number density = 24.289197 Si / 1000 Ang^3
#
#
#
# Elastic Constant Matrix: (Units=GPa)
#
#
# Indices 1 2 3 4 5 6 
#
# 1 111.8780 20.6494 17.8271 -10.9879 36.6142 15.8593
# 2 20.6494 86.1568 33.9958 -17.1723 14.9596 17.3827
# 3 17.8271 33.9958 109.4322 -23.1252 41.1372 0.7641
# 4 -10.9879 -17.1723 -23.1252 30.9125 -6.2035 7.0862
# 5 36.6142 14.9596 41.1372 -6.2035 36.0479 -3.3701
# 6 15.8593 17.3827 0.7641 7.0862 -3.3701 41.8411
#
#
#
# Elastic Compliance Matrix: (Units=1/GPa)
#
#
# Indices 1 2 3 4 5 6 
#
# 1 0.022070 0.001916 0.012754 0.014487 -0.036658 -0.014801
# 2 0.001916 0.016731 -0.000363 0.010482 -0.007612 -0.010059
# 3 0.012754 -0.000363 0.026651 0.018693 -0.041089 -0.011646
# 4 0.014487 0.010482 0.018693 0.055818 -0.032875 -0.022289
# 5 -0.036658 -0.007612 -0.041089 -0.032875 0.112398 0.032428
# 6 -0.014801 -0.010059 -0.011646 -0.022289 0.032428 0.040288
#
#
# Mechanical properties :
#
#
# Convention : Reuss Voigt Hill
#
# Bulk Modulus (GPa) = 10.63068 50.26795 30.44932
# Shear Modulus (GPa) = 18.07036 37.42661 27.74848
#
# Velocity S-wave (km/s) = 2.73053 3.92966 3.38364
# Velocity P-wave (km/s) = 3.78514 6.42885 5.27529
#
# Compressibility (1/GPa) = 0.09406732
#
# Stress axis : x y z
#
# Youngs Moduli (GPa) = 45.31009 59.76890 37.52264
#
# Poissons Ratio (x) = -0.11454 -0.47857
# Poissons Ratio (y) = -0.08683 0.01362
# Poissons Ratio (z) = -0.57790 0.02169
#
# Static dielectric constant tensor:
#      x y z
#    x 2.010830 0.021680 -0.036590 
#    y 0.021680 1.961910 0.047840 
#    z -0.036590 0.047840 2.070110 
# 
# From -- ./inp_files/276358.got.cif
#   From: 2010.05.17/outbox.cif.g08.bks.cpg/sg2_139_cif.got.tgz:276358.got - 2010.06.03 11:33:40.
