data_PCOD9071390
_publ_section_title
;
Structure prediction by ZEFSAII (Michael W. Deem and Ramdas Pophale) SiO2 
 PCOD9071390
Probable space group: P -1
;
_chemical_formula_sum "Si O2"
_cell_formula_units_Z 10
_cell_length_a 7.717311
_cell_length_b 9.267184
_cell_length_c 7.330486
_cell_angle_alpha 62.287900
_cell_angle_beta 107.234575
_cell_angle_gamma 104.901694
_cell_volume 438.845036
_symmetry_space_group_name_H-M "P -1"
_symmetry_group_IT_number 2
_symmetry_cell_setting 'triclinic'
loop_
_space_group_symop_operation_xyz
x,y,z
-x,-y,-z
loop_
_atom_site_type_symbol
_atom_site_label
_atom_site_fract_x
_atom_site_fract_y
_atom_site_fract_z
Si Si1 0.102834 0.341485 0.122172
Si Si2 0.649424 0.721184 0.418049
Si Si3 0.352205 0.848591 0.474030
Si Si4 0.341491 0.489114 0.809067
Si Si5 0.974770 0.985380 0.216514
O O1 0.255257 0.338362 0.331821
O O2 0.976997 0.166706 0.194232
O O3 0.188859 0.359901 0.935530
O O4 0.000000 0.500000 0.000000
O O5 0.459413 0.788220 0.366917
O O6 0.622651 0.582584 0.335212
O O7 0.797197 0.867103 0.298113
O O8 0.306579 0.676901 0.669653
O O9 0.500000 0.000000 0.500000
O O10 0.161865 0.917801 0.366881
O O11 0.500000 0.500000 0.000000
O O12 0.000000 0.000000 0.000000
#
# Coordination Sequence:
#
# PCOD9071390 Si02
#       5
#     2   2   2   2   2
#     4  12  27  47  76 109 150 198 250 314 373 442
#     4  12  27  50  79 107 154 202 248 310 382 443
#     4  12  27  49  78 109 154 197 251 313 370 452
#     4  12  26  49  73 113 151 191 258 305 371 451
#     4  12  27  50  74 114 151 195 255 306 376 449
#
# _framework density 22.787089000000002
#
# number of rings (size 3 to 8) (size 9 to 14) (size 15 to 20)
#    0.000    0.000    6.000    2.400    5.600    2.400 
#    0.000    0.000    0.000    0.000    0.000    0.000 
#    0.000    0.000    0.000    0.000    0.000    0.000 
#
# Total GULP energy -55903.642143 kJ/mol
# GULP energy per Si atom -5590.364214 kJ/mol
# Density = 2.273522 g / cm^3
# Si number density = 22.787089 Si / 1000 Ang^3
#
#
#
# Elastic Constant Matrix: (Units=GPa)
#
#
# Indices 1 2 3 4 5 6 
#
# 1 85.3122 17.3486 29.0440 -21.0231 -15.4430 -7.5696
# 2 17.3486 153.8093 55.2627 -25.0789 2.2424 -13.6648
# 3 29.0440 55.2627 118.6609 -21.5493 -18.7301 -7.4838
# 4 -21.0231 -25.0789 -21.5493 44.6407 -12.2913 -12.4537
# 5 -15.4430 2.2424 -18.7301 -12.2913 41.1431 -5.8457
# 6 -7.5696 -13.6648 -7.4838 -12.4537 -5.8457 44.2153
#
#
#
# Elastic Compliance Matrix: (Units=1/GPa)
#
#
# Indices 1 2 3 4 5 6 
#
# 1 0.018563 0.000969 0.000663 0.016060 0.013419 0.009887
# 2 0.000969 0.008632 -0.002995 0.005096 0.000598 0.003841
# 3 0.000663 -0.002995 0.013258 0.009274 0.009980 0.005363
# 4 0.016060 0.005096 0.009274 0.052097 0.029003 0.024402
# 5 0.013419 0.000598 0.009980 0.029003 0.045119 0.018306
# 6 0.009887 0.003841 0.005363 0.024402 0.018306 0.035698
#
#
# Mechanical properties :
#
#
# Convention : Reuss Voigt Hill
#
# Bulk Modulus (GPa) = 26.50606 62.34367 44.42486
# Shear Modulus (GPa) = 26.50181 43.07496 34.78839
#
# Velocity S-wave (km/s) = 3.41401 4.35250 3.91150
# Velocity P-wave (km/s) = 5.21516 7.25794 6.31963
#
# Compressibility (1/GPa) = 0.03772722
#
# Stress axis : x y z
#
# Youngs Moduli (GPa) = 53.87165 115.85008 75.42808
#
# Poissons Ratio (x) = -0.11229 -0.05004
# Poissons Ratio (y) = -0.05222 0.22592
# Poissons Ratio (z) = -0.03574 0.34698
#
# Static dielectric constant tensor:
#      x y z
#    x -1.332580 5.105850 -1.907420 
#    y 5.105850 -6.148040 2.922600 
#    z -1.907420 2.922600 0.744420 
# 
# From -- ./inp_files/161475.got.cif
#   From: 2010.05.17/outbox.cif.g08.bks.cpg/sg2_81_cif.got.tgz:161475.got - 2010.06.03 11:33:40.
