data_PCOD9071302
_publ_section_title
;
Structure prediction by ZEFSAII (Michael W. Deem and Ramdas Pophale) SiO2 
 PCOD9071302
Probable space group: P -1
;
_chemical_formula_sum "Si O2"
_cell_formula_units_Z 9
_cell_length_a 5.757176
_cell_length_b 5.311086
_cell_length_c 14.642296
_cell_angle_alpha 121.828320
_cell_angle_beta 108.164559
_cell_angle_gamma 87.740751
_cell_volume 357.078404
_symmetry_space_group_name_H-M "P -1"
_symmetry_group_IT_number 2
_symmetry_cell_setting 'triclinic'
loop_
_space_group_symop_operation_xyz
x,y,z
-x,-y,-z
loop_
_atom_site_type_symbol
_atom_site_label
_atom_site_fract_x
_atom_site_fract_y
_atom_site_fract_z
Si Si1 0.500000 0.500000 0.000000
Si Si2 0.840349 0.239916 0.488560
Si Si3 0.427718 0.907558 0.240273
Si Si4 0.174266 0.454888 0.266559
Si Si5 0.799895 0.995187 0.056263
O O1 0.488062 0.302087 0.866490
O O2 0.223987 0.323270 0.960089
O O3 0.755691 0.395117 0.598683
O O4 0.000000 0.500000 0.500000
O O5 0.635860 0.064883 0.364409
O O6 0.000000 0.000000 0.500000
O O7 0.237841 0.701190 0.243767
O O8 0.324111 0.175904 0.227076
O O9 0.895366 0.281396 0.185530
O O10 0.500000 0.000000 0.000000
O O11 0.000000 0.000000 0.000000
#
# Coordination Sequence:
#
# PCOD9071302 Si02
#       5
#     1   2   2   2   2
#     4  12  28  46  84 112 176 208 290 330 436 484
#     4  12  26  47  79 114 160 216 280 346 422 503
#     4  12  27  49  80 118 164 220 277 347 424 507
#     4  12  27  50  78 116 163 217 283 346 424 501
#     4  12  28  49  79 117 167 219 281 344 422 505
#
# _framework density 25.204547999999999
#
# number of rings (size 3 to 8) (size 9 to 14) (size 15 to 20)
#    0.000    0.000    2.222    6.667    6.222    1.778 
#    0.000    0.000    0.000    0.000    0.000    0.000 
#    0.000    0.000    0.000    0.000    0.000    0.000 
#
# Total GULP energy -50174.632855 kJ/mol
# GULP energy per Si atom -5574.959206 kJ/mol
# Density = 2.514718 g / cm^3
# Si number density = 25.204548 Si / 1000 Ang^3
#
#
#
# Elastic Constant Matrix: (Units=GPa)
#
#
# Indices 1 2 3 4 5 6 
#
# 1 94.4530 37.4414 70.1661 -1.2504 12.2232 12.9172
# 2 37.4414 79.5089 22.9996 21.2285 13.9527 15.5466
# 3 70.1661 22.9996 263.1433 6.8352 13.4138 15.6675
# 4 -1.2504 21.2285 6.8352 40.7307 14.7312 9.6249
# 5 12.2232 13.9527 13.4138 14.7312 67.7650 -8.4902
# 6 12.9172 15.5466 15.6675 9.6249 -8.4902 69.7955
#
#
#
# Elastic Compliance Matrix: (Units=1/GPa)
#
#
# Indices 1 2 3 4 5 6 
#
# 1 0.017260 -0.008029 -0.003849 0.006624 -0.002357 -0.001742
# 2 -0.008029 0.019173 0.000860 -0.009691 -0.000781 -0.001736
# 3 -0.003849 0.000860 0.004819 -0.001191 -0.000231 -0.000425
# 4 0.006624 -0.009691 -0.001191 0.033454 -0.006767 -0.004237
# 5 -0.002357 -0.000781 -0.000231 -0.006767 0.017323 0.003702
# 6 -0.001742 -0.001736 -0.000425 -0.004237 0.003702 0.016167
#
#
# Mechanical properties :
#
#
# Convention : Reuss Voigt Hill
#
# Bulk Modulus (GPa) = 52.03695 77.59103 64.81399
# Shear Modulus (GPa) = 36.59290 56.09144 46.34217
#
# Velocity S-wave (km/s) = 3.81443 4.72258 4.29259
# Velocity P-wave (km/s) = 6.33171 7.78386 7.09503
#
# Compressibility (1/GPa) = 0.01921711
#
# Stress axis : x y z
#
# Youngs Moduli (GPa) = 57.93720 52.15565 207.49792
#
# Poissons Ratio (x) = 0.41876 0.79861
# Poissons Ratio (y) = 0.46518 -0.17845
# Poissons Ratio (z) = 0.22299 -0.04485
#
# Static dielectric constant tensor:
#      x y z
#    x 3.168150 -3.105700 -1.832820 
#    y -3.105700 10.343820 4.880030 
#    z -1.832820 4.880030 4.984670 
# 
# From -- ./inp_files/478119.got.cif
#   From: 2010.05.17/outbox.cif.g08.bks.cpg/sg2_240_cif.got.tgz:478119.got - 2010.06.03 11:33:40.
