data_PCOD9071135
_publ_section_title
;
Structure prediction by ZEFSAII (Michael W. Deem and Ramdas Pophale) SiO2 
 PCOD9071135
Probable space group: P -1
;
_chemical_formula_sum "Si O2"
_cell_formula_units_Z 14
_cell_length_a 8.696264
_cell_length_b 8.270766
_cell_length_c 12.377909
_cell_angle_alpha 111.949799
_cell_angle_beta 60.045423
_cell_angle_gamma 126.724585
_cell_volume 614.619264
_symmetry_space_group_name_H-M "P -1"
_symmetry_group_IT_number 2
_symmetry_cell_setting 'triclinic'
loop_
_space_group_symop_operation_xyz
x,y,z
-x,-y,-z
loop_
_atom_site_type_symbol
_atom_site_label
_atom_site_fract_x
_atom_site_fract_y
_atom_site_fract_z
Si Si1 0.589670 0.208285 0.454761
Si Si2 0.250052 0.465731 0.355599
Si Si3 0.350350 0.240957 0.838167
Si Si4 0.575575 0.100154 0.876902
Si Si5 0.139046 0.469285 0.028819
Si Si6 0.758257 0.887032 0.599432
Si Si7 0.079003 0.817579 0.777795
O O1 0.760983 0.404150 0.508963
O O2 0.388646 0.200517 0.476260
O O3 0.715632 0.193178 0.307506
O O4 0.500000 0.000000 0.500000
O O5 0.440181 0.653208 0.275831
O O6 0.290504 0.304506 0.359365
O O7 0.077222 0.326751 0.294964
O O8 0.397197 0.135646 0.896256
O O9 0.155457 0.054552 0.800121
O O10 0.312817 0.427002 0.912823
O O11 0.759537 0.329092 0.886906
O O12 0.675206 0.006777 0.734972
O O13 0.500000 0.000000 0.000000
O O14 0.016444 0.272822 0.096884
O O15 0.000000 0.500000 0.000000
O O16 0.000000 0.000000 0.500000
#
# Coordination Sequence:
#
# PCOD9071135 Si02
#       7
#     2   2   2   2   2   2   2
#     4  12  25  51  75 107 155 203 253 323 389 466
#     4  12  27  46  79 110 152 205 255 322 393 459
#     4  12  26  52  76 112 156 203 258 324 393 465
#     4  12  26  50  79 111 160 208 258 319 391 464
#     4  12  29  45  78 114 153 199 262 322 391 468
#     4  12  29  48  79 119 155 206 266 321 387 471
#     4  12  26  47  78 110 153 198 260 310 397 458
#
# _framework density 22.77833
#
# number of rings (size 3 to 8) (size 9 to 14) (size 15 to 20)
#    0.000    0.000    4.286    4.286    8.000    0.000 
#    0.000    0.000    0.000    0.000    0.000    0.000 
#    0.000    0.000    0.000    0.000    0.000    0.000 
#
# Total GULP energy -78079.469986 kJ/mol
# GULP energy per Si atom -5577.104999 kJ/mol
# Density = 2.272649 g / cm^3
# Si number density = 22.778330 Si / 1000 Ang^3
#
#
#
# Elastic Constant Matrix: (Units=GPa)
#
#
# Indices 1 2 3 4 5 6 
#
# 1 93.8491 22.3454 16.2873 -3.8333 30.7567 -11.9958
# 2 22.3454 130.5262 5.9453 20.2461 21.5488 5.4872
# 3 16.2873 5.9453 62.5605 14.5736 1.9160 -6.3773
# 4 -3.8333 20.2461 14.5736 41.1166 -0.2355 -2.1324
# 5 30.7567 21.5488 1.9160 -0.2355 24.5354 8.6610
# 6 -11.9958 5.4872 -6.3773 -2.1324 8.6610 38.6918
#
#
#
# Elastic Compliance Matrix: (Units=1/GPa)
#
#
# Indices 1 2 3 4 5 6 
#
# 1 0.026453 0.000782 -0.005161 0.004529 -0.039138 0.016250
# 2 0.000782 0.009904 0.000410 -0.004961 -0.010071 0.000886
# 3 -0.005161 0.000410 0.018862 -0.007341 0.004558 0.000026
# 4 0.004529 -0.004961 -0.007341 0.029929 -0.001476 0.002878
# 5 -0.039138 -0.010071 0.004558 -0.001476 0.110574 -0.034787
# 6 0.016250 0.000886 0.000026 0.002878 -0.034787 0.038708
#
#
# Mechanical properties :
#
#
# Convention : Reuss Voigt Hill
#
# Bulk Modulus (GPa) = 21.15047 41.78797 31.46922
# Shear Modulus (GPa) = 19.37016 37.02596 28.19806
#
# Velocity S-wave (km/s) = 2.91929 4.03611 3.52225
# Velocity P-wave (km/s) = 4.54626 6.33290 5.51244
#
# Compressibility (1/GPa) = 0.04728026
#
# Stress axis : x y z
#
# Youngs Moduli (GPa) = 37.80236 100.97376 53.01526
#
# Poissons Ratio (x) = -0.07897 0.27362
# Poissons Ratio (y) = -0.02956 -0.02172
# Poissons Ratio (z) = 0.19511 -0.04136
#
# Static dielectric constant tensor:
#      x y z
#    x 1.861430 -0.019330 0.090810 
#    y -0.019330 1.762070 0.071600 
#    z 0.090810 0.071600 1.817620 
# 
# From -- ./inp_files/246113.got.cif
#   From: 2010.05.17/outbox.cif.g08.bks.cpg/sg2_124_cif.got.tgz:246113.got - 2010.06.03 11:33:40.
