data_PCOD9071153
_publ_section_title
;
Structure prediction by ZEFSAII (Michael W. Deem and Ramdas Pophale) SiO2 
 PCOD9071153
Probable space group: P -1
;
_chemical_formula_sum "Si O2"
_cell_formula_units_Z 15
_cell_length_a 22.764224
_cell_length_b 9.072887
_cell_length_c 7.992683
_cell_angle_alpha 129.096773
_cell_angle_beta 43.535383
_cell_angle_gamma 146.295953
_cell_volume 629.321907
_symmetry_space_group_name_H-M "P -1"
_symmetry_group_IT_number 2
_symmetry_cell_setting 'triclinic'
loop_
_space_group_symop_operation_xyz
x,y,z
-x,-y,-z
loop_
_atom_site_type_symbol
_atom_site_label
_atom_site_fract_x
_atom_site_fract_y
_atom_site_fract_z
Si Si1 0.482755 0.043330 0.255637
Si Si2 0.274425 0.712220 0.950220
Si Si3 0.071003 0.149478 0.129591
Si Si4 0.616366 0.704265 0.781307
Si Si5 0.500000 0.500000 0.500000
Si Si6 0.842595 0.894460 0.609775
Si Si7 0.233940 0.618349 0.579945
Si Si8 0.880543 0.190543 0.058448
O O1 0.367931 0.765729 0.369375
O O2 0.456887 0.222497 0.432052
O O3 0.500000 0.000000 0.000000
O O4 0.599691 0.198036 0.234631
O O5 0.184536 0.460140 0.078732
O O6 0.315850 0.987766 0.112693
O O7 0.220781 0.623659 0.810810
O O8 0.102831 0.983813 0.005458
O O9 0.972165 0.108726 0.412147
O O10 0.000000 0.000000 0.000000
O O11 0.566051 0.614492 0.634748
O O12 0.726790 0.732702 0.613565
O O13 0.500000 0.500000 0.000000
O O14 0.843607 0.682321 0.530664
O O15 0.828339 0.029837 0.877415
O O16 0.201750 0.769432 0.671221
O O17 0.000000 0.500000 0.000000
#
# Coordination Sequence:
#
# PCOD9071153 Si02
#       8
#     2   2   2   2   1   2   2   2
#     4  12  28  45  76 115 153 200 267 326 406 482
#     4  12  25  52  76 114 161 213 260 340 406 478
#     4  12  28  51  77 116 161 205 276 333 399 482
#     4  12  27  51  83 119 163 215 273 336 418 494
#     4  12  28  48  74 120 158 208 262 336 410 480
#     4  12  27  50  81 114 156 216 268 331 405 482
#     4  12  26  50  80 109 157 211 265 338 408 482
#     4  12  27  50  79 115 157 214 275 326 405 483
#
# _framework density 23.835176000000001
#
# number of rings (size 3 to 8) (size 9 to 14) (size 15 to 20)
#    0.000    0.000    5.333    3.200    3.733    0.533 
#    0.000    0.000    0.000    0.000    0.000    0.000 
#    0.000    0.000    0.000    0.000    0.000    0.000 
#
# Total GULP energy -83604.567843 kJ/mol
# GULP energy per Si atom -5573.637856 kJ/mol
# Density = 2.378093 g / cm^3
# Si number density = 23.835176 Si / 1000 Ang^3
#
#
#
# Elastic Constant Matrix: (Units=GPa)
#
#
# Indices 1 2 3 4 5 6 
#
# 1 133.8461 25.6031 16.1583 -5.1228 -3.4169 3.3783
# 2 25.6031 161.7868 47.2083 7.1301 0.1668 -10.4873
# 3 16.1583 47.2083 47.2403 -12.3801 -18.0235 -2.6279
# 4 -5.1228 7.1301 -12.3801 43.8943 12.6649 -0.1448
# 5 -3.4169 0.1668 -18.0235 12.6649 29.5994 8.0937
# 6 3.3783 -10.4873 -2.6279 -0.1448 8.0937 43.0289
#
#
#
# Elastic Compliance Matrix: (Units=1/GPa)
#
#
# Indices 1 2 3 4 5 6 
#
# 1 0.007888 -0.000765 -0.001934 0.000575 -0.000271 -0.000871
# 2 -0.000765 0.010979 -0.014699 -0.003549 -0.008520 0.003429
# 3 -0.001934 -0.014699 0.048878 0.007914 0.027779 -0.005644
# 4 0.000575 -0.003549 0.007914 0.027753 -0.007252 0.001031
# 5 -0.000271 -0.008520 0.027779 -0.007252 0.056848 -0.011076
# 6 -0.000871 0.003429 -0.005644 0.001031 -0.011076 0.025886
#
#
# Mechanical properties :
#
#
# Convention : Reuss Voigt Hill
#
# Bulk Modulus (GPa) = 30.35213 57.86805 44.11009
# Shear Modulus (GPa) = 22.32010 40.23144 31.27577
#
# Velocity S-wave (km/s) = 3.06344 4.11287 3.62632
# Velocity P-wave (km/s) = 5.02740 6.84729 6.00667
#
# Compressibility (1/GPa) = 0.03294662
#
# Stress axis : x y z
#
# Youngs Moduli (GPa) = 126.77040 91.08507 20.45909
#
# Poissons Ratio (x) = 0.06972 0.03958
# Poissons Ratio (y) = 0.09703 0.30074
# Poissons Ratio (z) = 0.24522 1.33890
#
# Static dielectric constant tensor:
#      x y z
#    x 1.930810 -0.055550 -0.040780 
#    y -0.055550 1.927730 -0.037930 
#    z -0.040780 -0.037930 1.990560 
# 
# From -- ./inp_files/352398.got.cif
#   From: 2010.05.17/outbox.cif.g08.bks.cpg/sg2_177_cif.got.tgz:352398.got - 2010.06.03 11:33:40.
