data_PCOD9071845
_publ_section_title
;
Structure prediction by ZEFSAII (Michael W. Deem and Ramdas Pophale) SiO2 
 PCOD9071845
Probable space group: P -1
;
_chemical_formula_sum "Si O2"
_cell_formula_units_Z 16
_cell_length_a 18.970720
_cell_length_b 7.089762
_cell_length_c 10.782050
_cell_angle_alpha 137.356539
_cell_angle_beta 135.567410
_cell_angle_gamma 37.816646
_cell_volume 570.634589
_symmetry_space_group_name_H-M "P -1"
_symmetry_group_IT_number 2
_symmetry_cell_setting 'triclinic'
loop_
_space_group_symop_operation_xyz
x,y,z
-x,-y,-z
loop_
_atom_site_type_symbol
_atom_site_label
_atom_site_fract_x
_atom_site_fract_y
_atom_site_fract_z
Si Si1 0.169068 0.493917 0.024342
Si Si2 0.695810 0.888990 0.395014
Si Si3 0.951739 0.372710 0.488097
Si Si4 0.554336 0.492851 0.198699
Si Si5 0.794957 0.093062 0.393505
Si Si6 0.332332 0.854372 0.237869
Si Si7 0.419797 0.160283 0.114575
Si Si8 0.916438 0.822440 0.900009
O O1 0.309626 0.323896 0.156447
O O2 0.126957 0.816316 0.039481
O O3 0.178921 0.204795 0.810964
O O4 0.051169 0.650133 0.039275
O O5 0.813136 0.498800 0.342400
O O6 0.742787 0.061740 0.444265
O O7 0.682483 0.033716 0.585297
O O8 0.556983 0.002316 0.254133
O O9 0.932321 0.588815 0.690870
O O10 0.000000 0.500000 0.500000
O O11 0.069121 0.990948 0.465376
O O12 0.447476 0.800878 0.287938
O O13 0.684261 0.433525 0.356407
O O14 0.500000 0.500000 0.000000
O O15 0.584154 0.128552 0.098644
O O16 0.371431 0.471111 0.112110
O O17 0.200645 0.087650 0.124547
#
# Coordination Sequence:
#
# PCOD9071845 Si02
#       8
#     2   2   2   2   2   2   2   2
#     4   8  15  25  42  72 103 128 156 205 252 293
#     4  10  18  29  54  83 104 126 166 217 260 300
#     4   8  15  27  43  74 104 133 158 203 263 305
#     4  11  23  36  51  73 104 141 174 207 254 303
#     4   9  17  30  51  71 104 134 167 205 256 302
#     4  10  19  32  54  77 104 130 169 213 256 302
#     4  10  19  31  53  78 101 131 169 214 255 297
#     4   8  14  25  43  69 101 128 159 203 248 297
#
# _framework density 28.038958000000001
#
# number of rings (size 3 to 8) (size 9 to 14) (size 15 to 20)
#    0.000    2.750    1.250    0.750    3.500    0.000 
#    0.000    0.625    0.000   12.750    0.000    0.000 
#    0.000    0.000    0.000    0.000    0.000    0.000 
#
# Total GULP energy -89257.055854 kJ/mol
# GULP energy per Si atom -5578.565991 kJ/mol
# Density = 2.797514 g / cm^3
# Si number density = 28.038958 Si / 1000 Ang^3
#
#
#
# Elastic Constant Matrix: (Units=GPa)
#
#
# Indices 1 2 3 4 5 6 
#
# 1 114.0048 89.1442 27.5428 -15.3960 11.7487 -54.0346
# 2 89.1442 240.1264 50.2315 -55.4836 9.0058 -85.2253
# 3 27.5428 50.2315 69.0674 -1.0745 -8.8325 -16.2732
# 4 -15.3960 -55.4836 -1.0745 52.4480 -7.0519 24.6284
# 5 11.7487 9.0058 -8.8325 -7.0519 23.4616 -8.0857
# 6 -54.0346 -85.2253 -16.2732 24.6284 -8.0857 89.6156
#
#
#
# Elastic Compliance Matrix: (Units=1/GPa)
#
#
# Indices 1 2 3 4 5 6 
#
# 1 0.015035 -0.003363 -0.003114 -0.002617 -0.006318 0.005451
# 2 -0.003363 0.009446 -0.004430 0.006912 -0.000069 0.004245
# 3 -0.003114 -0.004430 0.019951 -0.003629 0.009468 -0.000616
# 4 -0.002617 0.006912 -0.003629 0.027466 0.004582 -0.002799
# 5 -0.006318 -0.000069 0.009468 0.004582 0.051169 0.001202
# 6 0.005451 0.004245 -0.000616 -0.002799 0.001202 0.019248
#
#
# Mechanical properties :
#
#
# Convention : Reuss Voigt Hill
#
# Bulk Modulus (GPa) = 44.21264 84.11505 64.16385
# Shear Modulus (GPa) = 29.12574 50.19038 39.65806
#
# Velocity S-wave (km/s) = 3.22648 4.23546 3.76492
# Velocity P-wave (km/s) = 5.44818 7.34733 6.46784
#
# Compressibility (1/GPa) = 0.02261797
#
# Stress axis : x y z
#
# Youngs Moduli (GPa) = 66.51173 105.86324 50.12205
#
# Poissons Ratio (x) = 0.35607 0.15608
# Poissons Ratio (y) = 0.22371 0.22203
# Poissons Ratio (z) = 0.20712 0.46895
#
# Static dielectric constant tensor:
#      x y z
#    x 2.335190 -0.008150 0.078990 
#    y -0.008150 2.317430 -0.167780 
#    z 0.078990 -0.167780 2.202890 
# 
# From -- ./inp_files/207057.got.cif
#   From: 2010.05.17/outbox.cif.g08.bks.cpg/sg2_104_cif.got.tgz:207057.got - 2010.06.03 11:33:40.
