data_PCOD9071850
_publ_section_title
;
Structure prediction by ZEFSAII (Michael W. Deem and Ramdas Pophale) SiO2 
 PCOD9071850
Probable space group: P -1
;
_chemical_formula_sum "Si O2"
_cell_formula_units_Z 12
_cell_length_a 6.987845
_cell_length_b 8.775812
_cell_length_c 13.396679
_cell_angle_alpha 100.614162
_cell_angle_beta 46.740058
_cell_angle_gamma 125.101639
_cell_volume 458.104131
_symmetry_space_group_name_H-M "P -1"
_symmetry_group_IT_number 2
_symmetry_cell_setting 'triclinic'
loop_
_space_group_symop_operation_xyz
x,y,z
-x,-y,-z
loop_
_atom_site_type_symbol
_atom_site_label
_atom_site_fract_x
_atom_site_fract_y
_atom_site_fract_z
Si Si1 0.226811 0.455520 0.511956
Si Si2 0.771604 0.841337 0.647410
Si Si3 0.345687 0.087763 0.623718
Si Si4 0.249706 0.729982 0.160826
Si Si5 0.998247 0.125336 0.901785
Si Si6 0.004663 0.622079 0.921120
O O1 0.500000 0.500000 0.500000
O O2 0.239152 0.343897 0.400459
O O3 0.364251 0.675190 0.463543
O O4 0.891709 0.319637 0.682265
O O5 0.398987 0.773628 0.769277
O O6 0.000000 0.000000 0.500000
O O7 0.975097 0.958107 0.687792
O O8 0.229657 0.069459 0.776402
O O9 0.500000 0.000000 0.500000
O O10 0.031436 0.762599 0.167487
O O11 0.194539 0.536039 0.114556
O O12 0.624775 0.929337 0.035827
O O13 0.123991 0.268361 0.969451
O O14 0.000000 0.500000 0.000000
#
# Coordination Sequence:
#
# PCOD9071850 Si02
#       6
#     2   2   2   2   2   2
#     4  12  20  38  63  90 119 154 201 246 290 351
#     4  12  21  36  65  93 114 153 203 247 293 349
#     4  12  26  41  57  88 128 160 195 246 301 355
#     4  10  18  33  59  91 113 144 200 253 287 339
#     4  10  19  34  55  84 119 154 191 245 296 347
#     4  10  18  29  55  88 114 143 192 246 291 337
#
# _framework density 26.194918999999999
#
# number of rings (size 3 to 8) (size 9 to 14) (size 15 to 20)
#    0.000    1.000    5.000    5.000    0.000    0.667 
#    0.000    0.833    0.000    7.000    0.000    0.000 
#    0.000    0.000    0.000    0.000    0.000    0.000 
#
# Total GULP energy -67190.186518 kJ/mol
# GULP energy per Si atom -5599.182210 kJ/mol
# Density = 2.613530 g / cm^3
# Si number density = 26.194919 Si / 1000 Ang^3
#
#
#
# Elastic Constant Matrix: (Units=GPa)
#
#
# Indices 1 2 3 4 5 6 
#
# 1 63.0549 24.9353 7.3291 6.7317 0.1339 16.4934
# 2 24.9353 197.5178 79.7956 39.6493 -11.7016 18.6995
# 3 7.3291 79.7956 180.8994 15.3627 -2.2735 1.0935
# 4 6.7317 39.6493 15.3627 72.3355 -0.1938 1.5067
# 5 0.1339 -11.7016 -2.2735 -0.1938 19.3706 -2.5582
# 6 16.4934 18.6995 1.0935 1.5067 -2.5582 37.0945
#
#
#
# Elastic Compliance Matrix: (Units=1/GPa)
#
#
# Indices 1 2 3 4 5 6 
#
# 1 0.018551 -0.001633 0.000046 -0.000690 -0.002113 -0.007544
# 2 -0.001633 0.007602 -0.002940 -0.003326 0.003880 -0.002617
# 3 0.000046 -0.002940 0.006794 0.000137 -0.000819 0.001199
# 4 -0.000690 -0.003326 0.000137 0.015652 -0.001669 0.001228
# 5 -0.002113 0.003880 -0.000819 -0.001669 0.054242 0.002816
# 6 -0.007544 -0.002617 0.001199 0.001228 0.002816 0.031741
#
#
# Mechanical properties :
#
#
# Convention : Reuss Voigt Hill
#
# Bulk Modulus (GPa) = 41.85321 73.95468 57.90394
# Shear Modulus (GPa) = 32.98157 47.72092 40.35125
#
# Velocity S-wave (km/s) = 3.55221 4.27284 3.92908
# Velocity P-wave (km/s) = 5.73031 7.25511 6.53732
#
# Compressibility (1/GPa) = 0.02389303
#
# Stress axis : x y z
#
# Youngs Moduli (GPa) = 53.90516 131.54571 147.19428
#
# Poissons Ratio (x) = 0.21485 -0.00684
# Poissons Ratio (y) = 0.08804 0.43276
# Poissons Ratio (z) = -0.00250 0.38676
#
# Static dielectric constant tensor:
#      x y z
#    x 2.319480 0.075940 -0.002590 
#    y 0.075940 2.226800 0.061360 
#    z -0.002590 0.061360 2.029150 
# 
# From -- ./inp_files/188802.got.cif
#   From: 2010.05.17/outbox.cif.g08.bks.cpg/sg2_95_cif.got.tgz:188802.got - 2010.06.03 11:33:40.
