data_PCOD9071371
_publ_section_title
;
Structure prediction by ZEFSAII (Michael W. Deem and Ramdas Pophale) SiO2 
 PCOD9071371
Probable space group: P -1
;
_chemical_formula_sum "Si O2"
_cell_formula_units_Z 9
_cell_length_a 9.916695
_cell_length_b 5.321159
_cell_length_c 11.963944
_cell_angle_alpha 91.573270
_cell_angle_beta 135.196295
_cell_angle_gamma 63.530353
_cell_volume 354.053680
_symmetry_space_group_name_H-M "P -1"
_symmetry_group_IT_number 2
_symmetry_cell_setting 'triclinic'
loop_
_space_group_symop_operation_xyz
x,y,z
-x,-y,-z
loop_
_atom_site_type_symbol
_atom_site_label
_atom_site_fract_x
_atom_site_fract_y
_atom_site_fract_z
Si Si1 0.500000 0.500000 0.500000
Si Si2 0.723323 0.152623 0.825344
Si Si3 0.136508 0.334340 0.289958
Si Si4 0.596263 0.908633 0.931187
Si Si5 0.134119 0.137160 0.533302
O O1 0.267807 0.491801 0.393253
O O2 0.429615 0.526690 0.327445
O O3 0.723906 0.932062 0.727181
O O4 0.624201 0.149357 0.885361
O O5 0.000000 0.000000 0.000000
O O6 0.140819 0.162207 0.402696
O O7 0.864919 0.585106 0.090515
O O8 0.393195 0.934588 0.741232
O O9 0.500000 0.000000 0.000000
O O10 0.000000 0.500000 0.500000
O O11 0.000000 0.000000 0.500000
#
# Coordination Sequence:
#
# PCOD9071371 Si02
#       5
#     1   2   2   2   2
#     4  12  26  48  80 112 160 200 278 322 412 466
#     4  12  28  47  80 114 156 209 274 332 400 486
#     4  12  28  49  80 117 157 217 270 334 402 487
#     4  12  27  50  77 118 160 209 265 335 408 479
#     4  12  30  51  79 118 166 214 266 333 410 487
#
# _framework density 25.419875999999999
#
# number of rings (size 3 to 8) (size 9 to 14) (size 15 to 20)
#    0.000    0.000    6.667    1.333    6.222    2.667 
#    0.000    0.000    0.000    0.000    0.000    0.000 
#    0.000    0.000    0.000    0.000    0.000    0.000 
#
# Total GULP energy -50219.993380 kJ/mol
# GULP energy per Si atom -5579.999264 kJ/mol
# Density = 2.536202 g / cm^3
# Si number density = 25.419876 Si / 1000 Ang^3
#
#
#
# Elastic Constant Matrix: (Units=GPa)
#
#
# Indices 1 2 3 4 5 6 
#
# 1 205.4414 44.5274 62.3885 -3.3735 -29.9554 46.0126
# 2 44.5274 104.3691 32.5136 0.3743 1.2381 1.0792
# 3 62.3885 32.5136 226.9338 -14.9975 7.2966 18.3113
# 4 -3.3735 0.3743 -14.9975 35.7868 13.3260 9.9764
# 5 -29.9554 1.2381 7.2966 13.3260 74.8081 3.8474
# 6 46.0126 1.0792 18.3113 9.9764 3.8474 49.4512
#
#
#
# Elastic Compliance Matrix: (Units=1/GPa)
#
#
# Indices 1 2 3 4 5 6 
#
# 1 0.008143 -0.003056 -0.001241 0.001027 0.003637 -0.007541
# 2 -0.003056 0.011208 -0.001086 -0.001338 -0.001238 0.003368
# 3 -0.001241 -0.001086 0.005249 0.002987 -0.001459 -0.001254
# 4 0.001027 -0.001338 0.002987 0.033668 -0.005423 -0.008403
# 5 0.003637 -0.001238 -0.001459 -0.005423 0.016106 -0.002976
# 6 -0.007541 0.003368 -0.001254 -0.008403 -0.002976 0.029556
#
#
# Mechanical properties :
#
#
# Convention : Reuss Voigt Hill
#
# Bulk Modulus (GPa) = 72.29112 90.62256 81.45684
# Shear Modulus (GPa) = 41.90847 58.49688 50.20268
#
# Velocity S-wave (km/s) = 4.06476 4.80231 4.44885
# Velocity P-wave (km/s) = 7.10846 8.15336 7.64878
#
# Compressibility (1/GPa) = 0.01383296
#
# Stress axis : x y z
#
# Youngs Moduli (GPa) = 122.80404 89.22008 190.51545
#
# Poissons Ratio (x) = 0.27268 0.23651
# Poissons Ratio (y) = 0.37532 0.20689
# Poissons Ratio (z) = 0.15245 0.09689
#
# Static dielectric constant tensor:
#      x y z
#    x 2.022310 0.119900 -0.022490 
#    y 0.119900 2.289780 0.023700 
#    z -0.022490 0.023700 1.884720 
# 
# From -- ./inp_files/16646.got.cif
#   From: 2010.05.17/outbox.cif.g08.bks.cpg/sg2_9_cif.got.tgz:16646.got - 2010.06.03 11:33:40.
