data_PCOD9071397
_publ_section_title
;
Structure prediction by ZEFSAII (Michael W. Deem and Ramdas Pophale) SiO2 
 PCOD9071397
Probable space group: P -1
;
_chemical_formula_sum "Si O2"
_cell_formula_units_Z 12
_cell_length_a 13.248749
_cell_length_b 18.774002
_cell_length_c 8.286959
_cell_angle_alpha 131.125216
_cell_angle_beta 50.032809
_cell_angle_gamma 160.391121
_cell_volume 518.952225
_symmetry_space_group_name_H-M "P -1"
_symmetry_group_IT_number 2
_symmetry_cell_setting 'triclinic'
loop_
_space_group_symop_operation_xyz
x,y,z
-x,-y,-z
loop_
_atom_site_type_symbol
_atom_site_label
_atom_site_fract_x
_atom_site_fract_y
_atom_site_fract_z
Si Si1 0.362800 0.012893 0.115438
Si Si2 0.772268 0.711754 0.419655
Si Si3 0.566324 0.440208 0.765330
Si Si4 0.811087 0.940506 0.223501
Si Si5 0.098276 0.514057 0.588458
Si Si6 0.484465 0.093368 0.732833
O O1 0.589499 0.236745 0.297731
O O2 0.372045 0.028136 0.934736
O O3 0.019311 0.799909 0.217806
O O4 0.500000 0.000000 0.000000
O O5 0.500000 0.500000 0.500000
O O6 0.628562 0.678322 0.373458
O O7 0.982639 0.909021 0.611083
O O8 0.864482 0.576084 0.605479
O O9 0.465251 0.300808 0.796270
O O10 0.500000 0.500000 0.000000
O O11 0.716734 0.973873 0.280368
O O12 0.000000 0.000000 0.000000
O O13 0.000000 0.500000 0.500000
O O14 0.826930 0.354548 0.755187
O O15 0.500000 0.000000 0.500000
#
# Coordination Sequence:
#
# PCOD9071397 Si02
#       6
#     2   2   2   2   2   2
#     4  12  28  50  81 113 153 204 257 315 385 456
#     4  12  28  49  76 113 154 199 257 314 384 453
#     4  12  28  48  78 109 155 200 257 314 384 447
#     4  12  26  49  76 112 150 197 255 319 379 458
#     4  12  26  51  79 112 153 199 257 320 380 459
#     4  12  28  50  80 113 156 198 256 315 388 455
#
# _framework density 23.123515999999999
#
# number of rings (size 3 to 8) (size 9 to 14) (size 15 to 20)
#    0.000    0.000    3.333    5.000   14.000    1.333 
#    0.000    0.000    0.000    0.000    0.000    0.000 
#    0.000    0.000    0.000    0.000    0.000    0.000 
#
# Total GULP energy -67093.886668 kJ/mol
# GULP energy per Si atom -5591.157222 kJ/mol
# Density = 2.307089 g / cm^3
# Si number density = 23.123516 Si / 1000 Ang^3
#
#
#
# Elastic Constant Matrix: (Units=GPa)
#
#
# Indices 1 2 3 4 5 6 
#
# 1 171.0009 23.0246 74.6967 -2.1462 -6.0417 12.8625
# 2 23.0246 110.1788 40.9194 -30.3451 1.9297 -2.5282
# 3 74.6967 40.9194 145.5411 -14.8596 -1.4162 6.0557
# 4 -2.1462 -30.3451 -14.8596 53.3828 -0.9857 3.0835
# 5 -6.0417 1.9297 -1.4162 -0.9857 50.5726 -5.6670
# 6 12.8625 -2.5282 6.0557 3.0835 -5.6670 41.1787
#
#
#
# Elastic Compliance Matrix: (Units=1/GPa)
#
#
# Indices 1 2 3 4 5 6 
#
# 1 0.007736 -0.000494 -0.003848 -0.000930 0.000624 -0.001725
# 2 -0.000494 0.011756 -0.002482 0.005922 -0.000378 0.000746
# 3 -0.003848 -0.002482 0.009680 0.001154 -0.000125 -0.000478
# 4 -0.000930 0.005922 0.001154 0.022452 -0.000001 -0.001197
# 5 0.000624 -0.000378 -0.000125 -0.000001 0.020147 0.002573
# 6 -0.001725 0.000746 -0.000478 -0.001197 0.002573 0.025383
#
#
# Mechanical properties :
#
#
# Convention : Reuss Voigt Hill
#
# Bulk Modulus (GPa) = 64.41832 78.22248 71.32040
# Shear Modulus (GPa) = 43.11216 48.23218 45.67217
#
# Velocity S-wave (km/s) = 4.32259 4.57207 4.44908
# Velocity P-wave (km/s) = 7.26855 7.85960 7.56985
#
# Compressibility (1/GPa) = 0.01552354
#
# Stress axis : x y z
#
# Youngs Moduli (GPa) = 129.27214 85.06471 103.30237
#
# Poissons Ratio (x) = 0.04201 0.39755
# Poissons Ratio (y) = 0.06385 0.25637
# Poissons Ratio (z) = 0.49749 0.21111
#
# Static dielectric constant tensor:
#      x y z
#    x 1.787680 -0.030820 -0.005970 
#    y -0.030820 1.929650 -0.013170 
#    z -0.005970 -0.013170 1.895950 
# 
# From -- ./inp_files/279809.got.cif
#   From: 2010.05.17/outbox.cif.g08.bks.cpg/sg2_140_cif.got.tgz:279809.got - 2010.06.03 11:33:40.
