data_PCOD9071468
_publ_section_title
;
Structure prediction by ZEFSAII (Michael W. Deem and Ramdas Pophale) SiO2 
 PCOD9071468
Probable space group: P -1
;
_chemical_formula_sum "Si O2"
_cell_formula_units_Z 12
_cell_length_a 17.578616
_cell_length_b 24.789792
_cell_length_c 9.983958
_cell_angle_alpha 27.190663
_cell_angle_beta 153.789559
_cell_angle_gamma 164.577834
_cell_volume 499.652228
_symmetry_space_group_name_H-M "P -1"
_symmetry_group_IT_number 2
_symmetry_cell_setting 'triclinic'
loop_
_space_group_symop_operation_xyz
x,y,z
-x,-y,-z
loop_
_atom_site_type_symbol
_atom_site_label
_atom_site_fract_x
_atom_site_fract_y
_atom_site_fract_z
Si Si1 0.252941 0.571807 0.821999
Si Si2 0.152517 0.836649 0.768217
Si Si3 0.357647 0.215300 0.566263
Si Si4 0.884035 0.660896 0.447049
Si Si5 0.748223 0.840465 0.782188
Si Si6 0.343573 0.786182 0.747476
O O1 0.525439 0.707306 0.850623
O O2 0.347062 0.704118 0.805673
O O3 0.000000 0.500000 0.500000
O O4 0.085873 0.360880 0.075720
O O5 0.071657 0.748788 0.685095
O O6 0.093089 0.943393 0.434739
O O7 0.500000 0.000000 0.000000
O O8 0.529215 0.430440 0.411724
O O9 0.403704 0.237155 0.431615
O O10 0.505944 0.196234 0.929971
O O11 0.000000 0.000000 0.500000
O O12 0.008609 0.635770 0.594639
O O13 0.929248 0.819825 0.116960
O O14 0.500000 0.000000 0.500000
#
# Coordination Sequence:
#
# PCOD9071468 Si02
#       6
#     2   2   2   2   2   2
#     4  12  27  49  82 116 158 206 266 330 395 470
#     4  12  26  50  81 115 160 211 266 326 401 477
#     4  12  28  51  81 118 160 213 266 329 398 472
#     4  12  27  52  79 116 164 206 267 330 395 479
#     4  12  28  49  82 119 158 207 265 331 399 471
#     4  12  27  51  84 115 159 212 266 323 402 476
#
# _framework density 24.016703
#
# number of rings (size 3 to 8) (size 9 to 14) (size 15 to 20)
#    0.000    0.000    3.333    5.500    4.667    2.000 
#    0.000    0.000    0.000    0.000    0.000    0.000 
#    0.000    0.000    0.000    0.000    0.000    0.000 
#
# Total GULP energy -67228.547233 kJ/mol
# GULP energy per Si atom -5602.378936 kJ/mol
# Density = 2.396204 g / cm^3
# Si number density = 24.016703 Si / 1000 Ang^3
#
#
#
# Elastic Constant Matrix: (Units=GPa)
#
#
# Indices 1 2 3 4 5 6 
#
# 1 164.1325 66.6472 74.4004 8.8484 -18.0847 -6.8714
# 2 66.6472 158.9377 62.0078 -20.9161 -7.4055 -4.5013
# 3 74.4004 62.0078 151.1391 -30.0747 -12.7516 17.3639
# 4 8.8484 -20.9161 -30.0747 48.4804 3.3548 -11.0600
# 5 -18.0847 -7.4055 -12.7516 3.3548 44.1846 2.8649
# 6 -6.8714 -4.5013 17.3639 -11.0600 2.8649 26.9466
#
#
#
# Elastic Compliance Matrix: (Units=1/GPa)
#
#
# Indices 1 2 3 4 5 6 
#
# 1 0.010321 -0.002885 -0.005177 -0.005873 0.002511 0.002809
# 2 -0.002885 0.008844 -0.001892 0.004071 -0.000795 0.003716
# 3 -0.005177 -0.001892 0.012014 0.005897 0.001042 -0.007068
# 4 -0.005873 0.004071 0.005897 0.029032 -0.002716 0.007587
# 5 0.002511 -0.000795 0.001042 -0.002716 0.024284 -0.003860
# 6 0.002809 0.003716 -0.007068 0.007587 -0.003860 0.046527
#
#
# Mechanical properties :
#
#
# Convention : Reuss Voigt Hill
#
# Bulk Modulus (GPa) = 88.71412 97.81333 93.26372
# Shear Modulus (GPa) = 32.32329 41.99924 37.16127
#
# Velocity S-wave (km/s) = 3.67259 4.18634 3.93785
# Velocity P-wave (km/s) = 7.41637 8.01142 7.71963
#
# Compressibility (1/GPa) = 0.01127216
#
# Stress axis : x y z
#
# Youngs Moduli (GPa) = 96.88537 113.07623 83.23298
#
# Poissons Ratio (x) = 0.32620 0.43088
# Poissons Ratio (y) = 0.27949 0.15749
# Poissons Ratio (z) = 0.50156 0.21395
#
# Static dielectric constant tensor:
#      x y z
#    x 1.982550 0.047230 0.017180 
#    y 0.047230 2.018900 -0.036820 
#    z 0.017180 -0.036820 1.894570 
# 
# From -- ./inp_files/187153.got.cif
#   From: 2010.05.17/outbox.cif.g08.bks.cpg/sg2_94_cif.got.tgz:187153.got - 2010.06.03 11:33:40.
