data_PCOD9071278
_publ_section_title
;
Structure prediction by ZEFSAII (Michael W. Deem and Ramdas Pophale) SiO2 
 PCOD9071278
Probable space group: P -1
;
_chemical_formula_sum "Si O2"
_cell_formula_units_Z 10
_cell_length_a 8.849887
_cell_length_b 14.795266
_cell_length_c 14.910327
_cell_angle_alpha 160.873818
_cell_angle_beta 133.675723
_cell_angle_gamma 44.183592
_cell_volume 445.097051
_symmetry_space_group_name_H-M "P -1"
_symmetry_group_IT_number 2
_symmetry_cell_setting 'triclinic'
loop_
_space_group_symop_operation_xyz
x,y,z
-x,-y,-z
loop_
_atom_site_type_symbol
_atom_site_label
_atom_site_fract_x
_atom_site_fract_y
_atom_site_fract_z
Si Si1 0.147860 0.711438 0.249241
Si Si2 0.272720 0.933523 0.322840
Si Si3 0.598922 0.586617 0.419526
Si Si4 0.876407 0.454006 0.233417
Si Si5 0.656913 0.992878 0.973777
O O1 0.199543 0.780427 0.233707
O O2 0.372166 0.605099 0.295341
O O3 0.000000 0.000000 0.500000
O O4 0.000000 0.500000 0.000000
O O5 0.722964 0.284047 0.961405
O O6 0.500000 0.000000 0.500000
O O7 0.118781 0.251587 0.537614
O O8 0.778993 0.548166 0.379807
O O9 0.575089 0.866933 0.732679
O O10 0.108652 0.224069 0.115032
O O11 0.333622 0.688347 0.746147
O O12 0.500000 0.000000 0.000000
#
# Coordination Sequence:
#
# PCOD9071278 Si02
#       5
#     2   2   2   2   2
#     4  12  28  45  74 109 150 187 234 301 365 428
#     4  12  26  47  76 110 145 188 243 294 362 433
#     4  12  26  49  73 103 147 191 244 291 362 431
#     4  12  26  47  78 105 146 191 244 297 354 436
#     4  12  28  47  73 106 144 191 242 303 359 420
#
# _framework density 22.467009999999998
#
# number of rings (size 3 to 8) (size 9 to 14) (size 15 to 20)
#    0.000    0.000    2.000    7.200   11.200    0.000 
#    0.000    0.000    0.000    0.000    0.000    0.000 
#    0.000    0.000    0.000    0.000    0.000    0.000 
#
# Total GULP energy -56066.783350 kJ/mol
# GULP energy per Si atom -5606.678335 kJ/mol
# Density = 2.241587 g / cm^3
# Si number density = 22.467010 Si / 1000 Ang^3
#
#
#
# Elastic Constant Matrix: (Units=GPa)
#
#
# Indices 1 2 3 4 5 6 
#
# 1 151.9383 36.3289 24.5617 -8.3125 -3.1325 2.3136
# 2 36.3289 94.9691 2.6604 14.8129 6.2334 -9.9877
# 3 24.5617 2.6604 119.3076 -1.3430 3.1693 8.4918
# 4 -8.3125 14.8129 -1.3430 47.8026 6.8308 -4.2477
# 5 -3.1325 6.2334 3.1693 6.8308 45.8309 5.3491
# 6 2.3136 -9.9877 8.4918 -4.2477 5.3491 37.5794
#
#
#
# Elastic Compliance Matrix: (Units=1/GPa)
#
#
# Indices 1 2 3 4 5 6 
#
# 1 0.007790 -0.003435 -0.001459 0.002167 0.000888 -0.000944
# 2 -0.003435 0.012946 0.000178 -0.004043 -0.001803 0.003412
# 3 -0.001459 0.000178 0.008818 -0.000150 -0.000501 -0.001801
# 4 0.002167 -0.004043 -0.000150 0.023133 -0.002957 0.001861
# 5 0.000888 -0.001803 -0.000501 -0.002957 0.023072 -0.004039
# 6 -0.000944 0.003412 -0.001801 0.001861 -0.004039 0.028768
#
#
# Mechanical properties :
#
#
# Convention : Reuss Voigt Hill
#
# Bulk Modulus (GPa) = 49.69498 54.81301 52.25399
# Shear Modulus (GPa) = 41.43675 46.42019 43.92847
#
# Velocity S-wave (km/s) = 4.29923 4.55042 4.42661
# Velocity P-wave (km/s) = 6.84190 7.21516 7.03101
#
# Compressibility (1/GPa) = 0.02012276
#
# Stress axis : x y z
#
# Youngs Moduli (GPa) = 128.37025 77.24133 113.40530
#
# Poissons Ratio (x) = 0.26530 0.16547
# Poissons Ratio (y) = 0.44090 -0.02018
# Poissons Ratio (z) = 0.18731 -0.01375
#
# Static dielectric constant tensor:
#      x y z
#    x 1.802220 0.018570 -0.015240 
#    y 0.018570 1.878520 -0.045090 
#    z -0.015240 -0.045090 1.791640 
# 
# From -- ./inp_files/506013.got.cif
#   From: 2010.05.17/outbox.cif.g08.bks.cpg/sg2_254_cif.got.tgz:506013.got - 2010.06.03 11:33:40.
