data_PCOD9071501
_publ_section_title
;
Structure prediction by ZEFSAII (Michael W. Deem and Ramdas Pophale) SiO2 
 PCOD9071501
Probable space group: P -1
;
_chemical_formula_sum "Si O2"
_cell_formula_units_Z 13
_cell_length_a 9.327462
_cell_length_b 10.603316
_cell_length_c 5.513450
_cell_angle_alpha 95.250018
_cell_angle_beta 71.277561
_cell_angle_gamma 108.972080
_cell_volume 488.332451
_symmetry_space_group_name_H-M "P -1"
_symmetry_group_IT_number 2
_symmetry_cell_setting 'triclinic'
loop_
_space_group_symop_operation_xyz
x,y,z
-x,-y,-z
loop_
_atom_site_type_symbol
_atom_site_label
_atom_site_fract_x
_atom_site_fract_y
_atom_site_fract_z
Si Si1 0.821383 0.513780 0.625821
Si Si2 0.853916 0.047329 0.497479
Si Si3 0.966352 0.752044 0.922740
Si Si4 0.778905 0.266848 0.914360
Si Si5 0.555556 0.803054 0.751097
Si Si6 0.360466 0.295605 0.799547
Si Si7 0.500000 0.500000 0.500000
O O1 0.863701 0.659441 0.752092
O O2 0.743140 0.382057 0.804374
O O3 0.696314 0.510681 0.484522
O O4 0.000000 0.500000 0.500000
O O5 0.831537 0.166889 0.693417
O O6 0.910057 0.112599 0.217656
O O7 0.686896 0.932087 0.595999
O O8 0.000000 0.000000 0.500000
O O9 0.825830 0.773077 0.162072
O O10 0.070920 0.674687 0.983204
O O11 0.621336 0.188928 0.134968
O O12 0.554639 0.694299 0.520350
O O13 0.599809 0.776196 0.998344
O O14 0.427640 0.452987 0.807012
#
# Coordination Sequence:
#
# PCOD9071501 Si02
#       7
#     2   2   2   2   2   2   1
#     4  12  26  52  82 128 167 221 288 353 436 507
#     4  12  27  52  81 117 166 227 284 345 427 512
#     4  12  28  49  85 118 167 225 279 354 429 510
#     4  12  28  50  80 121 167 219 282 362 423 504
#     4  12  29  50  82 119 171 215 287 347 422 506
#     4  12  28  51  80 124 162 222 280 349 422 513
#     4  12  28  48  90 112 178 220 280 346 432 506
#
# _framework density 26.621207999999999
#
# number of rings (size 3 to 8) (size 9 to 14) (size 15 to 20)
#    0.000    0.000    4.615    3.692    8.615    3.077 
#    0.000    0.000    0.000    0.000    0.000    0.000 
#    0.000    0.000    0.000    0.000    0.000    0.000 
#
# Total GULP energy -72585.524130 kJ/mol
# GULP energy per Si atom -5583.501856 kJ/mol
# Density = 2.656062 g / cm^3
# Si number density = 26.621208 Si / 1000 Ang^3
#
#
#
# Elastic Constant Matrix: (Units=GPa)
#
#
# Indices 1 2 3 4 5 6 
#
# 1 173.1083 23.1543 48.7221 -7.5074 -4.3950 13.7632
# 2 23.1543 103.6827 37.8206 -23.2293 -2.0526 16.3747
# 3 48.7221 37.8206 117.7081 -33.2551 -16.3470 6.3646
# 4 -7.5074 -23.2293 -33.2551 47.9177 2.9763 -12.5855
# 5 -4.3950 -2.0526 -16.3470 2.9763 68.6865 -7.6596
# 6 13.7632 16.3747 6.3646 -12.5855 -7.6596 49.9479
#
#
#
# Elastic Compliance Matrix: (Units=1/GPa)
#
#
# Indices 1 2 3 4 5 6 
#
# 1 0.006776 -0.000499 -0.003115 -0.001794 -0.000449 -0.001828
# 2 -0.000499 0.011851 -0.002670 0.003143 -0.000754 -0.002731
# 3 -0.003115 -0.002670 0.013092 0.007775 0.002773 0.002450
# 4 -0.001794 0.003143 0.007775 0.028998 0.001239 0.005970
# 5 -0.000449 -0.000754 0.002773 0.001239 0.015414 0.002693
# 6 -0.001828 -0.002731 0.002450 0.005970 0.002693 0.023025
#
#
# Mechanical properties :
#
#
# Convention : Reuss Voigt Hill
#
# Bulk Modulus (GPa) = 52.21757 68.21033 60.21395
# Shear Modulus (GPa) = 42.33380 52.29724 47.31552
#
# Velocity S-wave (km/s) = 3.99209 4.43707 4.22045
# Velocity P-wave (km/s) = 6.39583 7.20613 6.81304
#
# Compressibility (1/GPa) = 0.01915064
#
# Stress axis : x y z
#
# Youngs Moduli (GPa) = 147.57315 84.38177 76.38258
#
# Poissons Ratio (x) = 0.04213 0.23792
# Poissons Ratio (y) = 0.07368 0.20395
# Poissons Ratio (z) = 0.45967 0.22531
#
# Static dielectric constant tensor:
#      x y z
#    x 2.082350 0.002240 -0.057960 
#    y 0.002240 2.395260 0.069910 
#    z -0.057960 0.069910 2.272690 
# 
# From -- ./inp_files/24596.got.cif
#   From: 2010.05.17/outbox.cif.g08.bks.cpg/sg2_13_cif.got.tgz:24596.got - 2010.06.03 11:33:40.
