data_PCOD9071624
_publ_section_title
;
Structure prediction by ZEFSAII (Michael W. Deem and Ramdas Pophale) SiO2 
 PCOD9071624
Probable space group: P -1
;
_chemical_formula_sum "Si O2"
_cell_formula_units_Z 14
_cell_length_a 5.097469
_cell_length_b 11.909057
_cell_length_c 10.028599
_cell_angle_alpha 88.819639
_cell_angle_beta 124.542667
_cell_angle_gamma 100.162578
_cell_volume 491.225432
_symmetry_space_group_name_H-M "P -1"
_symmetry_group_IT_number 2
_symmetry_cell_setting 'triclinic'
loop_
_space_group_symop_operation_xyz
x,y,z
-x,-y,-z
loop_
_atom_site_type_symbol
_atom_site_label
_atom_site_fract_x
_atom_site_fract_y
_atom_site_fract_z
Si Si1 0.531360 0.088227 0.880993
Si Si2 0.598547 0.358252 0.677766
Si Si3 0.022080 0.429829 0.349891
Si Si4 0.702562 0.572688 0.845245
Si Si5 0.515733 0.136251 0.512208
Si Si6 0.212646 0.866854 0.677549
Si Si7 0.234711 0.215331 0.988869
O O1 0.325749 0.180828 0.868238
O O2 0.907111 0.136832 0.956004
O O3 0.500000 0.000000 0.000000
O O4 0.348678 0.004393 0.717892
O O5 0.263522 0.381914 0.517517
O O6 0.852548 0.435613 0.648232
O O7 0.665933 0.434345 0.832205
O O8 0.606917 0.224853 0.661140
O O9 0.063670 0.382462 0.212669
O O10 0.658935 0.412087 0.294232
O O11 0.781619 0.652609 0.994924
O O12 0.764814 0.177826 0.463652
O O13 0.149651 0.150027 0.371625
O O14 0.500000 0.000000 0.500000
O O15 0.466424 0.812288 0.837009
#
# Coordination Sequence:
#
# PCOD9071624 Si02
#       7
#     2   2   2   2   2   2   2
#     4  10  20  35  53  84 113 144 177 223 281 343
#     4   9  21  31  51  71 112 133 179 224 264 321
#     4   9  18  29  48  73 109 137 171 205 287 320
#     4  10  18  29  47  80 106 135 162 210 279 333
#     4  12  25  38  55  79 107 157 199 218 256 319
#     4  11  22  38  55  76 113 148 183 231 270 309
#     4  11  19  32  59  86 114 140 175 218 292 350
#
# _framework density 28.500153999999998
#
# number of rings (size 3 to 8) (size 9 to 14) (size 15 to 20)
#    0.857    0.857    0.000    7.714    2.000    0.000 
#    0.000    0.000    0.000    0.000    0.000    6.000 
#    0.000    0.000    0.000    0.000    0.000    0.000 
#
# Total GULP energy -78317.013847 kJ/mol
# GULP energy per Si atom -5594.072418 kJ/mol
# Density = 2.843529 g / cm^3
# Si number density = 28.500154 Si / 1000 Ang^3
#
#
#
# Elastic Constant Matrix: (Units=GPa)
#
#
# Indices 1 2 3 4 5 6 
#
# 1 163.3415 41.9636 49.8879 7.7841 -4.8708 -39.8429
# 2 41.9636 222.6829 60.6471 45.8382 0.0097 -33.5920
# 3 49.8879 60.6471 69.3006 13.4027 -10.9021 -24.2251
# 4 7.7841 45.8382 13.4027 66.9717 -23.6875 -3.7528
# 5 -4.8708 0.0097 -10.9021 -23.6875 49.0346 12.2787
# 6 -39.8429 -33.5920 -24.2251 -3.7528 12.2787 52.8874
#
#
#
# Elastic Compliance Matrix: (Units=1/GPa)
#
#
# Indices 1 2 3 4 5 6 
#
# 1 0.008777 0.000748 -0.005356 -0.000889 -0.002010 0.005037
# 2 0.000748 0.007562 -0.005588 -0.005635 -0.004772 0.003515
# 3 -0.005356 -0.005588 0.024602 0.001429 0.004970 0.002632
# 4 -0.000889 -0.005635 0.001429 0.022729 0.012429 -0.004867
# 5 -0.002010 -0.004772 0.004970 0.012429 0.029359 -0.008203
# 6 0.005037 0.003515 0.002632 -0.004867 -0.008203 0.027700
#
#
# Mechanical properties :
#
#
# Convention : Reuss Voigt Hill
#
# Bulk Modulus (GPa) = 48.66862 84.48025 66.57443
# Shear Modulus (GPa) = 33.79034 53.96715 43.87875
#
# Velocity S-wave (km/s) = 3.44702 4.35624 3.92803
# Velocity P-wave (km/s) = 5.74075 7.41680 6.63193
#
# Compressibility (1/GPa) = 0.02054712
#
# Stress axis : x y z
#
# Youngs Moduli (GPa) = 113.93317 132.23690 40.64786
#
# Poissons Ratio (x) = -0.09886 0.21772
# Poissons Ratio (y) = -0.08517 0.22715
# Poissons Ratio (z) = 0.61024 0.73898
#
# Static dielectric constant tensor:
#      x y z
#    x 2.119980 -0.012080 -0.048190 
#    y -0.012080 2.313910 0.099810 
#    z -0.048190 0.099810 2.273280 
# 
# From -- ./inp_files/481667.got.cif
#   From: 2010.05.17/outbox.cif.g08.bks.cpg/sg2_241_cif.got.tgz:481667.got - 2010.06.03 11:33:40.
