data_PCOD9071228
_publ_section_title
;
Structure prediction by ZEFSAII (Michael W. Deem and Ramdas Pophale) SiO2 
 PCOD9071228
Probable space group: P -1
;
_chemical_formula_sum "Si O2"
_cell_formula_units_Z 14
_cell_length_a 14.342557
_cell_length_b 9.486677
_cell_length_c 13.693280
_cell_angle_alpha 107.620099
_cell_angle_beta 33.949247
_cell_angle_gamma 131.584498
_cell_volume 626.425301
_symmetry_space_group_name_H-M "P -1"
_symmetry_group_IT_number 2
_symmetry_cell_setting 'triclinic'
loop_
_space_group_symop_operation_xyz
x,y,z
-x,-y,-z
loop_
_atom_site_type_symbol
_atom_site_label
_atom_site_fract_x
_atom_site_fract_y
_atom_site_fract_z
Si Si1 0.276974 0.559810 0.008763
Si Si2 0.452968 0.191408 0.736236
Si Si3 0.144139 0.992715 0.448039
Si Si4 0.413545 0.291666 0.590492
Si Si5 0.953609 0.397589 0.624453
Si Si6 0.817900 0.301649 0.198772
Si Si7 0.127512 0.151972 0.138705
O O1 0.272546 0.399607 0.031762
O O2 0.251604 0.662012 0.138909
O O3 0.018705 0.397998 0.131369
O O4 0.545838 0.760320 0.756351
O O5 0.396323 0.278106 0.720802
O O6 0.764778 0.399267 0.523521
O O7 0.331348 0.950387 0.758390
O O8 0.321450 0.150309 0.944211
O O9 0.000000 0.000000 0.500000
O O10 0.127299 0.822447 0.377160
O O11 0.984675 0.900008 0.667309
O O12 0.500000 0.500000 0.500000
O O13 0.610303 0.288599 0.401173
O O14 0.128050 0.053556 0.748588
O O15 0.000000 0.500000 0.500000
O O16 0.000000 0.500000 0.000000
#
# Coordination Sequence:
#
# PCOD9071228 Si02
#       7
#     2   2   2   2   2   2   2
#     4  12  26  51  79 107 149 196 254 310 373 442
#     4  12  27  48  78 111 152 199 246 309 387 442
#     4  12  30  49  76 109 149 201 255 304 370 446
#     4  12  26  46  75 113 153 193 250 311 383 446
#     4  12  27  49  76 107 147 198 252 304 366 446
#     4  12  26  46  76 112 146 193 250 312 376 446
#     4  12  27  47  76 110 154 194 248 313 372 445
#
# _framework density 22.349032999999999
#
# number of rings (size 3 to 8) (size 9 to 14) (size 15 to 20)
#    0.000    0.000    4.286    4.714   10.000    2.286 
#    0.000    0.000    0.000    0.000    0.000    0.000 
#    0.000    0.000    0.000    0.000    0.000    0.000 
#
# Total GULP energy -78389.597229 kJ/mol
# GULP energy per Si atom -5599.256945 kJ/mol
# Density = 2.229817 g / cm^3
# Si number density = 22.349033 Si / 1000 Ang^3
#
#
#
# Elastic Constant Matrix: (Units=GPa)
#
#
# Indices 1 2 3 4 5 6 
#
# 1 63.5625 36.1914 -6.3924 -2.3040 12.2608 -2.9474
# 2 36.1914 138.2938 57.3890 -0.1315 11.8377 -15.4228
# 3 -6.3924 57.3890 118.7350 13.0969 14.0574 -1.2668
# 4 -2.3040 -0.1315 13.0969 43.7014 6.0480 1.8274
# 5 12.2608 11.8377 14.0574 6.0480 43.4088 1.1098
# 6 -2.9474 -15.4228 -1.2668 1.8274 1.1098 31.9171
#
#
#
# Elastic Compliance Matrix: (Units=1/GPa)
#
#
# Indices 1 2 3 4 5 6 
#
# 1 0.021684 -0.007587 0.005475 0.000341 -0.005844 -0.001263
# 2 -0.007587 0.012457 -0.006590 0.001326 0.000568 0.004962
# 3 0.005475 -0.006590 0.012608 -0.002964 -0.003371 -0.001892
# 4 0.000341 0.001326 -0.002964 0.024218 -0.002854 -0.000733
# 5 -0.005844 0.000568 -0.003371 -0.002854 0.026051 -0.001141
# 6 -0.001263 0.004962 -0.001892 -0.000733 -0.001141 0.033619
#
#
# Mechanical properties :
#
#
# Convention : Reuss Voigt Hill
#
# Bulk Modulus (GPa) = 34.07662 54.99637 44.53650
# Shear Modulus (GPa) = 31.68097 39.36570 35.52333
#
# Velocity S-wave (km/s) = 3.76913 4.20146 3.99115
# Velocity P-wave (km/s) = 5.84999 6.94246 6.41950
#
# Compressibility (1/GPa) = 0.02934563
#
# Stress axis : x y z
#
# Youngs Moduli (GPa) = 46.11627 80.27427 79.31441
#
# Poissons Ratio (x) = 0.60906 -0.43428
# Poissons Ratio (y) = 0.34989 0.52270
# Poissons Ratio (z) = -0.25251 0.52902
#
# Static dielectric constant tensor:
#      x y z
#    x 1.828000 0.009810 0.049750 
#    y 0.009810 1.802150 0.035020 
#    z 0.049750 0.035020 1.881090 
# 
# From -- ./inp_files/356516.got.cif
#   From: 2010.05.17/outbox.cif.g08.bks.cpg/sg2_179_cif.got.tgz:356516.got - 2010.06.03 11:33:40.
