data_PCOD9071487
_publ_section_title
;
Structure prediction by ZEFSAII (Michael W. Deem and Ramdas Pophale) SiO2 
 PCOD9071487
Probable space group: P -1
;
_chemical_formula_sum "Si O2"
_cell_formula_units_Z 13
_cell_length_a 9.917239
_cell_length_b 10.163210
_cell_length_c 8.318831
_cell_angle_alpha 98.608009
_cell_angle_beta 107.348702
_cell_angle_gamma 42.702335
_cell_volume 539.634783
_symmetry_space_group_name_H-M "P -1"
_symmetry_group_IT_number 2
_symmetry_cell_setting 'triclinic'
loop_
_space_group_symop_operation_xyz
x,y,z
-x,-y,-z
loop_
_atom_site_type_symbol
_atom_site_label
_atom_site_fract_x
_atom_site_fract_y
_atom_site_fract_z
Si Si1 0.323501 0.034995 0.026901
Si Si2 0.716875 0.912114 0.610708
Si Si3 0.347554 0.525841 0.332359
Si Si4 0.074924 0.963845 0.334923
Si Si5 0.008532 0.413946 0.818274
Si Si6 0.371828 0.706148 0.908085
Si Si7 0.000000 0.500000 0.500000
O O1 0.266322 0.122908 0.199626
O O2 0.136334 0.195160 0.870017
O O3 0.500000 0.000000 0.000000
O O4 0.377533 0.843180 0.024158
O O5 0.889869 0.716357 0.537536
O O6 0.500000 0.000000 0.500000
O O7 0.751210 0.042393 0.611612
O O8 0.500000 0.500000 0.500000
O O9 0.188017 0.753906 0.270671
O O10 0.497795 0.365980 0.221183
O O11 0.205427 0.495525 0.322847
O O12 0.000000 0.000000 0.500000
O O13 0.870843 0.149065 0.195083
O O14 0.104644 0.429873 0.710284
O O15 0.000000 0.500000 0.000000
O O16 0.500000 0.500000 0.000000
#
# Coordination Sequence:
#
# PCOD9071487 Si02
#       7
#     2   2   2   2   2   2   1
#     4  12  27  52  80 119 170 225 282 360 437 511
#     4  12  30  48  80 118 166 215 285 349 423 519
#     4  12  27  48  82 113 164 219 278 343 424 502
#     4  12  27  50  80 116 160 216 280 342 427 515
#     4  12  26  51  81 121 168 222 280 351 427 518
#     4  12  29  49  81 117 160 218 284 347 426 507
#     4  12  28  46  82 120 162 212 284 338 432 500
#
# _framework density 24.090364000000001
#
# number of rings (size 3 to 8) (size 9 to 14) (size 15 to 20)
#    0.000    0.000    4.615    3.692    6.462    3.692 
#    0.000    0.000    0.000    0.000    0.000    0.000 
#    0.000    0.000    0.000    0.000    0.000    0.000 
#
# Total GULP energy -72431.396763 kJ/mol
# GULP energy per Si atom -5571.645905 kJ/mol
# Density = 2.403553 g / cm^3
# Si number density = 24.090364 Si / 1000 Ang^3
#
#
#
# Elastic Constant Matrix: (Units=GPa)
#
#
# Indices 1 2 3 4 5 6 
#
# 1 95.2782 3.9232 18.3444 -9.1264 33.9565 1.8922
# 2 3.9232 125.0164 23.0832 -2.0118 18.2102 11.1894
# 3 18.3444 23.0832 119.0800 -6.9843 -1.4890 -5.1326
# 4 -9.1264 -2.0118 -6.9843 57.8261 -7.2896 -3.5773
# 5 33.9565 18.2102 -1.4890 -7.2896 46.2167 3.3273
# 6 1.8922 11.1894 -5.1326 -3.5773 3.3273 34.4098
#
#
#
# Elastic Compliance Matrix: (Units=1/GPa)
#
#
# Indices 1 2 3 4 5 6 
#
# 1 0.015283 0.001851 -0.002856 0.000590 -0.011910 -0.000655
# 2 0.001851 0.009361 -0.002322 -0.000480 -0.004978 -0.003061
# 3 -0.002856 -0.002322 0.009490 0.001168 0.003350 0.002125
# 4 0.000590 -0.000480 0.001168 0.017943 0.002485 0.001923
# 5 -0.011910 -0.004978 0.003350 0.002485 0.032860 -0.000146
# 6 -0.000655 -0.003061 0.002125 0.001923 -0.000146 0.030624
#
#
# Mechanical properties :
#
#
# Convention : Reuss Voigt Hill
#
# Bulk Modulus (GPa) = 36.39009 47.78624 42.08816
# Shear Modulus (GPa) = 38.05906 47.29210 42.67558
#
# Velocity S-wave (km/s) = 3.97904 4.43551 4.21346
# Velocity P-wave (km/s) = 6.02070 6.79051 6.41716
#
# Compressibility (1/GPa) = 0.02748001
#
# Stress axis : x y z
#
# Youngs Moduli (GPa) = 65.43042 106.82666 105.37650
#
# Poissons Ratio (x) = -0.19770 0.30093
# Poissons Ratio (y) = -0.12109 0.24468
# Poissons Ratio (z) = 0.18685 0.24805
#
# Static dielectric constant tensor:
#      x y z
#    x 2.480680 -0.000300 -0.137510 
#    y -0.000300 1.985410 0.052640 
#    z -0.137510 0.052640 2.192260 
# 
# From -- ./inp_files/159320.got.cif
#   From: 2010.05.17/outbox.cif.g08.bks.cpg/sg2_80_cif.got.tgz:159320.got - 2010.06.03 11:33:40.
