data_PCOD9071066
_publ_section_title
;
Structure prediction by ZEFSAII (Michael W. Deem and Ramdas Pophale) SiO2 
 PCOD9071066
Probable space group: P -1
;
_chemical_formula_sum "Si O2"
_cell_formula_units_Z 10
_cell_length_a 14.280156
_cell_length_b 14.908941
_cell_length_c 11.840198
_cell_angle_alpha 29.822358
_cell_angle_beta 160.726055
_cell_angle_gamma 150.240319
_cell_volume 394.804167
_symmetry_space_group_name_H-M "P -1"
_symmetry_group_IT_number 2
_symmetry_cell_setting 'triclinic'
loop_
_space_group_symop_operation_xyz
x,y,z
-x,-y,-z
loop_
_atom_site_type_symbol
_atom_site_label
_atom_site_fract_x
_atom_site_fract_y
_atom_site_fract_z
Si Si1 0.388751 0.624360 0.145740
Si Si2 0.745981 0.507914 0.111021
Si Si3 0.958440 0.106767 0.447928
Si Si4 0.444510 0.103061 0.212885
Si Si5 0.768040 0.905930 0.642673
O O1 0.500000 0.500000 0.500000
O O2 0.686191 0.768731 0.271216
O O3 0.208746 0.514547 0.949273
O O4 0.185547 0.726831 0.869714
O O5 0.483344 0.319846 0.047415
O O6 0.000000 0.500000 0.500000
O O7 0.676798 0.707187 0.817316
O O8 0.694724 0.933035 0.401165
O O9 0.000000 0.000000 0.500000
O O10 0.500000 0.000000 0.500000
O O11 0.692102 0.066463 0.452938
O O12 0.120572 0.979213 0.942094
#
# Coordination Sequence:
#
# PCOD9071066 Si02
#       5
#     2   2   2   2   2
#     4  12  27  50  77 116 158 204 267 327 387 482
#     4  12  27  48  80 116 158 206 260 317 403 463
#     4  12  25  49  79 110 158 207 264 330 393 461
#     4  12  26  48  72 108 158 201 258 317 382 470
#     4  12  26  47  75 110 154 203 257 322 387 459
#
# _framework density 25.329014000000001
#
# number of rings (size 3 to 8) (size 9 to 14) (size 15 to 20)
#    0.000    0.000    6.000    3.000    0.000    5.600 
#    0.000    0.000    0.000    0.000    0.000    0.000 
#    0.000    0.000    0.000    0.000    0.000    0.000 
#
# Total GULP energy -55694.536533 kJ/mol
# GULP energy per Si atom -5569.453653 kJ/mol
# Density = 2.527136 g / cm^3
# Si number density = 25.329014 Si / 1000 Ang^3
#
#
#
# Elastic Constant Matrix: (Units=GPa)
#
#
# Indices 1 2 3 4 5 6 
#
# 1 130.5913 2.6160 34.1615 -11.9021 -8.8848 -6.7399
# 2 2.6160 118.7634 35.5386 -22.8829 -15.8099 0.6151
# 3 34.1615 35.5386 66.4619 -24.0163 7.7450 -9.2786
# 4 -11.9021 -22.8829 -24.0163 54.3822 -4.0584 -20.3843
# 5 -8.8848 -15.8099 7.7450 -4.0584 29.7145 -10.5031
# 6 -6.7399 0.6151 -9.2786 -20.3843 -10.5031 33.0893
#
#
#
# Elastic Compliance Matrix: (Units=1/GPa)
#
#
# Indices 1 2 3 4 5 6 
#
# 1 0.010456 0.003536 -0.006164 0.003828 0.009111 0.005586
# 2 0.003536 0.013618 -0.007152 0.007035 0.013647 0.007127
# 3 -0.006164 -0.007152 0.029275 0.012831 -0.007015 0.012764
# 4 0.003828 0.007035 0.012831 0.043521 0.020799 0.037659
# 5 0.009111 0.013647 -0.007015 0.020799 0.059369 0.031293
# 6 0.005586 0.007127 0.012764 0.037659 0.031293 0.067938
#
#
# Mechanical properties :
#
#
# Convention : Reuss Voigt Hill
#
# Bulk Modulus (GPa) = 29.59622 51.16097 40.37860
# Shear Modulus (GPa) = 19.60786 39.67058 29.63922
#
# Velocity S-wave (km/s) = 2.78533 3.96183 3.42448
# Velocity P-wave (km/s) = 4.69619 6.41643 5.62249
#
# Compressibility (1/GPa) = 0.03378810
#
# Stress axis : x y z
#
# Youngs Moduli (GPa) = 95.63802 73.43374 34.15929
#
# Poissons Ratio (x) = -0.25964 0.21055
# Poissons Ratio (y) = -0.33814 0.24431
# Poissons Ratio (z) = 0.58949 0.52520
#
# Static dielectric constant tensor:
#      x y z
#    x 2.044000 0.033710 -0.113800 
#    y 0.033710 2.009450 0.033030 
#    z -0.113800 0.033030 1.998040 
# 
# From -- ./inp_files/360999.got.cif
#   From: 2010.05.17/outbox.cif.g08.bks.cpg/sg2_181_cif.got.tgz:360999.got - 2010.06.03 11:33:40.
