data_PCOD9071687
_publ_section_title
;
Structure prediction by ZEFSAII (Michael W. Deem and Ramdas Pophale) SiO2 
 PCOD9071687
Probable space group: P -1
;
_chemical_formula_sum "Si O2"
_cell_formula_units_Z 12
_cell_length_a 23.796111
_cell_length_b 14.962966
_cell_length_c 7.409587
_cell_angle_alpha 132.754451
_cell_angle_beta 43.473277
_cell_angle_gamma 164.545832
_cell_volume 480.619817
_symmetry_space_group_name_H-M "P -1"
_symmetry_group_IT_number 2
_symmetry_cell_setting 'triclinic'
loop_
_space_group_symop_operation_xyz
x,y,z
-x,-y,-z
loop_
_atom_site_type_symbol
_atom_site_label
_atom_site_fract_x
_atom_site_fract_y
_atom_site_fract_z
Si Si1 0.806672 0.463194 0.648291
Si Si2 0.027230 0.867904 0.165807
Si Si3 0.771352 0.631366 0.747372
Si Si4 0.803109 0.151660 0.583235
Si Si5 0.476308 0.792410 0.594903
Si Si6 0.122675 0.568081 0.919937
O O1 0.778155 0.567677 0.830192
O O2 0.772466 0.373084 0.393583
O O3 0.057405 0.767793 0.547440
O O4 0.627013 0.124361 0.698375
O O5 0.990970 0.887010 0.469188
O O6 0.777533 0.527215 0.191104
O O7 0.048059 0.755956 0.014372
O O8 0.199127 0.182349 0.075301
O O9 0.562837 0.308763 0.657738
O O10 0.000000 0.500000 0.500000
O O11 0.593732 0.853948 0.528206
O O12 0.726836 0.143013 0.901817
O O13 0.000000 0.500000 0.000000
#
# Coordination Sequence:
#
# PCOD9071687 Si02
#       6
#     2   2   2   2   2   2
#     4   9  16  29  49  73  91 121 155 186 224 272
#     4   8  16  28  47  70  94 121 152 184 231 270
#     4   8  15  28  47  70  93 123 151 182 228 276
#     4   9  18  30  46  70  95 120 152 194 233 260
#     4   9  16  28  49  75  89 121 153 189 226 268
#     4   9  17  29  48  69  92 121 156 189 225 271
#
# _framework density 24.967759999999998
#
# number of rings (size 3 to 8) (size 9 to 14) (size 15 to 20)
#    1.000    2.333    0.000    0.500    0.000    0.667 
#    0.000    0.833    0.000   13.000    0.000    3.500 
#    0.000    0.000    0.000    0.000    0.000    0.000 
#
# Total GULP energy -66847.995556 kJ/mol
# GULP energy per Si atom -5570.666296 kJ/mol
# Density = 2.491093 g / cm^3
# Si number density = 24.967760 Si / 1000 Ang^3
#
#
#
# Elastic Constant Matrix: (Units=GPa)
#
#
# Indices 1 2 3 4 5 6 
#
# 1 213.9023 75.2969 22.1215 21.1949 -23.0976 1.0975
# 2 75.2969 71.2008 2.7635 14.6701 -21.3115 -12.6879
# 3 22.1215 2.7635 41.8504 2.5184 0.1613 -5.0347
# 4 21.1949 14.6701 2.5184 23.4186 -8.1311 -5.9500
# 5 -23.0976 -21.3115 0.1613 -8.1311 30.6283 8.7939
# 6 1.0975 -12.6879 -5.0347 -5.9500 8.7939 36.1940
#
#
#
# Elastic Compliance Matrix: (Units=1/GPa)
#
#
# Indices 1 2 3 4 5 6 
#
# 1 0.008702 -0.009050 -0.004416 -0.002598 0.000950 -0.004709
# 2 -0.009050 0.028735 0.004081 -0.004939 0.009605 0.007769
# 3 -0.004416 0.004081 0.026711 -0.000841 -0.002505 0.005751
# 4 -0.002598 -0.004939 -0.000841 0.051937 0.006938 0.005083
# 5 0.000950 0.009605 -0.002505 0.006938 0.043772 -0.006505
# 6 -0.004709 0.007769 0.005751 0.005083 -0.006505 0.033711
#
#
# Mechanical properties :
#
#
# Convention : Reuss Voigt Hill
#
# Bulk Modulus (GPa) = 22.03713 58.59082 40.31398
# Shear Modulus (GPa) = 21.98156 33.16630 27.57393
#
# Velocity S-wave (km/s) = 2.97037 3.64863 3.32683
# Velocity P-wave (km/s) = 4.53977 6.42398 5.56224
#
# Compressibility (1/GPa) = 0.04537796
#
# Stress axis : x y z
#
# Youngs Moduli (GPa) = 114.91936 34.80134 37.43720
#
# Poissons Ratio (x) = 0.31496 0.16532
# Poissons Ratio (y) = 1.04006 -0.15279
# Poissons Ratio (z) = 0.50746 -0.14204
#
# Static dielectric constant tensor:
#      x y z
#    x 2.040570 -0.043870 0.013740 
#    y -0.043870 2.012790 0.021060 
#    z 0.013740 0.021060 2.258000 
# 
# From -- ./inp_files/302464.got.cif
#   From: 2010.05.17/outbox.cif.g08.bks.cpg/sg2_152_cif.got.tgz:302464.got - 2010.06.03 11:33:40.
