data_PCOD9071043
_publ_section_title
;
Structure prediction by ZEFSAII (Michael W. Deem and Ramdas Pophale) SiO2 
 PCOD9071043
Probable space group: P -1
;
_chemical_formula_sum "Si O2"
_cell_formula_units_Z 15
_cell_length_a 9.511256
_cell_length_b 8.761217
_cell_length_c 15.379031
_cell_angle_alpha 59.458302
_cell_angle_beta 138.985348
_cell_angle_gamma 98.220154
_cell_volume 655.511379
_symmetry_space_group_name_H-M "P -1"
_symmetry_group_IT_number 2
_symmetry_cell_setting 'triclinic'
loop_
_space_group_symop_operation_xyz
x,y,z
-x,-y,-z
loop_
_atom_site_type_symbol
_atom_site_label
_atom_site_fract_x
_atom_site_fract_y
_atom_site_fract_z
Si Si1 0.123957 0.013604 0.672203
Si Si2 0.415650 0.357941 0.552527
Si Si3 0.216105 0.896513 0.057621
Si Si4 0.012844 0.567594 0.581078
Si Si5 0.500000 0.000000 0.000000
Si Si6 0.415694 0.603049 0.840473
Si Si7 0.894994 0.384790 0.040869
Si Si8 0.278460 0.104225 0.430072
O O1 0.089301 0.200310 0.544834
O O2 0.258836 0.824370 0.729973
O O3 0.282409 0.003811 0.834217
O O4 0.864052 0.023570 0.571594
O O5 0.500000 0.500000 0.500000
O O6 0.574352 0.257791 0.739401
O O7 0.385981 0.191418 0.529629
O O8 0.148552 0.494293 0.416908
O O9 0.340160 0.998259 0.019822
O O10 0.128300 0.779885 0.982062
O O11 0.000000 0.000000 0.000000
O O12 0.273049 0.494453 0.759608
O O13 0.000000 0.500000 0.500000
O O14 0.500000 0.500000 0.000000
O O15 0.643802 0.549894 0.905326
O O16 0.065524 0.284068 0.230605
O O17 0.000000 0.500000 0.000000
O O18 0.500000 0.000000 0.500000
#
# Coordination Sequence:
#
# PCOD9071043 Si02
#       8
#     2   2   2   2   1   2   2   2
#     4  12  27  49  82 112 155 216 270 338 411 481
#     4  12  27  49  71 113 158 203 261 324 408 480
#     4  12  27  50  78 114 155 210 269 332 405 482
#     4  12  28  46  77 113 152 205 264 333 402 481
#     4  12  26  50  82 116 158 204 286 334 406 488
#     4  12  25  49  76 109 156 200 267 327 397 489
#     4  12  27  48  72 114 154 209 261 326 405 479
#     4  12  27  49  76 113 158 204 263 328 409 486
#
# _framework density 22.882898000000001
#
# number of rings (size 3 to 8) (size 9 to 14) (size 15 to 20)
#    0.000    0.000    5.333    2.800    7.467    0.000 
#    0.000    0.000    0.000    0.000    0.000    0.000 
#    0.000    0.000    0.000    0.000    0.000    0.000 
#
# Total GULP energy -83568.939685 kJ/mol
# GULP energy per Si atom -5571.262646 kJ/mol
# Density = 2.283082 g / cm^3
# Si number density = 22.882898 Si / 1000 Ang^3
#
#
#
# Elastic Constant Matrix: (Units=GPa)
#
#
# Indices 1 2 3 4 5 6 
#
# 1 217.5970 46.4783 29.6914 12.5332 31.6214 21.5120
# 2 46.4783 65.1299 9.5734 20.1784 5.9212 6.8021
# 3 29.6914 9.5734 93.3642 30.6449 -0.7962 7.6660
# 4 12.5332 20.1784 30.6449 37.6023 -5.9574 0.5377
# 5 31.6214 5.9212 -0.7962 -5.9574 51.3740 2.3996
# 6 21.5120 6.8021 7.6660 0.5377 2.3996 48.8135
#
#
#
# Elastic Compliance Matrix: (Units=1/GPa)
#
#
# Indices 1 2 3 4 5 6 
#
# 1 0.006299 -0.004088 -0.001826 0.001097 -0.003224 -0.001773
# 2 -0.004088 0.022329 0.003674 -0.013832 -0.001527 -0.001659
# 3 -0.001826 0.003674 0.015759 -0.014275 -0.000618 -0.001995
# 4 0.001097 -0.013832 -0.014275 0.046181 0.005918 0.002886
# 5 -0.003224 -0.001527 -0.000618 0.005918 0.022276 0.000570
# 6 -0.001773 -0.001659 -0.001995 0.002886 0.000570 0.021752
#
#
# Mechanical properties :
#
#
# Convention : Reuss Voigt Hill
#
# Bulk Modulus (GPa) = 25.05911 60.84192 42.95052
# Shear Modulus (GPa) = 32.81335 46.91448 39.86392
#
# Velocity S-wave (km/s) = 3.79089 4.53282 4.17836
# Velocity P-wave (km/s) = 5.48962 7.35129 6.48758
#
# Compressibility (1/GPa) = 0.03990564
#
# Stress axis : x y z
#
# Youngs Moduli (GPa) = 158.76546 44.78546 63.45703
#
# Poissons Ratio (x) = 0.18308 0.11586
# Poissons Ratio (y) = 0.64904 -0.23312
# Poissons Ratio (z) = 0.28988 -0.16453
#
# Static dielectric constant tensor:
#      x y z
#    x 1.778330 0.209640 -0.061150 
#    y 0.209640 1.474180 0.190320 
#    z -0.061150 0.190320 1.748880 
# 
# From -- ./inp_files/298682.got.cif
#   From: 2010.05.17/outbox.cif.g08.bks.cpg/sg2_150_cif.got.tgz:298682.got - 2010.06.03 11:33:40.
