data_PCOD9071678
_publ_section_title
;
Structure prediction by ZEFSAII (Michael W. Deem and Ramdas Pophale) SiO2 
 PCOD9071678
Probable space group: P -1
;
_chemical_formula_sum "Si O2"
_cell_formula_units_Z 14
_cell_length_a 12.218814
_cell_length_b 15.121766
_cell_length_c 8.086196
_cell_angle_alpha 123.957980
_cell_angle_beta 106.950095
_cell_angle_gamma 29.045292
_cell_volume 524.925294
_symmetry_space_group_name_H-M "P -1"
_symmetry_group_IT_number 2
_symmetry_cell_setting 'triclinic'
loop_
_space_group_symop_operation_xyz
x,y,z
-x,-y,-z
loop_
_atom_site_type_symbol
_atom_site_label
_atom_site_fract_x
_atom_site_fract_y
_atom_site_fract_z
Si Si1 0.919891 0.602087 0.759731
Si Si2 0.656632 0.545762 0.831619
Si Si3 0.537481 0.400436 0.605930
Si Si4 0.051063 0.898922 0.745846
Si Si5 0.809039 0.814732 0.444283
Si Si6 0.629771 0.026270 0.958814
Si Si7 0.539555 0.226949 0.694923
O O1 0.859604 0.778822 0.904952
O O2 0.000000 0.500000 0.500000
O O3 0.121837 0.367705 0.718165
O O4 0.641404 0.790128 0.895345
O O5 0.593018 0.475307 0.770152
O O6 0.920713 0.355228 0.659060
O O7 0.667009 0.593834 0.064219
O O8 0.427119 0.800357 0.900195
O O9 0.290415 0.619983 0.606583
O O10 0.810855 0.143749 0.374830
O O11 0.469081 0.366274 0.666477
O O12 0.797954 0.060843 0.722243
O O13 0.000000 0.000000 0.000000
O O14 0.699594 0.932185 0.702680
O O15 0.610694 0.047133 0.484884
#
# Coordination Sequence:
#
# PCOD9071678 Si02
#       7
#     2   2   2   2   2   2   2
#     4   8  13  25  42  65 100 134 165 210 257 302
#     4  10  18  29  48  72  98 136 176 210 259 315
#     4  11  23  36  52  75 104 141 179 217 262 308
#     4  11  23  36  52  73 100 139 183 222 258 307
#     4   9  17  27  45  70 100 136 170 209 258 310
#     4   8  15  25  41  68 100 132 166 212 258 302
#     4  11  21  35  53  74 105 142 175 217 264 304
#
# _framework density 26.670463999999999
#
# number of rings (size 3 to 8) (size 9 to 14) (size 15 to 20)
#    0.000    2.286    2.857    0.857    0.000    0.000 
#    0.000    0.000    0.000    0.000    0.000    0.000 
#    0.000   35.429    1.143   57.429    4.286   23.571 
#
# Total GULP energy -78117.352646 kJ/mol
# GULP energy per Si atom -5579.810903 kJ/mol
# Density = 2.660976 g / cm^3
# Si number density = 26.670464 Si / 1000 Ang^3
#
#
#
# Elastic Constant Matrix: (Units=GPa)
#
#
# Indices 1 2 3 4 5 6 
#
# 1 100.5144 52.3734 40.3829 15.0740 -22.7272 16.0763
# 2 52.3734 79.3026 11.3161 12.9171 -1.0847 23.3013
# 3 40.3829 11.3161 143.6107 14.7641 -29.8458 2.7371
# 4 15.0740 12.9171 14.7641 29.6655 13.8620 2.8652
# 5 -22.7272 -1.0847 -29.8458 13.8620 40.4629 17.9630
# 6 16.0763 23.3013 2.7371 2.8652 17.9630 59.0146
#
#
#
# Elastic Compliance Matrix: (Units=1/GPa)
#
#
# Indices 1 2 3 4 5 6 
#
# 1 0.025492 -0.010359 0.001524 -0.020719 0.026726 -0.010054
# 2 -0.010359 0.021590 0.001825 -0.004582 0.000170 -0.005617
# 3 0.001524 0.001825 0.011647 -0.014876 0.017362 -0.006238
# 4 -0.020719 -0.004582 -0.014876 0.079480 -0.059967 0.022537
# 5 0.026726 0.000170 0.017362 -0.059967 0.087188 -0.031780
# 6 -0.010054 -0.005617 -0.006238 0.022537 -0.031780 0.030770
#
#
# Mechanical properties :
#
#
# Convention : Reuss Voigt Hill
#
# Bulk Modulus (GPa) = 22.36644 59.06362 40.71503
# Shear Modulus (GPa) = 17.53834 40.45229 28.99531
#
# Velocity S-wave (km/s) = 2.56714 3.89877 3.30080
# Velocity P-wave (km/s) = 4.14625 6.51621 5.46133
#
# Compressibility (1/GPa) = 0.04470984
#
# Stress axis : x y z
#
# Youngs Moduli (GPa) = 39.22771 46.31853 85.85606
#
# Poissons Ratio (x) = 0.47980 -0.13083
# Poissons Ratio (y) = 0.40635 -0.15669
# Poissons Ratio (z) = -0.05978 -0.08454
#
# Static dielectric constant tensor:
#      x y z
#    x 2.143810 0.027210 0.061000 
#    y 0.027210 2.091520 0.008640 
#    z 0.061000 0.008640 2.238720 
# 
# From -- ./inp_files/315415.got.cif
#   From: 2010.05.17/outbox.cif.g08.bks.cpg/sg2_158_cif.got.tgz:315415.got - 2010.06.03 11:33:40.
