data_PCOD9071736
_publ_section_title
;
Structure prediction by ZEFSAII (Michael W. Deem and Ramdas Pophale) SiO2 
 PCOD9071736
Probable space group: P -1
;
_chemical_formula_sum "Si O2"
_cell_formula_units_Z 14
_cell_length_a 11.756909
_cell_length_b 11.047729
_cell_length_c 8.540190
_cell_angle_alpha 61.784387
_cell_angle_beta 36.584304
_cell_angle_gamma 81.429912
_cell_volume 523.392236
_symmetry_space_group_name_H-M "P -1"
_symmetry_group_IT_number 2
_symmetry_cell_setting 'triclinic'
loop_
_space_group_symop_operation_xyz
x,y,z
-x,-y,-z
loop_
_atom_site_type_symbol
_atom_site_label
_atom_site_fract_x
_atom_site_fract_y
_atom_site_fract_z
Si Si1 0.238314 0.257658 0.231269
Si Si2 0.635231 0.971258 0.227947
Si Si3 0.206938 0.725517 0.707307
Si Si4 0.687041 0.741395 0.496620
Si Si5 0.824785 0.452920 0.855670
Si Si6 0.251126 0.959124 0.270220
Si Si7 0.360809 0.519423 0.500455
O O1 0.214265 0.236997 0.455784
O O2 0.159971 0.386125 0.192492
O O3 0.196652 0.101313 0.282808
O O4 0.489187 0.355513 0.863414
O O5 0.454670 0.834603 0.412230
O O6 0.763139 0.901952 0.227938
O O7 0.500000 0.000000 0.500000
O O8 0.771572 0.081033 0.867694
O O9 0.137821 0.827807 0.607536
O O10 0.211508 0.588352 0.687387
O O11 0.128224 0.652086 0.008642
O O12 0.738601 0.637308 0.384228
O O13 0.424732 0.649292 0.855958
O O14 0.000000 0.500000 0.500000
O O15 0.500000 0.000000 0.000000
O O16 0.500000 0.500000 0.500000
#
# Coordination Sequence:
#
# PCOD9071736 Si02
#       7
#     2   2   2   2   2   2   2
#     4  11  19  34  56  85 111 138 179 228 275 318
#     4  10  18  29  48  84 113 137 168 225 282 323
#     4  10  19  31  51  79 111 139 181 220 279 315
#     4  10  20  31  55  85 110 133 184 228 273 312
#     4  10  21  36  54  78 112 152 185 214 266 328
#     4  10  18  31  52  84 114 136 175 228 281 323
#     4  11  15  29  48  79 107 136 172 226 272 315
#
# _framework density 26.748581999999999
#
# number of rings (size 3 to 8) (size 9 to 14) (size 15 to 20)
#    0.000    1.714    7.143    3.429    0.000    0.000 
#    0.000    0.714    0.000    3.429    0.000   10.000 
#    0.000    0.000    0.000    0.000    0.000    0.000 
#
# Total GULP energy -78212.909736 kJ/mol
# GULP energy per Si atom -5586.636410 kJ/mol
# Density = 2.668770 g / cm^3
# Si number density = 26.748582 Si / 1000 Ang^3
#
#
#
# Elastic Constant Matrix: (Units=GPa)
#
#
# Indices 1 2 3 4 5 6 
#
# 1 114.6164 25.3655 42.0828 -19.6101 20.7405 6.2717
# 2 25.3655 132.7511 40.6825 -0.0132 10.3350 -5.2793
# 3 42.0828 40.6825 152.8951 -7.2436 48.6845 -11.4807
# 4 -19.6101 -0.0132 -7.2436 35.6106 -10.3659 15.8000
# 5 20.7405 10.3350 48.6845 -10.3659 64.7009 -1.1415
# 6 6.2717 -5.2793 -11.4807 15.8000 -1.1415 33.5501
#
#
#
# Elastic Compliance Matrix: (Units=1/GPa)
#
#
# Indices 1 2 3 4 5 6 
#
# 1 0.012396 -0.001746 -0.003137 0.009915 0.000108 -0.008331
# 2 -0.001746 0.008482 -0.001803 -0.002173 0.000250 0.002076
# 3 -0.003137 -0.001803 0.010354 -0.004144 -0.007063 0.005557
# 4 0.009915 -0.002173 -0.004144 0.045872 0.007195 -0.024972
# 5 0.000108 0.000250 -0.007063 0.007195 0.021759 -0.005046
# 6 -0.008331 0.002076 0.005557 -0.024972 -0.005046 0.045180
#
#
# Mechanical properties :
#
#
# Convention : Reuss Voigt Hill
#
# Bulk Modulus (GPa) = 55.99438 68.50267 62.24853
# Shear Modulus (GPa) = 30.60567 46.24777 38.42672
#
# Velocity S-wave (km/s) = 3.38627 4.16261 3.79435
# Velocity P-wave (km/s) = 6.02230 6.98345 6.52061
#
# Compressibility (1/GPa) = 0.01785893
#
# Stress axis : x y z
#
# Youngs Moduli (GPa) = 80.67194 117.89800 96.58527
#
# Poissons Ratio (x) = 0.20582 0.30303
# Poissons Ratio (y) = 0.14084 0.17414
# Poissons Ratio (z) = 0.25310 0.21257
#
# Static dielectric constant tensor:
#      x y z
#    x 2.201620 0.025930 -0.072510 
#    y 0.025930 2.114390 0.088820 
#    z -0.072510 0.088820 2.372510 
# 
# From -- ./inp_files/302494.got.cif
#   From: 2010.05.17/outbox.cif.g08.bks.cpg/sg2_152_cif.got.tgz:302494.got - 2010.06.03 11:33:40.
