data_PCOD9071276
_publ_section_title
;
Structure prediction by ZEFSAII (Michael W. Deem and Ramdas Pophale) SiO2 
 PCOD9071276
Probable space group: P -1
;
_chemical_formula_sum "Si O2"
_cell_formula_units_Z 10
_cell_length_a 5.112835
_cell_length_b 7.806061
_cell_length_c 15.153670
_cell_angle_alpha 111.741715
_cell_angle_beta 122.104321
_cell_angle_gamma 58.863466
_cell_volume 434.679776
_symmetry_space_group_name_H-M "P -1"
_symmetry_group_IT_number 2
_symmetry_cell_setting 'triclinic'
loop_
_space_group_symop_operation_xyz
x,y,z
-x,-y,-z
loop_
_atom_site_type_symbol
_atom_site_label
_atom_site_fract_x
_atom_site_fract_y
_atom_site_fract_z
Si Si1 0.447962 0.900337 0.380489
Si Si2 0.789823 0.467739 0.875968
Si Si3 0.368676 0.502625 0.573447
Si Si4 0.702184 0.162500 0.242340
Si Si5 0.659422 0.773919 0.213532
O O1 0.428103 0.696077 0.371568
O O2 0.725157 0.824569 0.337163
O O3 0.500000 0.000000 0.500000
O O4 0.108597 0.050076 0.299516
O O5 0.474616 0.677066 0.834981
O O6 0.047165 0.388544 0.824087
O O7 0.368032 0.691640 0.156483
O O8 0.000000 0.500000 0.000000
O O9 0.500000 0.500000 0.500000
O O10 0.376672 0.697446 0.658637
O O11 0.000000 0.500000 0.500000
O O12 0.568159 0.987037 0.189127
#
# Coordination Sequence:
#
# PCOD9071276 Si02
#       5
#     2   2   2   2   2
#     4  12  26  47  75 116 155 199 251 298 375 457
#     4  12  30  53  80 110 150 199 258 321 385 442
#     4  12  27  43  71 107 154 203 247 299 371 445
#     4  12  27  46  80 104 160 194 254 313 377 437
#     4  12  27  51  76 116 151 196 261 309 378 459
#
# _framework density 23.00544
#
# number of rings (size 3 to 8) (size 9 to 14) (size 15 to 20)
#    0.000    0.000    6.000    1.800    8.400    3.200 
#    0.000    0.000    0.000    0.000    0.000    0.000 
#    0.000    0.000    0.000    0.000    0.000    0.000 
#
# Total GULP energy -55908.723216 kJ/mol
# GULP energy per Si atom -5590.872322 kJ/mol
# Density = 2.295308 g / cm^3
# Si number density = 23.005440 Si / 1000 Ang^3
#
#
#
# Elastic Constant Matrix: (Units=GPa)
#
#
# Indices 1 2 3 4 5 6 
#
# 1 134.3395 40.4060 53.0313 8.7900 -2.2071 -6.0473
# 2 40.4060 149.4190 47.0598 -6.0610 3.6321 -1.8921
# 3 53.0313 47.0598 136.0031 -1.5363 10.7941 -23.8477
# 4 8.7900 -6.0610 -1.5363 28.2262 -5.3738 2.5963
# 5 -2.2071 3.6321 10.7941 -5.3738 40.2220 8.9167
# 6 -6.0473 -1.8921 -23.8477 2.5963 8.9167 41.5887
#
#
#
# Elastic Compliance Matrix: (Units=1/GPa)
#
#
# Indices 1 2 3 4 5 6 
#
# 1 0.009479 -0.001667 -0.003386 -0.003177 0.001315 -0.000723
# 2 -0.001667 0.007955 -0.002374 0.002324 0.000468 -0.001487
# 3 -0.003386 -0.002374 0.011018 -0.000319 -0.004455 0.006693
# 4 -0.003177 0.002324 -0.000319 0.038378 0.005753 -0.004169
# 5 0.001315 0.000468 -0.004455 0.005753 0.028825 -0.008881
# 6 -0.000723 -0.001487 0.006693 -0.004169 -0.008881 0.029874
#
#
# Mechanical properties :
#
#
# Convention : Reuss Voigt Hill
#
# Bulk Modulus (GPa) = 73.54397 77.86175 75.70286
# Shear Modulus (GPa) = 34.50249 40.62499 37.56374
#
# Velocity S-wave (km/s) = 3.87687 4.20680 4.04520
# Velocity P-wave (km/s) = 7.21648 7.58384 7.40244
#
# Compressibility (1/GPa) = 0.01359731
#
# Stress axis : x y z
#
# Youngs Moduli (GPa) = 105.49755 125.70401 90.75811
#
# Poissons Ratio (x) = 0.20952 0.30734
# Poissons Ratio (y) = 0.17584 0.21550
# Poissons Ratio (z) = 0.35726 0.29847
#
# Static dielectric constant tensor:
#      x y z
#    x 1.911820 -0.058640 0.024790 
#    y -0.058640 1.871100 -0.005050 
#    z 0.024790 -0.005050 1.883790 
# 
# From -- ./inp_files/1599.got.cif
#   From: 2010.05.17/outbox.cif.g08.bks.cpg/sg2_1_cif.got.tgz:1599.got - 2010.06.03 11:33:40.
