data_PCOD9071641
_publ_section_title
;
Structure prediction by ZEFSAII (Michael W. Deem and Ramdas Pophale) SiO2 
 PCOD9071641
Probable space group: P -1
;
_chemical_formula_sum "Si O2"
_cell_formula_units_Z 16
_cell_length_a 14.662183
_cell_length_b 14.737329
_cell_length_c 13.789507
_cell_angle_alpha 73.305535
_cell_angle_beta 159.242772
_cell_angle_gamma 114.381550
_cell_volume 915.728170
_symmetry_space_group_name_H-M "P -1"
_symmetry_group_IT_number 2
_symmetry_cell_setting 'triclinic'
loop_
_space_group_symop_operation_xyz
x,y,z
-x,-y,-z
loop_
_atom_site_type_symbol
_atom_site_label
_atom_site_fract_x
_atom_site_fract_y
_atom_site_fract_z
Si Si1 0.150366 0.788743 0.508726
Si Si2 0.291448 0.527374 0.652712
Si Si3 0.356989 0.598507 0.924060
Si Si4 0.807833 0.827266 0.316739
Si Si5 0.441563 0.024767 0.655050
Si Si6 0.098205 0.017159 0.981945
Si Si7 0.730641 0.029323 0.133307
Si Si8 0.388575 0.256227 0.123468
O O1 0.401989 0.758009 0.743374
O O2 0.026432 0.790809 0.490180
O O3 0.267863 0.905842 0.552465
O O4 0.870839 0.725432 0.186767
O O5 0.335376 0.568278 0.796762
O O6 0.407766 0.629872 0.667909
O O7 0.961472 0.453210 0.337800
O O8 0.466638 0.459207 0.836137
O O9 0.522180 0.722072 0.072430
O O10 0.968510 0.884951 0.555804
O O11 0.769086 0.921098 0.190485
O O12 0.184520 0.043999 0.346777
O O13 0.616320 0.069408 0.914628
O O14 0.668909 0.025440 0.801238
O O15 0.000000 0.000000 0.000000
O O16 0.249014 0.143981 0.073120
O O17 0.500000 0.000000 0.000000
#
# Coordination Sequence:
#
# PCOD9071641 Si02
#       8
#     2   2   2   2   2   2   2   2
#     4  10  18  29  48  69  96 141 168 207 245 293
#     4  10  20  32  45  72  96 139 179 213 257 299
#     4  10  22  31  47  67 104 136 181 221 241 297
#     4  11  22  33  47  71 107 142 190 216 249 293
#     4  10  20  34  50  75 105 135 172 217 252 317
#     4  10  21  36  56  78 103 136 172 218 276 319
#     4  11  23  33  52  75 105 147 191 208 255 314
#     4  10  19  31  51  71 101 132 178 206 261 314
#
# _framework density 17.472432999999999
#
# number of rings (size 3 to 8) (size 9 to 14) (size 15 to 20)
#    0.000    1.750    2.500    3.375    7.000    0.000 
#    2.250    0.000    0.000    0.000    0.000    0.000 
#    0.000    6.000    0.000    0.000    0.000    0.000 
#
# Total GULP energy -89083.193242 kJ/mol
# GULP energy per Si atom -5567.699578 kJ/mol
# Density = 1.743267 g / cm^3
# Si number density = 17.472433 Si / 1000 Ang^3
#
#
#
# Elastic Constant Matrix: (Units=GPa)
#
#
# Indices 1 2 3 4 5 6 
#
# 1 48.9601 13.6150 27.2531 1.1370 13.3051 2.8732
# 2 13.6150 71.2423 40.4880 13.9875 6.0570 0.7120
# 3 27.2531 40.4880 129.5372 13.9716 13.0068 -0.2826
# 4 1.1370 13.9875 13.9716 28.5697 -3.7286 -2.2936
# 5 13.3051 6.0570 13.0068 -3.7286 23.1806 2.4512
# 6 2.8732 0.7120 -0.2826 -2.2936 2.4512 7.1245
#
#
#
# Elastic Compliance Matrix: (Units=1/GPa)
#
#
# Indices 1 2 3 4 5 6 
#
# 1 0.026737 -0.001748 -0.003829 -0.000457 -0.012102 -0.006743
# 2 -0.001748 0.018549 -0.004415 -0.007381 -0.002244 -0.002928
# 3 -0.003829 -0.004415 0.010581 -0.003093 -0.003354 0.002564
# 4 -0.000457 -0.007381 -0.003093 0.042286 0.009551 0.011126
# 5 -0.012102 -0.002244 -0.003354 0.009551 0.055250 -0.010962
# 6 -0.006743 -0.002928 0.002564 0.011126 -0.010962 0.150828
#
#
# Mechanical properties :
#
#
# Convention : Reuss Voigt Hill
#
# Bulk Modulus (GPa) = 27.86771 45.82798 36.84785
# Shear Modulus (GPa) = 14.87318 23.00054 18.93686
#
# Velocity S-wave (km/s) = 2.92076 3.63215 3.29570
# Velocity P-wave (km/s) = 5.23055 6.62387 5.96801
#
# Compressibility (1/GPa) = 0.03588382
#
# Stress axis : x y z
#
# Youngs Moduli (GPa) = 37.40089 53.91183 94.50609
#
# Poissons Ratio (x) = 0.09421 0.36190
# Poissons Ratio (y) = 0.06536 0.41724
# Poissons Ratio (z) = 0.14322 0.23802
#
# Static dielectric constant tensor:
#      x y z
#    x 1.604310 -0.010610 -0.021680 
#    y -0.010610 1.665660 -0.034780 
#    z -0.021680 -0.034780 1.704730 
# 
# From -- ./inp_files/533762.got.cif
#   From: 2010.05.17/outbox.cif.g08.bks.cpg/sg2_267_cif.got.tgz:533762.got - 2010.06.03 11:33:40.
