data_PCOD9071724
_publ_section_title
;
Structure prediction by ZEFSAII (Michael W. Deem and Ramdas Pophale) SiO2 
 PCOD9071724
Probable space group: P -1
;
_chemical_formula_sum "Si O2"
_cell_formula_units_Z 12
_cell_length_a 5.525397
_cell_length_b 13.728757
_cell_length_c 9.955937
_cell_angle_alpha 135.709524
_cell_angle_beta 110.293090
_cell_angle_gamma 62.188037
_cell_volume 466.350450
_symmetry_space_group_name_H-M "P -1"
_symmetry_group_IT_number 2
_symmetry_cell_setting 'triclinic'
loop_
_space_group_symop_operation_xyz
x,y,z
-x,-y,-z
loop_
_atom_site_type_symbol
_atom_site_label
_atom_site_fract_x
_atom_site_fract_y
_atom_site_fract_z
Si Si1 0.402137 0.443294 0.127786
Si Si2 0.802336 0.869393 0.841548
Si Si3 0.127884 0.127775 0.536694
Si Si4 0.268295 0.846966 0.730625
Si Si5 0.811162 0.576224 0.232778
Si Si6 0.494165 0.888331 0.195920
O O1 0.633451 0.520097 0.247666
O O2 0.139285 0.505065 0.233529
O O3 0.276061 0.464878 0.972721
O O4 0.527843 0.268180 0.997851
O O5 0.592477 0.785226 0.755061
O O6 0.081581 0.788384 0.737596
O O7 0.614477 0.991671 0.821308
O O8 0.836199 0.977442 0.072288
O O9 0.244381 0.248799 0.610904
O O10 0.197979 0.137547 0.715593
O O11 0.829369 0.166576 0.452988
O O12 0.298020 0.965209 0.357677
#
# Coordination Sequence:
#
# PCOD9071724 Si02
#       6
#     2   2   2   2   2   2
#     4   9  18  32  48  68  99 136 165 194 246 308
#     4   9  18  32  49  71 101 134 164 199 250 305
#     4   9  18  32  53  80 104 128 168 218 253 285
#     4   9  18  32  49  71 101 134 164 199 250 305
#     4   9  18  32  48  68  99 136 165 194 246 308
#     4   9  18  32  53  80 104 128 168 218 253 285
#
# _framework density 25.731724
#
# number of rings (size 3 to 8) (size 9 to 14) (size 15 to 20)
#    0.000    3.000    0.000    0.000    0.000    6.000 
#    0.000   10.000    0.000    2.000    0.000    0.000 
#    0.000    0.000    0.000    0.000    0.000    0.000 
#
# Total GULP energy -66996.276955 kJ/mol
# GULP energy per Si atom -5583.023080 kJ/mol
# Density = 2.567316 g / cm^3
# Si number density = 25.731724 Si / 1000 Ang^3
#
#
#
# Elastic Constant Matrix: (Units=GPa)
#
#
# Indices 1 2 3 4 5 6 
#
# 1 196.6666 27.9805 40.3213 19.9621 34.0760 -3.3979
# 2 27.9805 63.6099 39.8800 6.9097 2.8510 2.0196
# 3 40.3213 39.8800 85.1009 0.1942 23.2439 -6.5252
# 4 19.9621 6.9097 0.1942 51.6845 -15.1482 -1.7913
# 5 34.0760 2.8510 23.2439 -15.1482 25.8019 0.2664
# 6 -3.3979 2.0196 -6.5252 -1.7913 0.2664 18.8211
#
#
#
# Elastic Compliance Matrix: (Units=1/GPa)
#
#
# Indices 1 2 3 4 5 6 
#
# 1 0.009549 -0.004564 0.003467 -0.009016 -0.020552 0.002848
# 2 -0.004564 0.027402 -0.017113 0.003934 0.020824 -0.009618
# 3 0.003467 -0.017113 0.028089 -0.008437 -0.033067 0.011866
# 4 -0.009016 0.003934 -0.008437 0.033641 0.038847 -0.002323
# 5 -0.020552 0.020824 -0.033067 0.038847 0.116352 -0.015359
# 6 0.002848 -0.009618 0.011866 -0.002323 -0.015359 0.058788
#
#
# Mechanical properties :
#
#
# Convention : Reuss Voigt Hill
#
# Bulk Modulus (GPa) = 34.94170 62.41568 48.67869
# Shear Modulus (GPa) = 15.63572 35.07455 25.35514
#
# Velocity S-wave (km/s) = 2.46772 3.69600 3.14246
# Velocity P-wave (km/s) = 4.66135 6.52096 5.66794
#
# Compressibility (1/GPa) = 0.02861910
#
# Stress axis : x y z
#
# Youngs Moduli (GPa) = 104.72811 36.49373 35.60174
#
# Poissons Ratio (x) = 0.16654 -0.12342
# Poissons Ratio (y) = 0.47794 0.60926
# Poissons Ratio (z) = -0.36307 0.62452
#
# Static dielectric constant tensor:
#      x y z
#    x 2.167770 0.007110 0.031600 
#    y 0.007110 2.022260 -0.068010 
#    z 0.031600 -0.068010 2.062660 
# 
# From -- ./inp_files/28875.got.cif
#   From: 2010.05.17/outbox.cif.g08.bks.cpg/sg2_15_cif.got.tgz:28875.got - 2010.06.03 11:33:40.
