data_PCOD9071901
_publ_section_title
;
Structure prediction by ZEFSAII (Michael W. Deem and Ramdas Pophale) SiO2 
 PCOD9071901
Probable space group: P -1
;
_chemical_formula_sum "Si O2"
_cell_formula_units_Z 16
_cell_length_a 30.000000
_cell_length_b 18.000000
_cell_length_c 27.000000
_cell_angle_alpha 160.000000
_cell_angle_beta 170.000000
_cell_angle_gamma 20.000000
_cell_volume 840.534943
_symmetry_space_group_name_H-M "P -1"
_symmetry_group_IT_number 2
_symmetry_cell_setting 'triclinic'
loop_
_space_group_symop_operation_xyz
x,y,z
-x,-y,-z
loop_
_atom_site_type_symbol
_atom_site_label
_atom_site_fract_x
_atom_site_fract_y
_atom_site_fract_z
Si Si1 0.382244 0.155688 0.761288
Si Si2 0.897812 0.459305 0.449016
Si Si3 0.632628 0.519004 0.755096
Si Si4 0.073837 0.829099 0.601750
Si Si5 0.177757 0.305441 0.164019
Si Si6 0.184315 0.784645 0.368772
Si Si7 0.793961 0.877245 0.225412
Si Si8 0.462195 0.829402 0.171836
O O1 0.463694 0.117131 0.769643
O O2 0.189784 0.400741 0.709921
O O3 0.241442 0.967258 0.507179
O O4 0.627947 0.146996 0.060572
O O5 0.918474 0.348480 0.456560
O O6 0.721340 0.707012 0.408212
O O7 0.738156 0.327888 0.155661
O O8 0.424373 0.420995 0.499126
O O9 0.452387 0.613362 0.569585
O O10 0.721249 0.708555 0.001446
O O11 0.917180 0.384592 0.962008
O O12 0.950325 0.774684 0.381831
O O13 0.914498 0.069926 0.599066
O O14 0.311008 0.057808 0.172887
O O15 0.048922 0.303158 0.966718
O O16 0.000000 0.000000 0.500000
O O17 0.500000 0.000000 0.000000
#
# Coordination Sequence:
#
# PCOD9071901 Si02
#       8
#     2   2   2   2   2   2   2   2
#     4  10  17  33  57  92 120 157 198 253 311 360
#     4   9  19  34  58  91 117 156 207 253 315 349
#     4  12  27  40  60  90 124 174 201 240 307 366
#     4  10  21  36  63  90 117 156 205 266 304 349
#     4  12  24  40  58  90 132 165 197 241 304 388
#     4  11  21  37  58  88 128 160 200 238 312 367
#     4  12  25  45  68  88 121 162 214 263 293 348
#     4  10  19  34  57  86 127 159 199 252 305 369
#
# _framework density 19.035496999999999
#
# number of rings (size 3 to 8) (size 9 to 14) (size 15 to 20)
#    0.000    1.250    5.000    3.375    3.500    0.000 
#    0.000    0.000    0.000    1.500    0.000    0.000 
#    0.000    0.000    0.000    0.000    0.000    0.000 
#
# Total GULP energy -89137.279127 kJ/mol
# GULP energy per Si atom -5571.079945 kJ/mol
# Density = 1.899217 g / cm^3
# Si number density = 19.035497 Si / 1000 Ang^3
#
#
#
# Elastic Constant Matrix: (Units=GPa)
#
#
# Indices 1 2 3 4 5 6 
#
# 1 34.3038 16.4799 35.1179 -10.3257 -0.1572 -11.2248
# 2 16.4799 87.5096 51.8701 -31.8056 21.7252 -24.8996
# 3 35.1179 51.8701 125.9301 -10.3694 8.0775 -8.4407
# 4 -10.3257 -31.8056 -10.3694 32.0876 -8.6566 3.1804
# 5 -0.1572 21.7252 8.0775 -8.6566 22.1686 -3.2464
# 6 -11.2248 -24.8996 -8.4407 3.1804 -3.2464 17.0249
#
#
#
# Elastic Compliance Matrix: (Units=1/GPa)
#
#
# Indices 1 2 3 4 5 6 
#
# 1 0.130272 0.102827 -0.056903 0.103945 -0.011211 0.186511
# 2 0.102827 0.147718 -0.061653 0.126923 -0.039494 0.222030
# 3 -0.056903 -0.061653 0.037513 -0.054799 0.010775 -0.096798
# 4 0.103945 0.126923 -0.054799 0.148727 -0.016904 0.195987
# 5 -0.011211 -0.039494 0.010775 -0.016904 0.066775 -0.043920
# 6 0.186511 0.222030 -0.096798 0.195987 -0.043920 0.413457
#
#
# Mechanical properties :
#
#
# Convention : Reuss Voigt Hill
#
# Bulk Modulus (GPa) = 3.52059 50.51996 27.02027
# Shear Modulus (GPa) = 4.67027 23.87458 14.27243
#
# Velocity S-wave (km/s) = 1.56805 3.54533 2.74118
# Velocity P-wave (km/s) = 2.26536 6.58458 4.92385
#
# Compressibility (1/GPa) = 0.28404361
#
# Stress axis : x y z
#
# Youngs Moduli (GPa) = 7.67622 6.76968 26.65760
#
# Poissons Ratio (x) = -0.69611 1.51691
# Poissons Ratio (y) = -0.78932 1.64352
# Poissons Ratio (z) = 0.43680 0.41737
#
# Static dielectric constant tensor:
#      x y z
#    x -18.074170 34.701360 -18.256300 
#    y 34.701360 -59.235710 32.155500 
#    z -18.256300 32.155500 -15.289080 
# 
# From -- ./inp_files/75079.got.cif
#   From: 2010.05.17/outbox.ucp.g08.bks.cvg/sg2_38_cif.got.tgz:75079.got - 2010.06.11 11:32:03.
