data_PCOD9071482
_publ_section_title
;
Structure prediction by ZEFSAII (Michael W. Deem and Ramdas Pophale) SiO2 
 PCOD9071482
Probable space group: P -1
;
_chemical_formula_sum "Si O2"
_cell_formula_units_Z 12
_cell_length_a 12.535377
_cell_length_b 7.182841
_cell_length_c 10.041611
_cell_angle_alpha 97.897041
_cell_angle_beta 33.754686
_cell_angle_gamma 82.862386
_cell_volume 448.468297
_symmetry_space_group_name_H-M "P -1"
_symmetry_group_IT_number 2
_symmetry_cell_setting 'triclinic'
loop_
_space_group_symop_operation_xyz
x,y,z
-x,-y,-z
loop_
_atom_site_type_symbol
_atom_site_label
_atom_site_fract_x
_atom_site_fract_y
_atom_site_fract_z
Si Si1 0.615332 0.048555 0.075280
Si Si2 0.177634 0.822857 0.884496
Si Si3 0.006081 0.223212 0.502478
Si Si4 0.336686 0.493116 0.326437
Si Si5 0.486051 0.231333 0.689852
Si Si6 0.025276 0.535984 0.165500
O O1 0.761161 0.103020 0.032737
O O2 0.495737 0.250449 0.127875
O O3 0.452462 0.989804 0.324585
O O4 0.767513 0.848353 0.813146
O O5 0.389898 0.759344 0.569725
O O6 0.079438 0.662870 0.008360
O O7 0.000000 0.000000 0.000000
O O8 0.820224 0.382903 0.617196
O O9 0.995134 0.332923 0.664332
O O10 0.000000 0.000000 0.500000
O O11 0.470912 0.618079 0.238633
O O12 0.183885 0.502293 0.610558
O O13 0.236315 0.319992 0.929661
#
# Coordination Sequence:
#
# PCOD9071482 Si02
#       6
#     2   2   2   2   2   2
#     4  12  27  51  79 116 151 203 256 315 385 453
#     4  12  26  51  78 112 155 202 257 315 380 455
#     4  12  26  51  78 114 160 194 260 316 378 459
#     4  12  28  50  79 116 153 204 252 316 385 450
#     4  12  27  50  79 111 158 198 259 312 381 453
#     4  12  27  50  76 116 152 205 256 312 384 451
#
# _framework density 26.757746999999998
#
# number of rings (size 3 to 8) (size 9 to 14) (size 15 to 20)
#    0.000    0.000    5.000    3.500    2.333    4.000 
#    0.000    0.000    0.000    0.000    0.000    0.000 
#    0.000    0.000    0.000    0.000    0.000    0.000 
#
# Total GULP energy -67361.578832 kJ/mol
# GULP energy per Si atom -5613.464903 kJ/mol
# Density = 2.669684 g / cm^3
# Si number density = 26.757747 Si / 1000 Ang^3
#
#
#
# Elastic Constant Matrix: (Units=GPa)
#
#
# Indices 1 2 3 4 5 6 
#
# 1 93.9120 31.5127 15.1693 11.4313 0.2245 -16.1743
# 2 31.5127 188.7104 19.1206 -19.4172 -9.6141 -21.7661
# 3 15.1693 19.1206 140.0494 -9.4908 -0.0226 -16.4822
# 4 11.4313 -19.4172 -9.4908 59.7986 -1.2413 -17.4611
# 5 0.2245 -9.6141 -0.0226 -1.2413 43.7547 -10.2837
# 6 -16.1743 -21.7661 -16.4822 -17.4611 -10.2837 44.1652
#
#
#
# Elastic Compliance Matrix: (Units=1/GPa)
#
#
# Indices 1 2 3 4 5 6 
#
# 1 0.012124 -0.001939 -0.000966 -0.002480 -0.000059 0.002130
# 2 -0.001939 0.006735 0.000146 0.004074 0.002761 0.004917
# 3 -0.000966 0.000146 0.007870 0.002656 0.001044 0.003948
# 4 -0.002480 0.004074 0.002656 0.022542 0.004374 0.012021
# 5 -0.000059 0.002761 0.001044 0.004374 0.025812 0.009469
# 6 0.002130 0.004917 0.003948 0.012021 0.009469 0.034276
#
#
# Mechanical properties :
#
#
# Convention : Reuss Voigt Hill
#
# Bulk Modulus (GPa) = 47.14721 61.58633 54.36677
# Shear Modulus (GPa) = 41.00115 53.33498 47.16806
#
# Velocity S-wave (km/s) = 3.91872 4.46943 4.20310
# Velocity P-wave (km/s) = 6.17523 7.04987 6.62699
#
# Compressibility (1/GPa) = 0.02121016
#
# Stress axis : x y z
#
# Youngs Moduli (GPa) = 82.48240 148.47405 127.06755
#
# Poissons Ratio (x) = 0.28792 0.12273
# Poissons Ratio (y) = 0.15995 -0.01852
# Poissons Ratio (z) = 0.07966 -0.02164
#
# Static dielectric constant tensor:
#      x y z
#    x 2.059490 -0.001610 0.011650 
#    y -0.001610 2.103550 -0.072860 
#    z 0.011650 -0.072860 2.196300 
# 
# From -- ./inp_files/243786.got.cif
#   From: 2010.05.17/outbox.cif.g08.bks.cpg/sg2_122_cif.got.tgz:243786.got - 2010.06.03 11:33:40.
