data_PCOD9071007
_publ_section_title
;
Structure prediction by ZEFSAII (Michael W. Deem and Ramdas Pophale) SiO2 
 PCOD9071007
Probable space group: P -1
;
_chemical_formula_sum "Si O2"
_cell_formula_units_Z 16
_cell_length_a 8.371597
_cell_length_b 14.916044
_cell_length_c 11.725198
_cell_angle_alpha 54.322523
_cell_angle_beta 68.897124
_cell_angle_gamma 113.904631
_cell_volume 647.941311
_symmetry_space_group_name_H-M "P -1"
_symmetry_group_IT_number 2
_symmetry_cell_setting 'triclinic'
loop_
_space_group_symop_operation_xyz
x,y,z
-x,-y,-z
loop_
_atom_site_type_symbol
_atom_site_label
_atom_site_fract_x
_atom_site_fract_y
_atom_site_fract_z
Si Si1 0.189002 0.785297 0.711067
Si Si2 0.779660 0.004673 0.756564
Si Si3 0.812113 0.340184 0.437789
Si Si4 0.288620 0.099319 0.907924
Si Si5 0.142455 0.728136 0.019703
Si Si6 0.709999 0.569123 0.726454
Si Si7 0.177732 0.183704 0.242275
Si Si8 0.355801 0.375523 0.742639
O O1 0.194118 0.714218 0.648605
O O2 0.990933 0.790347 0.745438
O O3 0.500000 0.000000 0.500000
O O4 0.122953 0.691356 0.916739
O O5 0.068099 0.212682 0.472642
O O6 0.807624 0.887698 0.818931
O O7 0.771149 0.015159 0.887369
O O8 0.476141 0.886387 0.862426
O O9 0.506068 0.167375 0.706963
O O10 0.926564 0.523908 0.277746
O O11 0.056804 0.398793 0.397374
O O12 0.427758 0.284164 0.785016
O O13 0.000000 0.000000 0.000000
O O14 0.983260 0.761316 0.061389
O O15 0.498946 0.494517 0.734366
O O16 0.517315 0.406008 0.995622
O O17 0.000000 0.000000 0.500000
O O18 0.500000 0.500000 0.500000
#
# Coordination Sequence:
#
# PCOD9071007 Si02
#       8
#     2   2   2   2   2   2   2   2
#     4  12  28  48  76 113 159 203 264 335 395 475
#     4  12  28  51  82 115 160 209 262 329 401 473
#     4  12  28  47  78 114 157 213 267 324 401 479
#     4  12  28  49  77 118 163 208 265 331 401 477
#     4  12  25  51  78 114 157 211 265 330 397 476
#     4  12  27  51  78 122 152 212 263 326 401 474
#     4  12  26  52  80 113 157 207 262 325 396 471
#     4  12  25  48  79 114 159 207 265 332 397 473
#
# _framework density 24.693594000000001
#
# number of rings (size 3 to 8) (size 9 to 14) (size 15 to 20)
#    0.000    0.000    5.000    3.375    7.000    3.500 
#    0.000    0.000    0.000    0.000    0.000    0.000 
#    0.000    0.000    0.000    0.000    0.000    0.000 
#
# Total GULP energy -89360.219113 kJ/mol
# GULP energy per Si atom -5585.013695 kJ/mol
# Density = 2.463739 g / cm^3
# Si number density = 24.693594 Si / 1000 Ang^3
#
#
#
# Elastic Constant Matrix: (Units=GPa)
#
#
# Indices 1 2 3 4 5 6 
#
# 1 102.1726 44.6422 49.4849 0.9835 -14.3827 15.9514
# 2 44.6422 89.7557 63.6732 -5.5828 -7.1749 3.2815
# 3 49.4849 63.6732 174.9527 -7.0504 -0.5382 14.9554
# 4 0.9835 -5.5828 -7.0504 42.9331 1.9488 2.4935
# 5 -14.3827 -7.1749 -0.5382 1.9488 58.1803 0.5633
# 6 15.9514 3.2815 14.9554 2.4935 0.5633 48.6140
#
#
#
# Elastic Compliance Matrix: (Units=1/GPa)
#
#
# Indices 1 2 3 4 5 6 
#
# 1 0.013980 -0.005469 -0.001691 -0.001225 0.002843 -0.003668
# 2 -0.005469 0.017409 -0.004904 0.001434 0.000682 0.002047
# 3 -0.001691 -0.004904 0.008153 0.000880 -0.000961 -0.001656
# 4 -0.001225 0.001434 0.000880 0.023760 -0.000902 -0.001174
# 5 0.002843 0.000682 -0.000961 -0.000902 0.018004 -0.000845
# 6 -0.003668 0.002047 -0.001656 -0.001174 -0.000845 0.022215
#
#
# Mechanical properties :
#
#
# Convention : Reuss Voigt Hill
#
# Bulk Modulus (GPa) = 64.87305 75.83127 70.35216
# Shear Modulus (GPa) = 37.65372 43.88418 40.76895
#
# Velocity S-wave (km/s) = 3.90915 4.22020 4.06765
# Velocity P-wave (km/s) = 6.83400 7.38392 7.11428
#
# Compressibility (1/GPa) = 0.01541472
#
# Stress axis : x y z
#
# Youngs Moduli (GPa) = 71.52851 57.44034 122.65238
#
# Poissons Ratio (x) = 0.31412 0.20742
# Poissons Ratio (y) = 0.39117 0.60152
# Poissons Ratio (z) = 0.12096 0.28171
#
# Static dielectric constant tensor:
#      x y z
#    x 2.366750 0.727510 -0.005830 
#    y 0.727510 3.639080 -0.200770 
#    z -0.005830 -0.200770 2.179460 
# 
# From -- ./inp_files/398764.got.cif
#   From: 2010.05.17/outbox.cif.g08.bks.cpg/sg2_200_cif.got.tgz:398764.got - 2010.06.03 11:33:40.
