data_PCOD9071981
_publ_section_title
;
Structure prediction by ZEFSAII (Michael W. Deem and Ramdas Pophale) SiO2 
 PCOD9071981
Probable space group: P -1
;
_chemical_formula_sum "Si O2"
_cell_formula_units_Z 16
_cell_length_a 18.000000
_cell_length_b 15.000000
_cell_length_c 27.000000
_cell_angle_alpha 20.000000
_cell_angle_beta 20.000000
_cell_angle_gamma 30.000000
_cell_volume 843.718184
_symmetry_space_group_name_H-M "P -1"
_symmetry_group_IT_number 2
_symmetry_cell_setting 'triclinic'
loop_
_space_group_symop_operation_xyz
x,y,z
-x,-y,-z
loop_
_atom_site_type_symbol
_atom_site_label
_atom_site_fract_x
_atom_site_fract_y
_atom_site_fract_z
Si Si1 0.998720 0.801921 0.235076
Si Si2 0.648178 0.344132 0.434460
Si Si3 0.537077 0.919278 0.222104
Si Si4 0.803405 0.235642 0.652855
Si Si5 0.012188 0.654927 0.983817
Si Si6 0.164075 0.243941 0.747724
Si Si7 0.123228 0.833652 0.470187
Si Si8 0.292580 0.291865 0.947822
O O1 0.938761 0.506973 0.448335
O O2 0.859904 0.781305 0.282576
O O3 0.253906 0.859937 0.027405
O O4 0.952943 0.061632 0.158224
O O5 0.632178 0.641426 0.308601
O O6 0.625444 0.122629 0.606975
O O7 0.420657 0.260674 0.591193
O O8 0.874017 0.411517 0.228234
O O9 0.381738 0.932616 0.265746
O O10 0.904457 0.168909 0.570750
O O11 0.550954 0.294147 0.774630
O O12 0.789183 0.980665 0.829783
O O13 0.848006 0.698898 0.018853
O O14 0.228835 0.542042 0.888113
O O15 0.091819 0.520804 0.666450
O O16 0.000000 0.000000 0.000000
O O17 0.000000 0.000000 0.500000
#
# Coordination Sequence:
#
# PCOD9071981 Si02
#       8
#     2   2   2   2   2   2   2   2
#     4  10  19  34  58  87 116 147 187 240 288 341
#     4   9  17  31  54  81 115 145 181 228 280 338
#     4   9  17  31  54  82 112 150 179 220 284 344
#     4  10  22  40  58  82 119 156 184 238 297 342
#     4  10  21  36  61  87 105 148 207 245 267 334
#     4  10  18  32  52  82 118 149 180 224 286 334
#     4  10  22  36  56  81 115 152 188 225 279 352
#     4  10  22  41  60  80 113 156 199 235 286 337
#
# _framework density 18.963678000000002
#
# number of rings (size 3 to 8) (size 9 to 14) (size 15 to 20)
#    0.000    2.250    1.250    3.000    3.500    1.000 
#    0.000    3.750    0.000    0.000    0.000    0.000 
#    0.000    0.000    0.000    0.000    0.000    0.000 
#
# Total GULP energy -89078.489300 kJ/mol
# GULP energy per Si atom -5567.405581 kJ/mol
# Density = 1.892052 g / cm^3
# Si number density = 18.963678 Si / 1000 Ang^3
#
#
#
# Elastic Constant Matrix: (Units=GPa)
#
#
# Indices 1 2 3 4 5 6 
#
# 1 46.2358 22.1569 21.6402 -7.1243 -11.3916 11.0273
# 2 22.1569 101.0035 27.5006 -3.4559 -3.5661 22.3449
# 3 21.6402 27.5006 115.0084 -16.2954 -6.3742 7.5830
# 4 -7.1243 -3.4559 -16.2954 26.2943 5.8745 -1.2821
# 5 -11.3916 -3.5661 -6.3742 5.8745 21.8574 -2.0308
# 6 11.0273 22.3449 7.5830 -1.2821 -2.0308 28.2320
#
#
#
# Elastic Compliance Matrix: (Units=1/GPa)
#
#
# Indices 1 2 3 4 5 6 
#
# 1 0.030105 -0.003633 -0.003279 0.002439 0.012838 -0.006969
# 2 -0.003633 0.013070 -0.002039 -0.000732 -0.000947 -0.008479
# 3 -0.003279 -0.002039 0.010534 0.005479 -0.000416 0.000284
# 4 0.002439 -0.000732 0.005479 0.044005 -0.009124 -0.000503
# 5 0.012838 -0.000947 -0.000416 -0.009124 0.054559 -0.000643
# 6 -0.006969 -0.008479 0.000284 -0.000503 -0.000643 0.044709
#
#
# Mechanical properties :
#
#
# Convention : Reuss Voigt Hill
#
# Bulk Modulus (GPa) = 27.92741 44.98257 36.45499
# Shear Modulus (GPa) = 22.04405 28.00675 25.02540
#
# Velocity S-wave (km/s) = 3.41315 3.84717 3.63664
# Velocity P-wave (km/s) = 5.50378 6.59592 6.07444
#
# Compressibility (1/GPa) = 0.03580711
#
# Stress axis : x y z
#
# Youngs Moduli (GPa) = 33.21719 76.51047 94.93024
#
# Poissons Ratio (x) = 0.27795 0.31131
# Poissons Ratio (y) = 0.12067 0.19355
# Poissons Ratio (z) = 0.10893 0.15599
#
# Static dielectric constant tensor:
#      x y z
#    x 1.727670 0.014820 0.042940 
#    y 0.014820 1.682930 0.022250 
#    z 0.042940 0.022250 1.680650 
# 
# From -- ./inp_files/180706.got.cif
#   From: 2010.05.17/outbox.ucp.g08.bks.cvg/sg2_91_cif.got.tgz:180706.got - 2010.06.11 11:32:03.
