data_PCOD9071605
_publ_section_title
;
Structure prediction by ZEFSAII (Michael W. Deem and Ramdas Pophale) SiO2 
 PCOD9071605
Probable space group: P -1
;
_chemical_formula_sum "Si O2"
_cell_formula_units_Z 9
_cell_length_a 9.163624
_cell_length_b 5.210537
_cell_length_c 11.643774
_cell_angle_alpha 80.893587
_cell_angle_beta 45.419811
_cell_angle_gamma 104.736148
_cell_volume 334.066393
_symmetry_space_group_name_H-M "P -1"
_symmetry_group_IT_number 2
_symmetry_cell_setting 'triclinic'
loop_
_space_group_symop_operation_xyz
x,y,z
-x,-y,-z
loop_
_atom_site_type_symbol
_atom_site_label
_atom_site_fract_x
_atom_site_fract_y
_atom_site_fract_z
Si Si1 0.500000 0.000000 0.500000
Si Si2 0.471084 0.711377 0.727160
Si Si3 0.269365 0.746989 0.076726
Si Si4 0.134684 0.187929 0.796924
Si Si5 0.142749 0.355911 0.379025
O O1 0.621252 0.035507 0.561829
O O2 0.700691 0.923871 0.338279
O O3 0.305623 0.544235 0.717266
O O4 0.608524 0.544424 0.699834
O O5 0.331020 0.714268 0.914747
O O6 0.194903 0.448841 0.211579
O O7 0.060363 0.821796 0.179951
O O8 0.500000 0.000000 0.000000
O O9 0.000000 0.000000 0.000000
O O10 0.000000 0.500000 0.500000
O O11 0.000000 0.000000 0.500000
#
# Coordination Sequence:
#
# PCOD9071605 Si02
#       5
#     1   2   2   2   2
#     4  12  28  48  82 120 166 210 286 344 428 504
#     4  12  28  50  83 117 166 220 290 347 429 520
#     4  12  27  55  84 124 172 227 288 359 442 516
#     4  12  27  52  84 120 168 219 289 350 433 517
#     4  12  29  50  81 124 175 223 287 357 437 517
#
# _framework density 26.940749
#
# number of rings (size 3 to 8) (size 9 to 14) (size 15 to 20)
#    0.000    0.000    2.222    6.000    6.222    1.778 
#    0.000    0.000    0.000    0.000    0.000    0.000 
#    0.000    0.000    0.000    0.000    0.000    0.000 
#
# Total GULP energy -50356.241423 kJ/mol
# GULP energy per Si atom -5595.137936 kJ/mol
# Density = 2.687943 g / cm^3
# Si number density = 26.940749 Si / 1000 Ang^3
#
#
#
# Elastic Constant Matrix: (Units=GPa)
#
#
# Indices 1 2 3 4 5 6 
#
# 1 225.7951 61.3858 81.9492 23.3639 -0.1174 -37.8635
# 2 61.3858 155.4455 69.2459 34.5800 -17.9307 -13.3234
# 3 81.9492 69.2459 171.4575 37.4963 26.8657 -8.6192
# 4 23.3639 34.5800 37.4963 63.1562 -9.2258 -12.0324
# 5 -0.1174 -17.9307 26.8657 -9.2258 78.4979 -4.3358
# 6 -37.8635 -13.3234 -8.6192 -12.0324 -4.3358 50.6440
#
#
#
# Elastic Compliance Matrix: (Units=1/GPa)
#
#
# Indices 1 2 3 4 5 6 
#
# 1 0.006330 -0.000953 -0.002766 0.000797 0.001069 0.004292
# 2 -0.000953 0.009122 -0.003178 -0.002153 0.002966 0.000889
# 3 -0.002766 -0.003178 0.010022 -0.004397 -0.004824 -0.002656
# 4 0.000797 -0.002153 -0.004397 0.020731 0.003701 0.004523
# 5 0.001069 0.002966 -0.004824 0.003701 0.015669 0.002979
# 6 0.004292 0.000889 -0.002656 0.004523 0.002979 0.024066
#
#
# Mechanical properties :
#
#
# Convention : Reuss Voigt Hill
#
# Bulk Modulus (GPa) = 85.62321 108.65109 97.13715
# Shear Modulus (GPa) = 48.24980 61.13411 54.69195
#
# Velocity S-wave (km/s) = 4.23656 4.76879 4.51053
# Velocity P-wave (km/s) = 7.46876 8.41065 7.95366
#
# Compressibility (1/GPa) = 0.01167908
#
# Stress axis : x y z
#
# Youngs Moduli (GPa) = 157.98403 109.61958 99.78162
#
# Poissons Ratio (x) = 0.10451 0.27602
# Poissons Ratio (y) = 0.15062 0.31709
# Poissons Ratio (z) = 0.43703 0.34835
#
# Static dielectric constant tensor:
#      x y z
#    x 2.049970 0.195730 -0.155110 
#    y 0.195730 1.592370 0.223990 
#    z -0.155110 0.223990 1.829790 
# 
# From -- ./inp_files/16651.got.cif
#   From: 2010.05.17/outbox.cif.g08.bks.cpg/sg2_9_cif.got.tgz:16651.got - 2010.06.03 11:33:40.
