data_PCOD9071646
_publ_section_title
;
Structure prediction by ZEFSAII (Michael W. Deem and Ramdas Pophale) SiO2 
 PCOD9071646
Probable space group: P -1
;
_chemical_formula_sum "Si O2"
_cell_formula_units_Z 14
_cell_length_a 23.226463
_cell_length_b 18.617571
_cell_length_c 6.124186
_cell_angle_alpha 55.887218
_cell_angle_beta 127.084407
_cell_angle_gamma 165.508868
_cell_volume 525.124119
_symmetry_space_group_name_H-M "P -1"
_symmetry_group_IT_number 2
_symmetry_cell_setting 'triclinic'
loop_
_space_group_symop_operation_xyz
x,y,z
-x,-y,-z
loop_
_atom_site_type_symbol
_atom_site_label
_atom_site_fract_x
_atom_site_fract_y
_atom_site_fract_z
Si Si1 0.710424 0.251135 0.880854
Si Si2 0.429249 0.305785 0.821283
Si Si3 0.915856 0.190124 0.359776
Si Si4 0.231356 0.818183 0.220974
Si Si5 0.210908 0.348340 0.319651
Si Si6 0.602870 0.874997 0.568798
Si Si7 0.181407 0.172717 0.935167
O O1 0.664490 0.139453 0.754538
O O2 0.822715 0.471504 0.673198
O O3 0.944823 0.478083 0.149357
O O4 0.500000 0.000000 0.000000
O O5 0.610197 0.486278 0.734478
O O6 0.168614 0.996015 0.633947
O O7 0.438475 0.245104 0.136691
O O8 0.559869 0.537517 0.844501
O O9 0.749342 0.073310 0.067174
O O10 0.831173 0.102802 0.562492
O O11 0.333931 0.964275 0.437085
O O12 0.364171 0.602647 0.337576
O O13 0.186894 0.251727 0.624614
O O14 0.955205 0.063339 0.096190
O O15 0.000000 0.000000 0.000000
#
# Coordination Sequence:
#
# PCOD9071646 Si02
#       7
#     2   2   2   2   2   2   2
#     4   9  17  32  46  61  85 109 142 181 216 260
#     4   8  13  21  34  53  79 114 141 171 213 251
#     4   8  15  26  42  59  79 112 140 174 217 254
#     4   8  17  30  45  61  83 112 138 176 222 254
#     4   8  13  19  31  54  80 114 144 172 210 248
#     4   9  14  24  41  57  80 112 144 171 215 259
#     4   8  12  18  29  50  83 114 142 175 207 245
#
# _framework density 26.660363
#
# number of rings (size 3 to 8) (size 9 to 14) (size 15 to 20)
#    0.857    2.857    0.000    0.000    0.000    0.571 
#    0.000    0.714    0.000    0.000    0.000    0.000 
#    0.000    1.143    0.286  133.857    3.714  181.429 
#
# Total GULP energy -78103.935282 kJ/mol
# GULP energy per Si atom -5578.852520 kJ/mol
# Density = 2.659968 g / cm^3
# Si number density = 26.660363 Si / 1000 Ang^3
#
#
#
# Elastic Constant Matrix: (Units=GPa)
#
#
# Indices 1 2 3 4 5 6 
#
# 1 89.8486 80.6963 65.1777 20.7959 -33.6836 -11.7133
# 2 80.6963 168.0557 99.8544 -3.4165 -39.2448 -6.4040
# 3 65.1777 99.8544 144.3047 -6.6641 -43.5449 -10.8182
# 4 20.7959 -3.4165 -6.6641 70.1941 -20.1178 -15.2676
# 5 -33.6836 -39.2448 -43.5449 -20.1178 55.2410 12.9050
# 6 -11.7133 -6.4040 -10.8182 -15.2676 12.9050 32.4932
#
#
#
# Elastic Compliance Matrix: (Units=1/GPa)
#
#
# Indices 1 2 3 4 5 6 
#
# 1 0.025396 -0.008847 -0.004895 -0.007463 0.002306 0.001359
# 2 -0.008847 0.013441 -0.004696 0.003066 0.001900 -0.001418
# 3 -0.004895 -0.004696 0.014781 0.004956 0.006691 0.001902
# 4 -0.007463 0.003066 0.004956 0.020606 0.007582 0.006235
# 5 0.002306 0.001900 0.006691 0.007582 0.030047 -0.004938
# 6 0.001359 -0.001418 0.001902 0.006235 -0.004938 0.036510
#
#
# Mechanical properties :
#
#
# Convention : Reuss Voigt Hill
#
# Bulk Modulus (GPa) = 59.73626 99.29620 79.51623
# Shear Modulus (GPa) = 27.28672 42.01770 34.65221
#
# Velocity S-wave (km/s) = 3.20268 3.97424 3.60914
# Velocity P-wave (km/s) = 6.01093 7.64102 6.87446
#
# Compressibility (1/GPa) = 0.01674025
#
# Stress axis : x y z
#
# Youngs Moduli (GPa) = 39.37613 74.39953 67.65479
#
# Poissons Ratio (x) = 0.65823 0.33120
# Poissons Ratio (y) = 0.34837 0.31771
# Poissons Ratio (z) = 0.19277 0.34938
#
# Static dielectric constant tensor:
#      x y z
#    x 2.094670 -0.023350 -0.011530 
#    y -0.023350 2.190340 0.080740 
#    z -0.011530 0.080740 2.084740 
# 
# From -- ./inp_files/49753.got.cif
#   From: 2010.05.17/outbox.cif.g08.bks.cpg/sg2_25_cif.got.tgz:49753.got - 2010.06.03 11:33:40.
