data_PCOD9071461
_publ_section_title
;
Structure prediction by ZEFSAII (Michael W. Deem and Ramdas Pophale) SiO2 
 PCOD9071461
Probable space group: P -1
;
_chemical_formula_sum "Si O2"
_cell_formula_units_Z 12
_cell_length_a 13.445278
_cell_length_b 5.102058
_cell_length_c 17.149282
_cell_angle_alpha 76.854610
_cell_angle_beta 153.741678
_cell_angle_gamma 92.824327
_cell_volume 473.037576
_symmetry_space_group_name_H-M "P -1"
_symmetry_group_IT_number 2
_symmetry_cell_setting 'triclinic'
loop_
_space_group_symop_operation_xyz
x,y,z
-x,-y,-z
loop_
_atom_site_type_symbol
_atom_site_label
_atom_site_fract_x
_atom_site_fract_y
_atom_site_fract_z
Si Si1 0.580440 0.394877 0.385382
Si Si2 0.388781 0.903948 0.124211
Si Si3 0.635781 0.224876 0.061203
Si Si4 0.880246 0.336128 0.755396
Si Si5 0.128495 0.983107 0.509274
Si Si6 0.797541 0.776098 0.798459
O O1 0.375333 0.695290 0.198409
O O2 0.744746 0.391288 0.574307
O O3 0.443668 0.178413 0.324932
O O4 0.743994 0.309543 0.429082
O O5 0.645768 0.929068 0.316823
O O6 0.373455 0.763173 0.039500
O O7 0.168031 0.207647 0.952933
O O8 0.912207 0.145656 0.287360
O O9 0.500000 0.500000 0.000000
O O10 0.500000 0.000000 0.000000
O O11 0.782221 0.630127 0.714625
O O12 0.834604 0.074365 0.787275
O O13 0.000000 0.000000 0.500000
O O14 0.000000 0.500000 0.000000
#
# Coordination Sequence:
#
# PCOD9071461 Si02
#       6
#     2   2   2   2   2   2
#     4  12  28  47  79 115 155 212 264 322 394 470
#     4  12  28  48  82 112 162 209 264 327 396 466
#     4  12  28  51  78 111 157 208 264 328 391 462
#     4  12  28  50  78 117 159 206 261 325 392 468
#     4  12  27  49  79 114 159 205 266 323 395 466
#     4  12  26  50  80 112 161 206 259 325 394 463
#
# _framework density 25.367961999999999
#
# number of rings (size 3 to 8) (size 9 to 14) (size 15 to 20)
#    0.000    0.000    5.000    3.500    7.000    1.333 
#    0.000    0.000    0.000    0.000    0.000    0.000 
#    0.000    0.000    0.000    0.000    0.000    0.000 
#
# Total GULP energy -67206.192311 kJ/mol
# GULP energy per Si atom -5600.516026 kJ/mol
# Density = 2.531022 g / cm^3
# Si number density = 25.367962 Si / 1000 Ang^3
#
#
#
# Elastic Constant Matrix: (Units=GPa)
#
#
# Indices 1 2 3 4 5 6 
#
# 1 129.5654 32.8191 46.9163 14.0855 -7.5093 -13.3240
# 2 32.8191 85.1369 9.6996 9.9579 -2.4157 -12.8750
# 3 46.9163 9.6996 182.9473 10.9173 -20.0216 4.7939
# 4 14.0855 9.9579 10.9173 41.2087 -2.2709 3.0180
# 5 -7.5093 -2.4157 -20.0216 -2.2709 55.3984 5.7799
# 6 -13.3240 -12.8750 4.7939 3.0180 5.7799 44.6396
#
#
#
# Elastic Compliance Matrix: (Units=1/GPa)
#
#
# Indices 1 2 3 4 5 6 
#
# 1 0.009770 -0.002870 -0.002283 -0.002221 0.000024 0.002480
# 2 -0.002870 0.013636 0.000057 -0.002581 -0.000221 0.003273
# 3 -0.002283 0.000057 0.006364 -0.000687 0.002129 -0.001578
# 4 -0.002221 -0.002581 -0.000687 0.026106 0.000742 -0.003195
# 5 0.000024 -0.000221 0.002129 0.000742 0.019138 -0.002813
# 6 0.002480 0.003273 -0.001578 -0.003195 -0.002813 0.024836
#
#
# Mechanical properties :
#
#
# Convention : Reuss Voigt Hill
#
# Bulk Modulus (GPa) = 51.07899 64.05773 57.56836
# Shear Modulus (GPa) = 42.89304 48.79699 45.84501
#
# Velocity S-wave (km/s) = 4.11644 4.39061 4.25573
# Velocity P-wave (km/s) = 6.54006 7.14209 6.84769
#
# Compressibility (1/GPa) = 0.01957752
#
# Stress axis : x y z
#
# Youngs Moduli (GPa) = 102.35557 73.33312 157.13729
#
# Poissons Ratio (x) = 0.21050 0.35875
# Poissons Ratio (y) = 0.29380 -0.00899
# Poissons Ratio (z) = 0.23368 -0.00419
#
# Static dielectric constant tensor:
#      x y z
#    x 2.028680 0.038070 0.030690 
#    y 0.038070 2.052380 0.003250 
#    z 0.030690 0.003250 2.082950 
# 
# From -- ./inp_files/89422.got.cif
#   From: 2010.05.17/outbox.cif.g08.bks.cpg/sg2_45_cif.got.tgz:89422.got - 2010.06.03 11:33:40.
