data_PCOD9071679
_publ_section_title
;
Structure prediction by ZEFSAII (Michael W. Deem and Ramdas Pophale) SiO2 
 PCOD9071679
Probable space group: P -1
;
_chemical_formula_sum "Si O2"
_cell_formula_units_Z 16
_cell_length_a 7.006290
_cell_length_b 9.300591
_cell_length_c 19.301940
_cell_angle_alpha 130.080255
_cell_angle_beta 42.942661
_cell_angle_gamma 132.770734
_cell_volume 601.316362
_symmetry_space_group_name_H-M "P -1"
_symmetry_group_IT_number 2
_symmetry_cell_setting 'triclinic'
loop_
_space_group_symop_operation_xyz
x,y,z
-x,-y,-z
loop_
_atom_site_type_symbol
_atom_site_label
_atom_site_fract_x
_atom_site_fract_y
_atom_site_fract_z
Si Si1 0.070759 0.265555 0.207406
Si Si2 0.255285 0.001053 0.256298
Si Si3 0.817555 0.665778 0.044020
Si Si4 0.162303 0.780933 0.607471
Si Si5 0.630216 0.251917 0.730974
Si Si6 0.417479 0.662980 0.379780
Si Si7 0.458415 0.219481 0.980809
Si Si8 0.629426 0.349581 0.189352
O O1 0.162822 0.503274 0.234959
O O2 0.338855 0.275741 0.192964
O O3 0.790735 0.190153 0.313103
O O4 0.146078 0.144542 0.085822
O O5 0.261660 0.877637 0.284789
O O6 0.347459 0.906073 0.133597
O O7 0.545581 0.222766 0.243965
O O8 0.964960 0.057587 0.340430
O O9 0.685734 0.424475 0.021169
O O10 0.126548 0.702737 0.934124
O O11 0.717073 0.770681 0.166200
O O12 0.620732 0.708808 0.048933
O O13 0.421393 0.767669 0.484456
O O14 0.883101 0.554085 0.605079
O O15 0.640638 0.223092 0.636828
O O16 0.684046 0.582834 0.266179
#
# Coordination Sequence:
#
# PCOD9071679 Si02
#       8
#     2   2   2   2   2   2   2   2
#     4   8  16  29  45  66  91 122 151 178 218 275
#     4   9  17  28  44  71  94 114 147 190 223 259
#     4   9  17  30  45  67  95 123 145 177 223 277
#     4   8  15  27  44  63  90 116 149 188 223 256
#     4   8  15  25  41  64  91 113 146 181 219 261
#     4   8  15  28  43  64  88 119 149 184 224 264
#     4   9  17  28  45  67  95 121 146 176 225 274
#     4   9  18  29  47  68  92 117 151 187 221 259
#
# _framework density 26.60829
#
# number of rings (size 3 to 8) (size 9 to 14) (size 15 to 20)
#    0.000    4.000    0.000    0.750    0.000    9.000 
#    0.000    0.000    0.000    7.500    0.000    0.000 
#    0.000    0.000    0.000    0.000    0.000    0.000 
#
# Total GULP energy -89283.495020 kJ/mol
# GULP energy per Si atom -5580.218439 kJ/mol
# Density = 2.654773 g / cm^3
# Si number density = 26.608290 Si / 1000 Ang^3
#
#
#
# Elastic Constant Matrix: (Units=GPa)
#
#
# Indices 1 2 3 4 5 6 
#
# 1 58.2335 38.4777 18.4383 -0.0391 10.7219 -14.6561
# 2 38.4777 155.3611 43.7518 -6.6537 9.8943 -50.3846
# 3 18.4383 43.7518 150.5428 -16.2281 39.3473 -27.6288
# 4 -0.0391 -6.6537 -16.2281 35.0830 0.6356 2.0918
# 5 10.7219 9.8943 39.3473 0.6356 32.3748 -4.9116
# 6 -14.6561 -50.3846 -27.6288 2.0918 -4.9116 46.7234
#
#
#
# Elastic Compliance Matrix: (Units=1/GPa)
#
#
# Indices 1 2 3 4 5 6 
#
# 1 0.021574 -0.004660 0.000505 -0.000601 -0.006106 0.001426
# 2 -0.004660 0.011081 -0.000893 0.001074 0.000737 0.009988
# 3 0.000505 -0.000893 0.011807 0.005271 -0.013664 0.004504
# 4 -0.000601 0.001074 0.005271 0.031152 -0.006848 0.001973
# 5 -0.006106 0.000737 -0.013664 -0.006848 0.048856 -0.003758
# 6 0.001426 0.009988 0.004504 0.001973 -0.003758 0.034801
#
#
# Mechanical properties :
#
#
# Convention : Reuss Voigt Hill
#
# Bulk Modulus (GPa) = 29.09929 62.83031 45.96480
# Shear Modulus (GPa) = 27.65163 40.40090 34.02627
#
# Velocity S-wave (km/s) = 3.22718 3.90084 3.57989
# Velocity P-wave (km/s) = 4.98459 6.62971 5.86512
#
# Compressibility (1/GPa) = 0.03436510
#
# Stress axis : x y z
#
# Youngs Moduli (GPa) = 46.35194 90.24790 84.69858
#
# Poissons Ratio (x) = 0.42053 -0.04276
# Poissons Ratio (y) = 0.21599 0.07565
# Poissons Ratio (z) = -0.02340 0.08061
#
# Static dielectric constant tensor:
#      x y z
#    x 2.104040 0.139220 -0.009650 
#    y 0.139220 2.255430 -0.041000 
#    z -0.009650 -0.041000 2.181550 
# 
# From -- ./inp_files/587456.got.cif
#   From: 2010.05.17/outbox.cif.g08.bks.cpg/sg2_294_cif.got.tgz:587456.got - 2010.06.03 11:33:40.
