data_PCOD9071668
_publ_section_title
;
Structure prediction by ZEFSAII (Michael W. Deem and Ramdas Pophale) SiO2 
 PCOD9071668
Probable space group: P -1
;
_chemical_formula_sum "Si O2"
_cell_formula_units_Z 12
_cell_length_a 9.996327
_cell_length_b 13.019508
_cell_length_c 7.829221
_cell_angle_alpha 121.128732
_cell_angle_beta 131.927387
_cell_angle_gamma 37.112720
_cell_volume 457.135018
_symmetry_space_group_name_H-M "P -1"
_symmetry_group_IT_number 2
_symmetry_cell_setting 'triclinic'
loop_
_space_group_symop_operation_xyz
x,y,z
-x,-y,-z
loop_
_atom_site_type_symbol
_atom_site_label
_atom_site_fract_x
_atom_site_fract_y
_atom_site_fract_z
Si Si1 0.869868 0.096301 0.214133
Si Si2 0.385120 0.499612 0.186077
Si Si3 0.496275 0.142302 0.123514
Si Si4 0.669294 0.580668 0.550520
Si Si5 0.642378 0.060917 0.676241
Si Si6 0.203154 0.384047 0.747920
O O1 0.659539 0.304581 0.212697
O O2 0.776336 0.065678 0.270729
O O3 0.808728 0.025371 0.952934
O O4 0.148140 0.019431 0.360382
O O5 0.432077 0.617770 0.307299
O O6 0.299574 0.504657 0.309966
O O7 0.194722 0.527523 0.915303
O O8 0.378319 0.262489 0.289500
O O9 0.328775 0.264821 0.922864
O O10 0.500000 0.000000 0.000000
O O11 0.931555 0.451208 0.559863
O O12 0.402690 0.264122 0.665898
O O13 0.500000 0.000000 0.500000
#
# Coordination Sequence:
#
# PCOD9071668 Si02
#       6
#     2   2   2   2   2   2
#     4   8  16  27  41  66  89 111 144 180 214 253
#     4   8  14  24  41  62  85 108 140 179 214 247
#     4   9  17  29  45  65  93 121 139 170 222 268
#     4   9  15  26  45  63  84 113 144 179 214 251
#     4   9  15  25  44  66  87 109 142 187 220 243
#     4   9  17  27  45  68  86 109 145 183 215 250
#
# _framework density 26.250449
#
# number of rings (size 3 to 8) (size 9 to 14) (size 15 to 20)
#    0.000    4.000    0.000    3.000    0.000    0.000 
#    0.000    0.000    0.000   50.000    0.000   37.333 
#    0.000    0.000    0.000    0.000    0.000    0.000 
#
# Total GULP energy -67029.105926 kJ/mol
# GULP energy per Si atom -5585.758827 kJ/mol
# Density = 2.619070 g / cm^3
# Si number density = 26.250449 Si / 1000 Ang^3
#
#
#
# Elastic Constant Matrix: (Units=GPa)
#
#
# Indices 1 2 3 4 5 6 
#
# 1 90.9755 51.1234 46.3763 -7.9424 23.1407 -41.0633
# 2 51.1234 65.0147 35.4702 -12.0157 23.4591 -26.2862
# 3 46.3763 35.4702 124.2983 3.6804 34.9764 -0.5630
# 4 -7.9424 -12.0157 3.6804 47.2794 -0.1142 11.8255
# 5 23.1407 23.4591 34.9764 -0.1142 64.0741 -6.5496
# 6 -41.0633 -26.2862 -0.5630 11.8255 -6.5496 53.8858
#
#
#
# Elastic Compliance Matrix: (Units=1/GPa)
#
#
# Indices 1 2 3 4 5 6 
#
# 1 0.028764 -0.012543 -0.006919 -0.001842 -0.000378 0.016086
# 2 -0.012543 0.031117 -0.002971 0.005046 -0.004833 0.003895
# 3 -0.006919 -0.002971 0.012602 -0.001205 -0.003991 -0.006811
# 4 -0.001842 0.005046 -0.001205 0.023258 -0.000910 -0.004169
# 5 -0.000378 -0.004833 -0.003991 -0.000910 0.019680 -0.000096
# 6 0.016086 0.003895 -0.006811 -0.004169 -0.000096 0.033548
#
#
# Mechanical properties :
#
#
# Convention : Reuss Voigt Hill
#
# Bulk Modulus (GPa) = 36.21074 60.69204 48.45139
# Shear Modulus (GPa) = 24.62539 42.86909 33.74724
#
# Velocity S-wave (km/s) = 3.06616 4.04552 3.58940
# Velocity P-wave (km/s) = 5.13414 6.70763 5.97292
#
# Compressibility (1/GPa) = 0.02761611
#
# Stress axis : x y z
#
# Youngs Moduli (GPa) = 34.76578 32.13687 79.35030
#
# Poissons Ratio (x) = 0.40311 0.54901
# Poissons Ratio (y) = 0.43608 0.23577
# Poissons Ratio (z) = 0.24054 0.09549
#
# Static dielectric constant tensor:
#      x y z
#    x 2.212400 0.079370 -0.077830 
#    y 0.079370 2.085350 -0.017140 
#    z -0.077830 -0.017140 2.130890 
# 
# From -- ./inp_files/330549.got.cif
#   From: 2010.05.17/outbox.cif.g08.bks.cpg/sg2_166_cif.got.tgz:330549.got - 2010.06.03 11:33:40.
