data_PCOD9071744
_publ_section_title
;
Structure prediction by ZEFSAII (Michael W. Deem and Ramdas Pophale) SiO2 
 PCOD9071744
Probable space group: P -1
;
_chemical_formula_sum "Si O2"
_cell_formula_units_Z 14
_cell_length_a 6.754607
_cell_length_b 10.695577
_cell_length_c 11.622127
_cell_angle_alpha 111.951259
_cell_angle_beta 82.311410
_cell_angle_gamma 141.574666
_cell_volume 465.203833
_symmetry_space_group_name_H-M "P -1"
_symmetry_group_IT_number 2
_symmetry_cell_setting 'triclinic'
loop_
_space_group_symop_operation_xyz
x,y,z
-x,-y,-z
loop_
_atom_site_type_symbol
_atom_site_label
_atom_site_fract_x
_atom_site_fract_y
_atom_site_fract_z
Si Si1 0.257329 0.983880 0.463378
Si Si2 0.560434 0.768696 0.046218
Si Si3 0.827356 0.739979 0.616205
Si Si4 0.696387 0.239862 0.318387
Si Si5 0.148088 0.888593 0.052760
Si Si6 0.385745 0.489022 0.763865
Si Si7 0.168673 0.520071 0.191535
O O1 0.062178 0.941887 0.574094
O O2 0.961298 0.749550 0.338985
O O3 0.500000 0.000000 0.500000
O O4 0.497397 0.192171 0.426930
O O5 0.738587 0.975025 0.026136
O O6 0.348393 0.566495 0.902221
O O7 0.377596 0.722523 0.157909
O O8 0.824457 0.799495 0.080872
O O9 0.500000 0.500000 0.500000
O O10 0.646586 0.704215 0.730187
O O11 0.070178 0.752978 0.648055
O O12 0.416354 0.038053 0.183038
O O13 0.952222 0.460252 0.292820
O O14 0.060024 0.692095 0.949006
O O15 0.588057 0.462544 0.770097
#
# Coordination Sequence:
#
# PCOD9071744 Si02
#       7
#     2   2   2   2   2   2   2
#     4   9  16  28  49  75  97 125 168 212 252 295
#     4  10  20  33  51  74 107 141 166 201 248 302
#     4   8  16  29  49  74  96 127 171 213 257 301
#     4  10  18  29  49  74 102 133 168 209 250 297
#     4  10  20  33  50  76 106 136 172 204 243 300
#     4   9  16  30  50  72 101 135 168 206 254 301
#     4  10  19  32  50  75 107 137 166 203 247 301
#
# _framework density 30.094335000000001
#
# number of rings (size 3 to 8) (size 9 to 14) (size 15 to 20)
#    0.000    2.571    0.000    3.857    0.000    0.571 
#    0.000    0.000    0.000    8.571    0.000   10.000 
#    0.000    0.000    0.000    0.000    0.000    0.000 
#
# Total GULP energy -78588.991193 kJ/mol
# GULP energy per Si atom -5613.499371 kJ/mol
# Density = 3.002584 g / cm^3
# Si number density = 30.094335 Si / 1000 Ang^3
#
#
#
# Elastic Constant Matrix: (Units=GPa)
#
#
# Indices 1 2 3 4 5 6 
#
# 1 138.2432 65.4349 37.4935 -8.5166 -0.0639 35.5178
# 2 65.4349 207.6737 89.0665 -79.3022 -17.2933 24.1225
# 3 37.4935 89.0665 163.4675 3.1706 16.4663 18.7194
# 4 -8.5166 -79.3022 3.1706 114.5832 19.5539 -7.8109
# 5 -0.0639 -17.2933 16.4663 19.5539 38.6926 -0.8064
# 6 35.5178 24.1225 18.7194 -7.8109 -0.8064 73.1553
#
#
#
# Elastic Compliance Matrix: (Units=1/GPa)
#
#
# Indices 1 2 3 4 5 6 
#
# 1 0.009678 -0.003449 0.000210 -0.001800 -0.000785 -0.003816
# 2 -0.003449 0.011619 -0.006123 0.007266 0.004126 0.000231
# 3 0.000210 -0.006123 0.010130 -0.003691 -0.005206 -0.001127
# 4 -0.001800 0.007266 -0.003691 0.014185 -0.002334 0.000911
# 5 -0.000785 0.004126 -0.005206 -0.002334 0.031092 0.000446
# 6 -0.003816 0.000231 -0.001127 0.000911 0.000446 0.015837
#
#
# Mechanical properties :
#
#
# Convention : Reuss Voigt Hill
#
# Bulk Modulus (GPa) = 78.70922 99.26382 88.98652
# Shear Modulus (GPa) = 43.29016 66.44553 54.86784
#
# Velocity S-wave (km/s) = 3.79685 4.70394 4.27452
# Velocity P-wave (km/s) = 6.74035 7.90939 7.34816
#
# Compressibility (1/GPa) = 0.01270499
#
# Stress axis : x y z
#
# Youngs Moduli (GPa) = 103.32303 86.06281 98.71443
#
# Poissons Ratio (x) = 0.29684 -0.02077
# Poissons Ratio (y) = 0.35637 0.60441
# Poissons Ratio (z) = -0.02174 0.52695
#
# Static dielectric constant tensor:
#      x y z
#    x 2.315100 0.019060 0.069590 
#    y 0.019060 2.312670 -0.058640 
#    z 0.069590 -0.058640 2.339270 
# 
# From -- ./inp_files/181272.got.cif
#   From: 2010.05.17/outbox.cif.g08.bks.cpg/sg2_91_cif.got.tgz:181272.got - 2010.06.03 11:33:40.
