data_PCOD9071440
_publ_section_title
;
Structure prediction by ZEFSAII (Michael W. Deem and Ramdas Pophale) SiO2 
 PCOD9071440
Probable space group: P -1
;
_chemical_formula_sum "Si O2"
_cell_formula_units_Z 16
_cell_length_a 27.604085
_cell_length_b 27.533578
_cell_length_c 8.676381
_cell_angle_alpha 141.894003
_cell_angle_beta 142.151481
_cell_angle_gamma 10.496867
_cell_volume 733.908593
_symmetry_space_group_name_H-M "P -1"
_symmetry_group_IT_number 2
_symmetry_cell_setting 'triclinic'
loop_
_space_group_symop_operation_xyz
x,y,z
-x,-y,-z
loop_
_atom_site_type_symbol
_atom_site_label
_atom_site_fract_x
_atom_site_fract_y
_atom_site_fract_z
Si Si1 0.228745 0.725076 0.950282
Si Si2 0.191531 0.095043 0.567996
Si Si3 0.460881 0.744002 0.856454
Si Si4 0.257385 0.761892 0.444734
Si Si5 0.057795 0.411552 0.593342
Si Si6 0.660103 0.559041 0.549208
Si Si7 0.997226 0.718897 0.797020
Si Si8 0.597516 0.936782 0.922042
O O1 0.228337 0.635649 0.674943
O O2 0.500000 0.500000 0.000000
O O3 0.223754 0.739052 0.155296
O O4 0.000000 0.000000 0.000000
O O5 0.101223 0.181413 0.378465
O O6 0.918439 0.360619 0.644459
O O7 0.392897 0.831282 0.456575
O O8 0.363664 0.007406 0.825331
O O9 0.332957 0.778533 0.624733
O O10 0.572338 0.655974 0.746408
O O11 0.715697 0.512737 0.032626
O O12 0.226219 0.026050 0.022850
O O13 0.500000 0.500000 0.500000
O O14 0.000000 0.000000 0.500000
O O15 0.986953 0.387228 0.377259
O O16 0.000000 0.500000 0.500000
O O17 0.875202 0.632959 0.808999
O O18 0.368685 0.129638 0.709167
O O19 0.500000 0.000000 0.000000
#
# Coordination Sequence:
#
# PCOD9071440 Si02
#       8
#     2   2   2   2   2   2   2   2
#     4  12  26  50  75 103 146 191 245 299 356 430
#     4  12  28  47  75 109 144 195 246 302 367 434
#     4  12  28  49  73 107 151 192 237 304 372 434
#     4  12  28  48  75 108 145 193 242 295 364 434
#     4  12  28  48  75 109 148 197 247 301 367 434
#     4  12  28  48  76 108 146 195 244 301 369 432
#     4  12  28  48  74 108 153 191 242 304 371 435
#     4  12  26  50  75 103 148 196 251 303 360 431
#
# _framework density 21.801079999999999
#
# number of rings (size 3 to 8) (size 9 to 14) (size 15 to 20)
#    0.000    0.000    2.500    6.000   14.000    0.000 
#    0.000    0.000    0.000    0.000    0.000    0.000 
#    0.000    0.000    0.000    0.000    0.000    0.000 
#
# Total GULP energy -89643.554518 kJ/mol
# GULP energy per Si atom -5602.722157 kJ/mol
# Density = 2.175146 g / cm^3
# Si number density = 21.801080 Si / 1000 Ang^3
#
#
#
# Elastic Constant Matrix: (Units=GPa)
#
#
# Indices 1 2 3 4 5 6 
#
# 1 101.0839 17.8426 1.2770 7.6109 -10.1484 -8.6366
# 2 17.8426 124.7813 -4.0248 12.3562 3.0245 -6.0657
# 3 1.2770 -4.0248 54.5184 16.7368 5.2067 -6.1234
# 4 7.6109 12.3562 16.7368 47.8223 -3.2208 1.1275
# 5 -10.1484 3.0245 5.2067 -3.2208 31.9757 0.3808
# 6 -8.6366 -6.0657 -6.1234 1.1275 0.3808 47.1770
#
#
#
# Elastic Compliance Matrix: (Units=1/GPa)
#
#
# Indices 1 2 3 4 5 6 
#
# 1 0.010724 -0.001427 -0.000150 -0.001096 0.003432 0.001759
# 2 -0.001427 0.008658 0.001845 -0.002809 -0.001869 0.001174
# 3 -0.000150 0.001845 0.021914 -0.008516 -0.004688 0.003296
# 4 -0.001096 -0.002809 -0.008516 0.025106 0.003861 -0.002298
# 5 0.003432 -0.001869 -0.004688 0.003861 0.033699 -0.000585
# 6 0.001759 0.001174 0.003296 -0.002298 -0.000585 0.022157
#
#
# Mechanical properties :
#
#
# Convention : Reuss Voigt Hill
#
# Bulk Modulus (GPa) = 23.90545 34.50814 29.20679
# Shear Modulus (GPa) = 36.85500 43.08092 39.96796
#
# Velocity S-wave (km/s) = 4.11604 4.45015 4.28635
# Velocity P-wave (km/s) = 5.79467 6.50139 6.15817
#
# Compressibility (1/GPa) = 0.04183147
#
# Stress axis : x y z
#
# Youngs Moduli (GPa) = 93.24942 115.49719 45.63224
#
# Poissons Ratio (x) = 0.16487 0.00687
# Poissons Ratio (y) = 0.13311 -0.08421
# Poissons Ratio (z) = 0.01403 -0.21314
#
# Static dielectric constant tensor:
#      x y z
#    x 1.766880 0.017180 -0.026710 
#    y 0.017180 1.790170 -0.100430 
#    z -0.026710 -0.100430 1.983240 
# 
# From -- ./inp_files/358023.got.cif
#   From: 2010.05.17/outbox.cif.g08.bks.cpg/sg2_180_cif.got.tgz:358023.got - 2010.06.03 11:33:40.
