data_PCOD9071429
_publ_section_title
;
Structure prediction by ZEFSAII (Michael W. Deem and Ramdas Pophale) SiO2 
 PCOD9071429
Probable space group: P -1
;
_chemical_formula_sum "Si O2"
_cell_formula_units_Z 12
_cell_length_a 9.012345
_cell_length_b 9.210967
_cell_length_c 12.844151
_cell_angle_alpha 85.534944
_cell_angle_beta 38.133863
_cell_angle_gamma 60.411815
_cell_volume 467.094322
_symmetry_space_group_name_H-M "P -1"
_symmetry_group_IT_number 2
_symmetry_cell_setting 'triclinic'
loop_
_space_group_symop_operation_xyz
x,y,z
-x,-y,-z
loop_
_atom_site_type_symbol
_atom_site_label
_atom_site_fract_x
_atom_site_fract_y
_atom_site_fract_z
Si Si1 0.694384 0.550353 0.445374
Si Si2 0.745590 0.900244 0.767964
Si Si3 0.360686 0.199327 0.369941
Si Si4 0.204069 0.817564 0.983396
Si Si5 0.887435 0.471569 0.959918
Si Si6 0.137480 0.836677 0.267622
O O1 0.500000 0.500000 0.500000
O O2 0.521869 0.753505 0.595688
O O3 0.974031 0.344571 0.368606
O O4 0.887394 0.555109 0.250886
O O5 0.541491 0.956301 0.771224
O O6 0.948446 0.966145 0.652824
O O7 0.500000 0.000000 0.000000
O O8 0.408941 0.321043 0.258391
O O9 0.095631 0.201295 0.571931
O O10 0.063467 0.719266 0.046402
O O11 0.174673 0.844620 0.122204
O O12 0.000000 0.000000 0.000000
O O13 0.502143 0.654229 0.127104
O O14 0.000000 0.500000 0.000000
#
# Coordination Sequence:
#
# PCOD9071429 Si02
#       6
#     2   2   2   2   2   2
#     4  12  28  49  80 118 162 210 274 334 403 485
#     4  12  26  49  80 116 160 211 269 329 408 477
#     4  12  28  49  81 115 157 215 269 327 404 482
#     4  12  29  50  82 114 164 210 268 338 407 476
#     4  12  28  50  78 117 164 210 268 338 412 474
#     4  12  28  52  80 115 162 211 272 334 403 487
#
# _framework density 25.690743999999999
#
# number of rings (size 3 to 8) (size 9 to 14) (size 15 to 20)
#    0.000    0.000    5.000    2.500   14.000    2.000 
#    0.000    0.000    0.000    0.000    0.000    0.000 
#    0.000    0.000    0.000    0.000    0.000    0.000 
#
# Total GULP energy -66857.734614 kJ/mol
# GULP energy per Si atom -5571.477884 kJ/mol
# Density = 2.563227 g / cm^3
# Si number density = 25.690744 Si / 1000 Ang^3
#
#
#
# Elastic Constant Matrix: (Units=GPa)
#
#
# Indices 1 2 3 4 5 6 
#
# 1 210.6444 59.1670 26.1082 -1.7815 -0.9487 16.5757
# 2 59.1670 145.8652 23.2402 -36.9980 -9.2769 1.0506
# 3 26.1082 23.2402 112.4507 -39.3532 3.4267 -4.4578
# 4 -1.7815 -36.9980 -39.3532 49.4427 14.3078 -16.5249
# 5 -0.9487 -9.2769 3.4267 14.3078 44.8387 -8.5111
# 6 16.5757 1.0506 -4.4578 -16.5249 -8.5111 60.0961
#
#
#
# Elastic Compliance Matrix: (Units=1/GPa)
#
#
# Indices 1 2 3 4 5 6 
#
# 1 0.006403 -0.003658 -0.003197 -0.006551 0.001031 -0.003595
# 2 -0.003658 0.010832 0.003070 0.012164 -0.001150 0.004229
# 3 -0.003197 0.003070 0.015885 0.018489 -0.005344 0.006334
# 4 -0.006551 0.012164 0.018489 0.052772 -0.012904 0.015649
# 5 0.001031 -0.001150 -0.005344 -0.012904 0.026526 -0.000452
# 6 -0.003595 0.004229 0.006334 0.015649 -0.000452 0.022266
#
#
# Mechanical properties :
#
#
# Convention : Reuss Voigt Hill
#
# Bulk Modulus (GPa) = 39.13980 76.22124 57.68052
# Shear Modulus (GPa) = 33.16273 54.90517 44.03395
#
# Velocity S-wave (km/s) = 3.59673 4.62796 4.14454
# Velocity P-wave (km/s) = 5.70234 7.63482 6.73822
#
# Compressibility (1/GPa) = 0.02554944
#
# Stress axis : x y z
#
# Youngs Moduli (GPa) = 156.17017 92.31885 62.95306
#
# Poissons Ratio (x) = 0.33772 0.20128
# Poissons Ratio (y) = 0.57130 -0.19327
# Poissons Ratio (z) = 0.49932 -0.28343
#
# Static dielectric constant tensor:
#      x y z
#    x 2.317100 -0.256860 -0.474970 
#    y -0.256860 2.159780 0.075190 
#    z -0.474970 0.075190 1.618670 
# 
# From -- ./inp_files/157745.got.cif
#   From: 2010.05.17/outbox.cif.g08.bks.cpg/sg2_79_cif.got.tgz:157745.got - 2010.06.03 11:33:40.
