data_PCOD9071059
_publ_section_title
;
Structure prediction by ZEFSAII (Michael W. Deem and Ramdas Pophale) SiO2 
 PCOD9071059
Probable space group: P -1
;
_chemical_formula_sum "Si O2"
_cell_formula_units_Z 11
_cell_length_a 9.560623
_cell_length_b 16.098409
_cell_length_c 9.187355
_cell_angle_alpha 130.838478
_cell_angle_beta 100.118301
_cell_angle_gamma 37.415901
_cell_volume 431.632766
_symmetry_space_group_name_H-M "P -1"
_symmetry_group_IT_number 2
_symmetry_cell_setting 'triclinic'
loop_
_space_group_symop_operation_xyz
x,y,z
-x,-y,-z
loop_
_atom_site_type_symbol
_atom_site_label
_atom_site_fract_x
_atom_site_fract_y
_atom_site_fract_z
Si Si1 0.619930 0.341287 0.029228
Si Si2 0.604773 0.255337 0.529615
Si Si3 0.337998 0.330206 0.815631
Si Si4 0.619793 0.963533 0.820147
Si Si5 0.560462 0.655243 0.731604
Si Si6 0.500000 0.000000 0.500000
O O1 0.469562 0.567133 0.237677
O O2 0.628685 0.301868 0.154979
O O3 0.388983 0.406171 0.996127
O O4 0.009439 0.053954 0.713336
O O5 0.336431 0.365809 0.690020
O O6 0.551567 0.280605 0.379814
O O7 0.628051 0.037140 0.569551
O O8 0.000000 0.500000 0.000000
O O9 0.488958 0.005349 0.689402
O O10 0.031431 0.654349 0.536705
O O11 0.500000 0.000000 0.000000
O O12 0.525913 0.159122 0.026185
#
# Coordination Sequence:
#
# PCOD9071059 Si02
#       6
#     2   2   2   2   2   1
#     4  12  26  51  76 116 157 207 269 328 404 488
#     4  12  28  49  80 113 158 208 266 332 403 484
#     4  12  29  47  79 112 159 212 267 334 406 476
#     4  12  27  47  78 117 164 212 266 333 408 483
#     4  12  25  49  77 114 154 208 270 327 405 479
#     4  12  28  48  78 112 168 204 268 324 416 466
#
# _framework density 25.484627
#
# number of rings (size 3 to 8) (size 9 to 14) (size 15 to 20)
#    0.000    0.000    1.818    7.091    7.636    0.000 
#    0.000    0.000    0.000    0.000    0.000    0.000 
#    0.000    0.000    0.000    0.000    0.000    0.000 
#
# Total GULP energy -61411.030544 kJ/mol
# GULP energy per Si atom -5582.820959 kJ/mol
# Density = 2.542662 g / cm^3
# Si number density = 25.484627 Si / 1000 Ang^3
#
#
#
# Elastic Constant Matrix: (Units=GPa)
#
#
# Indices 1 2 3 4 5 6 
#
# 1 158.8881 32.2125 70.2933 4.3264 10.1408 28.0357
# 2 32.2125 108.9158 64.7546 -23.0462 -13.9825 10.3478
# 3 70.2933 64.7546 155.2541 19.7666 16.1246 -3.9661
# 4 4.3264 -23.0462 19.7666 66.1085 7.0602 -6.9689
# 5 10.1408 -13.9825 16.1246 7.0602 61.9480 -7.5672
# 6 28.0357 10.3478 -3.9661 -6.9689 -7.5672 54.0426
#
#
#
# Elastic Compliance Matrix: (Units=1/GPa)
#
#
# Indices 1 2 3 4 5 6 
#
# 1 0.009119 0.000341 -0.004352 0.000378 -0.000961 -0.005201
# 2 0.000341 0.016659 -0.008629 0.007606 0.004797 -0.002348
# 3 -0.004352 -0.008629 0.013226 -0.005916 -0.003562 0.003619
# 4 0.000378 0.007606 -0.005916 0.019471 0.001045 0.000571
# 5 -0.000961 0.004797 -0.003562 0.001045 0.018439 0.002036
# 6 -0.005201 -0.002348 0.003619 0.000571 0.002036 0.022276
#
#
# Mechanical properties :
#
#
# Convention : Reuss Voigt Hill
#
# Bulk Modulus (GPa) = 72.86585 84.17543 78.52064
# Shear Modulus (GPa) = 38.74610 53.47300 46.10955
#
# Velocity S-wave (km/s) = 3.90342 4.58563 4.25821
# Velocity P-wave (km/s) = 6.99784 7.81914 7.41986
#
# Compressibility (1/GPa) = 0.01372385
#
# Stress axis : x y z
#
# Youngs Moduli (GPa) = 109.66409 60.02702 75.60663
#
# Poissons Ratio (x) = -0.02049 0.32905
# Poissons Ratio (y) = -0.03742 0.65244
# Poissons Ratio (z) = 0.47727 0.51800
#
# Static dielectric constant tensor:
#      x y z
#    x 1.928010 -0.043210 -0.084680 
#    y -0.043210 2.059330 0.018380 
#    z -0.084680 0.018380 2.126560 
# 
# From -- ./inp_files/204310.got.cif
#   From: 2010.05.17/outbox.cif.g08.bks.cpg/sg2_103_cif.got.tgz:204310.got - 2010.06.03 11:33:40.
