data_PCOD9071173
_publ_section_title
;
Structure prediction by ZEFSAII (Michael W. Deem and Ramdas Pophale) SiO2 
 PCOD9071173
Probable space group: P -1
;
_chemical_formula_sum "Si O2"
_cell_formula_units_Z 15
_cell_length_a 9.808879
_cell_length_b 6.091698
_cell_length_c 12.461499
_cell_angle_alpha 94.755122
_cell_angle_beta 129.114809
_cell_angle_gamma 93.786678
_cell_volume 568.957840
_symmetry_space_group_name_H-M "P -1"
_symmetry_group_IT_number 2
_symmetry_cell_setting 'triclinic'
loop_
_space_group_symop_operation_xyz
x,y,z
-x,-y,-z
loop_
_atom_site_type_symbol
_atom_site_label
_atom_site_fract_x
_atom_site_fract_y
_atom_site_fract_z
Si Si1 0.422652 0.183659 0.241518
Si Si2 0.052689 0.254517 0.989517
Si Si3 0.078277 0.647990 0.757642
Si Si4 0.801619 0.288115 0.678623
Si Si5 0.434612 0.822808 0.056726
Si Si6 0.111078 0.063210 0.451461
Si Si7 0.500000 0.000000 0.500000
Si Si8 0.696766 0.562573 0.298763
O O1 0.599330 0.335502 0.291945
O O2 0.408447 0.957561 0.156568
O O3 0.420614 0.136723 0.364494
O O4 0.260584 0.296645 0.120000
O O5 0.956876 0.219304 0.826182
O O6 0.000000 0.500000 0.000000
O O7 0.000000 0.000000 0.000000
O O8 0.131473 0.491733 0.682649
O O9 0.888406 0.533390 0.701332
O O10 0.040292 0.877163 0.700004
O O11 0.244258 0.689407 0.921031
O O12 0.779289 0.104411 0.562389
O O13 0.602150 0.238886 0.616048
O O14 0.575956 0.664204 0.154406
O O15 0.500000 0.000000 0.000000
O O16 0.248031 0.269324 0.570567
O O17 0.000000 0.000000 0.500000
#
# Coordination Sequence:
#
# PCOD9071173 Si02
#       8
#     2   2   2   2   2   2   1   2
#     4  12  28  51  80 115 163 213 276 342 415 497
#     4  12  30  56  82 116 160 221 286 342 407 492
#     4  12  26  44  74 116 153 205 258 326 415 490
#     4  12  28  48  80 111 157 210 272 336 410 500
#     4  12  26  46  79 120 161 197 261 336 417 501
#     4  12  26  45  74 111 156 203 260 325 408 495
#     4  12  28  52  74 110 158 218 282 328 416 480
#     4  12  26  45  76 117 159 204 257 333 419 496
#
# _framework density 26.363993000000001
#
# number of rings (size 3 to 8) (size 9 to 14) (size 15 to 20)
#    0.000    0.000    4.000    4.800    9.333    1.067 
#    0.000    4.000    0.000    0.000    0.000    0.000 
#    0.000    0.000    0.000    0.000    0.000    0.000 
#
# Total GULP energy -83714.929810 kJ/mol
# GULP energy per Si atom -5580.995321 kJ/mol
# Density = 2.630399 g / cm^3
# Si number density = 26.363993 Si / 1000 Ang^3
#
#
#
# Elastic Constant Matrix: (Units=GPa)
#
#
# Indices 1 2 3 4 5 6 
#
# 1 49.6126 18.5864 23.6219 2.2514 4.0149 -9.4693
# 2 18.5864 86.0507 31.3639 4.5901 -11.5535 -1.5136
# 3 23.6219 31.3639 167.7840 -2.0176 1.4291 1.1770
# 4 2.2514 4.5901 -2.0176 64.7760 2.0336 4.4515
# 5 4.0149 -11.5535 1.4291 2.0336 41.8285 3.9328
# 6 -9.4693 -1.5136 1.1770 4.4515 3.9328 56.9157
#
#
#
# Elastic Compliance Matrix: (Units=1/GPa)
#
#
# Indices 1 2 3 4 5 6 
#
# 1 0.024314 -0.004735 -0.002544 -0.000761 -0.003922 0.004303
# 2 -0.004735 0.014019 -0.002000 -0.000991 0.004500 -0.000607
# 3 -0.002544 -0.002000 0.006707 0.000497 -0.000503 -0.000619
# 4 -0.000761 -0.000991 0.000497 0.015668 -0.000854 -0.001330
# 5 -0.003922 0.004500 -0.000503 -0.000854 0.025796 -0.002238
# 6 0.004303 -0.000607 -0.000619 -0.001330 -0.002238 0.018541
#
#
# Mechanical properties :
#
#
# Convention : Reuss Voigt Hill
#
# Bulk Modulus (GPa) = 37.76072 50.06574 43.91323
# Shear Modulus (GPa) = 37.75572 48.02904 42.89238
#
# Velocity S-wave (km/s) = 3.78841 4.27285 4.03790
# Velocity P-wave (km/s) = 5.78705 6.58592 6.19937
#
# Compressibility (1/GPa) = 0.02648255
#
# Stress axis : x y z
#
# Youngs Moduli (GPa) = 41.12790 71.33134 149.10507
#
# Poissons Ratio (x) = 0.33774 0.37933
# Poissons Ratio (y) = 0.19473 0.29821
# Poissons Ratio (z) = 0.10463 0.14266
#
# Static dielectric constant tensor:
#      x y z
#    x 1.663860 0.026950 -0.304300 
#    y 0.026950 2.179060 -0.022080 
#    z -0.304300 -0.022080 1.888320 
# 
# From -- ./inp_files/410662.got.cif
#   From: 2010.05.17/outbox.cif.g08.bks.cpg/sg2_206_cif.got.tgz:410662.got - 2010.06.03 11:33:40.
