data_PCOD9071381
_publ_section_title
;
Structure prediction by ZEFSAII (Michael W. Deem and Ramdas Pophale) SiO2 
 PCOD9071381
Probable space group: P -1
;
_chemical_formula_sum "Si O2"
_cell_formula_units_Z 13
_cell_length_a 5.262953
_cell_length_b 9.692231
_cell_length_c 20.760905
_cell_angle_alpha 149.151432
_cell_angle_beta 69.215878
_cell_angle_gamma 109.525859
_cell_volume 506.722871
_symmetry_space_group_name_H-M "P -1"
_symmetry_group_IT_number 2
_symmetry_cell_setting 'triclinic'
loop_
_space_group_symop_operation_xyz
x,y,z
-x,-y,-z
loop_
_atom_site_type_symbol
_atom_site_label
_atom_site_fract_x
_atom_site_fract_y
_atom_site_fract_z
Si Si1 0.084574 0.306251 0.823106
Si Si2 0.563626 0.585607 0.456111
Si Si3 0.410472 0.336978 0.023132
Si Si4 0.505113 0.860875 0.374437
Si Si5 0.000000 0.000000 0.000000
Si Si6 0.248863 0.100946 0.226350
Si Si7 0.952715 0.605299 0.748037
O O1 0.330855 0.470352 0.903254
O O2 0.205864 0.232358 0.713285
O O3 0.834369 0.497712 0.915890
O O4 0.985730 0.040270 0.765025
O O5 0.500000 0.500000 0.500000
O O6 0.345075 0.398698 0.360149
O O7 0.847928 0.513076 0.370036
O O8 0.553436 0.904076 0.576405
O O9 0.280966 0.181162 0.033448
O O10 0.511969 0.105598 0.874586
O O11 0.275934 0.619990 0.301817
O O12 0.500000 0.000000 0.500000
O O13 0.116572 0.740248 0.846497
O O14 0.161902 0.133010 0.172695
#
# Coordination Sequence:
#
# PCOD9071381 Si02
#       7
#     2   2   2   2   1   2   2
#     4  12  30  50  83 117 165 215 270 346 416 496
#     4  12  29  50  82 117 162 221 279 339 407 503
#     4  12  28  50  82 118 162 209 275 341 422 488
#     4  12  28  51  78 118 163 219 277 339 416 493
#     4  12  26  48  82 118 158 202 274 336 420 476
#     4  12  28  51  79 119 160 215 273 344 415 498
#     4  12  27  51  83 116 165 213 280 343 418 491
#
# _framework density 25.655049000000002
#
# number of rings (size 3 to 8) (size 9 to 14) (size 15 to 20)
#    0.000    0.000    4.615    3.231   10.769    2.462 
#    0.000    0.000    0.000    0.000    0.000    0.000 
#    0.000    0.000    0.000    0.000    0.000    0.000 
#
# Total GULP energy -72646.306479 kJ/mol
# GULP energy per Si atom -5588.177421 kJ/mol
# Density = 2.559666 g / cm^3
# Si number density = 25.655049 Si / 1000 Ang^3
#
#
#
# Elastic Constant Matrix: (Units=GPa)
#
#
# Indices 1 2 3 4 5 6 
#
# 1 86.4278 48.2359 31.5649 30.8374 -18.0499 24.4574
# 2 48.2359 202.5184 64.4003 29.6144 -8.4506 21.8579
# 3 31.5649 64.4003 125.0274 14.1365 -4.8995 9.8868
# 4 30.8374 29.6144 14.1365 51.0590 12.0821 4.9969
# 5 -18.0499 -8.4506 -4.8995 12.0821 44.1546 9.3285
# 6 24.4574 21.8579 9.8868 4.9969 9.3285 44.6323
#
#
#
# Elastic Compliance Matrix: (Units=1/GPa)
#
#
# Indices 1 2 3 4 5 6 
#
# 1 0.028894 -0.000468 -0.002689 -0.019589 0.020392 -0.017077
# 2 -0.000468 0.006738 -0.002709 -0.003145 0.002197 -0.002550
# 3 -0.002689 -0.002709 0.009919 0.000575 -0.000825 0.000711
# 4 -0.019589 -0.003145 0.000575 0.036896 -0.021275 0.012463
# 5 0.020392 0.002197 -0.000825 -0.021275 0.040990 -0.018253
# 6 -0.017077 -0.002550 0.000711 0.012463 -0.018253 0.035274
#
#
# Mechanical properties :
#
#
# Convention : Reuss Voigt Hill
#
# Bulk Modulus (GPa) = 29.56997 78.04176 53.80586
# Shear Modulus (GPa) = 27.51539 45.95402 36.73470
#
# Velocity S-wave (km/s) = 3.27848 4.23688 3.78811
# Velocity P-wave (km/s) = 5.08746 7.37703 6.33651
#
# Compressibility (1/GPa) = 0.03381809
#
# Stress axis : x y z
#
# Youngs Moduli (GPa) = 34.60884 148.42064 100.81696
#
# Poissons Ratio (x) = 0.06952 0.27111
# Poissons Ratio (y) = 0.01621 0.27310
# Poissons Ratio (z) = 0.09307 0.40205
#
# Static dielectric constant tensor:
#      x y z
#    x 2.148180 -0.141610 0.025230 
#    y -0.141610 2.083910 -0.110670 
#    z 0.025230 -0.110670 2.022550 
# 
# From -- ./inp_files/615552.got.cif
#   From: 2010.05.17/outbox.cif.g08.bks.cpg/sg2_308_cif.got.tgz:615552.got - 2010.06.03 11:33:40.
