data_PCOD9071943
_publ_section_title
;
Structure prediction by ZEFSAII (Michael W. Deem and Ramdas Pophale) SiO2 
 PCOD9071943
Probable space group: P -1
;
_chemical_formula_sum "Si O2"
_cell_formula_units_Z 14
_cell_length_a 12.645848
_cell_length_b 5.333608
_cell_length_c 11.388273
_cell_angle_alpha 122.507948
_cell_angle_beta 53.920007
_cell_angle_gamma 92.382262
_cell_volume 479.040130
_symmetry_space_group_name_H-M "P -1"
_symmetry_group_IT_number 2
_symmetry_cell_setting 'triclinic'
loop_
_space_group_symop_operation_xyz
x,y,z
-x,-y,-z
loop_
_atom_site_type_symbol
_atom_site_label
_atom_site_fract_x
_atom_site_fract_y
_atom_site_fract_z
Si Si1 0.992103 0.124679 0.282661
Si Si2 0.275208 0.642518 0.877125
Si Si3 0.947908 0.368616 0.715800
Si Si4 0.431033 0.856060 0.409362
Si Si5 0.394696 0.255365 0.311293
Si Si6 0.622983 0.643404 0.927840
Si Si7 0.839154 0.873660 0.125794
O O1 0.961570 0.992857 0.391258
O O2 0.929549 0.996960 0.182966
O O3 0.963777 0.497729 0.393438
O O4 0.162366 0.920418 0.101243
O O5 0.422362 0.450991 0.800501
O O6 0.222128 0.349701 0.818177
O O7 0.266985 0.820886 0.803716
O O8 0.785054 0.435688 0.808151
O O9 0.930004 0.607449 0.901247
O O10 0.354444 0.636402 0.458233
O O11 0.500000 0.000000 0.500000
O O12 0.354428 0.093550 0.411741
O O13 0.358436 0.277625 0.201639
O O14 0.558646 0.984896 0.125020
O O15 0.500000 0.500000 0.000000
#
# Coordination Sequence:
#
# PCOD9071943 Si02
#       7
#     2   2   2   2   2   2   2
#     4  10  18  30  49  77 113 143 179 231 289 364
#     4  10  18  30  49  72 104 143 182 219 287 333
#     4  10  19  28  46  72 109 146 177 212 279 341
#     4  12  24  40  58  82 116 162 207 244 279 339
#     4  11  23  38  57  79 115 152 202 245 287 334
#     4  11  23  36  59  84 119 158 199 237 291 360
#     4  10  18  30  51  76 112 143 179 231 293 362
#
# _framework density 29.225109
#
# number of rings (size 3 to 8) (size 9 to 14) (size 15 to 20)
#    0.000    1.429    1.429    9.000    4.000    0.000 
#    0.000    0.000    0.000    0.000    0.000    0.000 
#    0.000   38.857    0.000    0.000    0.000    0.000 
#
# Total GULP energy -78252.628421 kJ/mol
# GULP energy per Si atom -5589.473459 kJ/mol
# Density = 2.915859 g / cm^3
# Si number density = 29.225109 Si / 1000 Ang^3
#
#
#
# Elastic Constant Matrix: (Units=GPa)
#
#
# Indices 1 2 3 4 5 6 
#
# 1 117.8461 72.3963 19.0745 -7.7714 13.4190 -20.7925
# 2 72.3963 309.0067 34.7972 -6.7712 32.5929 -28.2099
# 3 19.0745 34.7972 94.6943 -9.1438 2.3672 0.7892
# 4 -7.7714 -6.7712 -9.1438 42.0750 -3.0329 16.1657
# 5 13.4190 32.5929 2.3672 -3.0329 38.9766 -0.9340
# 6 -20.7925 -28.2099 0.7892 16.1657 -0.9340 50.9500
#
#
#
# Elastic Compliance Matrix: (Units=1/GPa)
#
#
# Indices 1 2 3 4 5 6 
#
# 1 0.010651 -0.001817 -0.001463 -0.000073 -0.001984 0.003350
# 2 -0.001817 0.004253 -0.001221 -0.000832 -0.002877 0.001843
# 3 -0.001463 -0.001221 0.011593 0.003047 0.001000 -0.002401
# 4 -0.000073 -0.000832 0.003047 0.028073 0.002495 -0.009399
# 5 -0.001984 -0.002877 0.001000 0.002495 0.028815 -0.002682
# 6 0.003350 0.001843 -0.002401 -0.009399 -0.002682 0.024985
#
#
# Mechanical properties :
#
#
# Convention : Reuss Voigt Hill
#
# Bulk Modulus (GPa) = 57.15910 86.00922 71.58416
# Shear Modulus (GPa) = 40.58356 52.75227 46.66792
#
# Velocity S-wave (km/s) = 3.73051 4.25318 4.00039
# Velocity P-wave (km/s) = 6.17708 7.32210 6.77382
#
# Compressibility (1/GPa) = 0.01749503
#
# Stress axis : x y z
#
# Youngs Moduli (GPa) = 93.88855 235.13520 86.26042
#
# Poissons Ratio (x) = 0.42727 0.12621
# Poissons Ratio (y) = 0.17061 0.10529
# Poissons Ratio (z) = 0.13737 0.28700
#
# Static dielectric constant tensor:
#      x y z
#    x 2.375640 0.187190 -0.090770 
#    y 0.187190 2.552140 -0.119850 
#    z -0.090770 -0.119850 2.432170 
# 
# From -- ./inp_files/80134.got.cif
#   From: 2010.05.17/outbox.cif.g08.bks.cpg/sg2_41_cif.got.tgz:80134.got - 2010.06.03 11:33:40.
