data_PCOD9071052
_publ_section_title
;
Structure prediction by ZEFSAII (Michael W. Deem and Ramdas Pophale) SiO2 
 PCOD9071052
Probable space group: P -1
;
_chemical_formula_sum "Si O2"
_cell_formula_units_Z 12
_cell_length_a 5.165569
_cell_length_b 15.625967
_cell_length_c 7.745345
_cell_angle_alpha 132.340474
_cell_angle_beta 113.651609
_cell_angle_gamma 69.089359
_cell_volume 419.804639
_symmetry_space_group_name_H-M "P -1"
_symmetry_group_IT_number 2
_symmetry_cell_setting 'triclinic'
loop_
_space_group_symop_operation_xyz
x,y,z
-x,-y,-z
loop_
_atom_site_type_symbol
_atom_site_label
_atom_site_fract_x
_atom_site_fract_y
_atom_site_fract_z
Si Si1 0.863681 0.800336 0.109612
Si Si2 0.290290 0.590849 0.946115
Si Si3 0.452287 0.638206 0.676023
Si Si4 0.672850 0.847987 0.488181
Si Si5 0.957079 0.598296 0.276312
Si Si6 0.215421 0.971473 0.783025
O O1 0.680089 0.861072 0.301039
O O2 0.945238 0.905331 0.160177
O O3 0.687945 0.723652 0.833500
O O4 0.088186 0.700020 0.121131
O O5 0.380948 0.651360 0.878839
O O6 0.101854 0.488796 0.702960
O O7 0.500000 0.500000 0.000000
O O8 0.500000 0.500000 0.500000
O O9 0.225711 0.658785 0.490557
O O10 0.716558 0.707515 0.337964
O O11 0.382180 0.899666 0.572902
O O12 0.959186 0.905200 0.700699
O O13 0.000000 0.500000 0.000000
O O14 0.500000 0.000000 0.000000
#
# Coordination Sequence:
#
# PCOD9071052 Si02
#       6
#     2   2   2   2   2   2
#     4  12  28  49  79 114 156 211 267 335 404 484
#     4  12  27  45  75 112 163 201 265 325 413 474
#     4  12  26  45  75 114 159 204 264 331 405 486
#     4  12  28  51  82 113 160 214 267 333 405 479
#     4  12  25  49  76 119 156 211 261 332 411 488
#     4  12  30  53  81 116 159 212 278 334 400 480
#
# _framework density 28.584723
#
# number of rings (size 3 to 8) (size 9 to 14) (size 15 to 20)
#    0.000    0.000    3.333    5.000    9.333    0.000 
#    0.000    0.000    0.000    0.000    0.000    0.000 
#    0.000    0.000    0.000    0.000    0.000    0.000 
#
# Total GULP energy -67023.804304 kJ/mol
# GULP energy per Si atom -5585.317025 kJ/mol
# Density = 2.851966 g / cm^3
# Si number density = 28.584723 Si / 1000 Ang^3
#
#
#
# Elastic Constant Matrix: (Units=GPa)
#
#
# Indices 1 2 3 4 5 6 
#
# 1 115.0171 29.6346 24.8132 17.4381 9.6424 -11.6444
# 2 29.6346 174.2090 53.4387 31.7320 13.8530 -6.3318
# 3 24.8132 53.4387 139.5276 -0.1637 26.8144 -7.8690
# 4 17.4381 31.7320 -0.1637 68.8387 -0.9065 20.2956
# 5 9.6424 13.8530 26.8144 -0.9065 48.8502 2.8496
# 6 -11.6444 -6.3318 -7.8690 20.2956 2.8496 49.2906
#
#
#
# Elastic Compliance Matrix: (Units=1/GPa)
#
#
# Indices 1 2 3 4 5 6 
#
# 1 0.010075 -0.000499 -0.001109 -0.003416 -0.001514 0.003633
# 2 -0.000499 0.007452 -0.002488 -0.003950 -0.000846 0.002118
# 3 -0.001109 -0.002488 0.009143 0.001214 -0.004107 0.000616
# 4 -0.003416 -0.003950 0.001214 0.020041 0.002054 -0.009491
# 5 -0.001514 -0.000846 -0.004107 0.002054 0.023496 -0.003326
# 6 0.003633 0.002118 0.000616 -0.009491 -0.003326 0.025617
#
#
# Mechanical properties :
#
#
# Convention : Reuss Voigt Hill
#
# Bulk Modulus (GPa) = 54.11918 71.61406 62.86662
# Shear Modulus (GPa) = 45.38269 54.78706 50.08487
#
# Velocity S-wave (km/s) = 3.98886 4.38271 4.19042
# Velocity P-wave (km/s) = 6.33946 7.12169 6.74193
#
# Compressibility (1/GPa) = 0.01847774
#
# Stress axis : x y z
#
# Youngs Moduli (GPa) = 99.25847 134.19110 109.37761
#
# Poissons Ratio (x) = 0.06698 0.12127
# Poissons Ratio (y) = 0.04954 0.27213
# Poissons Ratio (z) = 0.11005 0.33387
#
# Static dielectric constant tensor:
#      x y z
#    x 2.845410 -0.252610 0.207040 
#    y -0.252610 1.650170 0.445630 
#    z 0.207040 0.445630 1.751280 
# 
# From -- ./inp_files/139732.got.cif
#   From: 2010.05.17/outbox.cif.g08.bks.cpg/sg2_70_cif.got.tgz:139732.got - 2010.06.03 11:33:40.
