data_PCOD9071551
_publ_section_title
;
Structure prediction by ZEFSAII (Michael W. Deem and Ramdas Pophale) SiO2 
 PCOD9071551
Probable space group: P -1
;
_chemical_formula_sum "Si O2"
_cell_formula_units_Z 12
_cell_length_a 4.839294
_cell_length_b 17.662070
_cell_length_c 9.245377
_cell_angle_alpha 39.690138
_cell_angle_beta 91.883327
_cell_angle_gamma 105.219024
_cell_volume 468.262249
_symmetry_space_group_name_H-M "P -1"
_symmetry_group_IT_number 2
_symmetry_cell_setting 'triclinic'
loop_
_space_group_symop_operation_xyz
x,y,z
-x,-y,-z
loop_
_atom_site_type_symbol
_atom_site_label
_atom_site_fract_x
_atom_site_fract_y
_atom_site_fract_z
Si Si1 0.950517 0.780190 0.509256
Si Si2 0.335478 0.276517 0.096254
Si Si3 0.722713 0.197291 0.035608
Si Si4 0.600168 0.949367 0.219703
Si Si5 0.685792 0.427838 0.529130
Si Si6 0.070407 0.478080 0.198846
O O1 0.834014 0.883526 0.289392
O O2 0.872851 0.653396 0.599503
O O3 0.799526 0.746112 0.713183
O O4 0.304932 0.841577 0.438127
O O5 0.472515 0.175331 0.187390
O O6 0.055075 0.268485 0.002038
O O7 0.000000 0.500000 0.000000
O O8 0.719168 0.068205 0.154807
O O9 0.621960 0.282222 0.791817
O O10 0.637527 0.403887 0.919692
O O11 0.500000 0.000000 0.000000
O O12 0.500000 0.500000 0.500000
O O13 0.000000 0.500000 0.500000
O O14 0.775079 0.452637 0.326289
#
# Coordination Sequence:
#
# PCOD9071551 Si02
#       6
#     2   2   2   2   2   2
#     4  12  28  49  81 113 160 211 266 324 409 477
#     4  12  27  48  79 121 158 206 262 336 414 468
#     4  12  27  48  79 113 164 202 270 333 397 481
#     4  12  28  53  78 112 155 216 268 331 392 487
#     4  12  28  48  78 115 159 207 264 327 406 474
#     4  12  28  52  85 121 168 208 269 338 403 483
#
# _framework density 25.626662
#
# number of rings (size 3 to 8) (size 9 to 14) (size 15 to 20)
#    0.000    0.000    1.667    7.000    2.333   10.667 
#    0.000    0.000    0.000    0.000    0.000    0.000 
#    0.000    0.000    0.000    0.000    0.000    0.000 
#
# Total GULP energy -67275.080747 kJ/mol
# GULP energy per Si atom -5606.256729 kJ/mol
# Density = 2.556833 g / cm^3
# Si number density = 25.626662 Si / 1000 Ang^3
#
#
#
# Elastic Constant Matrix: (Units=GPa)
#
#
# Indices 1 2 3 4 5 6 
#
# 1 172.7705 52.9215 25.9437 -6.9142 1.5927 -19.5844
# 2 52.9215 134.6585 41.7594 -6.5886 1.6728 -18.1231
# 3 25.9437 41.7594 77.9681 -7.3715 -0.8801 -3.8200
# 4 -6.9142 -6.5886 -7.3715 65.5341 -13.7692 -1.7380
# 5 1.5927 1.6728 -0.8801 -13.7692 49.2849 -4.4466
# 6 -19.5844 -18.1231 -3.8200 -1.7380 -4.4466 45.1611
#
#
#
# Elastic Compliance Matrix: (Units=1/GPa)
#
#
# Indices 1 2 3 4 5 6 
#
# 1 0.006827 -0.002067 -0.001015 0.000486 0.000155 0.002079
# 2 -0.002067 0.010027 -0.004514 0.000354 -0.000006 0.002759
# 3 -0.001015 -0.004514 0.015678 0.001343 0.000769 -0.000798
# 4 0.000486 0.000354 0.001343 0.016539 0.004759 0.001571
# 5 0.000155 -0.000006 0.000769 0.004759 0.021851 0.002464
# 6 0.002079 0.002759 -0.000798 0.001571 0.002464 0.024387
#
#
# Mechanical properties :
#
#
# Convention : Reuss Voigt Hill
#
# Bulk Modulus (GPa) = 57.67019 69.62737 63.64878
# Shear Modulus (GPa) = 42.99920 49.64752 46.32336
#
# Velocity S-wave (km/s) = 4.10067 4.40630 4.25623
# Velocity P-wave (km/s) = 6.70623 7.28808 7.00320
#
# Compressibility (1/GPa) = 0.01733998
#
# Stress axis : x y z
#
# Youngs Moduli (GPa) = 146.47215 99.73106 63.78395
#
# Poissons Ratio (x) = 0.20610 0.06476
# Poissons Ratio (y) = 0.30269 0.28793
# Poissons Ratio (z) = 0.14872 0.45020
#
# Static dielectric constant tensor:
#      x y z
#    x 1.964550 0.029500 0.052100 
#    y 0.029500 1.945200 0.055980 
#    z 0.052100 0.055980 2.122930 
# 
# From -- ./inp_files/368222.got.cif
#   From: 2010.05.17/outbox.cif.g08.bks.cpg/sg2_185_cif.got.tgz:368222.got - 2010.06.03 11:33:40.
