data_PCOD9071170
_publ_section_title
;
Structure prediction by ZEFSAII (Michael W. Deem and Ramdas Pophale) SiO2 
 PCOD9071170
Probable space group: P -1
;
_chemical_formula_sum "Si O2"
_cell_formula_units_Z 16
_cell_length_a 24.136737
_cell_length_b 25.007533
_cell_length_c 5.783410
_cell_angle_alpha 75.793055
_cell_angle_beta 102.275117
_cell_angle_gamma 168.004704
_cell_volume 696.759387
_symmetry_space_group_name_H-M "P -1"
_symmetry_group_IT_number 2
_symmetry_cell_setting 'triclinic'
loop_
_space_group_symop_operation_xyz
x,y,z
-x,-y,-z
loop_
_atom_site_type_symbol
_atom_site_label
_atom_site_fract_x
_atom_site_fract_y
_atom_site_fract_z
Si Si1 0.677662 0.411996 0.013907
Si Si2 0.156271 0.539286 0.670318
Si Si3 0.196098 0.732119 0.036468
Si Si4 0.741919 0.104315 0.402200
Si Si5 0.796125 0.037442 0.293496
Si Si6 0.155764 0.258602 0.916819
Si Si7 0.204420 0.243694 0.476247
Si Si8 0.624783 0.793909 0.749172
O O1 0.777100 0.444494 0.100904
O O2 0.556434 0.325220 0.223932
O O3 0.914329 0.676556 0.861253
O O4 0.438278 0.183486 0.864655
O O5 0.447751 0.837021 0.531963
O O6 0.990182 0.348764 0.533652
O O7 0.952997 0.393731 0.724380
O O8 0.211158 0.805471 0.846318
O O9 0.000000 0.500000 0.000000
O O10 0.500000 0.000000 0.000000
O O11 0.749795 0.048520 0.392731
O O12 0.781123 0.964606 0.483322
O O13 0.141142 0.209196 0.713930
O O14 0.413253 0.543427 0.804377
O O15 0.197068 0.271708 0.196831
O O16 0.859532 0.005095 0.918377
O O17 0.500000 0.500000 0.500000
O O18 0.000000 0.000000 0.500000
#
# Coordination Sequence:
#
# PCOD9071170 Si02
#       8
#     2   2   2   2   2   2   2   2
#     4  12  26  44  73 102 145 195 239 286 362 458
#     4  12  26  45  72 100 134 180 239 289 360 452
#     4  12  28  46  69  98 133 174 234 310 370 416
#     4  12  26  45  72 100 134 180 239 289 360 452
#     4  12  26  44  73 102 145 195 239 286 362 458
#     4  12  28  47  78 118 158 195 260 326 372 440
#     4  12  26  52  81 110 153 212 264 310 372 440
#     4  12  28  45  70 114 156 189 240 308 380 428
#
# _framework density 22.963452
#
# number of rings (size 3 to 8) (size 9 to 14) (size 15 to 20)
#    0.000    0.000    2.500    6.750    8.750    3.000 
#    0.000    0.000    0.000    0.000    0.000    0.000 
#    0.000    0.000    0.000    0.000    0.000    0.000 
#
# Total GULP energy -89429.693843 kJ/mol
# GULP energy per Si atom -5589.355865 kJ/mol
# Density = 2.291119 g / cm^3
# Si number density = 22.963452 Si / 1000 Ang^3
#
#
#
# Elastic Constant Matrix: (Units=GPa)
#
#
# Indices 1 2 3 4 5 6 
#
# 1 81.9317 37.4415 35.5094 -6.4884 -7.2701 0.6152
# 2 37.4415 224.5754 38.4895 -10.3371 -17.3969 -18.2792
# 3 35.5094 38.4895 92.0734 -6.4283 5.3041 -5.9427
# 4 -6.4884 -10.3371 -6.4283 47.4319 -1.4753 8.8205
# 5 -7.2701 -17.3969 5.3041 -1.4753 51.5966 14.7557
# 6 0.6152 -18.2792 -5.9427 8.8205 14.7557 65.1355
#
#
#
# Elastic Compliance Matrix: (Units=1/GPa)
#
#
# Indices 1 2 3 4 5 6 
#
# 1 0.015724 -0.001526 -0.005613 0.001509 0.002878 -0.001945
# 2 -0.001526 0.005189 -0.001564 0.000584 0.001449 0.000921
# 3 -0.005613 -0.001564 0.013992 0.000398 -0.003191 0.001560
# 4 0.001509 0.000584 0.000398 0.022135 0.001931 -0.003249
# 5 0.002878 0.001449 -0.003191 0.001931 0.022142 -0.005189
# 6 -0.001945 0.000921 0.001560 -0.003249 -0.005189 0.017387
#
#
# Mechanical properties :
#
#
# Convention : Reuss Voigt Hill
#
# Bulk Modulus (GPa) = 57.14054 69.05128 63.09591
# Shear Modulus (GPa) = 41.73345 51.97547 46.85446
#
# Velocity S-wave (km/s) = 4.26771 4.76268 4.52197
# Velocity P-wave (km/s) = 7.01582 7.77043 7.40274
#
# Compressibility (1/GPa) = 0.01750071
#
# Stress axis : x y z
#
# Youngs Moduli (GPa) = 63.59543 192.70231 71.47130
#
# Poissons Ratio (x) = 0.29399 0.40113
# Poissons Ratio (y) = 0.09702 0.11180
# Poissons Ratio (z) = 0.35693 0.30143
#
# Static dielectric constant tensor:
#      x y z
#    x 1.865640 0.005380 -0.050000 
#    y 0.005380 1.758450 -0.028940 
#    z -0.050000 -0.028940 1.907230 
# 
# From -- ./inp_files/127754.got.cif
#   From: 2010.05.17/outbox.cif.g08.bks.cpg/sg2_64_cif.got.tgz:127754.got - 2010.06.03 11:33:40.
