data_PCOD9071192
_publ_section_title
;
Structure prediction by ZEFSAII (Michael W. Deem and Ramdas Pophale) SiO2 
 PCOD9071192
Probable space group: P -1
;
_chemical_formula_sum "Si O2"
_cell_formula_units_Z 16
_cell_length_a 20.109115
_cell_length_b 9.407266
_cell_length_c 9.258908
_cell_angle_alpha 149.704151
_cell_angle_beta 128.046607
_cell_angle_gamma 52.917475
_cell_volume 684.681393
_symmetry_space_group_name_H-M "P -1"
_symmetry_group_IT_number 2
_symmetry_cell_setting 'triclinic'
loop_
_space_group_symop_operation_xyz
x,y,z
-x,-y,-z
loop_
_atom_site_type_symbol
_atom_site_label
_atom_site_fract_x
_atom_site_fract_y
_atom_site_fract_z
Si Si1 0.749584 0.380234 0.701489
Si Si2 0.401323 0.434544 0.561400
Si Si3 0.137077 0.164113 0.732187
Si Si4 0.295688 0.133519 0.372447
Si Si5 0.884226 0.890537 0.020727
Si Si6 0.497002 0.080428 0.897705
Si Si7 0.979184 0.368065 0.507302
Si Si8 0.679021 0.490002 0.022607
O O1 0.671178 0.528779 0.627425
O O2 0.720753 0.401587 0.846802
O O3 0.780345 0.059921 0.405667
O O4 0.830696 0.538640 0.935545
O O5 0.363533 0.295180 0.525641
O O6 0.483766 0.215542 0.422366
O O7 0.428827 0.740429 0.887259
O O8 0.065251 0.191988 0.538587
O O9 0.103578 0.072933 0.760611
O O10 0.214279 0.128355 0.157224
O O11 0.331489 0.806397 0.175447
O O12 0.266633 0.329606 0.645739
O O13 0.942011 0.611585 0.786295
O O14 0.910647 0.160931 0.214210
O O15 0.408281 0.283898 0.920475
O O16 0.500000 0.000000 0.000000
O O17 0.000000 0.500000 0.500000
#
# Coordination Sequence:
#
# PCOD9071192 Si02
#       8
#     2   2   2   2   2   2   2   2
#     4  12  26  45  75 108 139 191 247 294 350 430
#     4  12  26  47  75 104 145 188 249 296 357 434
#     4  12  26  47  76 106 143 192 239 291 356 429
#     4  12  28  47  73 109 145 191 238 305 362 423
#     4  12  26  50  74 103 148 191 234 290 360 432
#     4  12  26  46  74 105 144 194 240 302 362 426
#     4  12  28  47  73 111 146 185 236 295 360 425
#     4  12  28  46  72 108 148 190 242 301 368 423
#
# _framework density 23.368534
#
# number of rings (size 3 to 8) (size 9 to 14) (size 15 to 20)
#    0.000    0.000    2.500    6.750    8.750    3.000 
#    0.000    0.000    0.000    0.000    0.000    0.000 
#    0.000    0.000    0.000    0.000    0.000    0.000 
#
# Total GULP energy -89734.122607 kJ/mol
# GULP energy per Si atom -5608.382663 kJ/mol
# Density = 2.331535 g / cm^3
# Si number density = 23.368534 Si / 1000 Ang^3
#
#
#
# Elastic Constant Matrix: (Units=GPa)
#
#
# Indices 1 2 3 4 5 6 
#
# 1 62.0982 31.9149 -8.8013 5.4062 -7.2260 5.2879
# 2 31.9149 111.8209 13.8144 16.6914 -7.0444 6.0780
# 3 -8.8013 13.8144 81.3694 11.7022 -6.3565 -0.9351
# 4 5.4062 16.6914 11.7022 29.2102 -4.4396 -0.6972
# 5 -7.2260 -7.0444 -6.3565 -4.4396 49.0321 6.4656
# 6 5.2879 6.0780 -0.9351 -0.6972 6.4656 34.5455
#
#
#
# Elastic Compliance Matrix: (Units=1/GPa)
#
#
# Indices 1 2 3 4 5 6 
#
# 1 0.020196 -0.005653 0.003561 -0.001566 0.002822 -0.002560
# 2 -0.005653 0.011604 -0.001879 -0.004813 0.000337 -0.001387
# 3 0.003561 -0.001879 0.013821 -0.004879 0.001637 -0.000245
# 4 -0.001566 -0.004813 -0.004879 0.039543 0.001840 0.001408
# 5 0.002822 0.000337 0.001637 0.001840 0.021831 -0.004496
# 6 -0.002560 -0.001387 -0.000245 0.001408 -0.004496 0.030446
#
#
# Mechanical properties :
#
#
# Convention : Reuss Voigt Hill
#
# Bulk Modulus (GPa) = 26.54132 36.57161 31.55647
# Shear Modulus (GPa) = 31.65694 37.11495 34.38594
#
# Velocity S-wave (km/s) = 3.68459 3.98960 3.84013
# Velocity P-wave (km/s) = 5.42992 6.07507 5.76153
#
# Compressibility (1/GPa) = 0.03767710
#
# Stress axis : x y z
#
# Youngs Moduli (GPa) = 49.51376 86.17929 72.35625
#
# Poissons Ratio (x) = 0.48721 -0.25763
# Poissons Ratio (y) = 0.27992 0.13595
# Poissons Ratio (z) = -0.17630 0.16192
#
# Static dielectric constant tensor:
#      x y z
#    x 1.869830 -0.006060 0.007110 
#    y -0.006060 1.850570 -0.011740 
#    z 0.007110 -0.011740 1.830020 
# 
# From -- ./inp_files/343999.got.cif
#   From: 2010.05.17/outbox.cif.g08.bks.cpg/sg2_172_cif.got.tgz:343999.got - 2010.06.03 11:33:40.
