data_PCOD9071759
_publ_section_title
;
Structure prediction by ZEFSAII (Michael W. Deem and Ramdas Pophale) SiO2 
 PCOD9071759
Probable space group: P -1
;
_chemical_formula_sum "Si O2"
_cell_formula_units_Z 16
_cell_length_a 9.273266
_cell_length_b 10.573632
_cell_length_c 12.049266
_cell_angle_alpha 117.875838
_cell_angle_beta 52.194836
_cell_angle_gamma 109.375812
_cell_volume 823.424251
_symmetry_space_group_name_H-M "P -1"
_symmetry_group_IT_number 2
_symmetry_cell_setting 'triclinic'
loop_
_space_group_symop_operation_xyz
x,y,z
-x,-y,-z
loop_
_atom_site_type_symbol
_atom_site_label
_atom_site_fract_x
_atom_site_fract_y
_atom_site_fract_z
Si Si1 0.126906 0.470788 0.727515
Si Si2 0.918839 0.171973 0.724720
Si Si3 0.437824 0.740993 0.133411
Si Si4 0.029615 0.866107 0.582618
Si Si5 0.746152 0.564677 0.935093
Si Si6 0.427148 0.449288 0.744110
Si Si7 0.434910 0.845205 0.423570
Si Si8 0.823901 0.581896 0.574217
O O1 0.296622 0.516447 0.743633
O O2 0.187863 0.440863 0.561954
O O3 0.030738 0.321398 0.761070
O O4 0.963562 0.577283 0.839012
O O5 0.701474 0.184049 0.850289
O O6 0.941709 0.153033 0.572246
O O7 0.990305 0.030763 0.687791
O O8 0.634524 0.689656 0.985317
O O9 0.463062 0.829499 0.271202
O O10 0.320450 0.588825 0.150282
O O11 0.871259 0.749417 0.642873
O O12 0.217189 0.826345 0.534802
O O13 0.674477 0.553433 0.090960
O O14 0.461917 0.285197 0.626888
O O15 0.628530 0.525547 0.689284
O O16 0.500000 0.000000 0.500000
O O17 0.000000 0.500000 0.500000
#
# Coordination Sequence:
#
# PCOD9071759 Si02
#       8
#     2   2   2   2   2   2   2   2
#     4  10  20  34  53  82 112 139 181 232 278 314
#     4   8  15  28  51  73 102 136 178 225 262 311
#     4   8  16  29  48  79 102 135 178 220 267 318
#     4   9  16  30  47  73 103 143 179 214 265 322
#     4   9  18  32  57  78 109 142 186 229 268 320
#     4  11  21  34  53  85 114 141 181 226 281 323
#     4  10  18  29  49  78 113 140 176 225 278 319
#     4  11  22  35  53  79 114 152 180 220 271 339
#
# _framework density 19.431052000000001
#
# number of rings (size 3 to 8) (size 9 to 14) (size 15 to 20)
#    0.000    2.500    1.250    2.250    5.250    1.000 
#    0.000    0.000    0.000    3.000    0.000   10.500 
#    0.000    0.000    0.000    0.000    0.000    0.000 
#
# Total GULP energy -89198.883246 kJ/mol
# GULP energy per Si atom -5574.930203 kJ/mol
# Density = 1.938683 g / cm^3
# Si number density = 19.431052 Si / 1000 Ang^3
#
#
#
# Elastic Constant Matrix: (Units=GPa)
#
#
# Indices 1 2 3 4 5 6 
#
# 1 87.5659 1.2600 27.4621 0.1075 -15.0335 4.4741
# 2 1.2600 47.4242 20.4822 10.5246 -3.3720 8.9611
# 3 27.4621 20.4822 66.8485 6.4387 -10.2845 3.2691
# 4 0.1075 10.5246 6.4387 25.0666 -2.8450 -1.0150
# 5 -15.0335 -3.3720 -10.2845 -2.8450 34.3964 5.6253
# 6 4.4741 8.9611 3.2691 -1.0150 5.6253 26.0593
#
#
#
# Elastic Compliance Matrix: (Units=1/GPa)
#
#
# Indices 1 2 3 4 5 6 
#
# 1 0.014375 0.003181 -0.005889 0.000582 0.005535 -0.003995
# 2 0.003181 0.029006 -0.008300 -0.010186 0.002617 -0.010441
# 3 -0.005889 -0.008300 0.020405 -0.001421 0.002479 0.000715
# 4 0.000582 -0.010186 -0.001421 0.044931 0.001737 0.004956
# 5 0.005535 0.002617 0.002479 0.001737 0.034183 -0.009473
# 6 -0.003995 -0.010441 0.000715 0.004956 -0.009473 0.044799
#
#
# Mechanical properties :
#
#
# Convention : Reuss Voigt Hill
#
# Bulk Modulus (GPa) = 23.94077 33.36081 28.65079
# Shear Modulus (GPa) = 22.35771 27.28007 24.81889
#
# Velocity S-wave (km/s) = 3.39576 3.75099 3.57778
# Velocity P-wave (km/s) = 5.26522 5.99716 5.64307
#
# Compressibility (1/GPa) = 0.04176974
#
# Stress axis : x y z
#
# Youngs Moduli (GPa) = 69.56612 34.47578 49.00812
#
# Poissons Ratio (x) = -0.10966 0.28861
# Poissons Ratio (y) = -0.22128 0.40675
# Poissons Ratio (z) = 0.40968 0.28614
#
# Static dielectric constant tensor:
#      x y z
#    x 1.714940 -0.005850 -0.026850 
#    y -0.005850 1.672720 0.013530 
#    z -0.026850 0.013530 1.698970 
# 
# From -- ./inp_files/189248.got.cif
#   From: 2010.05.17/outbox.cif.g08.bks.cpg/sg2_95_cif.got.tgz:189248.got - 2010.06.03 11:33:40.
