data_PCOD9071361
_publ_section_title
;
Structure prediction by ZEFSAII (Michael W. Deem and Ramdas Pophale) SiO2 
 PCOD9071361
Probable space group: P -1
;
_chemical_formula_sum "Si O2"
_cell_formula_units_Z 12
_cell_length_a 20.821817
_cell_length_b 7.504128
_cell_length_c 13.868171
_cell_angle_alpha 144.452375
_cell_angle_beta 22.683946
_cell_angle_gamma 145.501105
_cell_volume 459.030590
_symmetry_space_group_name_H-M "P -1"
_symmetry_group_IT_number 2
_symmetry_cell_setting 'triclinic'
loop_
_space_group_symop_operation_xyz
x,y,z
-x,-y,-z
loop_
_atom_site_type_symbol
_atom_site_label
_atom_site_fract_x
_atom_site_fract_y
_atom_site_fract_z
Si Si1 0.200956 0.895542 0.706652
Si Si2 0.326707 0.426024 0.909901
Si Si3 0.882106 0.163870 0.562452
Si Si4 0.888419 0.273867 0.896348
Si Si5 0.546856 0.730958 0.129092
Si Si6 0.284863 0.330083 0.590613
O O1 0.365509 0.766950 0.433648
O O2 0.026514 0.590075 0.795391
O O3 0.192651 0.106229 0.905218
O O4 0.246499 0.132262 0.656173
O O5 0.366999 0.385063 0.948683
O O6 0.508983 0.486433 0.627658
O O7 0.251452 0.722301 0.137734
O O8 0.000000 0.500000 0.500000
O O9 0.773194 0.921433 0.525872
O O10 0.005555 0.980145 0.356580
O O11 0.830049 0.429285 0.141407
O O12 0.692554 0.066300 0.042437
O O13 0.500000 0.500000 0.000000
#
# Coordination Sequence:
#
# PCOD9071361 Si02
#       6
#     2   2   2   2   2   2
#     4  12  28  52  82 117 160 208 269 323 392 473
#     4  12  26  52  83 115 161 208 260 334 394 467
#     4  12  26  48  78 117 157 204 269 323 395 467
#     4  12  28  51  85 111 160 211 263 326 397 463
#     4  12  28  52  80 118 158 205 270 326 397 471
#     4  12  27  53  78 117 160 213 263 323 394 475
#
# _framework density 26.142050999999999
#
# number of rings (size 3 to 8) (size 9 to 14) (size 15 to 20)
#    0.000    0.000    3.333    5.500    2.333    2.000 
#    3.000    0.000    0.000    0.000    0.000    0.000 
#    0.000    0.000    0.000    0.000    0.000    0.000 
#
# Total GULP energy -67318.152292 kJ/mol
# GULP energy per Si atom -5609.846024 kJ/mol
# Density = 2.608255 g / cm^3
# Si number density = 26.142051 Si / 1000 Ang^3
#
#
#
# Elastic Constant Matrix: (Units=GPa)
#
#
# Indices 1 2 3 4 5 6 
#
# 1 65.2784 61.4122 59.1164 -1.4144 16.2365 -3.3863
# 2 61.4122 166.0214 38.8434 -10.8166 19.4403 26.4662
# 3 59.1164 38.8434 171.3978 20.7225 -12.9129 -3.6420
# 4 -1.4144 -10.8166 20.7225 61.1136 9.6531 7.3919
# 5 16.2365 19.4403 -12.9129 9.6531 38.5259 0.8945
# 6 -3.3863 26.4662 -3.6420 7.3919 0.8945 50.3503
#
#
#
# Elastic Compliance Matrix: (Units=1/GPa)
#
#
# Indices 1 2 3 4 5 6 
#
# 1 0.045822 -0.011793 -0.015276 0.006436 -0.020270 0.007591
# 2 -0.011793 0.011604 0.000903 0.002508 -0.001044 -0.007177
# 3 -0.015276 0.000903 0.012553 -0.006324 0.011771 0.000125
# 4 0.006436 0.002508 -0.006324 0.021413 -0.011364 -0.004284
# 5 -0.020270 -0.001044 0.011771 -0.011364 0.041796 0.000963
# 6 0.007591 -0.007177 0.000125 -0.004284 0.000963 0.024765
#
#
# Mechanical properties :
#
#
# Convention : Reuss Voigt Hill
#
# Bulk Modulus (GPa) = 56.66429 80.16018 68.41224
# Shear Modulus (GPa) = 23.13023 46.21967 34.67495
#
# Velocity S-wave (km/s) = 2.97777 4.20934 3.64594
# Velocity P-wave (km/s) = 5.79184 7.37256 6.62948
#
# Compressibility (1/GPa) = 0.01764780
#
# Stress axis : x y z
#
# Youngs Moduli (GPa) = 21.82336 86.17679 79.66536
#
# Poissons Ratio (x) = 1.01630 1.21696
# Poissons Ratio (y) = 0.25737 -0.07197
# Poissons Ratio (z) = 0.33337 -0.07785
#
# Static dielectric constant tensor:
#      x y z
#    x 2.069780 -0.050900 -0.000590 
#    y -0.050900 2.027440 0.002270 
#    z -0.000590 0.002270 2.054390 
# 
# From -- ./inp_files/542468.got.cif
#   From: 2010.05.17/outbox.cif.g08.bks.cpg/sg2_272_cif.got.tgz:542468.got - 2010.06.03 11:33:40.
