data_PCOD9071149
_publ_section_title
;
Structure prediction by ZEFSAII (Michael W. Deem and Ramdas Pophale) SiO2 
 PCOD9071149
Probable space group: P -1
;
_chemical_formula_sum "Si O2"
_cell_formula_units_Z 16
_cell_length_a 11.077460
_cell_length_b 9.556688
_cell_length_c 9.646576
_cell_angle_alpha 105.070533
_cell_angle_beta 138.244022
_cell_angle_gamma 94.014579
_cell_volume 598.821712
_symmetry_space_group_name_H-M "P -1"
_symmetry_group_IT_number 2
_symmetry_cell_setting 'triclinic'
loop_
_space_group_symop_operation_xyz
x,y,z
-x,-y,-z
loop_
_atom_site_type_symbol
_atom_site_label
_atom_site_fract_x
_atom_site_fract_y
_atom_site_fract_z
Si Si1 0.136496 0.213811 0.798339
Si Si2 0.309059 0.489527 0.244283
Si Si3 0.337741 0.283402 0.689228
Si Si4 0.235611 0.686636 0.874575
Si Si5 0.164432 0.474870 0.392554
Si Si6 0.285318 0.810881 0.636920
Si Si7 0.289945 0.012585 0.054758
Si Si8 0.559702 0.851631 0.506234
O O1 0.219566 0.241716 0.720088
O O2 0.904786 0.172925 0.582057
O O3 0.249176 0.367610 0.033243
O O4 0.174481 0.067738 0.857111
O O5 0.500000 0.500000 0.500000
O O6 0.136448 0.422384 0.195339
O O7 0.379653 0.674610 0.307197
O O8 0.269130 0.396128 0.565123
O O9 0.318328 0.146473 0.526626
O O10 0.569415 0.345817 0.947119
O O11 0.247814 0.757041 0.749849
O O12 0.036511 0.539094 0.707935
O O13 0.303998 0.659645 0.545237
O O14 0.493241 0.951401 0.815869
O O15 0.311408 0.118488 0.236301
O O16 0.209472 0.827890 0.975075
O O17 0.500000 0.000000 0.500000
#
# Coordination Sequence:
#
# PCOD9071149 Si02
#       8
#     2   2   2   2   2   2   2   2
#     4  12  28  48  82 118 154 213 261 329 400 463
#     4  12  25  51  82 114 157 207 267 322 395 474
#     4  12  27  47  82 111 161 203 259 330 400 456
#     4  12  28  46  78 117 158 210 263 328 393 468
#     4  12  27  50  78 117 155 205 273 328 383 479
#     4  12  27  47  78 116 158 201 274 323 387 477
#     4  12  26  53  77 111 162 210 260 327 399 466
#     4  12  26  50  81 116 154 210 262 321 398 471
#
# _framework density 26.719138999999998
#
# number of rings (size 3 to 8) (size 9 to 14) (size 15 to 20)
#    0.000    0.000    7.500    0.750    1.750    4.000 
#    0.000    1.250    0.000    0.000    0.000    0.000 
#    0.000    0.000    0.000    0.000    0.000    0.000 
#
# Total GULP energy -89711.367773 kJ/mol
# GULP energy per Si atom -5606.960486 kJ/mol
# Density = 2.665832 g / cm^3
# Si number density = 26.719139 Si / 1000 Ang^3
#
#
#
# Elastic Constant Matrix: (Units=GPa)
#
#
# Indices 1 2 3 4 5 6 
#
# 1 134.4167 49.4570 67.2446 -1.6893 -31.6946 -7.6181
# 2 49.4570 118.5972 44.5108 -22.5758 9.8284 -3.9576
# 3 67.2446 44.5108 147.5558 -29.5086 3.5572 -7.3782
# 4 -1.6893 -22.5758 -29.5086 57.5691 -13.8093 -1.8334
# 5 -31.6946 9.8284 3.5572 -13.8093 58.3690 -7.0209
# 6 -7.6181 -3.9576 -7.3782 -1.8334 -7.0209 37.6883
#
#
#
# Elastic Compliance Matrix: (Units=1/GPa)
#
#
# Indices 1 2 3 4 5 6 
#
# 1 0.014146 -0.004877 -0.005472 -0.002135 0.008666 0.002787
# 2 -0.004877 0.011588 -0.000569 0.003167 -0.003869 -0.000447
# 3 -0.005472 -0.000569 0.010412 0.004400 -0.002392 0.000641
# 4 -0.002135 0.003167 0.004400 0.021717 0.003474 0.002466
# 5 0.008666 -0.003869 -0.002392 0.003474 0.024124 0.005540
# 6 0.002787 -0.000447 0.000641 0.002466 0.005540 0.028327
#
#
# Mechanical properties :
#
#
# Convention : Reuss Voigt Hill
#
# Bulk Modulus (GPa) = 69.87856 80.33271 75.10564
# Shear Modulus (GPa) = 36.51799 46.68243 41.60021
#
# Velocity S-wave (km/s) = 3.70095 4.18443 3.95009
# Velocity P-wave (km/s) = 6.66877 7.31279 6.99819
#
# Compressibility (1/GPa) = 0.01431054
#
# Stress axis : x y z
#
# Youngs Moduli (GPa) = 70.69168 86.29834 96.04336
#
# Poissons Ratio (x) = 0.42087 0.52555
# Poissons Ratio (y) = 0.34476 0.05461
# Poissons Ratio (z) = 0.38682 0.04907
#
# Static dielectric constant tensor:
#      x y z
#    x 2.122670 -0.064710 -0.070110 
#    y -0.064710 2.068490 0.031470 
#    z -0.070110 0.031470 2.152130 
# 
# From -- ./inp_files/258709.got.cif
#   From: 2010.05.17/outbox.cif.g08.bks.cpg/sg2_130_cif.got.tgz:258709.got - 2010.06.03 11:33:40.
