data_PCOD9071757
_publ_section_title
;
Structure prediction by ZEFSAII (Michael W. Deem and Ramdas Pophale) SiO2 
 PCOD9071757
Probable space group: P -1
;
_chemical_formula_sum "Si O2"
_cell_formula_units_Z 16
_cell_length_a 15.788019
_cell_length_b 7.628382
_cell_length_c 8.423568
_cell_angle_alpha 54.857738
_cell_angle_beta 121.835083
_cell_angle_gamma 135.796561
_cell_volume 566.541586
_symmetry_space_group_name_H-M "P -1"
_symmetry_group_IT_number 2
_symmetry_cell_setting 'triclinic'
loop_
_space_group_symop_operation_xyz
x,y,z
-x,-y,-z
loop_
_atom_site_type_symbol
_atom_site_label
_atom_site_fract_x
_atom_site_fract_y
_atom_site_fract_z
Si Si1 0.959545 0.288473 0.829673
Si Si2 0.211568 0.843989 0.820853
Si Si3 0.711181 0.056912 0.835567
Si Si4 0.927579 0.940111 0.259450
Si Si5 0.395811 0.610565 0.200931
Si Si6 0.321866 0.497454 0.843594
Si Si7 0.825201 0.926056 0.597209
Si Si8 0.495372 0.716745 0.588976
O O1 0.098637 0.545523 0.826251
O O2 0.852859 0.297443 0.804377
O O3 0.901152 0.169343 0.665320
O O4 0.957925 0.074983 0.046000
O O5 0.137441 0.943483 0.781257
O O6 0.258743 0.025057 0.618071
O O7 0.304505 0.883655 0.028645
O O8 0.619047 0.990957 0.635808
O O9 0.689600 0.770445 0.977851
O O10 0.063057 0.048920 0.396606
O O11 0.818421 0.627296 0.287148
O O12 0.260230 0.349566 0.254027
O O13 0.451759 0.749858 0.357365
O O14 0.475184 0.496405 0.299446
O O15 0.373165 0.676941 0.962331
O O16 0.405257 0.608319 0.710516
#
# Coordination Sequence:
#
# PCOD9071757 Si02
#       8
#     2   2   2   2   2   2   2   2
#     4  10  19  35  52  77 109 145 178 216 270 332
#     4  10  21  33  52  78 112 143 182 217 269 331
#     4   9  16  32  47  69 103 136 176 219 262 313
#     4  10  20  35  54  77 113 144 174 221 277 331
#     4  10  18  29  49  78 110 137 174 230 281 314
#     4   9  17  31  48  74 108 139 178 221 278 319
#     4  12  20  33  53  84 115 134 175 230 278 322
#     4  10  18  30  49  75 109 140 180 225 277 317
#
# _framework density 28.241526
#
# number of rings (size 3 to 8) (size 9 to 14) (size 15 to 20)
#    0.000    2.250    3.750    5.625    0.000    1.000 
#    0.000    0.000    0.000    0.000    0.000    8.750 
#    0.000    1.375    0.000    0.000    0.000    0.000 
#
# Total GULP energy -89410.996080 kJ/mol
# GULP energy per Si atom -5588.187255 kJ/mol
# Density = 2.817725 g / cm^3
# Si number density = 28.241526 Si / 1000 Ang^3
#
#
#
# Elastic Constant Matrix: (Units=GPa)
#
#
# Indices 1 2 3 4 5 6 
#
# 1 55.1217 21.0259 48.2107 16.3637 -19.9195 17.1828
# 2 21.0259 79.5574 38.1202 34.8093 0.7313 19.0231
# 3 48.2107 38.1202 -51.0137 -105.2307 43.2253 43.8231
# 4 16.3637 34.8093 -105.2307 -34.1862 23.2624 15.8360
# 5 -19.9195 0.7313 43.2253 23.2624 39.4046 10.7343
# 6 17.1828 19.0231 43.8231 15.8360 10.7343 39.1863
#
#
#
# Elastic Compliance Matrix: (Units=1/GPa)
#
#
# Indices 1 2 3 4 5 6 
#
# 1 0.028778 -0.007913 -0.000611 0.009738 0.013932 -0.015846
# 2 -0.007913 0.015930 0.003407 -0.003584 -0.004444 -0.005408
# 3 -0.000611 0.003407 0.004662 -0.011147 0.001800 -0.002588
# 4 0.009738 -0.003584 -0.011147 0.013126 0.008868 0.002202
# 5 0.013932 -0.004444 0.001800 0.008868 0.030144 -0.017805
# 6 -0.015846 -0.005408 -0.002588 0.002202 -0.017805 0.041975
#
#
# Mechanical properties :
#
#
# Convention : Reuss Voigt Hill
#
# Bulk Modulus (GPa) = 25.55105 33.15321 29.35213
# Shear Modulus (GPa) = 31.66704 7.30153 19.48429
#
# Velocity S-wave (km/s) = 3.35220 1.60966 2.62948
# Velocity P-wave (km/s) = 4.90408 3.90120 4.43110
#
# Compressibility (1/GPa) = 0.03913734
#
# Stress axis : x y z
#
# Youngs Moduli (GPa) = 34.74929 62.77351 214.51208
#
# Poissons Ratio (x) = 0.49670 0.13100
# Poissons Ratio (y) = 0.27496 -0.73086
# Poissons Ratio (z) = 0.02122 -0.21388
#
# Static dielectric constant tensor:
#      x y z
#    x 2.405220 -0.047840 0.071540 
#    y -0.047840 2.199350 0.071020 
#    z 0.071540 0.071020 2.328230 
# 
# From -- ./inp_files/328744.got.cif
#   From: 2010.05.17/outbox.cif.g08.bks.cpg/sg2_165_cif.got.tgz:328744.got - 2010.06.03 11:33:40.
