data_PCOD9071599
_publ_section_title
;
Structure prediction by ZEFSAII (Michael W. Deem and Ramdas Pophale) SiO2 
 PCOD9071599
Probable space group: P -1
;
_chemical_formula_sum "Si O2"
_cell_formula_units_Z 14
_cell_length_a 7.282371
_cell_length_b 9.331464
_cell_length_c 15.970468
_cell_angle_alpha 63.167681
_cell_angle_beta 37.375887
_cell_angle_gamma 84.061280
_cell_volume 518.524643
_symmetry_space_group_name_H-M "P -1"
_symmetry_group_IT_number 2
_symmetry_cell_setting 'triclinic'
loop_
_space_group_symop_operation_xyz
x,y,z
-x,-y,-z
loop_
_atom_site_type_symbol
_atom_site_label
_atom_site_fract_x
_atom_site_fract_y
_atom_site_fract_z
Si Si1 0.274997 0.984080 0.969023
Si Si2 0.398226 0.285441 0.099208
Si Si3 0.627670 0.843579 0.677422
Si Si4 0.812934 0.993788 0.274548
Si Si5 0.739435 0.422981 0.391240
Si Si6 0.752949 0.384561 0.695336
Si Si7 0.776002 0.488967 0.168298
O O1 0.384849 0.379103 0.824429
O O2 0.378083 0.822779 0.969152
O O3 0.088122 0.962534 0.130758
O O4 0.000000 0.000000 0.000000
O O5 0.381072 0.264888 0.209635
O O6 0.138013 0.507906 0.765787
O O7 0.500000 0.500000 0.000000
O O8 0.036489 0.152432 0.218958
O O9 0.548212 0.710778 0.664464
O O10 0.000000 0.000000 0.500000
O O11 0.639286 0.079265 0.252546
O O12 0.498413 0.797108 0.465630
O O13 0.500000 0.500000 0.500000
O O14 0.635282 0.171437 0.785166
O O15 0.063016 0.513010 0.313275
O O16 0.000000 0.500000 0.500000
O O17 0.000000 0.500000 0.000000
#
# Coordination Sequence:
#
# PCOD9071599 Si02
#       7
#     2   2   2   2   2   2   2
#     4  12  27  54  90 126 176 235 308 376 455 556
#     4  12  31  53  85 126 178 235 302 376 460 541
#     4  12  29  53  81 120 180 233 291 376 464 541
#     4  12  28  55  85 127 173 236 308 378 454 560
#     4  12  27  52  89 126 176 232 303 375 460 552
#     4  12  27  51  91 129 173 239 302 376 462 552
#     4  12  30  50  82 127 181 228 298 376 463 542
#
# _framework density 26.999680999999999
#
# number of rings (size 3 to 8) (size 9 to 14) (size 15 to 20)
#    0.000    0.000    2.857    4.714    6.000    5.143 
#    2.571    0.000    0.000    0.000    0.000    0.000 
#    0.000    0.000    0.000    0.000    0.000    0.000 
#
# Total GULP energy -78326.048970 kJ/mol
# GULP energy per Si atom -5594.717784 kJ/mol
# Density = 2.693823 g / cm^3
# Si number density = 26.999681 Si / 1000 Ang^3
#
#
#
# Elastic Constant Matrix: (Units=GPa)
#
#
# Indices 1 2 3 4 5 6 
#
# 1 239.4006 81.1935 114.7738 -11.6465 4.6311 24.5731
# 2 81.1935 172.4016 94.9874 -20.6866 3.1588 -5.2715
# 3 114.7738 94.9874 221.9186 -54.1267 -3.9284 15.3051
# 4 -11.6465 -20.6866 -54.1267 62.1161 12.7782 -4.3219
# 5 4.6311 3.1588 -3.9284 12.7782 53.5488 -7.7362
# 6 24.5731 -5.2715 15.3051 -4.3219 -7.7362 60.9731
#
#
#
# Elastic Compliance Matrix: (Units=1/GPa)
#
#
# Indices 1 2 3 4 5 6 
#
# 1 0.006239 -0.001657 -0.002844 -0.001905 -0.000506 -0.002143
# 2 -0.001657 0.008183 -0.002734 0.000236 -0.000302 0.002040
# 3 -0.002844 -0.002734 0.008712 0.006201 -0.000565 -0.000909
# 4 -0.001905 0.000236 0.006201 0.022197 -0.004660 0.000214
# 5 -0.000506 -0.000302 -0.000565 -0.004660 0.020175 0.002549
# 6 -0.002143 0.002040 -0.000909 0.000214 0.002549 0.018008
#
#
# Mechanical properties :
#
#
# Convention : Reuss Voigt Hill
#
# Bulk Modulus (GPa) = 115.39447 135.07003 125.23225
# Shear Modulus (GPa) = 49.56754 58.17868 53.87311
#
# Velocity S-wave (km/s) = 4.28934 4.64701 4.47175
# Velocity P-wave (km/s) = 8.20751 8.88415 8.55252
#
# Compressibility (1/GPa) = 0.00866593
#
# Stress axis : x y z
#
# Youngs Moduli (GPa) = 160.27490 122.19901 114.77941
#
# Poissons Ratio (x) = 0.20243 0.32638
# Poissons Ratio (y) = 0.26550 0.31386
# Poissons Ratio (z) = 0.45575 0.33415
#
# Static dielectric constant tensor:
#      x y z
#    x 0.561980 -0.868710 -0.110900 
#    y -0.868710 1.743460 -0.053410 
#    z -0.110900 -0.053410 2.207080 
# 
# From -- ./inp_files/588641.got.cif
#   From: 2010.05.17/outbox.cif.g08.bks.cpg/sg2_295_cif.got.tgz:588641.got - 2010.06.03 11:33:40.
