data_PCOD9071763
_publ_section_title
;
Structure prediction by ZEFSAII (Michael W. Deem and Ramdas Pophale) SiO2 
 PCOD9071763
Probable space group: P -1
;
_chemical_formula_sum "Si O2"
_cell_formula_units_Z 16
_cell_length_a 12.000000
_cell_length_b 9.000000
_cell_length_c 18.000000
_cell_angle_alpha 110.000000
_cell_angle_beta 70.000000
_cell_angle_gamma 50.000000
_cell_volume 874.767165
_symmetry_space_group_name_H-M "P -1"
_symmetry_group_IT_number 2
_symmetry_cell_setting 'triclinic'
loop_
_space_group_symop_operation_xyz
x,y,z
-x,-y,-z
loop_
_atom_site_type_symbol
_atom_site_label
_atom_site_fract_x
_atom_site_fract_y
_atom_site_fract_z
Si Si1 0.289342 0.876988 0.528158
Si Si2 0.081462 0.186376 0.778266
Si Si3 0.846332 0.722152 0.001543
Si Si4 0.498941 0.269379 0.275910
Si Si5 0.110229 0.727575 0.882042
Si Si6 0.090624 0.749908 0.558435
Si Si7 0.616665 0.241518 0.671905
Si Si8 0.158192 0.747316 0.701172
O O1 0.154189 0.864570 0.557007
O O2 0.284311 0.951044 0.459164
O O3 0.565324 0.532300 0.418347
O O4 0.183617 0.096830 0.657430
O O5 0.877612 0.539129 0.907712
O O6 0.292268 0.964405 0.751382
O O7 0.021516 0.069521 0.777542
O O8 0.971173 0.731951 0.939179
O O9 0.000000 0.500000 0.000000
O O10 0.594159 0.055997 0.149215
O O11 0.274317 0.470599 0.408486
O O12 0.458199 0.493724 0.291287
O O13 0.387472 0.414998 0.782028
O O14 0.105211 0.751430 0.797358
O O15 0.000000 0.000000 0.000000
O O16 0.115558 0.684880 0.629136
O O17 0.829496 0.014253 0.639702
#
# Coordination Sequence:
#
# PCOD9071763 Si02
#       8
#     2   2   2   2   2   2   2   2
#     4   9  15  28  52  79 108 133 172 221 253 299
#     4  10  15  29  50  81 107 131 177 213 259 308
#     4  10  21  31  53  82 102 139 174 217 261 310
#     4  10  15  30  50  78 107 133 170 215 260 299
#     4  11  19  36  55  78 107 135 176 221 257 311
#     4  10  17  29  53  86 105 130 175 223 260 304
#     4  10  19  29  53  83 105 134 173 223 266 296
#     4  10  17  31  57  82 102 137 173 226 259 292
#
# _framework density 18.290581
#
# number of rings (size 3 to 8) (size 9 to 14) (size 15 to 20)
#    0.000    2.000    6.250    3.000    0.000    0.000 
#    0.000    3.125    0.000    9.750   13.000    0.000 
#    0.000    0.000    0.000    0.000    0.000    0.000 
#
# Total GULP energy -89075.240264 kJ/mol
# GULP energy per Si atom -5567.202517 kJ/mol
# Density = 1.824895 g / cm^3
# Si number density = 18.290581 Si / 1000 Ang^3
#
#
#
# Elastic Constant Matrix: (Units=GPa)
#
#
# Indices 1 2 3 4 5 6 
#
# 1 38.6459 28.3495 42.9170 -3.0788 3.6207 -11.6439
# 2 28.3495 39.2236 37.8241 -12.5825 -2.2099 -9.8426
# 3 42.9170 37.8241 154.3148 -18.9444 23.4187 -6.4231
# 4 -3.0788 -12.5825 -18.9444 24.9739 1.7110 -1.7572
# 5 3.6207 -2.2099 23.4187 1.7110 29.9453 3.3273
# 6 -11.6439 -9.8426 -6.4231 -1.7572 3.3273 25.5906
#
#
#
# Elastic Compliance Matrix: (Units=1/GPa)
#
#
# Indices 1 2 3 4 5 6 
#
# 1 0.075901 -0.048931 -0.010650 -0.022212 -0.004536 0.012107
# 2 -0.048931 0.075093 -0.002574 0.029554 0.011053 0.006564
# 3 -0.010650 -0.002574 0.012238 0.007195 -0.008759 -0.001131
# 4 -0.022212 0.029554 0.007195 0.058535 -0.004963 0.007731
# 5 -0.004536 0.011053 -0.008759 -0.004963 0.042545 -0.005884
# 6 0.012107 0.006564 -0.001131 0.007731 -0.005884 0.048122
#
#
# Mechanical properties :
#
#
# Convention : Reuss Voigt Hill
#
# Bulk Modulus (GPa) = 25.69217 50.04059 37.86638
# Shear Modulus (GPa) = 11.11805 24.30820 17.71312
#
# Velocity S-wave (km/s) = 2.46815 3.64950 3.11533
# Velocity P-wave (km/s) = 4.71164 6.72135 5.80414
#
# Compressibility (1/GPa) = 0.03892237
#
# Stress axis : x y z
#
# Youngs Moduli (GPa) = 13.17508 13.31680 81.71039
#
# Poissons Ratio (x) = 0.65161 0.87022
# Poissons Ratio (y) = 0.64467 0.21028
# Poissons Ratio (z) = 0.14032 0.03427
#
# Static dielectric constant tensor:
#      x y z
#    x 1.640300 -0.014140 0.048820 
#    y -0.014140 1.660010 -0.005670 
#    z 0.048820 -0.005670 1.672630 
# 
# From -- ./inp_files/244168.got.cif
#   From: 2010.05.17/outbox.ucp.g08.bks.cvg/sg2_123_cif.got.tgz:244168.got - 2010.06.11 11:32:03.
