data_PCOD9071016
_publ_section_title
;
Structure prediction by ZEFSAII (Michael W. Deem and Ramdas Pophale) SiO2 
 PCOD9071016
Probable space group: P -1
;
_chemical_formula_sum "Si O2"
_cell_formula_units_Z 11
_cell_length_a 14.223118
_cell_length_b 9.055756
_cell_length_c 8.287552
_cell_angle_alpha 49.643722
_cell_angle_beta 146.927543
_cell_angle_gamma 133.544376
_cell_volume 415.512531
_symmetry_space_group_name_H-M "P -1"
_symmetry_group_IT_number 2
_symmetry_cell_setting 'triclinic'
loop_
_space_group_symop_operation_xyz
x,y,z
-x,-y,-z
loop_
_atom_site_type_symbol
_atom_site_label
_atom_site_fract_x
_atom_site_fract_y
_atom_site_fract_z
Si Si1 0.500000 0.500000 0.500000
Si Si2 0.471364 0.759267 0.581087
Si Si3 0.068341 0.179432 0.100966
Si Si4 0.927129 0.507438 0.707546
Si Si5 0.818461 0.862783 0.199005
Si Si6 0.582284 0.824379 0.206008
O O1 0.435461 0.668298 0.413207
O O2 0.433826 0.599649 0.171781
O O3 0.291583 0.617903 0.517500
O O4 0.500000 0.000000 0.500000
O O5 0.662883 0.752565 0.924792
O O6 0.280813 0.236519 0.421041
O O7 0.943754 0.077908 0.148814
O O8 0.023731 0.375596 0.841829
O O9 0.000000 0.000000 0.000000
O O10 0.947681 0.730914 0.513949
O O11 0.000000 0.500000 0.000000
O O12 0.702201 0.872706 0.183561
O O13 0.500000 0.000000 0.000000
#
# Coordination Sequence:
#
# PCOD9071016 Si02
#       6
#     1   2   2   2   2   2
#     4  12  26  48  74 116 160 198 266 322 396 466
#     4  12  25  48  81 115 158 212 261 330 394 478
#     4  12  28  49  74 113 156 203 263 330 393 474
#     4  12  26  48  77 109 157 203 260 325 397 462
#     4  12  26  48  82 110 154 212 262 321 405 468
#     4  12  28  45  77 115 154 206 266 325 395 477
#
# _framework density 26.473327999999999
#
# number of rings (size 3 to 8) (size 9 to 14) (size 15 to 20)
#    0.000    0.000    5.455    3.273    2.545    2.182 
#    0.000    0.000    0.000    0.000    0.000    0.000 
#    0.000    0.000    0.000    0.000    0.000    0.000 
#
# Total GULP energy -61368.108154 kJ/mol
# GULP energy per Si atom -5578.918923 kJ/mol
# Density = 2.641307 g / cm^3
# Si number density = 26.473328 Si / 1000 Ang^3
#
#
#
# Elastic Constant Matrix: (Units=GPa)
#
#
# Indices 1 2 3 4 5 6 
#
# 1 135.6263 55.1695 15.9865 -19.8419 19.6968 -8.2204
# 2 55.1695 150.4596 51.3556 -28.2376 2.6883 -30.3759
# 3 15.9865 51.3556 125.1252 -14.9384 12.0624 -16.2451
# 4 -19.8419 -28.2376 -14.9384 74.7481 -1.1190 2.7902
# 5 19.6968 2.6883 12.0624 -1.1190 34.1296 1.8642
# 6 -8.2204 -30.3759 -16.2451 2.7902 1.8642 66.7759
#
#
#
# Elastic Compliance Matrix: (Units=1/GPa)
#
#
# Indices 1 2 3 4 5 6 
#
# 1 0.009707 -0.003533 0.000897 0.001341 -0.005592 -0.000094
# 2 -0.003533 0.010046 -0.003222 0.002128 0.002282 0.003198
# 3 0.000897 -0.003222 0.009811 0.000884 -0.003762 0.001099
# 4 0.001341 0.002128 0.000884 0.014674 -0.000814 0.000758
# 5 -0.005592 0.002282 -0.003762 -0.000814 0.033731 -0.001473
# 6 -0.000094 0.003198 0.001099 0.000758 -0.001473 0.016696
#
#
# Mechanical properties :
#
#
# Convention : Reuss Voigt Hill
#
# Bulk Modulus (GPa) = 56.03150 72.91495 64.47323
# Shear Modulus (GPa) = 44.51125 54.37735 49.44430
#
# Velocity S-wave (km/s) = 4.10489 4.53707 4.32638
# Velocity P-wave (km/s) = 6.60894 7.41952 7.02593
#
# Compressibility (1/GPa) = 0.01784710
#
# Stress axis : x y z
#
# Youngs Moduli (GPa) = 103.01681 99.54308 101.92637
#
# Poissons Ratio (x) = 0.35166 -0.09140
# Poissons Ratio (y) = 0.36393 0.32845
# Poissons Ratio (z) = -0.09238 0.32077
#
# Static dielectric constant tensor:
#      x y z
#    x 1.644150 -0.679540 -0.203360 
#    y -0.679540 1.365420 -0.268110 
#    z -0.203360 -0.268110 2.027870 
# 
# From -- ./inp_files/149061.got.cif
#   From: 2010.05.17/outbox.cif.g08.bks.cpg/sg2_75_cif.got.tgz:149061.got - 2010.06.03 11:33:40.
