data_PCOD9071442
_publ_section_title
;
Structure prediction by ZEFSAII (Michael W. Deem and Ramdas Pophale) SiO2 
 PCOD9071442
Probable space group: P -1
;
_chemical_formula_sum "Si O2"
_cell_formula_units_Z 16
_cell_length_a 5.753752
_cell_length_b 18.260289
_cell_length_c 9.149611
_cell_angle_alpha 116.825881
_cell_angle_beta 55.604466
_cell_angle_gamma 100.459464
_cell_volume 704.338339
_symmetry_space_group_name_H-M "P -1"
_symmetry_group_IT_number 2
_symmetry_cell_setting 'triclinic'
loop_
_space_group_symop_operation_xyz
x,y,z
-x,-y,-z
loop_
_atom_site_type_symbol
_atom_site_label
_atom_site_fract_x
_atom_site_fract_y
_atom_site_fract_z
Si Si1 0.290462 0.043878 0.492360
Si Si2 0.893264 0.686233 0.866234
Si Si3 0.793749 0.728580 0.600759
Si Si4 0.586590 0.418033 0.483983
Si Si5 0.099497 0.820846 0.107589
Si Si6 0.326086 0.514674 0.924790
Si Si7 0.692899 0.302103 0.834209
Si Si8 0.481504 0.912322 0.851833
O O1 0.491729 0.062069 0.302497
O O2 0.175217 0.131071 0.681590
O O3 0.500000 0.000000 0.500000
O O4 0.000000 0.000000 0.500000
O O5 0.817568 0.716372 0.755962
O O6 0.086257 0.603035 0.691812
O O7 0.638372 0.685868 0.071226
O O8 0.074875 0.748457 0.938045
O O9 0.587255 0.660847 0.557534
O O10 0.691061 0.826129 0.706288
O O11 0.084383 0.707551 0.385717
O O12 0.500000 0.500000 0.500000
O O13 0.514174 0.450297 0.699230
O O14 0.263677 0.778423 0.150047
O O15 0.224151 0.885630 0.015077
O O16 0.500000 0.500000 0.000000
O O17 0.296995 0.614007 0.999667
O O18 0.000000 0.500000 0.000000
O O19 0.500000 0.000000 0.000000
#
# Coordination Sequence:
#
# PCOD9071442 Si02
#       8
#     2   2   2   2   2   2   2   2
#     4  12  30  52  81 120 157 209 269 333 412 494
#     4  12  27  46  78 113 157 210 275 335 407 484
#     4  12  26  50  75 117 156 211 270 333 412 493
#     4  12  27  50  77 112 166 213 276 335 413 486
#     4  12  27  49  76 115 155 211 264 332 410 484
#     4  12  28  49  79 118 161 214 277 333 410 485
#     4  12  27  48  79 112 163 208 274 337 409 485
#     4  12  26  51  82 114 165 205 268 338 407 487
#
# _framework density 22.716353999999999
#
# number of rings (size 3 to 8) (size 9 to 14) (size 15 to 20)
#    0.000    0.000    6.250    2.250    7.000    4.500 
#    0.000    0.000    0.000    0.000    0.000    0.000 
#    0.000    0.000    0.000    0.000    0.000    0.000 
#
# Total GULP energy -89117.709097 kJ/mol
# GULP energy per Si atom -5569.856819 kJ/mol
# Density = 2.266465 g / cm^3
# Si number density = 22.716354 Si / 1000 Ang^3
#
#
#
# Elastic Constant Matrix: (Units=GPa)
#
#
# Indices 1 2 3 4 5 6 
#
# 1 70.2173 27.0139 35.7691 -2.6435 -2.7708 -23.5586
# 2 27.0139 99.0176 28.2057 -1.6032 0.6469 -20.6638
# 3 35.7691 28.2057 196.8648 -0.2652 -9.9896 -17.1833
# 4 -2.6435 -1.6032 -0.2652 51.8362 -1.9281 -9.2420
# 5 -2.7708 0.6469 -9.9896 -1.9281 30.7806 1.5965
# 6 -23.5586 -20.6638 -17.1833 -9.2420 1.5965 34.5270
#
#
#
# Elastic Compliance Matrix: (Units=1/GPa)
#
#
# Indices 1 2 3 4 5 6 
#
# 1 0.020596 -0.002347 -0.002289 0.003191 0.000721 0.012330
# 2 -0.002347 0.012190 -0.000876 0.001221 -0.000967 0.005630
# 3 -0.002289 -0.000876 0.005769 0.000077 0.001652 0.000729
# 4 0.003191 0.001221 0.000077 0.021056 0.001163 0.008529
# 5 0.000721 -0.000967 0.001652 0.001163 0.033207 -0.000489
# 6 0.012330 0.005630 0.000729 0.008529 -0.000489 0.043414
#
#
# Mechanical properties :
#
#
# Convention : Reuss Voigt Hill
#
# Bulk Modulus (GPa) = 36.32292 60.89746 48.61019
# Shear Modulus (GPa) = 31.96270 41.76947 36.86609
#
# Velocity S-wave (km/s) = 3.75512 4.29271 4.03288
# Velocity P-wave (km/s) = 5.90133 7.17187 6.56740
#
# Compressibility (1/GPa) = 0.02753082
#
# Stress axis : x y z
#
# Youngs Moduli (GPa) = 48.55363 82.03462 173.35340
#
# Poissons Ratio (x) = 0.19252 0.39677
# Poissons Ratio (y) = 0.11395 0.15189
# Poissons Ratio (z) = 0.11113 0.07188
#
# Static dielectric constant tensor:
#      x y z
#    x 2.009720 -0.051340 -0.066010 
#    y -0.051340 1.853910 0.001340 
#    z -0.066010 0.001340 1.744240 
# 
# From -- ./inp_files/139309.got.cif
#   From: 2010.05.17/outbox.cif.g08.bks.cpg/sg2_70_cif.got.tgz:139309.got - 2010.06.03 11:33:40.
