data_PCOD9071608
_publ_section_title
;
Structure prediction by ZEFSAII (Michael W. Deem and Ramdas Pophale) SiO2 
 PCOD9071608
Probable space group: P -1
;
_chemical_formula_sum "Si O2"
_cell_formula_units_Z 8
_cell_length_a 12.726028
_cell_length_b 6.795423
_cell_length_c 9.501891
_cell_angle_alpha 134.287923
_cell_angle_beta 34.301033
_cell_angle_gamma 139.925747
_cell_volume 293.119157
_symmetry_space_group_name_H-M "P -1"
_symmetry_group_IT_number 2
_symmetry_cell_setting 'triclinic'
loop_
_space_group_symop_operation_xyz
x,y,z
-x,-y,-z
loop_
_atom_site_type_symbol
_atom_site_label
_atom_site_fract_x
_atom_site_fract_y
_atom_site_fract_z
Si Si1 0.830219 0.386860 0.256573
Si Si2 0.353004 0.249426 0.920118
Si Si3 0.913804 0.175420 0.354955
Si Si4 0.414742 0.236571 0.273952
O O1 0.762646 0.646628 0.513800
O O2 0.900375 0.264587 0.254510
O O3 0.630810 0.068318 0.262274
O O4 0.000000 0.500000 0.000000
O O5 0.391387 0.438554 0.825959
O O6 0.500000 0.500000 0.000000
O O7 0.105856 0.110335 0.149439
O O8 0.000000 0.500000 0.500000
O O9 0.697231 0.922460 0.536786
O O10 0.500000 0.000000 0.000000
#
# Coordination Sequence:
#
# PCOD9071608 Si02
#       4
#     2   2   2   2
#     4  12  29  54  88 125 172 223 287 355 429 508
#     4  12  28  52  84 126 171 223 284 352 429 506
#     4  12  27  53  85 123 175 222 282 354 433 508
#     4  12  28  51  84 122 173 222 284 345 435 503
#
# _framework density 27.292656000000001
#
# number of rings (size 3 to 8) (size 9 to 14) (size 15 to 20)
#    0.000    0.000    5.000    3.000    3.500    3.000 
#    0.000    0.000    0.000    0.000    0.000    0.000 
#    0.000    0.000    0.000    0.000    0.000    0.000 
#
# Total GULP energy -44544.209098 kJ/mol
# GULP energy per Si atom -5568.026137 kJ/mol
# Density = 2.723054 g / cm^3
# Si number density = 27.292656 Si / 1000 Ang^3
#
#
#
# Elastic Constant Matrix: (Units=GPa)
#
#
# Indices 1 2 3 4 5 6 
#
# 1 155.8355 67.4557 63.9469 2.6936 2.2870 2.1956
# 2 67.4557 209.8501 83.0006 -9.0079 14.0531 -24.1724
# 3 63.9469 83.0006 211.6848 -13.1326 -7.0478 -11.7067
# 4 2.6936 -9.0079 -13.1326 74.5356 -11.0101 7.2277
# 5 2.2870 14.0531 -7.0478 -11.0101 56.2795 12.6613
# 6 2.1956 -24.1724 -11.7067 7.2277 12.6613 30.4787
#
#
#
# Elastic Compliance Matrix: (Units=1/GPa)
#
#
# Indices 1 2 3 4 5 6 
#
# 1 0.008214 -0.002412 -0.001726 -0.000461 0.000717 -0.003356
# 2 -0.002412 0.007307 -0.001912 -0.000569 -0.003624 0.006875
# 3 -0.001726 -0.001912 0.006119 0.001128 0.001521 0.000058
# 4 -0.000461 -0.000569 0.001128 0.014722 0.004373 -0.005292
# 5 0.000717 -0.003624 0.001521 0.004373 0.022558 -0.012749
# 6 -0.003356 0.006875 0.000058 -0.005292 -0.012749 0.045078
#
#
# Mechanical properties :
#
#
# Convention : Reuss Voigt Hill
#
# Bulk Modulus (GPa) = 104.82378 111.79742 108.31060
# Shear Modulus (GPa) = 41.91847 56.45659 49.18753
#
# Velocity S-wave (km/s) = 3.92329 4.55308 4.24987
# Velocity P-wave (km/s) = 7.68204 8.28807 7.99080
#
# Compressibility (1/GPa) = 0.00953982
#
# Stress axis : x y z
#
# Youngs Moduli (GPa) = 121.74131 136.85141 163.42512
#
# Poissons Ratio (x) = 0.33012 0.28205
# Poissons Ratio (y) = 0.29367 0.31249
# Poissons Ratio (z) = 0.21011 0.26168
#
# Static dielectric constant tensor:
#      x y z
#    x 2.221670 -0.017810 0.059520 
#    y -0.017810 2.216840 0.207070 
#    z 0.059520 0.207070 2.381990 
# 
# From -- ./inp_files/229408.got.cif
#   From: 2010.05.17/outbox.cif.g08.bks.cpg/sg2_115_cif.got.tgz:229408.got - 2010.06.03 11:33:40.
