data_PCOD9071394
_publ_section_title
;
Structure prediction by ZEFSAII (Michael W. Deem and Ramdas Pophale) SiO2 
 PCOD9071394
Probable space group: P -1
;
_chemical_formula_sum "Si O2"
_cell_formula_units_Z 14
_cell_length_a 8.947263
_cell_length_b 18.074064
_cell_length_c 13.105133
_cell_angle_alpha 141.742097
_cell_angle_beta 50.434172
_cell_angle_gamma 150.504260
_cell_volume 638.544979
_symmetry_space_group_name_H-M "P -1"
_symmetry_group_IT_number 2
_symmetry_cell_setting 'triclinic'
loop_
_space_group_symop_operation_xyz
x,y,z
-x,-y,-z
loop_
_atom_site_type_symbol
_atom_site_label
_atom_site_fract_x
_atom_site_fract_y
_atom_site_fract_z
Si Si1 0.795548 0.231609 0.336874
Si Si2 0.374159 0.310897 0.811782
Si Si3 0.267139 0.069151 0.025851
Si Si4 0.495814 0.418453 0.646839
Si Si5 0.803768 0.477068 0.144392
Si Si6 0.258847 0.091200 0.294954
Si Si7 0.652674 0.191789 0.594059
O O1 0.586750 0.208661 0.325806
O O2 0.689254 0.194957 0.460073
O O3 0.160899 0.426003 0.378416
O O4 0.734633 0.069239 0.150515
O O5 0.486312 0.359107 0.699179
O O6 0.488558 0.242286 0.740778
O O7 0.500000 0.500000 0.000000
O O8 0.005887 0.119642 0.770991
O O9 0.580879 0.278447 0.080804
O O10 0.230122 0.068740 0.162114
O O11 0.000000 0.000000 0.000000
O O12 0.393741 0.507355 0.796918
O O13 0.249605 0.224846 0.478835
O O14 0.022643 0.637979 0.308303
O O15 0.000000 0.500000 0.000000
O O16 0.500000 0.000000 0.500000
#
# Coordination Sequence:
#
# PCOD9071394 Si02
#       7
#     2   2   2   2   2   2   2
#     4  12  27  49  76 109 149 193 247 304 372 446
#     4  12  28  47  76 109 152 197 249 305 367 443
#     4  12  28  48  73 109 149 193 244 306 368 440
#     4  12  26  49  76 109 149 194 248 303 371 445
#     4  12  28  47  76 108 149 195 246 308 374 435
#     4  12  28  48  77 105 150 197 245 299 374 440
#     4  12  28  47  78 111 150 195 253 309 368 439
#
# _framework density 21.924845000000001
#
# number of rings (size 3 to 8) (size 9 to 14) (size 15 to 20)
#    0.000    0.000    2.857    5.571   14.000    1.143 
#    0.000    0.000    0.000    0.000    0.000    0.000 
#    0.000    0.000    0.000    0.000    0.000    0.000 
#
# Total GULP energy -78347.993353 kJ/mol
# GULP energy per Si atom -5596.285240 kJ/mol
# Density = 2.187494 g / cm^3
# Si number density = 21.924845 Si / 1000 Ang^3
#
#
#
# Elastic Constant Matrix: (Units=GPa)
#
#
# Indices 1 2 3 4 5 6 
#
# 1 108.3829 23.1879 41.0354 -2.9274 -7.7577 -8.5770
# 2 23.1879 139.6108 63.8615 25.9810 -3.9881 -15.9520
# 3 41.0354 63.8615 164.9241 16.6282 -5.2063 -22.1056
# 4 -2.9274 25.9810 16.6282 49.2950 -8.8367 -0.8031
# 5 -7.7577 -3.9881 -5.2063 -8.8367 50.3811 1.2512
# 6 -8.5770 -15.9520 -22.1056 -0.8031 1.2512 34.7533
#
#
#
# Elastic Compliance Matrix: (Units=1/GPa)
#
#
# Indices 1 2 3 4 5 6 
#
# 1 0.010552 -0.000980 -0.002330 0.002242 0.001683 0.000664
# 2 -0.000980 0.009633 -0.002758 -0.004252 -0.000477 0.002344
# 3 -0.002330 -0.002758 0.008313 -0.001443 -0.000056 0.003415
# 4 0.002242 -0.004252 -0.001443 0.023849 0.004090 -0.001913
# 5 0.001683 -0.000477 -0.000056 0.004090 0.020794 -0.000493
# 6 0.000664 0.002344 0.003415 -0.001913 -0.000493 0.032160
#
#
# Mechanical properties :
#
#
# Convention : Reuss Voigt Hill
#
# Bulk Modulus (GPa) = 61.12183 74.34303 67.73243
# Shear Modulus (GPa) = 40.68677 45.87474 43.28075
#
# Velocity S-wave (km/s) = 4.31250 4.57920 4.44785
# Velocity P-wave (km/s) = 7.26191 7.87023 7.57218
#
# Compressibility (1/GPa) = 0.01636077
#
# Stress axis : x y z
#
# Youngs Moduli (GPa) = 94.76981 103.81235 120.29906
#
# Poissons Ratio (x) = 0.10174 0.28028
# Poissons Ratio (y) = 0.09288 0.33182
# Poissons Ratio (z) = 0.22080 0.28634
#
# Static dielectric constant tensor:
#      x y z
#    x 1.888060 0.079120 -0.020650 
#    y 0.079120 1.654530 -0.115630 
#    z -0.020650 -0.115630 1.718420 
# 
# From -- ./inp_files/157329.got.cif
#   From: 2010.05.17/outbox.cif.g08.bks.cpg/sg2_79_cif.got.tgz:157329.got - 2010.06.03 11:33:40.
