data_PCOD9071923
_publ_section_title
;
Structure prediction by ZEFSAII (Michael W. Deem and Ramdas Pophale) SiO2 
 PCOD9071923
Probable space group: P -1
;
_chemical_formula_sum "Si O2"
_cell_formula_units_Z 16
_cell_length_a 19.444944
_cell_length_b 10.421488
_cell_length_c 7.481628
_cell_angle_alpha 134.848896
_cell_angle_beta 56.703957
_cell_angle_gamma 144.332599
_cell_volume 625.684287
_symmetry_space_group_name_H-M "P -1"
_symmetry_group_IT_number 2
_symmetry_cell_setting 'triclinic'
loop_
_space_group_symop_operation_xyz
x,y,z
-x,-y,-z
loop_
_atom_site_type_symbol
_atom_site_label
_atom_site_fract_x
_atom_site_fract_y
_atom_site_fract_z
Si Si1 0.236860 0.602407 0.296605
Si Si2 0.748654 0.976372 0.407996
Si Si3 0.749916 0.388273 0.309717
Si Si4 0.503181 0.046189 0.755988
Si Si5 0.010710 0.733431 0.674130
Si Si6 0.760608 0.984648 0.815257
Si Si7 0.491086 0.450033 0.172501
Si Si8 0.002408 0.286282 0.752177
O O1 0.247357 0.538439 0.417655
O O2 0.363872 0.780102 0.195671
O O3 0.105786 0.357168 0.165110
O O4 0.237249 0.820463 0.524805
O O5 0.777706 0.056300 0.652068
O O6 0.611927 0.711226 0.338213
O O7 0.852422 0.005944 0.221182
O O8 0.877218 0.619077 0.260982
O O9 0.619598 0.232200 0.268972
O O10 0.752761 0.170129 0.098839
O O11 0.500000 0.000000 0.500000
O O12 0.490058 0.236213 0.995365
O O13 0.995328 0.737609 0.487878
O O14 0.000000 0.500000 0.500000
O O15 0.637159 0.686583 0.718501
O O16 0.871877 0.038200 0.768167
O O17 0.500000 0.500000 0.000000
O O18 0.000000 0.500000 0.000000
#
# Coordination Sequence:
#
# PCOD9071923 Si02
#       8
#     2   2   2   2   2   2   2   2
#     4   9  16  30  50  71  95 124 155 187 224 272
#     4  10  18  30  48  72  96 120 150 192 235 273
#     4   8  14  26  44  67  91 119 153 186 219 266
#     4   9  17  30  48  70  92 120 157 192 225 269
#     4   8  15  26  44  69  94 118 150 187 224 267
#     4   9  17  28  44  69  95 119 149 189 235 273
#     4  11  21  33  48  68  92 122 158 195 229 273
#     4   8  13  23  41  64  89 116 146 186 226 261
#
# _framework density 25.572002000000001
#
# number of rings (size 3 to 8) (size 9 to 14) (size 15 to 20)
#    0.000    3.000    0.000    2.625    0.000    1.000 
#    0.000    3.125    0.000    1.500    0.000   23.625 
#    0.000    0.000    0.000    0.000    0.000    0.000 
#
# Total GULP energy -89096.509405 kJ/mol
# GULP energy per Si atom -5568.531838 kJ/mol
# Density = 2.551380 g / cm^3
# Si number density = 25.572002 Si / 1000 Ang^3
#
#
#
# Elastic Constant Matrix: (Units=GPa)
#
#
# Indices 1 2 3 4 5 6 
#
# 1 36.2294 70.4875 -4.0501 -20.9337 -11.0627 26.9896
# 2 70.4875 168.5668 20.0284 2.7259 12.6251 98.0996
# 3 -4.0501 20.0284 23.1904 -18.7824 2.0602 -18.6154
# 4 -20.9337 2.7259 -18.7824 15.2285 -14.1509 -4.6899
# 5 -11.0627 12.6251 2.0602 -14.1509 32.1179 -9.7059
# 6 26.9896 98.0996 -18.6154 -4.6899 -9.7059 70.0768
#
#
#
# Elastic Compliance Matrix: (Units=1/GPa)
#
#
# Indices 1 2 3 4 5 6 
#
# 1 0.030826 0.007790 -0.026593 -0.001487 -0.000461 -0.030004
# 2 0.007790 0.005848 0.004915 0.018990 0.006089 -0.007766
# 3 -0.026593 0.004915 0.028854 -0.016017 -0.017733 0.007498
# 4 -0.001487 0.018990 -0.016017 0.028950 -0.002875 -0.028726
# 5 -0.000461 0.006089 -0.017733 -0.002875 0.025518 -0.009715
# 6 -0.030004 -0.007766 0.007498 -0.028726 -0.009715 0.035422
#
#
# Mechanical properties :
#
#
# Convention : Reuss Voigt Hill
#
# Bulk Modulus (GPa) = 26.48885 44.54646 35.51766
# Shear Modulus (GPa) = 25.53942 32.91936 29.22939
#
# Velocity S-wave (km/s) = 3.16369 3.59182 3.38453
# Velocity P-wave (km/s) = 4.87096 5.88722 5.40304
#
# Compressibility (1/GPa) = 0.03775173
#
# Stress axis : x y z
#
# Youngs Moduli (GPa) = 32.44051 171.00965 34.65713
#
# Poissons Ratio (x) = -1.33209 0.92162
# Poissons Ratio (y) = -0.25270 -0.17035
# Poissons Ratio (z) = 0.86268 -0.84054
#
# Static dielectric constant tensor:
#      x y z
#    x 2.101200 0.125490 0.044260 
#    y 0.125490 2.195830 0.046490 
#    z 0.044260 0.046490 2.088410 
# 
# From -- ./inp_files/188428.got.cif
#   From: 2010.05.17/outbox.cif.g08.bks.cpg/sg2_95_cif.got.tgz:188428.got - 2010.06.03 11:33:40.
