data_PCOD9071751
_publ_section_title
;
Structure prediction by ZEFSAII (Michael W. Deem and Ramdas Pophale) SiO2 
 PCOD9071751
Probable space group: P -1
;
_chemical_formula_sum "Si O2"
_cell_formula_units_Z 14
_cell_length_a 10.020261
_cell_length_b 14.925485
_cell_length_c 14.507320
_cell_angle_alpha 20.774659
_cell_angle_beta 105.880314
_cell_angle_gamma 95.652579
_cell_volume 656.775384
_symmetry_space_group_name_H-M "P -1"
_symmetry_group_IT_number 2
_symmetry_cell_setting 'triclinic'
loop_
_space_group_symop_operation_xyz
x,y,z
-x,-y,-z
loop_
_atom_site_type_symbol
_atom_site_label
_atom_site_fract_x
_atom_site_fract_y
_atom_site_fract_z
Si Si1 0.433737 0.125290 0.099693
Si Si2 0.204564 0.209494 0.577131
Si Si3 0.375648 0.645659 0.470537
Si Si4 0.261982 0.688758 0.208384
Si Si5 0.055958 0.469719 0.932629
Si Si6 0.153872 0.903146 0.560541
Si Si7 0.477264 0.787281 0.769758
O O1 0.436119 0.220533 0.112532
O O2 0.616914 0.952366 0.270658
O O3 0.363529 0.907327 0.278133
O O4 0.351903 0.407040 0.751027
O O5 0.193244 0.470349 0.386253
O O6 0.082432 0.345996 0.339987
O O7 0.181624 0.974600 0.857790
O O8 0.271256 0.747176 0.261601
O O9 0.556808 0.478939 0.630542
O O10 0.180246 0.593199 0.832064
O O11 0.000000 0.500000 0.000000
O O12 0.121756 0.133062 0.253149
O O13 0.292175 0.909067 0.639703
O O14 0.000000 0.000000 0.500000
O O15 0.500000 0.000000 0.500000
O O16 0.500000 0.500000 0.000000
#
# Coordination Sequence:
#
# PCOD9071751 Si02
#       7
#     2   2   2   2   2   2   2
#     4  10  19  32  50  72 104 149 187 219 277 339
#     4  10  18  29  49  76 109 144 179 223 280 337
#     4   9  17  29  47  70 103 145 183 220 275 345
#     4   9  17  28  44  73 109 140 175 227 282 331
#     4  10  19  31  50  76 106 142 185 221 263 323
#     4  10  21  37  57  78 109 149 189 229 277 329
#     4  12  25  40  57  83 119 153 193 238 278 328
#
# _framework density 21.316268999999998
#
# number of rings (size 3 to 8) (size 9 to 14) (size 15 to 20)
#    0.000    2.000    0.000    5.143    0.000   10.286 
#    0.000    0.000    0.000    0.000    0.000    0.000 
#    0.000   80.000    0.000    0.000    0.000    0.000 
#
# Total GULP energy -78119.092597 kJ/mol
# GULP energy per Si atom -5579.935186 kJ/mol
# Density = 2.126775 g / cm^3
# Si number density = 21.316269 Si / 1000 Ang^3
#
#
#
# Elastic Constant Matrix: (Units=GPa)
#
#
# Indices 1 2 3 4 5 6 
#
# 1 38.0216 21.9398 11.6713 -10.9431 -13.1925 11.2922
# 2 21.9398 148.1798 71.7884 -0.0482 -12.2793 9.9230
# 3 11.6713 71.7884 151.1220 -5.7178 -44.4863 9.4599
# 4 -10.9431 -0.0482 -5.7178 43.6818 12.3947 -6.8740
# 5 -13.1925 -12.2793 -44.4863 12.3947 26.1372 -7.1619
# 6 11.2922 9.9230 9.4599 -6.8740 -7.1619 21.4137
#
#
#
# Elastic Compliance Matrix: (Units=1/GPa)
#
#
# Indices 1 2 3 4 5 6 
#
# 1 0.042946 -0.008136 0.010986 0.000949 0.032679 -0.012496
# 2 -0.008136 0.011148 -0.008901 0.000756 -0.014833 -0.001661
# 3 0.010986 -0.008901 0.022132 -0.006221 0.042164 0.000659
# 4 0.000949 0.000756 -0.006221 0.029329 -0.022637 0.003741
# 5 0.032679 -0.014833 0.042164 -0.022637 0.132492 0.008060
# 6 -0.012496 -0.001661 0.000659 0.003741 0.008060 0.057664
#
#
# Mechanical properties :
#
#
# Convention : Reuss Voigt Hill
#
# Bulk Modulus (GPa) = 15.59469 60.90247 38.24858
# Shear Modulus (GPa) = 15.18885 33.70814 24.44849
#
# Velocity S-wave (km/s) = 2.67225 3.98091 3.39033
# Velocity P-wave (km/s) = 4.10524 7.05430 5.77131
#
# Compressibility (1/GPa) = 0.06412437
#
# Stress axis : x y z
#
# Youngs Moduli (GPa) = 23.28487 89.70364 45.18281
#
# Poissons Ratio (x) = 0.72982 -0.49638
# Poissons Ratio (y) = 0.18944 0.40218
# Poissons Ratio (z) = -0.25581 0.79847
#
# Static dielectric constant tensor:
#      x y z
#    x 1.845440 -0.054880 0.105380 
#    y -0.054880 1.799680 -0.111430 
#    z 0.105380 -0.111430 1.903470 
# 
# From -- ./inp_files/76079.got.cif
#   From: 2010.05.17/outbox.cif.g08.bks.cpg/sg2_39_cif.got.tgz:76079.got - 2010.06.03 11:33:40.
