data_PCOD9071154
_publ_section_title
;
Structure prediction by ZEFSAII (Michael W. Deem and Ramdas Pophale) SiO2 
 PCOD9071154
Probable space group: P -1
;
_chemical_formula_sum "Si O2"
_cell_formula_units_Z 14
_cell_length_a 7.977517
_cell_length_b 9.531881
_cell_length_c 11.906084
_cell_angle_alpha 127.185687
_cell_angle_beta 108.291518
_cell_angle_gamma 107.183101
_cell_volume 525.445386
_symmetry_space_group_name_H-M "P -1"
_symmetry_group_IT_number 2
_symmetry_cell_setting 'triclinic'
loop_
_space_group_symop_operation_xyz
x,y,z
-x,-y,-z
loop_
_atom_site_type_symbol
_atom_site_label
_atom_site_fract_x
_atom_site_fract_y
_atom_site_fract_z
Si Si1 0.462238 0.504248 0.625798
Si Si2 0.045841 0.709254 0.551255
Si Si3 0.438072 0.162660 0.601023
Si Si4 0.590804 0.781752 0.114851
Si Si5 0.974829 0.184031 0.789323
Si Si6 0.900357 0.474798 0.185174
Si Si7 0.812433 0.018292 0.926138
O O1 0.500000 0.500000 0.500000
O O2 0.190637 0.339553 0.505831
O O3 0.555209 0.397382 0.666899
O O4 0.580924 0.771486 0.797077
O O5 0.059704 0.665379 0.403322
O O6 0.000000 0.500000 0.500000
O O7 0.265092 0.952877 0.759012
O O8 0.465284 0.220542 0.766305
O O9 0.500000 0.000000 0.500000
O O10 0.171829 0.002152 0.429621
O O11 0.774072 0.743742 0.117603
O O12 0.358842 0.612614 0.914190
O O13 0.999797 0.398717 0.852027
O O14 0.840494 0.066293 0.820486
O O15 0.866390 0.247803 0.091653
O O16 0.000000 0.000000 0.000000
#
# Coordination Sequence:
#
# PCOD9071154 Si02
#       7
#     2   2   2   2   2   2   2
#     4  12  27  49  74 110 149 195 250 306 376 442
#     4  12  28  48  80 110 152 196 250 314 376 443
#     4  12  26  45  80 109 148 199 253 304 374 447
#     4  12  26  50  78 112 148 197 256 310 371 443
#     4  12  25  52  77 109 152 201 252 309 373 448
#     4  12  29  49  78 112 151 198 255 306 377 449
#     4  12  30  47  72 112 156 197 245 312 379 441
#
# _framework density 26.644062000000002
#
# number of rings (size 3 to 8) (size 9 to 14) (size 15 to 20)
#    0.000    0.000    4.286    3.857   12.000    1.143 
#    0.000    0.000    0.000    0.000    0.000    0.000 
#    0.000    0.000    0.000    0.000    0.000    0.000 
#
# Total GULP energy -78455.871116 kJ/mol
# GULP energy per Si atom -5603.990794 kJ/mol
# Density = 2.658342 g / cm^3
# Si number density = 26.644062 Si / 1000 Ang^3
#
#
#
# Elastic Constant Matrix: (Units=GPa)
#
#
# Indices 1 2 3 4 5 6 
#
# 1 51.9792 20.5120 -22.8772 2.4789 -5.5416 -9.9020
# 2 20.5120 227.8877 -0.6771 25.7074 -16.8131 -12.1924
# 3 -22.8772 -0.6771 58.1623 17.0220 7.0622 5.0463
# 4 2.4789 25.7074 17.0220 56.2429 4.0043 -11.1820
# 5 -5.5416 -16.8131 7.0622 4.0043 41.8170 -2.8849
# 6 -9.9020 -12.1924 5.0463 -11.1820 -2.8849 48.6510
#
#
#
# Elastic Compliance Matrix: (Units=1/GPa)
#
#
# Indices 1 2 3 4 5 6 
#
# 1 0.025337 -0.001641 0.010385 -0.003004 0.001443 0.003064
# 2 -0.001641 0.004960 -0.000257 -0.002152 0.002065 0.000564
# 3 0.010385 -0.000257 0.024077 -0.007949 -0.002198 -0.002406
# 4 -0.003004 -0.002152 -0.007949 0.022362 -0.001737 0.004711
# 5 0.001443 0.002065 -0.002198 -0.001737 0.025622 0.002159
# 6 0.003064 0.000564 -0.002406 0.004711 0.002159 0.022780
#
#
# Mechanical properties :
#
#
# Convention : Reuss Voigt Hill
#
# Bulk Modulus (GPa) = 14.01574 36.88273 25.44923
# Shear Modulus (GPa) = 37.89399 52.08028 44.98713
#
# Velocity S-wave (km/s) = 3.77534 4.42596 4.11353
# Velocity P-wave (km/s) = 4.92707 6.32389 5.66867
#
# Compressibility (1/GPa) = 0.07134836
#
# Stress axis : x y z
#
# Youngs Moduli (GPa) = 39.46759 201.59955 41.53355
#
# Poissons Ratio (x) = 0.33073 -0.43132
# Poissons Ratio (y) = 0.06475 0.01069
# Poissons Ratio (z) = -0.40986 0.05189
#
# Static dielectric constant tensor:
#      x y z
#    x 2.192260 -0.027910 0.053980 
#    y -0.027910 2.138200 -0.020610 
#    z 0.053980 -0.020610 2.182410 
# 
# From -- ./inp_files/278628.got.cif
#   From: 2010.05.17/outbox.cif.g08.bks.cpg/sg2_140_cif.got.tgz:278628.got - 2010.06.03 11:33:40.
