data_PCOD9071303
_publ_section_title
;
Structure prediction by ZEFSAII (Michael W. Deem and Ramdas Pophale) SiO2 
 PCOD9071303
Probable space group: P -1
;
_chemical_formula_sum "Si O2"
_cell_formula_units_Z 12
_cell_length_a 17.822776
_cell_length_b 17.780910
_cell_length_c 10.921891
_cell_angle_alpha 31.077947
_cell_angle_beta 149.125927
_cell_angle_gamma 164.227321
_cell_volume 471.117551
_symmetry_space_group_name_H-M "P -1"
_symmetry_group_IT_number 2
_symmetry_cell_setting 'triclinic'
loop_
_space_group_symop_operation_xyz
x,y,z
-x,-y,-z
loop_
_atom_site_type_symbol
_atom_site_label
_atom_site_fract_x
_atom_site_fract_y
_atom_site_fract_z
Si Si1 0.663226 0.976379 0.990695
Si Si2 0.473710 0.059486 0.752539
Si Si3 0.335610 0.446090 0.648094
Si Si4 0.457634 0.690886 0.844986
Si Si5 0.039710 0.776210 0.364377
Si Si6 0.748550 0.598907 0.676644
O O1 0.544187 0.854792 0.857479
O O2 0.843803 0.535473 0.322999
O O3 0.967765 0.158915 0.182002
O O4 0.684818 0.158040 0.817227
O O5 0.522031 0.273271 0.537308
O O6 0.172911 0.790442 0.637285
O O7 0.500000 0.000000 0.000000
O O8 0.535332 0.475351 0.880540
O O9 0.165537 0.303480 0.480307
O O10 0.152768 0.278646 0.749091
O O11 0.301375 0.071895 0.248334
O O12 0.423478 0.696740 0.130004
O O13 0.500000 0.500000 0.500000
#
# Coordination Sequence:
#
# PCOD9071303 Si02
#       6
#     2   2   2   2   2   2
#     4  12  28  48  76 113 154 196 253 308 381 450
#     4  12  28  50  78 114 154 199 250 315 381 450
#     4  12  27  47  81 112 152 195 257 315 374 442
#     4  12  28  49  79 109 155 202 255 309 372 450
#     4  12  28  50  77 113 153 202 254 309 376 451
#     4  12  26  47  79 115 147 197 255 318 373 434
#
# _framework density 25.471350000000001
#
# number of rings (size 3 to 8) (size 9 to 14) (size 15 to 20)
#    0.000    0.000    5.000    3.500    4.667    2.667 
#    0.000    0.000    0.000    0.000    0.000    0.000 
#    0.000    0.000    0.000    0.000    0.000    0.000 
#
# Total GULP energy -67220.660757 kJ/mol
# GULP energy per Si atom -5601.721730 kJ/mol
# Density = 2.541338 g / cm^3
# Si number density = 25.471350 Si / 1000 Ang^3
#
#
#
# Elastic Constant Matrix: (Units=GPa)
#
#
# Indices 1 2 3 4 5 6 
#
# 1 143.9799 42.5090 42.5879 6.3571 -9.0008 -37.5703
# 2 42.5090 155.1498 58.3463 16.4763 -16.1573 -30.7843
# 3 42.5879 58.3463 106.4259 -6.5733 -7.7474 -27.4180
# 4 6.3571 16.4763 -6.5733 46.2024 -3.7133 -16.6261
# 5 -9.0008 -16.1573 -7.7474 -3.7133 42.9921 4.8680
# 6 -37.5703 -30.7843 -27.4180 -16.6261 4.8680 44.8163
#
#
#
# Elastic Compliance Matrix: (Units=1/GPa)
#
#
# Indices 1 2 3 4 5 6 
#
# 1 0.009370 -0.000716 -0.001451 0.001294 0.000765 0.006873
# 2 -0.000716 0.009135 -0.004320 -0.002998 0.002054 0.001696
# 3 -0.001451 -0.004320 0.014595 0.006397 0.000455 0.007069
# 4 0.001294 -0.002998 0.006397 0.028337 0.001236 0.013317
# 5 0.000765 0.002054 0.000455 0.001236 0.024365 0.000142
# 6 0.006873 0.001696 0.007069 0.013317 0.000142 0.038489
#
#
# Mechanical properties :
#
#
# Convention : Reuss Voigt Hill
#
# Bulk Modulus (GPa) = 49.68811 76.93799 63.31305
# Shear Modulus (GPa) = 34.72861 44.27631 39.50246
#
# Velocity S-wave (km/s) = 3.69648 4.17379 3.94237
# Velocity P-wave (km/s) = 6.14560 7.31428 6.75526
#
# Compressibility (1/GPa) = 0.02012554
#
# Stress axis : x y z
#
# Youngs Moduli (GPa) = 106.72406 109.46768 68.51803
#
# Poissons Ratio (x) = 0.07835 0.09941
# Poissons Ratio (y) = 0.07638 0.29603
# Poissons Ratio (z) = 0.15485 0.47295
#
# Static dielectric constant tensor:
#      x y z
#    x 2.001190 0.010250 0.027780 
#    y 0.010250 2.004440 -0.011580 
#    z 0.027780 -0.011580 2.145840 
# 
# From -- ./inp_files/444655.got.cif
#   From: 2010.05.17/outbox.cif.g08.bks.cpg/sg2_223_cif.got.tgz:444655.got - 2010.06.03 11:33:40.
