data_PCOD9071921
_publ_section_title
;
Structure prediction by ZEFSAII (Michael W. Deem and Ramdas Pophale) SiO2 
 PCOD9071921
Probable space group: P -1
;
_chemical_formula_sum "Si O2"
_cell_formula_units_Z 12
_cell_length_a 25.867988
_cell_length_b 7.825445
_cell_length_c 10.707325
_cell_angle_alpha 130.726476
_cell_angle_beta 152.375789
_cell_angle_gamma 35.673819
_cell_volume 567.637534
_symmetry_space_group_name_H-M "P -1"
_symmetry_group_IT_number 2
_symmetry_cell_setting 'triclinic'
loop_
_space_group_symop_operation_xyz
x,y,z
-x,-y,-z
loop_
_atom_site_type_symbol
_atom_site_label
_atom_site_fract_x
_atom_site_fract_y
_atom_site_fract_z
Si Si1 0.212425 0.769841 0.315812
Si Si2 0.809373 0.583165 0.179415
Si Si3 0.040855 0.696392 0.390006
Si Si4 0.447126 0.408712 0.451812
Si Si5 0.945645 0.088626 0.724083
Si Si6 0.761217 0.805646 0.928657
O O1 0.353414 0.654079 0.480013
O O2 0.183624 0.845678 0.436292
O O3 0.224139 0.480773 0.197905
O O4 0.208589 0.201855 0.862104
O O5 0.844878 0.573961 0.396533
O O6 0.063983 0.042727 0.052409
O O7 0.951375 0.244054 0.274761
O O8 0.098532 0.673936 0.363854
O O9 0.000000 0.000000 0.500000
O O10 0.885935 0.768374 0.098819
O O11 0.500000 0.500000 0.500000
O O12 0.594801 0.100481 0.678705
O O13 0.335774 0.378138 0.134337
#
# Coordination Sequence:
#
# PCOD9071921 Si02
#       6
#     2   2   2   2   2   2
#     4   9  17  30  48  72  99 122 155 196 234 275
#     4   9  18  31  50  72  97 125 155 193 233 279
#     4  10  18  30  48  71  97 125 158 193 232 278
#     4  10  18  31  50  70  92 124 162 196 231 275
#     4   8  16  30  47  70  99 124 152 191 237 276
#     4  10  18  30  50  72  93 123 160 197 232 272
#
# _framework density 21.140250000000002
#
# number of rings (size 3 to 8) (size 9 to 14) (size 15 to 20)
#    0.000    3.000    0.000    5.500    0.000    0.667 
#    0.000    1.667    0.000   13.000    0.000    9.333 
#    0.000    1.333    0.000    0.000    0.000    0.000 
#
# Total GULP energy -66877.674481 kJ/mol
# GULP energy per Si atom -5573.139540 kJ/mol
# Density = 2.109213 g / cm^3
# Si number density = 21.140250 Si / 1000 Ang^3
#
#
#
# Elastic Constant Matrix: (Units=GPa)
#
#
# Indices 1 2 3 4 5 6 
#
# 1 191.0498 37.5165 47.8981 -19.3010 -15.3225 -18.5195
# 2 37.5165 43.5548 24.5704 -20.4126 -8.8077 -3.0525
# 3 47.8981 24.5704 89.0266 -24.4511 -5.8297 -7.3445
# 4 -19.3010 -20.4126 -24.4511 29.2496 8.1442 0.5063
# 5 -15.3225 -8.8077 -5.8297 8.1442 44.9693 -2.4300
# 6 -18.5195 -3.0525 -7.3445 0.5063 -2.4300 24.2181
#
#
#
# Elastic Compliance Matrix: (Units=1/GPa)
#
#
# Indices 1 2 3 4 5 6 
#
# 1 0.007212 -0.004722 -0.002405 -0.001083 0.001654 0.004379
# 2 -0.004722 0.038743 -0.002041 0.021707 0.001804 0.000381
# 3 -0.002405 -0.002041 0.016182 0.010732 -0.000930 0.002493
# 4 -0.001083 0.021707 0.010732 0.058990 -0.005226 0.003405
# 5 0.001654 0.001804 -0.000930 -0.005226 0.024182 0.003745
# 6 0.004379 0.000381 0.002493 0.003405 0.003745 0.045749
#
#
# Mechanical properties :
#
#
# Convention : Reuss Voigt Hill
#
# Bulk Modulus (GPa) = 22.83003 60.40014 41.61509
# Shear Modulus (GPa) = 22.32201 33.93048 28.12624
#
# Velocity S-wave (km/s) = 3.25299 4.01061 3.65150
# Velocity P-wave (km/s) = 4.99320 7.07671 6.12421
#
# Compressibility (1/GPa) = 0.04380195
#
# Stress axis : x y z
#
# Youngs Moduli (GPa) = 138.65570 25.81129 61.79674
#
# Poissons Ratio (x) = 0.12187 0.14862
# Poissons Ratio (y) = 0.65469 0.12612
# Poissons Ratio (z) = 0.33346 0.05268
#
# Static dielectric constant tensor:
#      x y z
#    x 1.856020 -0.029160 -0.040420 
#    y -0.029160 1.816970 0.053500 
#    z -0.040420 0.053500 1.817700 
# 
# From -- ./inp_files/342139.got.cif
#   From: 2010.05.17/outbox.cif.g08.bks.cpg/sg2_172_cif.got.tgz:342139.got - 2010.06.03 11:33:40.
