data_PCOD9071458
_publ_section_title
;
Structure prediction by ZEFSAII (Michael W. Deem and Ramdas Pophale) SiO2 
 PCOD9071458
Probable space group: P -1
;
_chemical_formula_sum "Si O2"
_cell_formula_units_Z 12
_cell_length_a 10.171826
_cell_length_b 5.026416
_cell_length_c 18.812798
_cell_angle_alpha 65.773600
_cell_angle_beta 38.845340
_cell_angle_gamma 85.753544
_cell_volume 496.890816
_symmetry_space_group_name_H-M "P -1"
_symmetry_group_IT_number 2
_symmetry_cell_setting 'triclinic'
loop_
_space_group_symop_operation_xyz
x,y,z
-x,-y,-z
loop_
_atom_site_type_symbol
_atom_site_label
_atom_site_fract_x
_atom_site_fract_y
_atom_site_fract_z
Si Si1 0.326033 0.444964 0.929526
Si Si2 0.383369 0.118571 0.596314
Si Si3 0.140914 0.314133 0.172022
Si Si4 0.000000 0.000000 0.000000
Si Si5 0.000000 0.500000 0.500000
Si Si6 0.741888 0.257005 0.787366
Si Si7 0.520555 0.890625 0.281653
O O1 0.493954 0.268461 0.885494
O O2 0.470799 0.791034 0.795563
O O3 0.235798 0.498294 0.038292
O O4 0.100423 0.229075 0.002857
O O5 0.500000 0.500000 0.500000
O O6 0.432351 0.034341 0.663627
O O7 0.500000 0.000000 0.500000
O O8 0.113456 0.953306 0.710026
O O9 0.145886 0.540442 0.210397
O O10 0.279584 0.103726 0.157176
O O11 0.732866 0.837985 0.164208
O O12 0.106362 0.579600 0.363961
O O13 0.266791 0.608899 0.405810
#
# Coordination Sequence:
#
# PCOD9071458 Si02
#       7
#     2   2   2   1   1   2   2
#     4  12  28  48  80 112 156 203 265 323 392 466
#     4  12  28  48  76 111 158 207 257 318 391 472
#     4  12  27  49  77 113 156 202 262 327 390 458
#     4  12  26  50  78 116 156 200 262 326 392 462
#     4  12  26  52  76 110 156 202 260 312 384 468
#     4  12  28  49  77 114 156 205 258 322 389 464
#     4  12  28  49  81 114 155 206 262 323 393 463
#
# _framework density 24.150175000000001
#
# number of rings (size 3 to 8) (size 9 to 14) (size 15 to 20)
#    0.000    0.000    3.333    5.500    4.667    4.000 
#    0.000    0.000    0.000    0.000    0.000    0.000 
#    0.000    0.000    0.000    0.000    0.000    0.000 
#
# Total GULP energy -66816.965031 kJ/mol
# GULP energy per Si atom -5568.080419 kJ/mol
# Density = 2.409521 g / cm^3
# Si number density = 24.150175 Si / 1000 Ang^3
#
#
#
# Elastic Constant Matrix: (Units=GPa)
#
#
# Indices 1 2 3 4 5 6 
#
# 1 125.0494 23.5283 43.3665 7.9444 9.2366 43.9110
# 2 23.5283 86.0775 22.7898 10.4225 19.5110 21.6664
# 3 43.3665 22.7898 117.9535 20.9374 -5.2310 23.3836
# 4 7.9444 10.4225 20.9374 27.7298 13.1772 9.3775
# 5 9.2366 19.5110 -5.2310 13.1772 75.6110 6.5545
# 6 43.9110 21.6664 23.3836 9.3775 6.5545 40.3021
#
#
#
# Elastic Compliance Matrix: (Units=1/GPa)
#
#
# Indices 1 2 3 4 5 6 
#
# 1 0.013813 0.000482 -0.003081 0.003651 -0.001436 -0.014138
# 2 0.000482 0.014399 -0.001700 -0.000485 -0.003232 -0.006641
# 3 -0.003081 -0.001700 0.011823 -0.008557 0.003221 -0.001123
# 4 0.003651 -0.000485 -0.008557 0.048704 -0.008648 -0.008678
# 5 -0.001436 -0.003232 0.003221 -0.008648 0.015890 0.000860
# 6 -0.014138 -0.006641 -0.001123 -0.008678 0.000860 0.046317
#
#
# Mechanical properties :
#
#
# Convention : Reuss Voigt Hill
#
# Bulk Modulus (GPa) = 31.80873 56.49441 44.15157
# Shear Modulus (GPa) = 29.40789 44.68829 37.04809
#
# Velocity S-wave (km/s) = 3.49335 4.30633 3.92097
# Velocity P-wave (km/s) = 5.42874 6.94044 6.23061
#
# Compressibility (1/GPa) = 0.03143791
#
# Stress axis : x y z
#
# Youngs Moduli (GPa) = 72.39569 69.45108 84.57924
#
# Poissons Ratio (x) = -0.03347 0.26055
# Poissons Ratio (y) = -0.03489 0.14377
# Poissons Ratio (z) = 0.22302 0.11805
#
# Static dielectric constant tensor:
#      x y z
#    x 1.949420 -0.044870 -0.008140 
#    y -0.044870 1.935930 -0.015290 
#    z -0.008140 -0.015290 1.961310 
# 
# From -- ./inp_files/28924.got.cif
#   From: 2010.05.17/outbox.cif.g08.bks.cpg/sg2_15_cif.got.tgz:28924.got - 2010.06.03 11:33:40.
