data_PCOD9071788
_publ_section_title
;
Structure prediction by ZEFSAII (Michael W. Deem and Ramdas Pophale) SiO2 
 PCOD9071788
Probable space group: P -1
;
_chemical_formula_sum "Si O2"
_cell_formula_units_Z 16
_cell_length_a 9.760791
_cell_length_b 8.795546
_cell_length_c 9.223755
_cell_angle_alpha 129.861874
_cell_angle_beta 99.682584
_cell_angle_gamma 81.648974
_cell_volume 598.442592
_symmetry_space_group_name_H-M "P -1"
_symmetry_group_IT_number 2
_symmetry_cell_setting 'triclinic'
loop_
_space_group_symop_operation_xyz
x,y,z
-x,-y,-z
loop_
_atom_site_type_symbol
_atom_site_label
_atom_site_fract_x
_atom_site_fract_y
_atom_site_fract_z
Si Si1 0.668256 0.566866 0.023917
Si Si2 0.200056 0.887069 0.911156
Si Si3 0.098882 0.129863 0.807087
Si Si4 0.081397 0.735661 0.385495
Si Si5 0.460445 0.822842 0.700810
Si Si6 0.601451 0.174049 0.833064
Si Si7 0.811319 0.559618 0.351753
Si Si8 0.690195 0.556056 0.640139
O O1 0.786965 0.706546 0.076598
O O2 0.521252 0.678395 0.032804
O O3 0.704119 0.563821 0.201142
O O4 0.661400 0.336232 0.833199
O O5 0.334109 0.886080 0.824309
O O6 0.138276 0.670307 0.759480
O O7 0.094577 0.049171 0.920112
O O8 0.269306 0.896434 0.086017
O O9 0.961742 0.225629 0.764885
O O10 0.134531 0.935781 0.591553
O O11 0.176323 0.539760 0.313961
O O12 0.935433 0.695773 0.415281
O O13 0.590849 0.745068 0.776672
O O14 0.407503 0.630171 0.495205
O O15 0.512963 0.978361 0.687242
O O16 0.739334 0.610949 0.521177
#
# Coordination Sequence:
#
# PCOD9071788 Si02
#       8
#     2   2   2   2   2   2   2   2
#     4   9  18  30  48  75 105 120 167 212 246 281
#     4  10  18  31  52  80  98 127 171 206 246 288
#     4  10  18  29  50  80  98 124 166 216 245 279
#     4  10  18  31  53  75 102 130 164 208 249 289
#     4  10  19  31  50  77 106 129 161 202 248 311
#     4  10  18  31  52  73  99 137 163 206 246 291
#     4   9  18  31  50  79  98 128 168 208 243 291
#     4  10  19  32  50  76 107 133 158 199 254 304
#
# _framework density 26.736065
#
# number of rings (size 3 to 8) (size 9 to 14) (size 15 to 20)
#    0.000    2.250    3.750    0.750    0.000    0.000 
#    0.000    0.625    0.000   13.500    0.000    0.000 
#    0.000    0.000    0.000    0.000    0.000    0.000 
#
# Total GULP energy -89390.534890 kJ/mol
# GULP energy per Si atom -5586.908431 kJ/mol
# Density = 2.667521 g / cm^3
# Si number density = 26.736065 Si / 1000 Ang^3
#
#
#
# Elastic Constant Matrix: (Units=GPa)
#
#
# Indices 1 2 3 4 5 6 
#
# 1 76.8504 50.6601 34.8595 -0.4103 18.3169 7.5511
# 2 50.6601 169.4424 39.3703 -2.9298 1.4529 4.9552
# 3 34.8595 39.3703 75.8242 24.2158 21.3019 16.9711
# 4 -0.4103 -2.9298 24.2158 62.1681 12.1491 15.1387
# 5 18.3169 1.4529 21.3019 12.1491 23.6249 2.3902
# 6 7.5511 4.9552 16.9711 15.1387 2.3902 48.5518
#
#
#
# Elastic Compliance Matrix: (Units=1/GPa)
#
#
# Indices 1 2 3 4 5 6 
#
# 1 0.022547 -0.005463 -0.004243 0.005184 -0.015752 -0.002307
# 2 -0.005463 0.008436 -0.004247 0.000351 0.007263 0.001006
# 3 -0.004243 -0.004247 0.024507 -0.005598 -0.015163 -0.004981
# 4 0.005184 0.000351 -0.005598 0.021412 -0.009489 -0.005095
# 5 -0.015752 0.007263 -0.015163 -0.009489 0.071996 0.006423
# 6 -0.002307 0.001006 -0.004981 -0.005095 0.006423 0.023866
#
#
# Mechanical properties :
#
#
# Convention : Reuss Voigt Hill
#
# Bulk Modulus (GPa) = 36.25285 63.54408 49.89847
# Shear Modulus (GPa) = 23.82487 40.01744 31.92115
#
# Velocity S-wave (km/s) = 2.98839 3.87299 3.45909
# Velocity P-wave (km/s) = 5.04938 6.61958 5.88707
#
# Compressibility (1/GPa) = 0.02758404
#
# Stress axis : x y z
#
# Youngs Moduli (GPa) = 44.35186 118.53744 40.80491
#
# Poissons Ratio (x) = 0.64757 0.17315
# Poissons Ratio (y) = 0.24230 0.17328
# Poissons Ratio (z) = 0.18820 0.50339
#
# Static dielectric constant tensor:
#      x y z
#    x 2.092120 0.007090 -0.001850 
#    y 0.007090 2.137680 -0.040630 
#    z -0.001850 -0.040630 2.108120 
# 
# From -- ./inp_files/247753.got.cif
#   From: 2010.05.17/outbox.cif.g08.bks.cpg/sg2_124_cif.got.tgz:247753.got - 2010.06.03 11:33:40.
