data_PCOD9071663
_publ_section_title
;
Structure prediction by ZEFSAII (Michael W. Deem and Ramdas Pophale) SiO2 
 PCOD9071663
Probable space group: P -1
;
_chemical_formula_sum "Si O2"
_cell_formula_units_Z 14
_cell_length_a 20.385049
_cell_length_b 6.996286
_cell_length_c 9.327114
_cell_angle_alpha 113.357493
_cell_angle_beta 48.702554
_cell_angle_gamma 148.691511
_cell_volume 469.167926
_symmetry_space_group_name_H-M "P -1"
_symmetry_group_IT_number 2
_symmetry_cell_setting 'triclinic'
loop_
_space_group_symop_operation_xyz
x,y,z
-x,-y,-z
loop_
_atom_site_type_symbol
_atom_site_label
_atom_site_fract_x
_atom_site_fract_y
_atom_site_fract_z
Si Si1 0.899631 0.588311 0.763301
Si Si2 0.317672 0.109484 0.475831
Si Si3 0.044878 0.783909 0.335743
Si Si4 0.263100 0.641690 0.804577
Si Si5 0.637565 0.386568 0.612862
Si Si6 0.804737 0.042930 0.095829
Si Si7 0.522608 0.759899 0.952245
O O1 0.032709 0.894641 0.531994
O O2 0.920787 0.386779 0.716080
O O3 0.884855 0.689319 0.961430
O O4 0.712303 0.219369 0.855941
O O5 0.307786 0.276247 0.426857
O O6 0.467179 0.271965 0.241384
O O7 0.147908 0.624468 0.566693
O O8 0.307028 0.204381 0.671855
O O9 0.164644 0.059699 0.106555
O O10 0.253555 0.537091 0.626088
O O11 0.269178 0.900575 0.851562
O O12 0.442995 0.946746 0.706522
O O13 0.610843 0.358729 0.813750
O O14 0.000000 0.500000 0.000000
O O15 0.500000 0.500000 0.000000
#
# Coordination Sequence:
#
# PCOD9071663 Si02
#       7
#     2   2   2   2   2   2   2
#     4   8  13  24  42  61  80 109 143 175 208 245
#     4   9  16  27  44  65  87 111 142 177 212 253
#     4   8  14  25  42  62  82 108 144 178 206 242
#     4   9  17  29  45  65  88 113 140 175 219 256
#     4   9  17  29  45  65  88 112 142 179 213 251
#     4   9  17  29  43  63  88 113 143 175 212 256
#     4   8  14  25  42  63  85 108 142 181 209 245
#
# _framework density 29.840064000000002
#
# number of rings (size 3 to 8) (size 9 to 14) (size 15 to 20)
#    0.000    3.429    0.000    0.000    0.000    0.571 
#    0.000    7.143    0.000    0.857    0.000    0.000 
#    0.000    0.000    0.000    0.000    0.000    0.000 
#
# Total GULP energy -78273.116838 kJ/mol
# GULP energy per Si atom -5590.936917 kJ/mol
# Density = 2.977215 g / cm^3
# Si number density = 29.840064 Si / 1000 Ang^3
#
#
#
# Elastic Constant Matrix: (Units=GPa)
#
#
# Indices 1 2 3 4 5 6 
#
# 1 87.4219 35.9331 52.6492 3.7455 30.0333 3.1442
# 2 35.9331 99.3698 77.2447 23.7374 6.7832 16.0882
# 3 52.6492 77.2447 423.2377 42.0666 56.0331 36.6244
# 4 3.7455 23.7374 42.0666 52.6567 23.7166 16.7561
# 5 30.0333 6.7832 56.0331 23.7166 44.9849 16.9875
# 6 3.1442 16.0882 36.6244 16.7561 16.9875 45.6554
#
#
#
# Elastic Compliance Matrix: (Units=1/GPa)
#
#
# Indices 1 2 3 4 5 6 
#
# 1 0.022216 -0.010387 0.000428 0.010616 -0.021640 0.005943
# 2 -0.010387 0.018080 -0.002468 -0.010393 0.014788 -0.005363
# 3 0.000428 -0.002468 0.003296 0.000426 -0.004076 -0.000443
# 4 0.010616 -0.010393 0.000426 0.033381 -0.023271 -0.001003
# 5 -0.021640 0.014788 -0.004076 -0.023271 0.056705 -0.013009
# 6 0.005943 -0.005363 -0.000443 -0.001003 -0.013009 0.028948
#
#
# Mechanical properties :
#
#
# Convention : Reuss Voigt Hill
#
# Bulk Modulus (GPa) = 53.37194 104.63148 79.00171
# Shear Modulus (GPa) = 25.80956 58.27291 42.04124
#
# Velocity S-wave (km/s) = 2.94416 4.42389 3.75758
# Velocity P-wave (km/s) = 5.42976 7.82526 6.73487
#
# Compressibility (1/GPa) = 0.01873644
#
# Stress axis : x y z
#
# Youngs Moduli (GPa) = 45.01228 55.31045 303.43471
#
# Poissons Ratio (x) = 0.57450 -0.12975
# Poissons Ratio (y) = 0.46754 0.74896
# Poissons Ratio (z) = -0.01925 0.13652
#
# Static dielectric constant tensor:
#      x y z
#    x 2.475380 -0.418670 -0.080220 
#    y -0.418670 4.015470 0.410350 
#    z -0.080220 0.410350 2.453570 
# 
# From -- ./inp_files/301663.got.cif
#   From: 2010.05.17/outbox.cif.g08.bks.cpg/sg2_151_cif.got.tgz:301663.got - 2010.06.03 11:33:40.
