data_PCOD9071235
_publ_section_title
;
Structure prediction by ZEFSAII (Michael W. Deem and Ramdas Pophale) SiO2 
 PCOD9071235
Probable space group: P -1
;
_chemical_formula_sum "Si O2"
_cell_formula_units_Z 16
_cell_length_a 18.009506
_cell_length_b 13.152883
_cell_length_c 8.733980
_cell_angle_alpha 46.455249
_cell_angle_beta 133.346426
_cell_angle_gamma 153.031870
_cell_volume 663.359015
_symmetry_space_group_name_H-M "P -1"
_symmetry_group_IT_number 2
_symmetry_cell_setting 'triclinic'
loop_
_space_group_symop_operation_xyz
x,y,z
-x,-y,-z
loop_
_atom_site_type_symbol
_atom_site_label
_atom_site_fract_x
_atom_site_fract_y
_atom_site_fract_z
Si Si1 0.423305 0.729840 0.322824
Si Si2 0.137512 0.217639 0.352538
Si Si3 0.966557 0.545153 0.556183
Si Si4 0.654410 0.813574 0.324347
Si Si5 0.374864 0.985333 0.379507
Si Si6 0.484739 0.593388 0.017342
Si Si7 0.107156 0.251838 0.931717
Si Si8 0.181140 0.732195 0.944390
O O1 0.258876 0.448565 0.388625
O O2 0.526826 0.766750 0.294057
O O3 0.559898 0.896657 0.479884
O O4 0.329795 0.779494 0.118289
O O5 0.232565 0.185652 0.446195
O O6 0.088749 0.251756 0.092095
O O7 0.000000 0.000000 0.500000
O O8 0.000000 0.500000 0.500000
O O9 0.126954 0.695855 0.730508
O O10 0.798016 0.279236 0.642422
O O11 0.945903 0.680471 0.327432
O O12 0.767740 0.056180 0.155424
O O13 0.560708 0.628593 0.248865
O O14 0.413326 0.162439 0.151129
O O15 0.500000 0.000000 0.500000
O O16 0.500000 0.500000 0.000000
O O17 0.298013 0.433947 0.962749
O O18 0.000000 0.000000 0.000000
O O19 0.000000 0.500000 0.000000
#
# Coordination Sequence:
#
# PCOD9071235 Si02
#       8
#     2   2   2   2   2   2   2   2
#     4  12  26  47  80 111 153 206 264 321 387 464
#     4  12  28  49  79 113 155 205 264 328 397 471
#     4  12  27  48  75 112 158 202 256 320 392 463
#     4  12  26  49  76 111 150 203 264 322 386 470
#     4  12  26  48  78 112 157 206 259 319 391 465
#     4  12  28  47  79 113 158 205 261 320 393 470
#     4  12  29  49  75 111 160 203 261 324 397 468
#     4  12  26  46  76 114 154 201 257 317 391 465
#
# _framework density 24.119668000000001
#
# number of rings (size 3 to 8) (size 9 to 14) (size 15 to 20)
#    0.000    0.000    2.500    6.750    7.000    0.000 
#    0.000    0.000    0.000    0.000    0.000    0.000 
#    0.000    0.000    0.000    0.000    0.000    0.000 
#
# Total GULP energy -89316.265247 kJ/mol
# GULP energy per Si atom -5582.266578 kJ/mol
# Density = 2.406477 g / cm^3
# Si number density = 24.119668 Si / 1000 Ang^3
#
#
#
# Elastic Constant Matrix: (Units=GPa)
#
#
# Indices 1 2 3 4 5 6 
#
# 1 49.6552 -13.9422 -2.5589 3.7097 -17.5690 -10.1020
# 2 -13.9422 115.8775 30.4270 -11.8269 -10.5768 -12.6261
# 3 -2.5589 30.4270 106.1035 -0.1101 -0.9933 -2.3836
# 4 3.7097 -11.8269 -0.1101 60.9906 -12.4462 -8.8678
# 5 -17.5690 -10.5768 -0.9933 -12.4462 39.4261 -0.1520
# 6 -10.1020 -12.6261 -2.3836 -8.8678 -0.1520 45.6781
#
#
#
# Elastic Compliance Matrix: (Units=1/GPa)
#
#
# Indices 1 2 3 4 5 6 
#
# 1 0.029187 0.006609 -0.000832 0.004110 0.016091 0.009090
# 2 0.006609 0.011930 -0.003066 0.004211 0.007418 0.005441
# 3 -0.000832 -0.003066 0.010257 -0.000870 -0.001212 -0.000669
# 4 0.004110 0.004211 -0.000870 0.019689 0.009177 0.005880
# 5 0.016091 0.007418 -0.001212 0.009177 0.037420 0.007452
# 6 0.009090 0.005441 -0.000669 0.005880 0.007452 0.026538
#
#
# Mechanical properties :
#
#
# Convention : Reuss Voigt Hill
#
# Bulk Modulus (GPa) = 17.60706 33.27644 25.44175
# Shear Modulus (GPa) = 33.66334 46.39965 40.03150
#
# Velocity S-wave (km/s) = 3.73993 4.39079 4.07837
# Velocity P-wave (km/s) = 5.09561 6.28743 5.72263
#
# Compressibility (1/GPa) = 0.05679538
#
# Stress axis : x y z
#
# Youngs Moduli (GPa) = 34.26181 83.82416 97.49892
#
# Poissons Ratio (x) = -0.55398 0.08114
# Poissons Ratio (y) = -0.22643 0.29889
# Poissons Ratio (z) = 0.02851 0.25697
#
# Static dielectric constant tensor:
#      x y z
#    x 1.913050 -0.002770 -0.056220 
#    y -0.002770 1.858240 -0.013950 
#    z -0.056220 -0.013950 1.877980 
# 
# From -- ./inp_files/332963.got.cif
#   From: 2010.05.17/outbox.cif.g08.bks.cpg/sg2_167_cif.got.tgz:332963.got - 2010.06.03 11:33:40.
