data_PCOD9071979
_publ_section_title
;
Structure prediction by ZEFSAII (Michael W. Deem and Ramdas Pophale) SiO2 
 PCOD9071979
Probable space group: P -1
;
_chemical_formula_sum "Si O2"
_cell_formula_units_Z 16
_cell_length_a 15.000000
_cell_length_b 15.000000
_cell_length_c 18.000000
_cell_angle_alpha 140.000000
_cell_angle_beta 40.000000
_cell_angle_gamma 160.000000
_cell_volume 870.496911
_symmetry_space_group_name_H-M "P -1"
_symmetry_group_IT_number 2
_symmetry_cell_setting 'triclinic'
loop_
_space_group_symop_operation_xyz
x,y,z
-x,-y,-z
loop_
_atom_site_type_symbol
_atom_site_label
_atom_site_fract_x
_atom_site_fract_y
_atom_site_fract_z
Si Si1 0.344248 0.045312 0.191768
Si Si2 0.188672 0.840827 0.539790
Si Si3 0.473540 0.499669 0.605436
Si Si4 0.242557 0.781919 0.797268
Si Si5 0.945075 0.063054 0.427463
Si Si6 0.219096 0.750703 0.622626
Si Si7 0.161296 0.734596 0.985561
Si Si8 0.838816 0.202745 0.699252
O O1 0.507562 0.322404 0.277055
O O2 0.559177 0.106272 0.098043
O O3 0.148838 0.852606 0.262297
O O4 0.203867 0.912175 0.117130
O O5 0.103942 0.916952 0.609857
O O6 0.177418 0.818010 0.621891
O O7 0.990519 0.553895 0.450072
O O8 0.484382 0.056608 0.458713
O O9 0.500000 0.500000 0.500000
O O10 0.744401 0.674911 0.582741
O O11 0.212436 0.209611 0.623394
O O12 0.192266 0.788072 0.747666
O O13 0.101719 0.711375 0.920717
O O14 0.109803 0.515867 0.710401
O O15 0.563946 0.055872 0.775711
O O16 0.810498 0.058998 0.565936
O O17 0.000000 0.500000 0.000000
#
# Coordination Sequence:
#
# PCOD9071979 Si02
#       8
#     2   2   2   2   2   2   2   2
#     4  10  23  37  48  78 104 141 185 218 265 306
#     4  10  20  32  52  76 111 140 176 208 276 315
#     4  12  26  35  54  77 109 147 185 217 252 323
#     4  11  19  32  53  81 103 141 173 215 275 309
#     4  12  22  36  51  79 107 153 172 214 264 318
#     4  10  18  32  52  80 106 140 171 225 257 332
#     4  10  21  35  57  72 105 142 174 234 265 309
#     4  11  20  31  54  73 111 138 177 213 253 323
#
# _framework density 18.380306000000001
#
# number of rings (size 3 to 8) (size 9 to 14) (size 15 to 20)
#    0.000    1.250    5.000    1.875    3.500    0.000 
#    0.000    0.000    0.000    0.000    0.000    1.750 
#    0.000    0.000    0.000    0.000    0.000    0.000 
#
# Total GULP energy -89118.091787 kJ/mol
# GULP energy per Si atom -5569.880737 kJ/mol
# Density = 1.833847 g / cm^3
# Si number density = 18.380306 Si / 1000 Ang^3
#
#
#
# Elastic Constant Matrix: (Units=GPa)
#
#
# Indices 1 2 3 4 5 6 
#
# 1 118.7399 10.1320 29.6920 2.3464 32.9193 -5.1568
# 2 10.1320 71.1041 2.6209 1.9431 2.2771 3.7471
# 3 29.6920 2.6209 59.4961 15.6032 28.2662 -8.2975
# 4 2.3464 1.9431 15.6032 25.3070 -0.9181 2.6644
# 5 32.9193 2.2771 28.2662 -0.9181 35.0204 -4.4500
# 6 -5.1568 3.7471 -8.2975 2.6644 -4.4500 25.9248
#
#
#
# Elastic Compliance Matrix: (Units=1/GPa)
#
#
# Indices 1 2 3 4 5 6 
#
# 1 0.011573 -0.001306 -0.000315 -0.001234 -0.010481 0.000718
# 2 -0.001306 0.014392 -0.000231 -0.000591 0.000167 -0.002324
# 3 -0.000315 -0.000231 0.040816 -0.027370 -0.032036 0.010348
# 4 -0.001234 -0.000591 -0.027370 0.058549 0.023438 -0.010914
# 5 -0.010481 0.000167 -0.032036 0.023438 0.064395 -0.003718
# 6 0.000718 -0.002324 0.010348 -0.010914 -0.003718 0.042848
#
#
# Mechanical properties :
#
#
# Convention : Reuss Voigt Hill
#
# Bulk Modulus (GPa) = 15.85356 37.13666 26.49511
# Shear Modulus (GPa) = 19.43236 31.04346 25.23791
#
# Velocity S-wave (km/s) = 3.25505 4.11414 3.70955
# Velocity P-wave (km/s) = 4.77191 6.54345 5.72660
#
# Compressibility (1/GPa) = 0.06307732
#
# Stress axis : x y z
#
# Youngs Moduli (GPa) = 86.40619 69.48412 24.50004
#
# Poissons Ratio (x) = 0.09074 0.00772
# Poissons Ratio (y) = 0.11284 0.00566
# Poissons Ratio (z) = 0.02721 0.01605
#
# Static dielectric constant tensor:
#      x y z
#    x 1.717840 0.017540 0.024100 
#    y 0.017540 1.660870 0.001750 
#    z 0.024100 0.001750 1.681470 
# 
# From -- ./inp_files/76491.got.cif
#   From: 2010.05.17/outbox.ucp.g08.bks.cvg/sg2_39_cif.got.tgz:76491.got - 2010.06.11 11:32:03.
