data_PCOD9071580
_publ_section_title
;
Structure prediction by ZEFSAII (Michael W. Deem and Ramdas Pophale) SiO2 
 PCOD9071580
Probable space group: P -1
;
_chemical_formula_sum "Si O2"
_cell_formula_units_Z 10
_cell_length_a 10.801294
_cell_length_b 14.277790
_cell_length_c 5.006674
_cell_angle_alpha 80.285642
_cell_angle_beta 100.813414
_cell_angle_gamma 146.247314
_cell_volume 421.265707
_symmetry_space_group_name_H-M "P -1"
_symmetry_group_IT_number 2
_symmetry_cell_setting 'triclinic'
loop_
_space_group_symop_operation_xyz
x,y,z
-x,-y,-z
loop_
_atom_site_type_symbol
_atom_site_label
_atom_site_fract_x
_atom_site_fract_y
_atom_site_fract_z
Si Si1 0.281255 0.907010 0.318853
Si Si2 0.681699 0.696071 0.951986
Si Si3 0.988078 0.861228 0.499918
Si Si4 0.142183 0.620529 0.246824
Si Si5 0.393796 0.158402 0.871718
O O1 0.173485 0.753094 0.192530
O O2 0.110107 0.836714 0.509654
O O3 0.500000 0.000000 0.500000
O O4 0.345489 0.035517 0.093847
O O5 0.887237 0.818164 0.187649
O O6 0.581847 0.736521 0.971328
O O7 0.500000 0.500000 0.000000
O O8 0.786957 0.744119 0.682040
O O9 0.188414 0.044403 0.635156
O O10 0.385303 0.723869 0.267594
O O11 0.000000 0.500000 0.500000
O O12 0.000000 0.500000 0.000000
#
# Coordination Sequence:
#
# PCOD9071580 Si02
#       5
#     2   2   2   2   2
#     4  12  27  51  81 115 154 203 262 310 381 473
#     4  12  30  50  78 117 154 198 258 326 387 441
#     4  12  27  50  80 108 155 204 261 309 379 463
#     4  12  30  47  76 114 157 196 251 319 386 441
#     4  12  28  50  83 111 155 209 261 308 382 467
#
# _framework density 23.737988000000001
#
# number of rings (size 3 to 8) (size 9 to 14) (size 15 to 20)
#    0.000    0.000    4.000    3.600   11.200    0.000 
#    0.000    0.000    0.000    0.000    0.000    0.000 
#    0.000    0.000    0.000    0.000    0.000    0.000 
#
# Total GULP energy -56024.290130 kJ/mol
# GULP energy per Si atom -5602.429013 kJ/mol
# Density = 2.368396 g / cm^3
# Si number density = 23.737988 Si / 1000 Ang^3
#
#
#
# Elastic Constant Matrix: (Units=GPa)
#
#
# Indices 1 2 3 4 5 6 
#
# 1 164.1743 70.9604 38.2203 -28.4810 -30.7552 -22.1863
# 2 70.9604 149.1844 42.0727 -10.0206 -3.6112 -24.6487
# 3 38.2203 42.0727 127.9272 -10.7163 -6.2945 -7.8309
# 4 -28.4810 -10.0206 -10.7163 45.2352 3.8128 -20.5311
# 5 -30.7552 -3.6112 -6.2945 3.8128 51.2944 -0.4078
# 6 -22.1863 -24.6487 -7.8309 -20.5311 -0.4078 51.7784
#
#
#
# Elastic Compliance Matrix: (Units=1/GPa)
#
#
# Indices 1 2 3 4 5 6 
#
# 1 0.011156 -0.003268 -0.000855 0.008581 0.005768 0.006543
# 2 -0.003268 0.009361 -0.001886 0.001165 -0.001593 0.003220
# 3 -0.000855 -0.001886 0.008866 0.001404 0.000343 0.000636
# 4 0.008581 0.001165 0.001404 0.036447 0.002841 0.018918
# 5 0.005768 -0.001593 0.000343 0.002841 0.022697 0.003070
# 6 0.006543 0.003220 0.000636 0.018918 0.003070 0.031272
#
#
# Mechanical properties :
#
#
# Convention : Reuss Voigt Hill
#
# Bulk Modulus (GPa) = 57.58689 82.64366 70.11527
# Shear Modulus (GPa) = 36.33543 48.99708 42.66626
#
# Velocity S-wave (km/s) = 3.91664 4.54814 4.24415
# Velocity P-wave (km/s) = 6.69070 7.90388 7.32246
#
# Compressibility (1/GPa) = 0.01736506
#
# Stress axis : x y z
#
# Youngs Moduli (GPa) = 89.63550 106.82270 112.78898
#
# Poissons Ratio (x) = 0.34913 0.09644
# Poissons Ratio (y) = 0.29296 0.21272
# Poissons Ratio (z) = 0.07664 0.20146
#
# Static dielectric constant tensor:
#      x y z
#    x 1.998960 -0.004030 0.029570 
#    y -0.004030 1.874320 -0.013590 
#    z 0.029570 -0.013590 1.882900 
# 
# From -- ./inp_files/74343.got.cif
#   From: 2010.05.17/outbox.cif.g08.bks.cpg/sg2_38_cif.got.tgz:74343.got - 2010.06.03 11:33:40.
