data_PCOD9071470
_publ_section_title
;
Structure prediction by ZEFSAII (Michael W. Deem and Ramdas Pophale) SiO2 
 PCOD9071470
Probable space group: P -1
;
_chemical_formula_sum "Si O2"
_cell_formula_units_Z 13
_cell_length_a 5.667122
_cell_length_b 9.454119
_cell_length_c 11.352432
_cell_angle_alpha 110.150808
_cell_angle_beta 97.177159
_cell_angle_gamma 64.990487
_cell_volume 517.313780
_symmetry_space_group_name_H-M "P -1"
_symmetry_group_IT_number 2
_symmetry_cell_setting 'triclinic'
loop_
_space_group_symop_operation_xyz
x,y,z
-x,-y,-z
loop_
_atom_site_type_symbol
_atom_site_label
_atom_site_fract_x
_atom_site_fract_y
_atom_site_fract_z
Si Si1 0.358409 0.626982 0.314835
Si Si2 0.703303 0.776263 0.670052
Si Si3 0.241801 0.988051 0.429359
Si Si4 0.500000 0.500000 0.500000
Si Si5 0.182011 0.677172 0.817496
Si Si6 0.697176 0.006886 0.115633
Si Si7 0.884236 0.366631 0.943761
O O1 0.363020 0.800650 0.336669
O O2 0.251659 0.620219 0.434621
O O3 0.625408 0.458155 0.302006
O O4 0.228920 0.598951 0.183429
O O5 0.608483 0.653185 0.560566
O O6 0.457115 0.924845 0.753961
O O7 0.897026 0.692943 0.768026
O O8 0.848022 0.868793 0.632211
O O9 0.500000 0.000000 0.500000
O O10 0.000000 0.000000 0.500000
O O11 0.195539 0.854170 0.866708
O O12 0.269122 0.612673 0.936512
O O13 0.914118 0.824317 0.092976
O O14 0.500000 0.000000 0.000000
O O15 0.000000 0.500000 0.000000
#
# Coordination Sequence:
#
# PCOD9071470 Si02
#       7
#     2   2   2   1   2   2   2
#     4  12  28  48  80 115 162 216 279 342 420 500
#     4  12  28  52  83 116 164 219 282 349 427 507
#     4  12  31  54  80 122 166 221 283 346 422 505
#     4  12  26  54  74 116 160 220 274 344 410 504
#     4  12  27  51  78 117 159 216 275 346 424 502
#     4  12  26  50  81 119 163 213 273 337 430 504
#     4  12  27  48  78 117 164 211 275 349 417 501
#
# _framework density 25.129812000000001
#
# number of rings (size 3 to 8) (size 9 to 14) (size 15 to 20)
#    0.000    0.000    4.615    3.692   10.769    1.846 
#    0.000    0.000    0.000    0.000    0.000    0.000 
#    0.000    0.000    0.000    0.000    0.000    0.000 
#
# Total GULP energy -72466.396559 kJ/mol
# GULP energy per Si atom -5574.338197 kJ/mol
# Density = 2.507262 g / cm^3
# Si number density = 25.129812 Si / 1000 Ang^3
#
#
#
# Elastic Constant Matrix: (Units=GPa)
#
#
# Indices 1 2 3 4 5 6 
#
# 1 76.9711 37.5393 43.3021 7.4188 16.2173 22.0793
# 2 37.5393 157.9115 62.7196 13.6305 4.3681 31.4998
# 3 43.3021 62.7196 111.8235 14.7287 47.3402 21.0226
# 4 7.4188 13.6305 14.7287 69.4972 1.4908 3.7844
# 5 16.2173 4.3681 47.3402 1.4908 51.5606 2.1899
# 6 22.0793 31.4998 21.0226 3.7844 2.1899 49.2829
#
#
#
# Elastic Compliance Matrix: (Units=1/GPa)
#
#
# Indices 1 2 3 4 5 6 
#
# 1 0.018053 -0.001260 -0.004932 -0.000339 -0.000816 -0.005116
# 2 -0.001260 0.009897 -0.007091 -0.000274 0.006203 -0.002991
# 3 -0.004932 -0.007091 0.023945 -0.002605 -0.019656 -0.002399
# 4 -0.000339 -0.000274 -0.002605 0.014976 0.002080 0.000196
# 5 -0.000816 0.006203 -0.019656 0.002080 0.036986 0.002982
# 6 -0.005116 -0.002991 -0.002399 0.000196 0.002982 0.025371
#
#
# Mechanical properties :
#
#
# Convention : Reuss Voigt Hill
#
# Bulk Modulus (GPa) = 39.48019 70.42536 54.95278
# Shear Modulus (GPa) = 30.44348 47.61115 39.02731
#
# Velocity S-wave (km/s) = 3.48436 4.35743 3.94512
# Velocity P-wave (km/s) = 5.65087 7.30765 6.53200
#
# Compressibility (1/GPa) = 0.02532916
#
# Stress axis : x y z
#
# Youngs Moduli (GPa) = 55.39094 101.03619 41.76206
#
# Poissons Ratio (x) = 0.12735 0.20597
# Poissons Ratio (y) = 0.06982 0.29614
# Poissons Ratio (z) = 0.27319 0.71645
#
# Static dielectric constant tensor:
#      x y z
#    x 1.865540 -0.150270 0.196050 
#    y -0.150270 1.945500 0.125030 
#    z 0.196050 0.125030 1.749800 
# 
# From -- ./inp_files/23852.got.cif
#   From: 2010.05.17/outbox.cif.g08.bks.cpg/sg2_12_cif.got.tgz:23852.got - 2010.06.03 11:33:40.
