data_PCOD9071880
_publ_section_title
;
Structure prediction by ZEFSAII (Michael W. Deem and Ramdas Pophale) SiO2 
 PCOD9071880
Probable space group: P -1
;
_chemical_formula_sum "Si O2"
_cell_formula_units_Z 16
_cell_length_a 12.877441
_cell_length_b 15.572158
_cell_length_c 5.263178
_cell_angle_alpha 85.605862
_cell_angle_beta 81.228586
_cell_angle_gamma 129.464493
_cell_volume 784.170130
_symmetry_space_group_name_H-M "P -1"
_symmetry_group_IT_number 2
_symmetry_cell_setting 'triclinic'
loop_
_space_group_symop_operation_xyz
x,y,z
-x,-y,-z
loop_
_atom_site_type_symbol
_atom_site_label
_atom_site_fract_x
_atom_site_fract_y
_atom_site_fract_z
Si Si1 0.720195 0.353944 0.355704
Si Si2 0.042394 0.708212 0.215292
Si Si3 0.424105 0.356757 0.800706
Si Si4 0.403364 0.542921 0.785753
Si Si5 0.727727 0.299232 0.872832
Si Si6 0.023525 0.426101 0.243126
Si Si7 0.158162 0.136140 0.183778
Si Si8 0.009384 0.120139 0.734643
O O1 0.707449 0.446419 0.265040
O O2 0.649154 0.291818 0.660767
O O3 0.876466 0.398964 0.319517
O O4 0.648481 0.264084 0.173295
O O5 0.198298 0.752419 0.173794
O O6 0.960042 0.619649 0.497948
O O7 0.034278 0.804754 0.239651
O O8 0.991362 0.645323 0.975397
O O9 0.361821 0.420758 0.807617
O O10 0.475394 0.373785 0.488274
O O11 0.549311 0.422220 0.946909
O O12 0.311372 0.233321 0.993476
O O13 0.854702 0.437469 0.836319
O O14 0.122815 0.165363 0.456073
O O15 0.064315 0.123048 0.991790
O O16 0.113731 0.012839 0.260205
#
# Coordination Sequence:
#
# PCOD9071880 Si02
#       8
#     2   2   2   2   2   2   2   2
#     4  10  18  30  47  68  98 133 161 203 245 295
#     4  10  18  30  46  69 103 132 156 199 244 300
#     4  10  21  37  52  73 102 132 170 220 255 290
#     4  10  21  35  52  75 100 133 178 207 248 307
#     4  10  19  30  45  72 104 132 166 201 248 310
#     4  10  19  30  45  72 104 132 166 201 248 310
#     4  10  21  37  55  76 105 133 170 219 257 298
#     4  10  21  35  54  81 103 133 174 206 255 317
#
# _framework density 20.403735000000001
#
# number of rings (size 3 to 8) (size 9 to 14) (size 15 to 20)
#    0.000    2.000    0.000    6.000    0.000    4.000 
#    0.000    0.000    0.000    0.000    0.000   21.000 
#    0.000    0.000    0.000    0.000    0.000    0.000 
#
# Total GULP energy -89216.526886 kJ/mol
# GULP energy per Si atom -5576.032930 kJ/mol
# Density = 2.035730 g / cm^3
# Si number density = 20.403735 Si / 1000 Ang^3
#
#
#
# Elastic Constant Matrix: (Units=GPa)
#
#
# Indices 1 2 3 4 5 6 
#
# 1 71.2891 38.5113 17.1774 9.6527 8.3406 -33.6868
# 2 38.5113 60.4371 25.8989 3.1579 -3.1691 -27.7889
# 3 17.1774 25.8989 124.1068 21.4594 14.3387 -14.1071
# 4 9.6527 3.1579 21.4594 30.7107 4.6767 -7.3633
# 5 8.3406 -3.1691 14.3387 4.6767 30.4437 -2.3694
# 6 -33.6868 -27.7889 -14.1071 -7.3633 -2.3694 29.4657
#
#
#
# Elastic Compliance Matrix: (Units=1/GPa)
#
#
# Indices 1 2 3 4 5 6 
#
# 1 0.033857 -0.009047 0.002031 -0.002702 -0.008440 0.029794
# 2 -0.009047 0.035517 -0.005941 0.007373 0.009625 0.022926
# 3 0.002031 -0.005941 0.010770 -0.006818 -0.005219 -0.000248
# 4 -0.002702 0.007373 -0.006818 0.040041 -0.000610 0.010558
# 5 -0.008440 0.009625 -0.005219 -0.000610 0.038705 -0.000111
# 6 0.029794 0.022926 -0.000248 0.010558 -0.000111 0.092132
#
#
# Mechanical properties :
#
#
# Convention : Reuss Voigt Hill
#
# Bulk Modulus (GPa) = 18.43964 46.55647 32.49806
# Shear Modulus (GPa) = 16.94839 29.74038 23.34439
#
# Velocity S-wave (km/s) = 2.88523 3.82199 3.38616
# Velocity P-wave (km/s) = 4.48959 6.50722 5.59019
#
# Compressibility (1/GPa) = 0.05423098
#
# Stress axis : x y z
#
# Youngs Moduli (GPa) = 29.53558 28.15538 92.85133
#
# Poissons Ratio (x) = 0.25471 -0.18856
# Poissons Ratio (y) = 0.26720 0.55161
# Poissons Ratio (z) = -0.05998 0.16727
#
# Static dielectric constant tensor:
#      x y z
#    x 1.766810 0.011500 -0.028190 
#    y 0.011500 1.716720 0.040100 
#    z -0.028190 0.040100 1.867790 
# 
# From -- ./inp_files/77590.got.cif
#   From: 2010.05.17/outbox.cif.g08.bks.cpg/sg2_39_cif.got.tgz:77590.got - 2010.06.03 11:33:40.
