data_PCOD9071404
_publ_section_title
;
Structure prediction by ZEFSAII (Michael W. Deem and Ramdas Pophale) SiO2 
 PCOD9071404
Probable space group: P -1
;
_chemical_formula_sum "Si O2"
_cell_formula_units_Z 15
_cell_length_a 5.638878
_cell_length_b 11.994659
_cell_length_c 11.163059
_cell_angle_alpha 83.707980
_cell_angle_beta 80.341775
_cell_angle_gamma 122.245864
_cell_volume 611.313448
_symmetry_space_group_name_H-M "P -1"
_symmetry_group_IT_number 2
_symmetry_cell_setting 'triclinic'
loop_
_space_group_symop_operation_xyz
x,y,z
-x,-y,-z
loop_
_atom_site_type_symbol
_atom_site_label
_atom_site_fract_x
_atom_site_fract_y
_atom_site_fract_z
Si Si1 0.134743 0.651652 0.428717
Si Si2 0.722026 0.827646 0.267309
Si Si3 0.000000 0.500000 0.000000
Si Si4 0.194674 0.329938 0.338666
Si Si5 0.815756 0.933812 0.644330
Si Si6 0.805448 0.600773 0.222917
Si Si7 0.746518 0.017787 0.066775
Si Si8 0.794476 0.246681 0.181594
O O1 0.481565 0.741803 0.399509
O O2 0.000000 0.500000 0.500000
O O3 0.989092 0.703859 0.521000
O O4 0.043663 0.643265 0.300353
O O5 0.757006 0.721502 0.205223
O O6 0.602731 0.899333 0.191448
O O7 0.021391 0.949356 0.283997
O O8 0.112217 0.434538 0.903740
O O9 0.252012 0.657417 0.908796
O O10 0.173993 0.196121 0.318910
O O11 0.512463 0.464149 0.312210
O O12 0.048282 0.355868 0.236183
O O13 0.471001 0.863286 0.697518
O O14 0.000000 0.000000 0.500000
O O15 0.872720 0.160380 0.104661
O O16 0.500000 0.000000 0.000000
O O17 0.000000 0.000000 0.000000
#
# Coordination Sequence:
#
# PCOD9071404 Si02
#       8
#     2   2   1   2   2   2   2   2
#     4  12  27  47  80 119 158 212 276 341 413 503
#     4  12  28  49  80 119 158 218 274 340 426 496
#     4  12  28  50  80 108 162 210 270 332 400 500
#     4  12  26  49  77 115 160 205 272 340 416 488
#     4  12  27  48  80 118 165 212 271 344 427 499
#     4  12  28  50  79 119 161 215 278 337 421 499
#     4  12  29  51  80 115 166 221 280 344 417 506
#     4  12  28  50  78 120 159 215 276 340 422 499
#
# _framework density 24.537330999999998
#
# number of rings (size 3 to 8) (size 9 to 14) (size 15 to 20)
#    0.000    0.000    4.000    4.400    9.333    1.600 
#    0.000    0.000    0.000    0.000    0.000    0.000 
#    0.000    0.000    0.000    0.000    0.000    0.000 
#
# Total GULP energy -83726.526225 kJ/mol
# GULP energy per Si atom -5581.768415 kJ/mol
# Density = 2.448148 g / cm^3
# Si number density = 24.537331 Si / 1000 Ang^3
#
#
#
# Elastic Constant Matrix: (Units=GPa)
#
#
# Indices 1 2 3 4 5 6 
#
# 1 72.6133 39.7257 21.9476 12.7074 -13.0308 -10.3008
# 2 39.7257 162.7113 41.1974 1.8199 -13.6561 -19.7317
# 3 21.9476 41.1974 72.6547 2.5315 -29.5878 -15.8216
# 4 12.7074 1.8199 2.5315 45.9520 -10.7746 -7.4978
# 5 -13.0308 -13.6561 -29.5878 -10.7746 47.3192 2.6821
# 6 -10.3008 -19.7317 -15.8216 -7.4978 2.6821 54.2026
#
#
#
# Elastic Compliance Matrix: (Units=1/GPa)
#
#
# Indices 1 2 3 4 5 6 
#
# 1 0.017437 -0.003376 -0.002544 -0.004139 0.001254 0.000708
# 2 -0.003376 0.007957 -0.003509 0.000872 -0.000707 0.001387
# 3 -0.002544 -0.003509 0.022722 0.003407 0.013004 0.004700
# 4 -0.004139 0.000872 0.003407 0.024846 0.006694 0.003631
# 5 0.001254 -0.000707 0.013004 0.006694 0.030749 0.003181
# 6 0.000708 0.001387 0.004700 0.003631 0.003181 0.020805
#
#
# Mechanical properties :
#
#
# Convention : Reuss Voigt Hill
#
# Bulk Modulus (GPa) = 34.17679 57.08006 45.62842
# Shear Modulus (GPa) = 32.65242 43.16868 37.91055
#
# Velocity S-wave (km/s) = 3.65187 4.19896 3.93493
# Velocity P-wave (km/s) = 5.63385 6.84261 6.26744
#
# Compressibility (1/GPa) = 0.02925962
#
# Stress axis : x y z
#
# Youngs Moduli (GPa) = 57.34894 125.66791 44.00971
#
# Poissons Ratio (x) = 0.42422 0.11197
# Poissons Ratio (y) = 0.19359 0.15442
# Poissons Ratio (z) = 0.14591 0.44094
#
# Static dielectric constant tensor:
#      x y z
#    x 2.068680 -0.043820 -0.037530 
#    y -0.043820 1.877570 -0.009410 
#    z -0.037530 -0.009410 2.067040 
# 
# From -- ./inp_files/364516.got.cif
#   From: 2010.05.17/outbox.cif.g08.bks.cpg/sg2_183_cif.got.tgz:364516.got - 2010.06.03 11:33:40.
