data_PCOD9071363
_publ_section_title
;
Structure prediction by ZEFSAII (Michael W. Deem and Ramdas Pophale) SiO2 
 PCOD9071363
Probable space group: P -1
;
_chemical_formula_sum "Si O2"
_cell_formula_units_Z 10
_cell_length_a 11.919840
_cell_length_b 14.594028
_cell_length_c 8.833749
_cell_angle_alpha 126.625730
_cell_angle_beta 51.035139
_cell_angle_gamma 159.976880
_cell_volume 409.015970
_symmetry_space_group_name_H-M "P -1"
_symmetry_group_IT_number 2
_symmetry_cell_setting 'triclinic'
loop_
_space_group_symop_operation_xyz
x,y,z
-x,-y,-z
loop_
_atom_site_type_symbol
_atom_site_label
_atom_site_fract_x
_atom_site_fract_y
_atom_site_fract_z
Si Si1 0.468586 0.256723 0.565880
Si Si2 0.676365 0.875228 0.113712
Si Si3 0.268046 0.369959 0.869257
Si Si4 0.235659 0.893938 0.203606
Si Si5 0.207387 0.740523 0.385780
O O1 0.251587 0.066356 0.710333
O O2 0.414648 0.351979 0.679718
O O3 0.847418 0.493565 0.526924
O O4 0.388628 0.124122 0.356620
O O5 0.348104 0.717655 0.200961
O O6 0.555061 0.659677 0.973166
O O7 0.978361 0.136927 0.011099
O O8 0.080197 0.300448 0.823882
O O9 0.155691 0.773000 0.307893
O O10 0.500000 0.000000 0.000000
O O11 0.500000 0.000000 0.500000
#
# Coordination Sequence:
#
# PCOD9071363 Si02
#       5
#     2   2   2   2   2
#     4  12  28  47  78 111 153 199 253 314 374 449
#     4  12  26  50  78 111 154 200 251 305 376 457
#     4  12  29  49  78 116 154 196 250 314 383 443
#     4  12  27  48  77 109 154 201 250 313 377 449
#     4  12  26  48  79 109 150 202 260 306 374 450
#
# _framework density 24.448924000000002
#
# number of rings (size 3 to 8) (size 9 to 14) (size 15 to 20)
#    0.000    0.000    4.000    4.800    5.600    2.400 
#    0.000    0.000    0.000    0.000    0.000    0.000 
#    0.000    0.000    0.000    0.000    0.000    0.000 
#
# Total GULP energy -56072.836210 kJ/mol
# GULP energy per Si atom -5607.283621 kJ/mol
# Density = 2.439328 g / cm^3
# Si number density = 24.448924 Si / 1000 Ang^3
#
#
#
# Elastic Constant Matrix: (Units=GPa)
#
#
# Indices 1 2 3 4 5 6 
#
# 1 145.1217 8.0848 44.4677 -8.7388 -12.7064 12.7424
# 2 8.0848 91.4953 43.7164 -20.4235 8.6006 -2.9433
# 3 44.4677 43.7164 145.6537 9.0891 -22.5277 -0.6882
# 4 -8.7388 -20.4235 9.0891 41.3471 5.5763 -4.8326
# 5 -12.7064 8.6006 -22.5277 5.5763 63.2151 -1.5414
# 6 12.7424 -2.9433 -0.6882 -4.8326 -1.5414 48.3019
#
#
#
# Elastic Compliance Matrix: (Units=1/GPa)
#
#
# Indices 1 2 3 4 5 6 
#
# 1 0.008079 0.001285 -0.003022 0.002783 0.000082 -0.001815
# 2 0.001285 0.017361 -0.007175 0.011367 -0.005625 0.001574
# 3 -0.003022 -0.007175 0.011170 -0.007318 0.004994 -0.000054
# 4 0.002783 0.011367 -0.007318 0.033215 -0.006452 0.002971
# 5 0.000082 -0.005625 0.004994 -0.006452 0.018941 -0.000334
# 6 -0.001815 0.001574 -0.000054 0.002971 -0.000334 0.021564
#
#
# Mechanical properties :
#
#
# Convention : Reuss Voigt Hill
#
# Bulk Modulus (GPa) = 53.22745 63.86762 58.54754
# Shear Modulus (GPa) = 37.19804 49.63960 43.41882
#
# Velocity S-wave (km/s) = 3.90482 4.51082 4.21871
# Velocity P-wave (km/s) = 6.49217 7.30134 6.90861
#
# Compressibility (1/GPa) = 0.01878730
#
# Stress axis : x y z
#
# Youngs Moduli (GPa) = 123.77318 57.60117 89.52280
#
# Poissons Ratio (x) = -0.07402 0.27052
# Poissons Ratio (y) = -0.15905 0.64231
# Poissons Ratio (z) = 0.37402 0.41328
#
# Static dielectric constant tensor:
#      x y z
#    x 1.944930 -0.040220 -0.027640 
#    y -0.040220 1.991130 -0.019540 
#    z -0.027640 -0.019540 2.000500 
# 
# From -- ./inp_files/15220.got.cif
#   From: 2010.05.17/outbox.cif.g08.bks.cpg/sg2_8_cif.got.tgz:15220.got - 2010.06.03 11:33:40.
