data_PCOD9071427
_publ_section_title
;
Structure prediction by ZEFSAII (Michael W. Deem and Ramdas Pophale) SiO2 
 PCOD9071427
Probable space group: P -1
;
_chemical_formula_sum "Si O2"
_cell_formula_units_Z 13
_cell_length_a 14.376441
_cell_length_b 14.832959
_cell_length_c 9.306355
_cell_angle_alpha 127.628141
_cell_angle_beta 51.288439
_cell_angle_gamma 159.157925
_cell_volume 548.528522
_symmetry_space_group_name_H-M "P -1"
_symmetry_group_IT_number 2
_symmetry_cell_setting 'triclinic'
loop_
_space_group_symop_operation_xyz
x,y,z
-x,-y,-z
loop_
_atom_site_type_symbol
_atom_site_label
_atom_site_fract_x
_atom_site_fract_y
_atom_site_fract_z
Si Si1 0.525539 0.863626 0.974787
Si Si2 0.194495 0.274320 0.087546
Si Si3 0.869920 0.677345 0.109982
Si Si4 0.509365 0.963879 0.617523
Si Si5 0.941763 0.160327 0.497107
Si Si6 0.821775 0.410685 0.203233
Si Si7 0.000000 0.000000 0.500000
O O1 0.407182 0.858118 0.189622
O O2 0.462951 0.836847 0.843813
O O3 0.376114 0.616856 0.907447
O O4 0.838620 0.125677 0.951731
O O5 0.138226 0.286123 0.304080
O O6 0.500000 0.500000 0.000000
O O7 0.134725 0.299228 0.031273
O O8 0.000000 0.000000 0.000000
O O9 0.862690 0.785194 0.317720
O O10 0.225514 0.684749 0.688837
O O11 0.500000 0.000000 0.500000
O O12 0.698456 0.015782 0.508928
O O13 0.083821 0.381326 0.663900
O O14 0.895803 0.014120 0.503678
O O15 0.000000 0.500000 0.000000
#
# Coordination Sequence:
#
# PCOD9071427 Si02
#       7
#     2   2   2   2   2   2   1
#     4  12  26  49  80 115 159 212 268 342 411 489
#     4  12  28  51  76 113 166 216 274 335 409 499
#     4  12  27  48  79 114 162 212 271 334 414 487
#     4  12  29  50  81 118 166 214 279 344 420 500
#     4  12  28  50  83 116 161 215 277 340 416 500
#     4  12  26  49  81 120 164 217 273 345 418 496
#     4  12  26  50  76 120 158 210 274 334 404 486
#
# _framework density 23.699770000000001
#
# number of rings (size 3 to 8) (size 9 to 14) (size 15 to 20)
#    0.000    0.000    4.615    4.154    4.308    2.462 
#    0.000    0.000    0.000    0.000    0.000    0.000 
#    0.000    0.000    0.000    0.000    0.000    0.000 
#
# Total GULP energy -72556.695544 kJ/mol
# GULP energy per Si atom -5581.284273 kJ/mol
# Density = 2.364583 g / cm^3
# Si number density = 23.699770 Si / 1000 Ang^3
#
#
#
# Elastic Constant Matrix: (Units=GPa)
#
#
# Indices 1 2 3 4 5 6 
#
# 1 168.7032 48.6912 57.6624 -12.6047 13.2345 -21.6828
# 2 48.6912 111.7814 45.8623 -5.4623 -13.3985 -11.4982
# 3 57.6624 45.8623 155.2321 -3.2961 -20.5612 -19.0931
# 4 -12.6047 -5.4623 -3.2961 43.2941 -14.1492 -9.2950
# 5 13.2345 -13.3985 -20.5612 -14.1492 48.8410 4.1577
# 6 -21.6828 -11.4982 -19.0931 -9.2950 4.1577 53.9976
#
#
#
# Elastic Compliance Matrix: (Units=1/GPa)
#
#
# Indices 1 2 3 4 5 6 
#
# 1 0.008255 -0.002762 -0.002456 0.001093 -0.003912 0.002347
# 2 -0.002762 0.011471 -0.001750 0.001859 0.003633 0.000755
# 3 -0.002456 -0.001750 0.008643 0.001409 0.004094 0.001625
# 4 0.001093 0.001859 0.001409 0.027659 0.008356 0.005451
# 5 -0.003912 0.003633 0.004094 0.008356 0.026672 0.000035
# 6 0.002347 0.000755 0.001625 0.005451 0.000035 0.021133
#
#
# Mechanical properties :
#
#
# Convention : Reuss Voigt Hill
#
# Bulk Modulus (GPa) = 69.28407 82.23871 75.76139
# Shear Modulus (GPa) = 40.78980 48.12660 44.45820
#
# Velocity S-wave (km/s) = 4.15312 4.51119 4.33586
# Velocity P-wave (km/s) = 7.23156 7.86829 7.55663
#
# Compressibility (1/GPa) = 0.01443333
#
# Stress axis : x y z
#
# Youngs Moduli (GPa) = 121.14588 87.17748 115.69565
#
# Poissons Ratio (x) = 0.24076 0.28420
# Poissons Ratio (y) = 0.33457 0.20241
# Poissons Ratio (z) = 0.29759 0.15252
#
# Static dielectric constant tensor:
#      x y z
#    x 2.016320 0.025290 -0.007600 
#    y 0.025290 1.928240 -0.043060 
#    z -0.007600 -0.043060 1.878290 
# 
# From -- ./inp_files/315842.got.cif
#   From: 2010.05.17/outbox.cif.g08.bks.cpg/sg2_158_cif.got.tgz:315842.got - 2010.06.03 11:33:40.
