data_PCOD9071955
_publ_section_title
;
Structure prediction by ZEFSAII (Michael W. Deem and Ramdas Pophale) SiO2 
 PCOD9071955
Probable space group: P -1
;
_chemical_formula_sum "Si O2"
_cell_formula_units_Z 16
_cell_length_a 9.000000
_cell_length_b 15.000000
_cell_length_c 15.000000
_cell_angle_alpha 40.000000
_cell_angle_beta 40.000000
_cell_angle_gamma 60.000000
_cell_volume 817.999524
_symmetry_space_group_name_H-M "P -1"
_symmetry_group_IT_number 2
_symmetry_cell_setting 'triclinic'
loop_
_space_group_symop_operation_xyz
x,y,z
-x,-y,-z
loop_
_atom_site_type_symbol
_atom_site_label
_atom_site_fract_x
_atom_site_fract_y
_atom_site_fract_z
Si Si1 0.955282 0.848602 0.878099
Si Si2 0.268798 0.826998 0.592304
Si Si3 0.059920 0.677144 0.642910
Si Si4 0.409064 0.389632 0.366758
Si Si5 0.911507 0.825031 0.430007
Si Si6 0.534772 0.604467 0.988669
Si Si7 0.362674 0.449405 0.692785
Si Si8 0.457694 0.862321 0.728932
O O1 0.031140 0.833247 0.751758
O O2 0.202241 0.840367 0.819148
O O3 0.939488 0.013919 0.773500
O O4 0.748674 0.717212 0.106523
O O5 0.229560 0.799358 0.526952
O O6 0.375717 0.693943 0.677827
O O7 0.451999 0.975078 0.408859
O O8 0.146104 0.531016 0.724357
O O9 0.031736 0.731971 0.514388
O O10 0.815103 0.654640 0.825840
O O11 0.176748 0.267301 0.546862
O O12 0.459452 0.474280 0.370655
O O13 0.423546 0.509570 0.193869
O O14 0.667072 0.837282 0.585059
O O15 0.440430 0.745177 0.903274
O O16 0.500000 0.500000 0.000000
O O17 0.500000 0.500000 0.500000
#
# Coordination Sequence:
#
# PCOD9071955 Si02
#       8
#     2   2   2   2   2   2   2   2
#     4  11  19  35  59  82 116 148 183 216 285 335
#     4  10  18  32  54  90 115 147 171 220 283 352
#     4  10  21  34  57  81 120 142 182 227 285 327
#     4  11  19  36  57  82 116 144 183 225 281 329
#     4  10  19  34  58  89 114 143 173 224 282 347
#     4  11  18  29  54  91 117 143 170 218 280 345
#     4  11  26  42  56  75 109 152 201 240 266 314
#     4  10  18  30  55  89 128 136 171 217 283 351
#
# _framework density 19.559913999999999
#
# number of rings (size 3 to 8) (size 9 to 14) (size 15 to 20)
#    0.000    1.500    5.000    3.000    0.000    7.500 
#    0.000    1.875    0.000    0.000    0.000    0.000 
#    0.000    0.000    0.000    0.000    0.000    0.000 
#
# Total GULP energy -89185.203680 kJ/mol
# GULP energy per Si atom -5574.075230 kJ/mol
# Density = 1.951539 g / cm^3
# Si number density = 19.559914 Si / 1000 Ang^3
#
#
#
# Elastic Constant Matrix: (Units=GPa)
#
#
# Indices 1 2 3 4 5 6 
#
# 1 85.5178 26.9995 34.1445 -17.5793 6.7922 19.4236
# 2 26.9995 29.4123 40.3090 -30.3200 9.1782 14.3012
# 3 34.1445 40.3090 105.2593 -40.1271 9.9920 25.6747
# 4 -17.5793 -30.3200 -40.1271 31.3534 -1.4375 -1.6226
# 5 6.7922 9.1782 9.9920 -1.4375 27.7978 -9.2291
# 6 19.4236 14.3012 25.6747 -1.6226 -9.2291 29.7895
#
#
#
# Elastic Compliance Matrix: (Units=1/GPa)
#
#
# Indices 1 2 3 4 5 6 
#
# 1 0.016924 -0.008132 0.001838 0.003205 -0.005329 -0.010191
# 2 -0.008132 -0.043704 -0.030819 -0.081044 0.043899 0.062032
# 3 0.001838 -0.030819 0.020712 -0.002444 0.000779 -0.004146
# 4 0.003205 -0.081044 -0.002444 -0.043382 0.040963 0.049251
# 5 -0.005329 0.043899 0.000779 0.040963 0.021506 -0.009378
# 6 -0.010191 0.062032 -0.004146 0.049251 -0.009378 0.013784
#
#
# Mechanical properties :
#
#
# Convention : Reuss Voigt Hill
#
# Bulk Modulus (GPa) = -12.45407 47.01060 17.27826
# Shear Modulus (GPa) = 150.13801 25.70390 87.92095
#
# Velocity S-wave (km/s) = 8.77067 3.62900 6.71172
# Velocity P-wave (km/s) = 9.80741 6.45336 8.30154
#
# Compressibility (1/GPa) = -0.08029502
#
# Stress axis : x y z
#
# Youngs Moduli (GPa) = 59.08791 -22.88137 48.28136
#
# Poissons Ratio (x) = -0.18608 -0.08874
# Poissons Ratio (y) = 0.48052 1.48799
# Poissons Ratio (z) = -0.10860 -0.70519
#
# Static dielectric constant tensor:
#      x y z
#    x 1.844180 0.050820 -0.039110 
#    y 0.050820 1.730950 -0.022180 
#    z -0.039110 -0.022180 1.674950 
# 
# From -- ./inp_files/175321.got.cif
#   From: 2010.05.17/outbox.ucp.g08.bks.cvg/sg2_88_cif.got.tgz:175321.got - 2010.06.11 11:32:03.
