data_PCOD9071810
_publ_section_title
;
Structure prediction by ZEFSAII (Michael W. Deem and Ramdas Pophale) SiO2 
 PCOD9071810
Probable space group: P -1
;
_chemical_formula_sum "Si O2"
_cell_formula_units_Z 14
_cell_length_a 18.000000
_cell_length_b 12.000000
_cell_length_c 9.000000
_cell_angle_alpha 70.000000
_cell_angle_beta 90.000000
_cell_angle_gamma 30.000000
_cell_volume 709.019793
_symmetry_space_group_name_H-M "P -1"
_symmetry_group_IT_number 2
_symmetry_cell_setting 'triclinic'
loop_
_space_group_symop_operation_xyz
x,y,z
-x,-y,-z
loop_
_atom_site_type_symbol
_atom_site_label
_atom_site_fract_x
_atom_site_fract_y
_atom_site_fract_z
Si Si1 0.257239 0.364270 0.095615
Si Si2 0.583692 0.692896 0.484205
Si Si3 0.009254 0.398795 0.188070
Si Si4 0.214815 0.084264 0.862512
Si Si5 0.458332 0.864528 0.736894
Si Si6 0.612482 0.221589 0.677381
Si Si7 0.867159 0.461824 0.651699
O O1 0.372021 0.315792 0.096585
O O2 0.136428 0.546833 0.164816
O O3 0.420793 0.028699 0.291301
O O4 0.132253 0.500354 0.898458
O O5 0.543523 0.708465 0.645847
O O6 0.544901 0.649580 0.387076
O O7 0.785042 0.462147 0.585594
O O8 0.924771 0.599452 0.232109
O O9 0.227592 0.038071 0.333138
O O10 0.000000 0.500000 0.000000
O O11 0.077141 0.192899 0.734187
O O12 0.371732 0.895507 0.831984
O O13 0.296192 0.915460 0.095969
O O14 0.286384 0.210692 0.541924
O O15 0.500000 0.500000 0.500000
#
# Coordination Sequence:
#
# PCOD9071810 Si02
#       7
#     2   2   2   2   2   2   2
#     4   9  14  30  51  81 104 136 161 213 262 312
#     4   9  17  34  52  77 109 137 166 213 264 311
#     4  10  16  30  55  76 104 130 177 214 256 299
#     4  11  19  33  56  86 104 131 177 220 256 310
#     4   9  19  28  54  86 113 126 166 219 273 303
#     4  11  22  36  55  75 102 145 184 212 251 312
#     4   9  16  29  52  78 109 134 165 209 265 312
#
# _framework density 19.745570000000001
#
# number of rings (size 3 to 8) (size 9 to 14) (size 15 to 20)
#    0.000    2.286    5.714    3.000    0.000    0.571 
#    0.000    1.429    0.000    0.857    0.000    0.000 
#    0.000    0.000    0.000    0.000    0.000    0.000 
#
# Total GULP energy -77957.948727 kJ/mol
# GULP energy per Si atom -5568.424909 kJ/mol
# Density = 1.970063 g / cm^3
# Si number density = 19.745570 Si / 1000 Ang^3
#
#
#
# Elastic Constant Matrix: (Units=GPa)
#
#
# Indices 1 2 3 4 5 6 
#
# 1 96.1703 14.0242 46.9390 -17.0932 42.3932 -36.3712
# 2 14.0242 13.4292 6.7359 -8.4985 -5.0940 -11.7411
# 3 46.9390 6.7359 55.3941 -7.1833 15.7786 -0.8761
# 4 -17.0932 -8.4985 -7.1833 9.1968 1.7677 -5.9891
# 5 42.3932 -5.0940 15.7786 1.7677 36.1329 0.2456
# 6 -36.3712 -11.7411 -0.8761 -5.9891 0.2456 22.9843
#
#
#
# Elastic Compliance Matrix: (Units=1/GPa)
#
#
# Indices 1 2 3 4 5 6 
#
# 1 0.021627 -0.086282 -0.005979 -0.053432 -0.032152 -0.023660
# 2 -0.086282 0.249638 0.014641 0.061373 0.126987 0.006181
# 3 -0.005979 0.014641 0.026058 0.027534 -0.003690 0.006226
# 4 -0.053432 0.061373 0.027534 0.050957 0.057093 -0.039484
# 5 -0.032152 0.126987 -0.003690 0.057093 0.081930 0.027851
# 6 -0.023660 0.006181 0.006226 -0.039484 0.027851 -0.001123
#
#
# Mechanical properties :
#
#
# Convention : Reuss Voigt Hill
#
# Bulk Modulus (GPa) = 7.03804 33.37686 20.20745
# Shear Modulus (GPa) = 7.91530 20.14909 14.03220
#
# Velocity S-wave (km/s) = 2.00433 3.19789 2.66869
# Velocity P-wave (km/s) = 2.98807 5.52951 4.44433
#
# Compressibility (1/GPa) = 0.14208491
#
# Stress axis : x y z
#
# Youngs Moduli (GPa) = 46.23871 4.00580 38.37554
#
# Poissons Ratio (x) = 0.34563 0.22944
# Poissons Ratio (y) = 3.98955 -0.56187
# Poissons Ratio (z) = 0.27645 -0.05865
#
# Static dielectric constant tensor:
#      x y z
#    x 1.748590 0.007900 0.053720 
#    y 0.007900 1.687830 -0.015780 
#    z 0.053720 -0.015780 1.671660 
# 
# From -- ./inp_files/183024.got.cif
#   From: 2010.05.17/outbox.ucp.g08.bks.cvg/sg2_92_cif.got.tgz:183024.got - 2010.06.11 11:32:03.
