data_PCOD9071570
_publ_section_title
;
Structure prediction by ZEFSAII (Michael W. Deem and Ramdas Pophale) SiO2 
 PCOD9071570
Probable space group: P -1
;
_chemical_formula_sum "Si O2"
_cell_formula_units_Z 11
_cell_length_a 6.187673
_cell_length_b 17.270139
_cell_length_c 9.510664
_cell_angle_alpha 29.771014
_cell_angle_beta 85.672695
_cell_angle_gamma 72.790437
_cell_volume 445.416114
_symmetry_space_group_name_H-M "P -1"
_symmetry_group_IT_number 2
_symmetry_cell_setting 'triclinic'
loop_
_space_group_symop_operation_xyz
x,y,z
-x,-y,-z
loop_
_atom_site_type_symbol
_atom_site_label
_atom_site_fract_x
_atom_site_fract_y
_atom_site_fract_z
Si Si1 0.500000 0.000000 0.500000
Si Si2 0.362021 0.862511 0.461101
Si Si3 0.401289 0.721009 0.398135
Si Si4 0.936968 0.421759 0.763899
Si Si5 0.208805 0.468444 0.924988
Si Si6 0.834018 0.113432 0.147175
O O1 0.461646 0.973485 0.371278
O O2 0.325118 0.914378 0.683404
O O3 0.394381 0.858665 0.297532
O O4 0.532094 0.662264 0.815348
O O5 0.075838 0.933282 0.388696
O O6 0.678573 0.566721 0.609086
O O7 0.232532 0.634307 0.600891
O O8 0.303453 0.803896 0.121178
O O9 0.000000 0.500000 0.500000
O O10 0.148121 0.374483 0.944321
O O11 0.916932 0.251461 0.987638
O O12 0.000000 0.500000 0.000000
#
# Coordination Sequence:
#
# PCOD9071570 Si02
#       6
#     1   2   2   2   2   2
#     4  12  30  48  78 112 166 198 258 322 400 456
#     4  12  28  50  79 115 158 202 268 323 393 465
#     4  12  28  51  80 116 156 209 267 322 390 474
#     4  12  27  52  83 113 157 208 269 319 393 471
#     4  12  27  49  82 115 155 207 260 331 389 460
#     4  12  29  51  79 118 157 212 259 324 397 467
#
# _framework density 24.696009
#
# number of rings (size 3 to 8) (size 9 to 14) (size 15 to 20)
#    0.000    0.000    3.636    4.364   10.182    0.727 
#    0.000    0.000    0.000    0.000    0.000    0.000 
#    0.000    0.000    0.000    0.000    0.000    0.000 
#
# Total GULP energy -61512.959870 kJ/mol
# GULP energy per Si atom -5592.087261 kJ/mol
# Density = 2.463980 g / cm^3
# Si number density = 24.696009 Si / 1000 Ang^3
#
#
#
# Elastic Constant Matrix: (Units=GPa)
#
#
# Indices 1 2 3 4 5 6 
#
# 1 102.1934 54.0282 70.5824 0.9551 -5.0539 -13.9391
# 2 54.0282 149.5541 23.4701 13.1117 -2.5569 4.5386
# 3 70.5824 23.4701 99.1652 16.7772 -6.7226 -22.1297
# 4 0.9551 13.1117 16.7772 26.9659 -3.6686 7.2463
# 5 -5.0539 -2.5569 -6.7226 -3.6686 70.7761 5.2285
# 6 -13.9391 4.5386 -22.1297 7.2463 5.2285 70.8566
#
#
#
# Elastic Compliance Matrix: (Units=1/GPa)
#
#
# Indices 1 2 3 4 5 6 
#
# 1 0.029223 -0.008525 -0.022306 0.017777 0.000770 -0.002546
# 2 -0.008525 0.009629 0.005078 -0.007585 -0.000178 0.000081
# 3 -0.022306 0.005078 0.030072 -0.022294 -0.000224 0.006975
# 4 0.017777 -0.007585 -0.022294 0.056760 0.002482 -0.008968
# 5 0.000770 -0.000178 -0.000224 0.002482 0.014375 -0.001222
# 6 -0.002546 0.000081 0.006975 -0.008968 -0.001222 0.016793
#
#
# Mechanical properties :
#
#
# Convention : Reuss Voigt Hill
#
# Bulk Modulus (GPa) = 57.41023 71.89713 64.65368
# Shear Modulus (GPa) = 23.34665 47.24185 35.29425
#
# Velocity S-wave (km/s) = 3.07801 4.37846 3.78451
# Velocity P-wave (km/s) = 5.99411 7.39846 6.73300
#
# Compressibility (1/GPa) = 0.01741850
#
# Stress axis : x y z
#
# Youngs Moduli (GPa) = 34.21956 103.85518 33.25339
#
# Poissons Ratio (x) = 0.88533 0.74175
# Poissons Ratio (y) = 0.29171 -0.16886
# Poissons Ratio (z) = 0.76330 -0.52738
#
# Static dielectric constant tensor:
#      x y z
#    x 1.906630 -0.044720 0.121450 
#    y -0.044720 2.156710 -0.285330 
#    z 0.121450 -0.285330 2.213420 
# 
# From -- ./inp_files/65239.got.cif
#   From: 2010.05.17/outbox.cif.g08.bks.cpg/sg2_33_cif.got.tgz:65239.got - 2010.06.03 11:33:40.
