data_PCOD9071494
_publ_section_title
;
Structure prediction by ZEFSAII (Michael W. Deem and Ramdas Pophale) SiO2 
 PCOD9071494
Probable space group: P -1
;
_chemical_formula_sum "Si O2"
_cell_formula_units_Z 12
_cell_length_a 14.269931
_cell_length_b 8.444464
_cell_length_c 5.170776
_cell_angle_alpha 120.136169
_cell_angle_beta 69.599208
_cell_angle_gamma 111.346872
_cell_volume 491.147591
_symmetry_space_group_name_H-M "P -1"
_symmetry_group_IT_number 2
_symmetry_cell_setting 'triclinic'
loop_
_space_group_symop_operation_xyz
x,y,z
-x,-y,-z
loop_
_atom_site_type_symbol
_atom_site_label
_atom_site_fract_x
_atom_site_fract_y
_atom_site_fract_z
Si Si1 0.296012 0.243136 0.228219
Si Si2 0.492951 0.207743 0.271948
Si Si3 0.615811 0.358077 0.787117
Si Si4 0.103827 0.111626 0.624331
Si Si5 0.982253 0.371028 0.162434
Si Si6 0.777914 0.118862 0.333319
O O1 0.377456 0.228507 0.361323
O O2 0.337272 0.430729 0.178571
O O3 0.185068 0.235424 0.452194
O O4 0.285011 0.057290 0.912663
O O5 0.536885 0.257680 0.556332
O O6 0.560990 0.344544 0.105366
O O7 0.500000 0.000000 0.000000
O O8 0.704616 0.243391 0.616196
O O9 0.161092 0.965753 0.576713
O O10 0.000000 0.000000 0.500000
O O11 0.064515 0.241632 0.975726
O O12 0.866850 0.244212 0.173819
O O13 0.000000 0.500000 0.500000
O O14 0.000000 0.500000 0.000000
#
# Coordination Sequence:
#
# PCOD9071494 Si02
#       6
#     2   2   2   2   2   2
#     4  12  28  48  81 113 154 206 259 319 388 465
#     4  12  26  52  79 113 158 203 252 322 389 459
#     4  12  29  49  79 116 156 199 260 318 387 464
#     4  12  27  51  77 112 159 206 259 323 392 460
#     4  12  28  49  77 112 154 203 264 320 384 462
#     4  12  28  47  79 110 156 206 258 320 393 454
#
# _framework density 24.432570999999999
#
# number of rings (size 3 to 8) (size 9 to 14) (size 15 to 20)
#    0.000    0.000    3.333    5.000    9.333    0.000 
#    0.000    0.000    0.000    0.000    0.000    0.000 
#    0.000    0.000    0.000    0.000    0.000    0.000 
#
# Total GULP energy -67430.924316 kJ/mol
# GULP energy per Si atom -5619.243693 kJ/mol
# Density = 2.437696 g / cm^3
# Si number density = 24.432571 Si / 1000 Ang^3
#
#
#
# Elastic Constant Matrix: (Units=GPa)
#
#
# Indices 1 2 3 4 5 6 
#
# 1 149.7521 46.0212 31.0930 -2.2428 -13.4439 -12.3474
# 2 46.0212 124.7666 25.2283 6.4748 9.7843 14.5160
# 3 31.0930 25.2283 97.4089 5.3071 -7.5173 -3.1881
# 4 -2.2428 6.4748 5.3071 48.0998 -3.5402 -5.4906
# 5 -13.4439 9.7843 -7.5173 -3.5402 43.4635 -9.2021
# 6 -12.3474 14.5160 -3.1881 -5.4906 -9.2021 37.7631
#
#
#
# Elastic Compliance Matrix: (Units=1/GPa)
#
#
# Indices 1 2 3 4 5 6 
#
# 1 0.009321 -0.004406 -0.001358 0.002265 0.005139 0.006208
# 2 -0.004406 0.011675 -0.002210 -0.002921 -0.006322 -0.008080
# 3 -0.001358 -0.002210 0.011555 -0.000648 0.002421 0.001877
# 4 0.002265 -0.002921 -0.000648 0.022381 0.004366 0.006126
# 5 0.005139 -0.006322 0.002421 0.004366 0.029357 0.012103
# 6 0.006208 -0.008080 0.001877 0.006126 0.012103 0.035615
#
#
# Mechanical properties :
#
#
# Convention : Reuss Voigt Hill
#
# Bulk Modulus (GPa) = 60.23275 64.06806 62.15040
# Shear Modulus (GPa) = 35.36372 43.83764 39.60068
#
# Velocity S-wave (km/s) = 3.80860 4.24043 4.03030
# Velocity P-wave (km/s) = 6.63677 7.08903 6.86662
#
# Compressibility (1/GPa) = 0.01660226
#
# Stress axis : x y z
#
# Youngs Moduli (GPa) = 107.28552 85.65512 86.53973
#
# Poissons Ratio (x) = 0.37743 0.11749
# Poissons Ratio (y) = 0.47275 0.19128
# Poissons Ratio (z) = 0.14565 0.18933
#
# Static dielectric constant tensor:
#      x y z
#    x 1.918120 0.005080 -0.002740 
#    y 0.005080 1.953680 -0.002300 
#    z -0.002740 -0.002300 1.917790 
# 
# From -- ./inp_files/27983.got.cif
#   From: 2010.05.17/outbox.cif.g08.bks.cpg/sg2_14_cif.got.tgz:27983.got - 2010.06.03 11:33:40.
