data_PCOD9071898
_publ_section_title
;
Structure prediction by ZEFSAII (Michael W. Deem and Ramdas Pophale) SiO2 
 PCOD9071898
Probable space group: P -1
;
_chemical_formula_sum "Si O2"
_cell_formula_units_Z 14
_cell_length_a 14.000849
_cell_length_b 5.106112
_cell_length_c 15.975603
_cell_angle_alpha 105.334345
_cell_angle_beta 129.881178
_cell_angle_gamma 70.870424
_cell_volume 825.691822
_symmetry_space_group_name_H-M "P -1"
_symmetry_group_IT_number 2
_symmetry_cell_setting 'triclinic'
loop_
_space_group_symop_operation_xyz
x,y,z
-x,-y,-z
loop_
_atom_site_type_symbol
_atom_site_label
_atom_site_fract_x
_atom_site_fract_y
_atom_site_fract_z
Si Si1 0.451076 0.143830 0.285953
Si Si2 0.088589 0.595942 0.448909
Si Si3 0.498054 0.181649 0.882363
Si Si4 0.402271 0.737801 0.360326
Si Si5 0.663148 0.356422 0.505450
Si Si6 0.080193 0.819458 0.646145
Si Si7 0.649160 0.202791 0.135110
O O1 0.451705 0.982365 0.186787
O O2 0.392637 0.993790 0.315296
O O3 0.383631 0.468044 0.274808
O O4 0.597118 0.151925 0.394779
O O5 0.211279 0.585885 0.460203
O O6 0.121912 0.654266 0.568796
O O7 0.027947 0.326211 0.389234
O O8 0.981539 0.863537 0.384518
O O9 0.434119 0.501524 0.855846
O O10 0.392502 0.035907 0.853334
O O11 0.605945 0.170169 0.012777
O O12 0.550224 0.636097 0.465649
O O13 0.321970 0.760188 0.401944
O O14 0.203369 0.800570 0.770664
#
# Coordination Sequence:
#
# PCOD9071898 Si02
#       7
#     2   2   2   2   2   2   2
#     4  10  18  30  47  74  98 123 155 197 250 296
#     4  10  21  31  50  69  96 136 163 187 238 288
#     4  10  20  31  54  73  93 133 162 193 266 276
#     4   9  20  30  48  73 103 121 159 202 250 284
#     4   9  20  31  50  71 103 126 160 199 244 291
#     4  10  21  34  45  72  99 128 168 194 225 289
#     4  10  20  35  48  72 101 125 166 210 227 298
#
# _framework density 16.955479
#
# number of rings (size 3 to 8) (size 9 to 14) (size 15 to 20)
#    0.857    1.429    0.000    3.000    4.000    1.143 
#    0.000    0.000    0.000    0.000    0.000    6.000 
#    0.000    0.000    0.000    0.000    0.000    0.000 
#
# Total GULP energy -78057.987263 kJ/mol
# GULP energy per Si atom -5575.570519 kJ/mol
# Density = 1.691689 g / cm^3
# Si number density = 16.955479 Si / 1000 Ang^3
#
#
#
# Elastic Constant Matrix: (Units=GPa)
#
#
# Indices 1 2 3 4 5 6 
#
# 1 88.2874 -6.5742 32.7205 6.1534 -0.1259 9.0900
# 2 -6.5742 44.4725 16.1044 13.1855 -2.5456 11.7911
# 3 32.7205 16.1044 63.3487 15.2841 -0.9381 -0.1517
# 4 6.1534 13.1855 15.2841 17.5197 -3.6965 -2.9987
# 5 -0.1259 -2.5456 -0.9381 -3.6965 15.0850 6.1718
# 6 9.0900 11.7911 -0.1517 -2.9987 6.1718 20.9268
#
#
#
# Elastic Compliance Matrix: (Units=1/GPa)
#
#
# Indices 1 2 3 4 5 6 
#
# 1 0.020293 0.017510 -0.011978 -0.011931 0.008908 -0.023104
# 2 0.017510 0.057382 -0.013202 -0.042527 0.019855 -0.051983
# 3 -0.011978 -0.013202 0.027461 -0.009229 -0.008636 0.014065
# 4 -0.011931 -0.042527 -0.009229 0.109086 0.000670 0.044511
# 5 0.008908 0.019855 -0.008636 0.000670 0.085849 -0.040342
# 6 -0.023104 -0.051983 0.014065 0.044511 -0.040342 0.105489
#
#
# Mechanical properties :
#
#
# Convention : Reuss Voigt Hill
#
# Bulk Modulus (GPa) = 11.13618 31.17889 21.15753
# Shear Modulus (GPa) = 11.09065 20.96351 16.02708
#
# Velocity S-wave (km/s) = 2.56032 3.52004 3.07782
# Velocity P-wave (km/s) = 3.91439 5.91181 5.01358
#
# Compressibility (1/GPa) = 0.08979742
#
# Stress axis : x y z
#
# Youngs Moduli (GPa) = 49.27903 17.42694 36.41562
#
# Poissons Ratio (x) = -0.30515 0.43617
# Poissons Ratio (y) = -0.86288 0.48075
# Poissons Ratio (z) = 0.59024 0.23007
#
# Static dielectric constant tensor:
#      x y z
#    x 1.557170 0.001970 -0.012420 
#    y 0.001970 1.605060 0.012730 
#    z -0.012420 0.012730 1.561650 
# 
# From -- ./inp_files/362317.got.cif
#   From: 2010.05.17/outbox.cif.g08.bks.cpg/sg2_182_cif.got.tgz:362317.got - 2010.06.03 11:33:40.
