data_PCOD9071772
_publ_section_title
;
Structure prediction by ZEFSAII (Michael W. Deem and Ramdas Pophale) SiO2 
 PCOD9071772
Probable space group: P -1
;
_chemical_formula_sum "Si O2"
_cell_formula_units_Z 16
_cell_length_a 15.375518
_cell_length_b 9.872266
_cell_length_c 11.195484
_cell_angle_alpha 131.612228
_cell_angle_beta 96.462469
_cell_angle_gamma 51.300271
_cell_volume 847.756185
_symmetry_space_group_name_H-M "P -1"
_symmetry_group_IT_number 2
_symmetry_cell_setting 'triclinic'
loop_
_space_group_symop_operation_xyz
x,y,z
-x,-y,-z
loop_
_atom_site_type_symbol
_atom_site_label
_atom_site_fract_x
_atom_site_fract_y
_atom_site_fract_z
Si Si1 0.567658 0.145131 0.995782
Si Si2 0.311157 0.789700 0.777142
Si Si3 0.437615 0.271596 0.807437
Si Si4 0.312443 0.419165 0.239967
Si Si5 0.208804 0.148110 0.752598
Si Si6 0.174381 0.606779 0.072670
Si Si7 0.465975 0.807166 0.488439
Si Si8 0.888616 0.064376 0.320043
O O1 0.518826 0.235167 0.905888
O O2 0.633688 0.849292 0.853900
O O3 0.664967 0.149952 0.058827
O O4 0.439305 0.342773 0.177464
O O5 0.434984 0.471805 0.588201
O O6 0.182434 0.868765 0.777880
O O7 0.293421 0.974569 0.783863
O O8 0.480803 0.266301 0.680775
O O9 0.462021 0.015966 0.663956
O O10 0.284413 0.529820 0.962486
O O11 0.238112 0.497168 0.149540
O O12 0.212274 0.665865 0.459491
O O13 0.317302 0.967804 0.561582
O O14 0.107215 0.139474 0.732333
O O15 0.154217 0.433039 0.918548
O O16 0.033476 0.914115 0.240001
#
# Coordination Sequence:
#
# PCOD9071772 Si02
#       8
#     2   2   2   2   2   2   2   2
#     4  10  19  31  49  77 104 125 162 205 263 283
#     4  10  20  30  51  77 100 128 160 210 248 292
#     4   9  21  33  53  72 103 134 159 206 245 298
#     4  10  18  29  50  74 103 131 158 212 245 292
#     4   9  19  30  52  76 100 128 157 212 248 288
#     4  10  18  35  47  74 105 132 166 195 247 296
#     4  10  18  35  51  76 100 127 170 202 252 292
#     4  10  20  29  50  77 100 134 164 200 243 295
#
# _framework density 18.873351
#
# number of rings (size 3 to 8) (size 9 to 14) (size 15 to 20)
#    0.750    1.500    1.250    2.625    3.500    0.500 
#    0.000    0.625    0.000    0.000    0.000    9.625 
#    0.000    0.000    0.000    0.000    0.000    0.000 
#
# Total GULP energy -89155.279817 kJ/mol
# GULP energy per Si atom -5572.204989 kJ/mol
# Density = 1.883039 g / cm^3
# Si number density = 18.873351 Si / 1000 Ang^3
#
#
#
# Elastic Constant Matrix: (Units=GPa)
#
#
# Indices 1 2 3 4 5 6 
#
# 1 32.2876 13.8851 26.8530 -9.4111 -11.1404 -13.1507
# 2 13.8851 32.5084 32.3596 4.3356 -10.1139 -12.6028
# 3 26.8530 32.3596 96.0711 -1.4593 -21.0290 -14.4205
# 4 -9.4111 4.3356 -1.4593 19.3607 -3.0630 2.7255
# 5 -11.1404 -10.1139 -21.0290 -3.0630 23.9706 7.2792
# 6 -13.1507 -12.6028 -14.4205 2.7255 7.2792 19.2841
#
#
#
# Elastic Compliance Matrix: (Units=1/GPa)
#
#
# Indices 1 2 3 4 5 6 
#
# 1 0.066816 -0.012953 -0.006818 0.034834 0.017885 0.020327
# 2 -0.012953 0.064122 -0.015171 -0.026176 -0.003773 0.026852
# 3 -0.006818 -0.015171 0.018713 0.003460 0.008596 -0.004304
# 4 0.034834 -0.026176 0.003460 0.079511 0.021401 -0.010081
# 5 0.017885 -0.003773 0.008596 0.021401 0.061810 -0.010198
# 6 0.020327 0.026852 -0.004304 -0.010081 -0.010198 0.085322
#
#
# Mechanical properties :
#
#
# Convention : Reuss Voigt Hill
#
# Bulk Modulus (GPa) = 12.53650 34.11805 23.32727
# Shear Modulus (GPa) = 10.57605 18.37436 14.47521
#
# Velocity S-wave (km/s) = 2.36978 3.12358 2.77242
# Velocity P-wave (km/s) = 3.76094 5.57903 4.75764
#
# Compressibility (1/GPa) = 0.07976711
#
# Stress axis : x y z
#
# Youngs Moduli (GPa) = 14.96658 15.59518 53.44014
#
# Poissons Ratio (x) = 0.20201 0.36434
# Poissons Ratio (y) = 0.19387 0.81073
# Poissons Ratio (z) = 0.10204 0.23659
#
# Static dielectric constant tensor:
#      x y z
#    x 1.688620 0.001050 0.017160 
#    y 0.001050 1.639570 0.001310 
#    z 0.017160 0.001310 1.663900 
# 
# From -- ./inp_files/260136.got.cif
#   From: 2010.05.17/outbox.cif.g08.bks.cpg/sg2_131_cif.got.tgz:260136.got - 2010.06.03 11:33:40.
