data_PCOD9071264
_publ_section_title
;
Structure prediction by ZEFSAII (Michael W. Deem and Ramdas Pophale) SiO2 
 PCOD9071264
Probable space group: P -1
;
_chemical_formula_sum "Si O2"
_cell_formula_units_Z 12
_cell_length_a 4.633765
_cell_length_b 15.807370
_cell_length_c 13.136119
_cell_angle_alpha 29.906761
_cell_angle_beta 79.552769
_cell_angle_gamma 84.025224
_cell_volume 469.011285
_symmetry_space_group_name_H-M "P -1"
_symmetry_group_IT_number 2
_symmetry_cell_setting 'triclinic'
loop_
_space_group_symop_operation_xyz
x,y,z
-x,-y,-z
loop_
_atom_site_type_symbol
_atom_site_label
_atom_site_fract_x
_atom_site_fract_y
_atom_site_fract_z
Si Si1 0.204761 0.677531 0.793763
Si Si2 0.192444 0.700239 0.444117
Si Si3 0.217893 0.187203 0.468570
Si Si4 0.596544 0.188223 0.139083
Si Si5 0.182481 0.315683 0.883923
Si Si6 0.793270 0.823373 0.189583
O O1 0.495419 0.674595 0.707723
O O2 0.992697 0.804944 0.624108
O O3 0.336837 0.738616 0.829683
O O4 0.000000 0.500000 0.000000
O O5 0.989399 0.774246 0.465015
O O6 0.274366 0.516161 0.663708
O O7 0.990341 0.688170 0.368890
O O8 0.508363 0.180493 0.723925
O O9 0.349019 0.008638 0.658312
O O10 0.288171 0.225787 0.072330
O O11 0.829468 0.286645 0.943917
O O12 0.280346 0.225669 0.870245
O O13 0.000000 0.000000 0.000000
#
# Coordination Sequence:
#
# PCOD9071264 Si02
#       6
#     2   2   2   2   2   2
#     4  12  26  47  74 109 146 190 241 300 361 429
#     4  12  26  47  74 109 146 190 241 300 361 429
#     4  12  26  47  74 109 146 190 241 300 361 429
#     4  12  26  48  74 106 145 192 241 296 360 432
#     4  12  26  48  74 106 145 192 241 296 360 432
#     4  12  26  47  74 109 146 190 241 300 361 429
#
# _framework density 25.585740000000001
#
# number of rings (size 3 to 8) (size 9 to 14) (size 15 to 20)
#    0.000    0.000    0.000   10.000    0.000    5.333 
#    0.000    0.000    0.000    0.000    0.000    0.000 
#    0.000    0.000    0.000    0.000    0.000    0.000 
#
# Total GULP energy -67392.450807 kJ/mol
# GULP energy per Si atom -5616.037567 kJ/mol
# Density = 2.552751 g / cm^3
# Si number density = 25.585740 Si / 1000 Ang^3
#
#
#
# Elastic Constant Matrix: (Units=GPa)
#
#
# Indices 1 2 3 4 5 6 
#
# 1 146.8116 33.4473 48.5787 2.4558 -24.4043 3.0178
# 2 33.4473 132.3237 43.8733 6.1684 -1.5267 8.7481
# 3 48.5787 43.8733 107.1237 -0.3160 -6.0629 0.8570
# 4 2.4558 6.1684 -0.3160 35.0130 6.7511 8.3975
# 5 -24.4043 -1.5267 -6.0629 6.7511 83.2931 20.2700
# 6 3.0178 8.7481 0.8570 8.3975 20.2700 36.7198
#
#
#
# Elastic Compliance Matrix: (Units=1/GPa)
#
#
# Indices 1 2 3 4 5 6 
#
# 1 0.008638 -0.000882 -0.003387 -0.000578 0.002755 -0.001810
# 2 -0.000882 0.009048 -0.003282 -0.001157 0.000215 -0.001861
# 3 -0.003387 -0.003282 0.012186 0.000810 -0.000433 0.000830
# 4 -0.000578 -0.001157 0.000810 0.030480 -0.001132 -0.006041
# 5 0.002755 0.000215 -0.000433 -0.001132 0.014878 -0.008222
# 6 -0.001810 -0.001861 0.000830 -0.006041 -0.008222 0.033726
#
#
# Mechanical properties :
#
#
# Convention : Reuss Voigt Hill
#
# Bulk Modulus (GPa) = 67.70540 70.89530 69.30035
# Shear Modulus (GPa) = 38.76512 48.36248 43.56380
#
# Velocity S-wave (km/s) = 3.89666 4.35237 4.13081
# Velocity P-wave (km/s) = 6.83849 7.28194 7.06369
#
# Compressibility (1/GPa) = 0.01476987
#
# Stress axis : x y z
#
# Youngs Moduli (GPa) = 115.76611 110.52464 82.05817
#
# Poissons Ratio (x) = 0.09748 0.27795
# Poissons Ratio (y) = 0.10210 0.26931
# Poissons Ratio (z) = 0.39213 0.36274
#
# Static dielectric constant tensor:
#      x y z
#    x 1.957060 0.000480 0.000570 
#    y 0.000480 1.972910 0.035010 
#    z 0.000570 0.035010 2.034380 
# 
# From -- ./inp_files/367395.got.cif
#   From: 2010.05.17/outbox.cif.g08.bks.cpg/sg2_184_cif.got.tgz:367395.got - 2010.06.03 11:33:40.
