data_PCOD9071411
_publ_section_title
;
Structure prediction by ZEFSAII (Michael W. Deem and Ramdas Pophale) SiO2 
 PCOD9071411
Probable space group: P -1
;
_chemical_formula_sum "Si O2"
_cell_formula_units_Z 15
_cell_length_a 8.593338
_cell_length_b 12.041034
_cell_length_c 14.862829
_cell_angle_alpha 150.320043
_cell_angle_beta 60.488144
_cell_angle_gamma 127.801411
_cell_volume 598.550412
_symmetry_space_group_name_H-M "P -1"
_symmetry_group_IT_number 2
_symmetry_cell_setting 'triclinic'
loop_
_space_group_symop_operation_xyz
x,y,z
-x,-y,-z
loop_
_atom_site_type_symbol
_atom_site_label
_atom_site_fract_x
_atom_site_fract_y
_atom_site_fract_z
Si Si1 0.000000 0.500000 0.500000
Si Si2 0.057490 0.503851 0.696614
Si Si3 0.740276 0.810281 0.630395
Si Si4 0.434519 0.881274 0.647031
Si Si5 0.490575 0.528550 0.234796
Si Si6 0.701727 0.387132 0.830451
Si Si7 0.896697 0.682929 0.146683
Si Si8 0.313264 0.053125 0.064282
O O1 0.969964 0.457032 0.588161
O O2 0.201567 0.762966 0.646929
O O3 0.238315 0.424353 0.582550
O O4 0.138342 0.789081 0.904143
O O5 0.885532 0.347942 0.707073
O O6 0.553539 0.849019 0.676081
O O7 0.936668 0.041300 0.703612
O O8 0.741759 0.817742 0.743801
O O9 0.463490 0.705980 0.440361
O O10 0.551371 0.158681 0.771644
O O11 0.407806 0.567270 0.190965
O O12 0.722830 0.608645 0.215281
O O13 0.375041 0.247442 0.102693
O O14 0.795619 0.621494 0.034370
O O15 0.000000 0.500000 0.000000
O O16 0.500000 0.000000 0.000000
#
# Coordination Sequence:
#
# PCOD9071411 Si02
#       8
#     1   2   2   2   2   2   2   2
#     4  12  28  48  76 114 156 200 258 322 388 466
#     4  12  28  49  81 115 158 207 263 325 391 470
#     4  12  27  49  83 117 152 212 262 326 397 464
#     4  12  27  50  78 114 159 201 266 323 392 473
#     4  12  28  48  77 115 158 213 259 322 406 458
#     4  12  27  51  79 115 161 207 260 326 394 474
#     4  12  26  49  78 118 156 203 265 323 386 478
#     4  12  27  50  78 114 162 203 266 328 387 470
#
# _framework density 25.060545000000001
#
# number of rings (size 3 to 8) (size 9 to 14) (size 15 to 20)
#    0.000    0.000    4.000    4.800    5.600    4.267 
#    0.000    0.000    0.000    0.000    0.000    0.000 
#    0.000    0.000    0.000    0.000    0.000    0.000 
#
# Total GULP energy -83942.938616 kJ/mol
# GULP energy per Si atom -5596.195908 kJ/mol
# Density = 2.500351 g / cm^3
# Si number density = 25.060545 Si / 1000 Ang^3
#
#
#
# Elastic Constant Matrix: (Units=GPa)
#
#
# Indices 1 2 3 4 5 6 
#
# 1 74.7614 34.3402 11.9849 13.7605 16.6668 -2.7150
# 2 34.3402 154.2802 16.7658 20.8266 4.1622 14.0783
# 3 11.9849 16.7658 69.5845 4.6168 12.5124 8.4922
# 4 13.7605 20.8266 4.6168 48.4795 10.7866 12.4496
# 5 16.6668 4.1622 12.5124 10.7866 39.0890 -7.3897
# 6 -2.7150 14.0783 8.4922 12.4496 -7.3897 34.1488
#
#
#
# Elastic Compliance Matrix: (Units=1/GPa)
#
#
# Indices 1 2 3 4 5 6 
#
# 1 0.016906 -0.003366 -0.001373 -0.002878 -0.005043 0.003031
# 2 -0.003366 0.007789 -0.001081 -0.001939 0.001057 -0.002274
# 3 -0.001373 -0.001081 0.016592 0.002222 -0.006353 -0.005974
# 4 -0.002878 -0.001939 0.002222 0.027097 -0.008987 -0.011805
# 5 -0.005043 0.001057 -0.006353 -0.008987 0.034297 0.011441
# 6 0.003031 -0.002274 -0.005974 -0.011805 0.011441 0.038728
#
#
# Mechanical properties :
#
#
# Convention : Reuss Voigt Hill
#
# Bulk Modulus (GPa) = 33.72894 47.20086 40.46490
# Shear Modulus (GPa) = 30.68790 40.04579 35.36685
#
# Velocity S-wave (km/s) = 3.50315 4.00179 3.76074
# Velocity P-wave (km/s) = 5.46361 6.34256 5.91942
#
# Compressibility (1/GPa) = 0.02964813
#
# Stress axis : x y z
#
# Youngs Moduli (GPa) = 59.15001 128.38419 60.26988
#
# Poissons Ratio (x) = 0.43212 0.08275
# Poissons Ratio (y) = 0.19909 0.06514
# Poissons Ratio (z) = 0.08121 0.13876
#
# Static dielectric constant tensor:
#      x y z
#    x 2.340390 0.191340 -0.053340 
#    y 0.191340 2.051490 -0.024920 
#    z -0.053340 -0.024920 1.967270 
# 
# From -- ./inp_files/501090.got.cif
#   From: 2010.05.17/outbox.cif.g08.bks.cpg/sg2_251_cif.got.tgz:501090.got - 2010.06.03 11:33:40.
