data_PCOD9071950
_publ_section_title
;
Structure prediction by ZEFSAII (Michael W. Deem and Ramdas Pophale) SiO2 
 PCOD9071950
Probable space group: P -1
;
_chemical_formula_sum "Si O2"
_cell_formula_units_Z 16
_cell_length_a 8.973180
_cell_length_b 6.903944
_cell_length_c 9.338383
_cell_angle_alpha 88.190496
_cell_angle_beta 95.567668
_cell_angle_gamma 70.172586
_cell_volume 540.367009
_symmetry_space_group_name_H-M "P -1"
_symmetry_group_IT_number 2
_symmetry_cell_setting 'triclinic'
loop_
_space_group_symop_operation_xyz
x,y,z
-x,-y,-z
loop_
_atom_site_type_symbol
_atom_site_label
_atom_site_fract_x
_atom_site_fract_y
_atom_site_fract_z
Si Si1 0.742640 0.136131 0.668804
Si Si2 0.628776 0.146614 0.169803
Si Si3 0.878982 0.488852 0.272309
Si Si4 0.532819 0.758439 0.543489
Si Si5 0.406178 0.288701 0.926550
Si Si6 0.179947 0.254822 0.113084
Si Si7 0.038778 0.105731 0.856176
Si Si8 0.868198 0.760522 0.500811
O O1 0.817720 0.994873 0.541128
O O2 0.740374 0.957747 0.786967
O O3 0.574296 0.292998 0.592399
O O4 0.875335 0.208414 0.753397
O O5 0.544812 0.240172 0.308839
O O6 0.589476 0.931703 0.137365
O O7 0.579498 0.260048 0.006856
O O8 0.820478 0.079487 0.200745
O O9 0.702963 0.535447 0.192681
O O10 0.026663 0.381176 0.184514
O O11 0.870569 0.709094 0.335632
O O12 0.954120 0.348437 0.420605
O O13 0.725982 0.678401 0.550280
O O14 0.500000 0.000000 0.500000
O O15 0.318339 0.334374 0.073711
O O16 0.117555 0.244848 0.946807
O O17 0.000000 0.000000 0.000000
#
# Coordination Sequence:
#
# PCOD9071950 Si02
#       8
#     2   2   2   2   2   2   2   2
#     4   9  17  32  53  70  98 134 163 204 251 286
#     4  10  20  31  49  79 102 125 169 210 249 299
#     4  10  18  30  49  74 103 133 159 199 254 301
#     4  10  18  31  50  74 102 127 161 211 254 286
#     4  10  18  30  50  75 102 126 160 213 259 290
#     4   9  18  31  49  76 100 129 169 202 244 303
#     4   9  19  34  51  72 101 132 165 209 248 290
#     4   9  19  31  49  77 100 127 169 203 244 304
#
# _framework density 29.609501999999999
#
# number of rings (size 3 to 8) (size 9 to 14) (size 15 to 20)
#    0.000    2.500    0.000    4.125    0.000    5.500 
#    0.000    0.000    0.000   13.500    0.000   19.250 
#    0.000    0.000    0.000    0.000    0.000    0.000 
#
# Total GULP energy -89335.979394 kJ/mol
# GULP energy per Si atom -5583.498712 kJ/mol
# Density = 2.954211 g / cm^3
# Si number density = 29.609502 Si / 1000 Ang^3
#
#
#
# Elastic Constant Matrix: (Units=GPa)
#
#
# Indices 1 2 3 4 5 6 
#
# 1 119.6306 29.8024 61.2127 -4.3694 9.4600 -29.6191
# 2 29.8024 108.3261 57.8811 -11.0783 -2.6168 -36.1422
# 3 61.2127 57.8811 224.5713 -4.7839 36.2452 -40.1507
# 4 -4.3694 -11.0783 -4.7839 73.8979 -29.6349 -0.6556
# 5 9.4600 -2.6168 36.2452 -29.6349 70.3020 -2.3603
# 6 -29.6191 -36.1422 -40.1507 -0.6556 -2.3603 40.2088
#
#
#
# Elastic Compliance Matrix: (Units=1/GPa)
#
#
# Indices 1 2 3 4 5 6 
#
# 1 0.010851 0.000166 -0.001856 0.000587 -0.000038 0.006296
# 2 0.000166 0.014622 -0.002312 0.003599 0.003608 0.011227
# 3 -0.001856 -0.002312 0.006669 -0.001530 -0.003820 0.002964
# 4 0.000587 0.003599 -0.001530 0.017342 0.008252 0.002906
# 5 -0.000038 0.003608 -0.003820 0.008252 0.019835 0.000699
# 6 0.006296 0.011227 0.002964 0.002906 0.000699 0.042649
#
#
# Mechanical properties :
#
#
# Convention : Reuss Voigt Hill
#
# Bulk Modulus (GPa) = 41.42938 83.36893 62.39916
# Shear Modulus (GPa) = 39.05694 57.12385 48.09039
#
# Velocity S-wave (km/s) = 3.63584 4.39708 4.03445
# Velocity P-wave (km/s) = 5.62566 7.34822 6.54387
#
# Compressibility (1/GPa) = 0.02413746
#
# Stress axis : x y z
#
# Youngs Moduli (GPa) = 92.15956 68.38851 149.95256
#
# Poissons Ratio (x) = -0.01138 0.27834
# Poissons Ratio (y) = -0.01534 0.34676
# Poissons Ratio (z) = 0.17106 0.15815
#
# Static dielectric constant tensor:
#      x y z
#    x 2.732860 0.156290 0.044060 
#    y 0.156290 2.557090 -0.042320 
#    z 0.044060 -0.042320 2.337690 
# 
# From -- ./inp_files/179189.got.cif
#   From: 2010.05.17/outbox.cif.g08.bks.cpg/sg2_90_cif.got.tgz:179189.got - 2010.06.03 11:33:40.
