data_PCOD9071294
_publ_section_title
;
Structure prediction by ZEFSAII (Michael W. Deem and Ramdas Pophale) SiO2 
 PCOD9071294
Probable space group: P -1
;
_chemical_formula_sum "Si O2"
_cell_formula_units_Z 12
_cell_length_a 9.216492
_cell_length_b 12.998082
_cell_length_c 9.318798
_cell_angle_alpha 99.393741
_cell_angle_beta 30.273858
_cell_angle_gamma 110.283535
_cell_volume 505.534079
_symmetry_space_group_name_H-M "P -1"
_symmetry_group_IT_number 2
_symmetry_cell_setting 'triclinic'
loop_
_space_group_symop_operation_xyz
x,y,z
-x,-y,-z
loop_
_atom_site_type_symbol
_atom_site_label
_atom_site_fract_x
_atom_site_fract_y
_atom_site_fract_z
Si Si1 0.880453 0.808770 0.353648
Si Si2 0.317607 0.579690 0.664602
Si Si3 0.778364 0.387251 0.581431
Si Si4 0.866230 0.759919 0.793838
Si Si5 0.537658 0.881657 0.901858
Si Si6 0.169794 0.917553 0.832476
O O1 0.563018 0.699421 0.553343
O O2 0.737881 0.884290 0.585470
O O3 0.165563 0.792135 0.190030
O O4 0.090500 0.865718 0.046953
O O5 0.500000 0.500000 0.500000
O O6 0.241346 0.599299 0.570262
O O7 0.000000 0.500000 0.000000
O O8 0.000000 0.500000 0.500000
O O9 0.883503 0.283388 0.493008
O O10 0.438280 0.352915 0.933477
O O11 0.740569 0.840971 0.830364
O O12 0.008740 0.817789 0.834982
O O13 0.500000 0.000000 0.000000
O O14 0.500000 0.000000 0.500000
O O15 0.000000 0.000000 0.000000
#
# Coordination Sequence:
#
# PCOD9071294 Si02
#       6
#     2   2   2   2   2   2
#     4  12  27  49  79 114 158 203 265 326 388 471
#     4  12  28  49  81 115 152 201 264 325 396 466
#     4  12  28  50  78 112 155 202 259 321 399 467
#     4  12  27  51  74 114 157 201 259 322 388 470
#     4  12  28  50  79 115 160 212 263 317 395 471
#     4  12  26  47  78 111 149 203 258 319 391 462
#
# _framework density 23.737272000000001
#
# number of rings (size 3 to 8) (size 9 to 14) (size 15 to 20)
#    0.000    0.000    1.667    7.000    9.333    2.667 
#    0.000    0.000    0.000    0.000    0.000    0.000 
#    0.000    0.000    0.000    0.000    0.000    0.000 
#
# Total GULP energy -67024.867748 kJ/mol
# GULP energy per Si atom -5585.405646 kJ/mol
# Density = 2.368325 g / cm^3
# Si number density = 23.737272 Si / 1000 Ang^3
#
#
#
# Elastic Constant Matrix: (Units=GPa)
#
#
# Indices 1 2 3 4 5 6 
#
# 1 151.8199 45.9012 57.2277 10.0547 24.0573 -15.0318
# 2 45.9012 88.5227 25.9812 26.2167 15.7078 6.0967
# 3 57.2277 25.9812 178.6688 4.3556 -2.3560 -1.2006
# 4 10.0547 26.2167 4.3556 53.5992 -7.4250 -7.9192
# 5 24.0573 15.7078 -2.3560 -7.4250 41.5495 -2.5004
# 6 -15.0318 6.0967 -1.2006 -7.9192 -2.5004 49.9292
#
#
#
# Elastic Compliance Matrix: (Units=1/GPa)
#
#
# Indices 1 2 3 4 5 6 
#
# 1 0.009648 -0.003777 -0.002578 0.000142 -0.004091 0.003122
# 2 -0.003777 0.018095 -0.001309 -0.009754 -0.006788 -0.005265
# 3 -0.002578 -0.001309 0.006623 0.000906 0.002513 -0.000187
# 4 0.000142 -0.009754 0.000906 0.025352 0.008531 0.005704
# 5 -0.004091 -0.006788 0.002513 0.008531 0.030823 0.002554
# 6 0.003122 -0.005265 -0.000187 0.005704 0.002554 0.022639
#
#
# Mechanical properties :
#
#
# Convention : Reuss Voigt Hill
#
# Bulk Modulus (GPa) = 52.52296 75.24795 63.88545
# Shear Modulus (GPa) = 37.07711 48.34234 42.70973
#
# Velocity S-wave (km/s) = 3.95648 4.51772 4.24638
# Velocity P-wave (km/s) = 6.56098 7.67999 7.14243
#
# Compressibility (1/GPa) = 0.01903929
#
# Stress axis : x y z
#
# Youngs Moduli (GPa) = 103.64413 55.26370 150.99788
#
# Poissons Ratio (x) = 0.20875 0.38920
# Poissons Ratio (y) = 0.39150 0.19758
# Poissons Ratio (z) = 0.26715 0.07231
#
# Static dielectric constant tensor:
#      x y z
#    x 1.947950 0.072960 -0.053530 
#    y 0.072960 2.237260 -0.109240 
#    z -0.053530 -0.109240 1.813520 
# 
# From -- ./inp_files/179677.got.cif
#   From: 2010.05.17/outbox.cif.g08.bks.cpg/sg2_90_cif.got.tgz:179677.got - 2010.06.03 11:33:40.
