data_PCOD9071846
_publ_section_title
;
Structure prediction by ZEFSAII (Michael W. Deem and Ramdas Pophale) SiO2 
 PCOD9071846
Probable space group: P -1
;
_chemical_formula_sum "Si O2"
_cell_formula_units_Z 16
_cell_length_a 7.351709
_cell_length_b 21.293908
_cell_length_c 21.108157
_cell_angle_alpha 161.077337
_cell_angle_beta 140.720976
_cell_angle_gamma 35.811122
_cell_volume 626.584557
_symmetry_space_group_name_H-M "P -1"
_symmetry_group_IT_number 2
_symmetry_cell_setting 'triclinic'
loop_
_space_group_symop_operation_xyz
x,y,z
-x,-y,-z
loop_
_atom_site_type_symbol
_atom_site_label
_atom_site_fract_x
_atom_site_fract_y
_atom_site_fract_z
Si Si1 0.115637 0.294852 0.252030
Si Si2 0.799779 0.312568 0.373040
Si Si3 0.943175 0.207236 0.878420
Si Si4 0.298870 0.597905 0.870940
Si Si5 0.140433 0.302235 0.894533
Si Si6 0.657075 0.218449 0.419491
Si Si7 0.558329 0.856266 0.569207
Si Si8 0.535213 0.286187 0.157568
O O1 0.025793 0.303630 0.161604
O O2 0.853803 0.234338 0.156386
O O3 0.045377 0.542400 0.482231
O O4 0.444693 0.195480 0.281600
O O5 0.500000 0.500000 0.500000
O O6 0.662593 0.198274 0.177670
O O7 0.084434 0.159299 0.344206
O O8 0.910475 0.294327 0.881138
O O9 0.279555 0.210605 0.990277
O O10 0.729187 0.331421 0.996565
O O11 0.998974 0.962771 0.662922
O O12 0.549907 0.665512 0.967024
O O13 0.415121 0.347566 0.657435
O O14 0.000000 0.500000 0.000000
O O15 0.297197 0.075764 0.687039
O O16 0.544574 0.171148 0.412737
O O17 0.629424 0.458100 0.638673
#
# Coordination Sequence:
#
# PCOD9071846 Si02
#       8
#     2   2   2   2   2   2   2   2
#     4  10  18  33  57  83 124 169 197 240 288 354
#     4  10  18  29  54  91 126 165 203 232 285 363
#     4  11  25  38  63  94 118 162 205 254 310 361
#     4  11  23  42  62  92 126 151 204 256 302 373
#     4  11  26  46  67  89 116 156 210 268 317 362
#     4  10  19  35  59  88 129 170 207 234 293 361
#     4  10  20  40  64  88 124 173 199 242 314 355
#     4  11  17  35  57  84 126 163 202 238 286 363
#
# _framework density 25.535263
#
# number of rings (size 3 to 8) (size 9 to 14) (size 15 to 20)
#    0.000    1.500    5.000    2.250    0.000    6.000 
#    0.000    0.625    0.000    0.000    0.000    0.000 
#    0.000    0.000    0.000    0.000    0.000    0.000 
#
# Total GULP energy -89353.004781 kJ/mol
# GULP energy per Si atom -5584.562799 kJ/mol
# Density = 2.547714 g / cm^3
# Si number density = 25.535263 Si / 1000 Ang^3
#
#
#
# Elastic Constant Matrix: (Units=GPa)
#
#
# Indices 1 2 3 4 5 6 
#
# 1 91.0912 19.5764 21.8146 23.8702 -16.7192 18.8849
# 2 19.5764 51.2876 27.1562 32.9179 -8.3506 17.2810
# 3 21.8146 27.1562 115.0245 36.9831 -20.5215 11.0957
# 4 23.8702 32.9179 36.9831 41.5118 -4.9669 15.9930
# 5 -16.7192 -8.3506 -20.5215 -4.9669 40.9393 -4.6479
# 6 18.8849 17.2810 11.0957 15.9930 -4.6479 31.2447
#
#
#
# Elastic Compliance Matrix: (Units=1/GPa)
#
#
# Indices 1 2 3 4 5 6 
#
# 1 0.014473 0.001536 0.000740 -0.007578 0.005082 -0.005225
# 2 0.001536 0.042140 0.001870 -0.032433 0.005374 -0.007499
# 3 0.000740 0.001870 0.013460 -0.013848 0.005945 0.001711
# 4 -0.007578 -0.032433 -0.013848 0.068947 -0.009336 -0.009244
# 5 0.005082 0.005374 0.005945 -0.009336 0.029561 0.001021
# 6 -0.005225 -0.007499 0.001711 -0.009244 0.001021 0.043587
#
#
# Mechanical properties :
#
#
# Convention : Reuss Voigt Hill
#
# Bulk Modulus (GPa) = 12.76105 43.83308 28.29706
# Shear Modulus (GPa) = 21.73943 35.32955 28.53449
#
# Velocity S-wave (km/s) = 2.92095 3.72366 3.34646
# Velocity P-wave (km/s) = 4.04774 5.97415 5.10268
#
# Compressibility (1/GPa) = 0.07836346
#
# Stress axis : x y z
#
# Youngs Moduli (GPa) = 69.09642 23.73068 74.29460
#
# Poissons Ratio (x) = -0.03645 -0.05497
# Poissons Ratio (y) = -0.10612 -0.13893
# Poissons Ratio (z) = -0.05112 -0.04438
#
# Static dielectric constant tensor:
#      x y z
#    x 2.108090 0.024420 0.018440 
#    y 0.024420 2.076720 0.009840 
#    z 0.018440 0.009840 2.068660 
# 
# From -- ./inp_files/529477.got.cif
#   From: 2010.05.17/outbox.cif.g08.bks.cpg/sg2_265_cif.got.tgz:529477.got - 2010.06.03 11:33:40.
