data_PCOD9071491
_publ_section_title
;
Structure prediction by ZEFSAII (Michael W. Deem and Ramdas Pophale) SiO2 
 PCOD9071491
Probable space group: P -1
;
_chemical_formula_sum "Si O2"
_cell_formula_units_Z 12
_cell_length_a 10.799188
_cell_length_b 12.513628
_cell_length_c 8.734754
_cell_angle_alpha 39.027604
_cell_angle_beta 137.078189
_cell_angle_gamma 122.835179
_cell_volume 505.198440
_symmetry_space_group_name_H-M "P -1"
_symmetry_group_IT_number 2
_symmetry_cell_setting 'triclinic'
loop_
_space_group_symop_operation_xyz
x,y,z
-x,-y,-z
loop_
_atom_site_type_symbol
_atom_site_label
_atom_site_fract_x
_atom_site_fract_y
_atom_site_fract_z
Si Si1 0.014196 0.956174 0.739403
Si Si2 0.453785 0.573870 0.208101
Si Si3 0.818886 0.234789 0.425708
Si Si4 0.081304 0.314319 0.822893
Si Si5 0.505631 0.719577 0.675399
Si Si6 0.576457 0.951269 0.954486
O O1 0.000000 0.000000 0.500000
O O2 0.846904 0.063188 0.547649
O O3 0.997376 0.767385 0.002444
O O4 0.209252 0.022174 0.884442
O O5 0.500000 0.500000 0.500000
O O6 0.522468 0.430073 0.307311
O O7 0.240618 0.618670 0.916274
O O8 0.534752 0.760873 0.078147
O O9 0.655684 0.262885 0.367442
O O10 0.000572 0.220242 0.709467
O O11 0.000000 0.500000 0.500000
O O12 0.297059 0.313754 0.033143
O O13 0.505176 0.900232 0.392785
O O14 0.500000 0.000000 0.000000
#
# Coordination Sequence:
#
# PCOD9071491 Si02
#       6
#     2   2   2   2   2   2
#     4  12  29  52  79 121 164 216 276 334 412 491
#     4  12  27  48  81 119 157 210 271 330 409 477
#     4  12  28  51  78 117 160 212 269 330 406 487
#     4  12  27  51  82 120 163 210 274 336 405 490
#     4  12  27  52  82 116 165 212 270 335 406 483
#     4  12  26  51  83 114 164 214 264 336 409 485
#
# _framework density 23.753042000000001
#
# number of rings (size 3 to 8) (size 9 to 14) (size 15 to 20)
#    0.000    0.000    5.000    4.000    2.333    1.333 
#    0.000    1.667    0.000    0.000    0.000    0.000 
#    0.000    0.000    0.000    0.000    0.000    0.000 
#
# Total GULP energy -67098.575619 kJ/mol
# GULP energy per Si atom -5591.547968 kJ/mol
# Density = 2.369898 g / cm^3
# Si number density = 23.753042 Si / 1000 Ang^3
#
#
#
# Elastic Constant Matrix: (Units=GPa)
#
#
# Indices 1 2 3 4 5 6 
#
# 1 141.6584 94.0599 84.4144 0.0279 5.3376 -12.1688
# 2 94.0599 163.2918 81.1919 -5.7756 1.4929 -5.1437
# 3 84.4144 81.1919 215.6568 1.2452 -18.2847 -4.3078
# 4 0.0279 -5.7756 1.2452 55.9505 8.4014 -4.4835
# 5 5.3376 1.4929 -18.2847 8.4014 52.9733 2.9886
# 6 -12.1688 -5.1437 -4.3078 -4.4835 2.9886 30.9685
#
#
#
# Elastic Compliance Matrix: (Units=1/GPa)
#
#
# Indices 1 2 3 4 5 6 
#
# 1 0.013313 -0.005975 -0.003093 0.000146 -0.002493 0.004070
# 2 -0.005975 0.010398 -0.001629 0.001120 -0.000394 -0.000647
# 3 -0.003093 -0.001629 0.006688 -0.000819 0.002850 -0.000949
# 4 0.000146 0.001120 -0.000819 0.018786 -0.003488 0.003186
# 5 -0.002493 -0.000394 0.002850 -0.003488 0.020855 -0.003167
# 6 0.004070 -0.000647 -0.000949 0.003186 -0.003167 0.034418
#
#
# Mechanical properties :
#
#
# Convention : Reuss Voigt Hill
#
# Bulk Modulus (GPa) = 111.02617 115.54882 113.28749
# Shear Modulus (GPa) = 38.80399 45.37451 42.08925
#
# Velocity S-wave (km/s) = 4.04622 4.37539 4.21402
# Velocity P-wave (km/s) = 8.28689 8.61841 8.45427
#
# Compressibility (1/GPa) = 0.00900689
#
# Stress axis : x y z
#
# Youngs Moduli (GPa) = 75.11591 96.16909 149.51662
#
# Poissons Ratio (x) = 0.57457 0.46239
# Poissons Ratio (y) = 0.44879 0.24357
# Poissons Ratio (z) = 0.23230 0.15666
#
# Static dielectric constant tensor:
#      x y z
#    x 1.866010 -0.042570 -0.049800 
#    y -0.042570 1.866600 -0.048210 
#    z -0.049800 -0.048210 1.923540 
# 
# From -- ./inp_files/261382.got.cif
#   From: 2010.05.17/outbox.cif.g08.bks.cpg/sg2_131_cif.got.tgz:261382.got - 2010.06.03 11:33:40.
