data_PCOD9071771
_publ_section_title
;
Structure prediction by ZEFSAII (Michael W. Deem and Ramdas Pophale) SiO2 
 PCOD9071771
Probable space group: P -1
;
_chemical_formula_sum "Si O2"
_cell_formula_units_Z 14
_cell_length_a 12.698499
_cell_length_b 23.398431
_cell_length_c 9.021690
_cell_angle_alpha 151.326725
_cell_angle_beta 148.568068
_cell_angle_gamma 22.310361
_cell_volume 475.377434
_symmetry_space_group_name_H-M "P -1"
_symmetry_group_IT_number 2
_symmetry_cell_setting 'triclinic'
loop_
_space_group_symop_operation_xyz
x,y,z
-x,-y,-z
loop_
_atom_site_type_symbol
_atom_site_label
_atom_site_fract_x
_atom_site_fract_y
_atom_site_fract_z
Si Si1 0.110698 0.956736 0.327133
Si Si2 0.098195 0.228158 0.048280
Si Si3 0.022629 0.274370 0.403993
Si Si4 0.355202 0.560551 0.249577
Si Si5 0.476372 0.765803 0.579569
Si Si6 0.862478 0.649604 0.008942
Si Si7 0.912414 0.891678 0.625270
O O1 0.793544 0.081225 0.298463
O O2 0.179400 0.957005 0.236307
O O3 0.312201 0.786516 0.281626
O O4 0.187775 0.059443 0.718506
O O5 0.289595 0.248945 0.251694
O O6 0.117708 0.232655 0.256752
O O7 0.779042 0.378391 0.938208
O O8 0.685400 0.422022 0.353110
O O9 0.093654 0.123808 0.240345
O O10 0.145673 0.331942 0.781727
O O11 0.220390 0.731067 0.561020
O O12 0.181198 0.526943 0.047101
O O13 0.680110 0.633570 0.657799
O O14 0.750277 0.834216 0.257680
#
# Coordination Sequence:
#
# PCOD9071771 Si02
#       7
#     2   2   2   2   2   2   2
#     4  10  19  33  51  66  88 124 162 194 225 272
#     4  10  18  29  50  73  96 119 150 194 230 278
#     4   9  15  27  49  74  97 122 147 185 242 269
#     4   7  13  26  48  71  91 125 158 175 217 279
#     4  10  19  33  51  66  88 124 162 194 225 272
#     4   7  15  28  47  72  86 124 153 184 218 270
#     4   7  15  28  47  72  86 124 153 184 218 270
#
# _framework density 29.450282999999999
#
# number of rings (size 3 to 8) (size 9 to 14) (size 15 to 20)
#    1.714    1.429    1.429    2.571    0.000    0.000 
#    0.000    4.286    0.000   30.857    0.000    0.000 
#    0.000    0.000    0.000    0.000    0.000    0.000 
#
# Total GULP energy -78094.136126 kJ/mol
# GULP energy per Si atom -5578.152580 kJ/mol
# Density = 2.938325 g / cm^3
# Si number density = 29.450283 Si / 1000 Ang^3
#
#
#
# Elastic Constant Matrix: (Units=GPa)
#
#
# Indices 1 2 3 4 5 6 
#
# 1 201.1270 24.8294 89.6811 -9.0362 -61.3349 16.9574
# 2 24.8294 34.8963 81.6121 -21.9880 -17.4032 -4.8856
# 3 89.6811 81.6121 7.5617 -19.2725 -4.3735 13.2408
# 4 -9.0362 -21.9880 -19.2725 55.3743 13.2156 9.0240
# 5 -61.3349 -17.4032 -4.3735 13.2156 68.9397 -8.1349
# 6 16.9574 -4.8856 13.2408 9.0240 -8.1349 37.1747
#
#
#
# Elastic Compliance Matrix: (Units=1/GPa)
#
#
# Indices 1 2 3 4 5 6 
#
# 1 0.006784 -0.007274 0.001271 -0.001848 0.004266 -0.003121
# 2 -0.007274 0.009000 0.011499 0.008111 -0.005348 -0.002734
# 3 0.001271 0.011499 -0.003783 0.002161 0.003682 0.002560
# 4 -0.001848 0.008111 0.002161 0.023769 -0.004684 -0.005655
# 5 0.004266 -0.005348 0.003682 -0.004684 0.018220 0.001164
# 6 -0.003121 -0.002734 0.002560 -0.005655 0.001164 0.028680
#
#
# Mechanical properties :
#
#
# Convention : Reuss Voigt Hill
#
# Bulk Modulus (GPa) = 43.49083 70.64782 57.06932
# Shear Modulus (GPa) = 63.01670 35.46190 49.23930
#
# Velocity S-wave (km/s) = 4.63078 3.47382 4.09338
# Velocity P-wave (km/s) = 6.58724 6.33489 6.46230
#
# Compressibility (1/GPa) = 0.02299335
#
# Stress axis : x y z
#
# Youngs Moduli (GPa) = 147.39934 111.10613 -264.33817
#
# Poissons Ratio (x) = 0.80823 0.33605
# Poissons Ratio (y) = 1.07224 3.03961
# Poissons Ratio (z) = -0.18738 -1.27760
#
# Static dielectric constant tensor:
#      x y z
#    x 2.301520 0.183620 -0.064490 
#    y 0.183620 2.380830 0.032060 
#    z -0.064490 0.032060 2.742230 
# 
# From -- ./inp_files/212088.got.cif
#   From: 2010.05.17/outbox.cif.g08.bks.cpg/sg2_107_cif.got.tgz:212088.got - 2010.06.03 11:33:40.
