data_PCOD9071960
_publ_section_title
;
Structure prediction by ZEFSAII (Michael W. Deem and Ramdas Pophale) SiO2 
 PCOD9071960
Probable space group: P -1
;
_chemical_formula_sum "Si O2"
_cell_formula_units_Z 14
_cell_length_a 8.151954
_cell_length_b 16.948663
_cell_length_c 12.698577
_cell_angle_alpha 155.378185
_cell_angle_beta 65.213272
_cell_angle_gamma 125.569631
_cell_volume 562.647633
_symmetry_space_group_name_H-M "P -1"
_symmetry_group_IT_number 2
_symmetry_cell_setting 'triclinic'
loop_
_space_group_symop_operation_xyz
x,y,z
-x,-y,-z
loop_
_atom_site_type_symbol
_atom_site_label
_atom_site_fract_x
_atom_site_fract_y
_atom_site_fract_z
Si Si1 0.210732 0.153563 0.307679
Si Si2 0.424796 0.048281 0.955295
Si Si3 0.247339 0.568873 0.390338
Si Si4 0.307345 0.549243 0.904884
Si Si5 0.195987 0.458536 0.499577
Si Si6 0.749482 0.969088 0.244086
Si Si7 0.878342 0.476396 0.856646
O O1 0.298055 0.015076 0.058194
O O2 0.319681 0.355260 0.607237
O O3 0.202405 0.287286 0.369182
O O4 0.976524 0.992950 0.224084
O O5 0.634203 0.291531 0.204471
O O6 0.302141 0.057273 0.897644
O O7 0.433877 0.830519 0.662905
O O8 0.252980 0.451679 0.353868
O O9 0.208350 0.476928 0.170652
O O10 0.035731 0.580094 0.477043
O O11 0.134013 0.585400 0.932981
O O12 0.540410 0.770353 0.113999
O O13 0.209153 0.472168 0.953561
O O14 0.790198 0.210721 0.558486
#
# Coordination Sequence:
#
# PCOD9071960 Si02
#       7
#     2   2   2   2   2   2   2
#     4  11  21  32  51  84 104 132 170 213 259 307
#     4  11  20  33  53  76 109 132 171 213 258 304
#     4  10  21  35  52  78 107 133 170 213 254 315
#     4  10  18  31  51  75 106 134 170 217 251 300
#     4  11  20  34  52  78 107 137 167 208 265 305
#     4  10  18  30  49  76 105 129 167 214 260 294
#     4   9  18  33  49  75 102 138 174 210 251 299
#
# _framework density 24.882358
#
# number of rings (size 3 to 8) (size 9 to 14) (size 15 to 20)
#    0.000    1.714    5.714    1.714    0.000    0.000 
#    0.000    0.000    0.000    0.857    0.000    5.000 
#    0.000    0.000    0.000    0.000    0.000    0.000 
#
# Total GULP energy -78318.443301 kJ/mol
# GULP energy per Si atom -5594.174521 kJ/mol
# Density = 2.482572 g / cm^3
# Si number density = 24.882358 Si / 1000 Ang^3
#
#
#
# Elastic Constant Matrix: (Units=GPa)
#
#
# Indices 1 2 3 4 5 6 
#
# 1 42.7450 29.8102 29.9625 -5.2768 -11.2172 -3.7222
# 2 29.8102 109.2101 34.6706 -12.2281 -1.3848 10.5293
# 3 29.9625 34.6706 76.8616 -5.4726 6.1681 -8.7205
# 4 -5.2768 -12.2281 -5.4726 67.7838 2.2796 13.5188
# 5 -11.2172 -1.3848 6.1681 2.2796 32.6298 -4.8438
# 6 -3.7222 10.5293 -8.7205 13.5188 -4.8438 36.8871
#
#
#
# Elastic Compliance Matrix: (Units=1/GPa)
#
#
# Indices 1 2 3 4 5 6 
#
# 1 0.044548 -0.007978 -0.014645 -0.001008 0.018726 0.006138
# 2 -0.007978 0.013318 -0.003237 0.002976 -0.002787 -0.006828
# 3 -0.014645 -0.003237 0.021239 -0.000414 -0.008641 0.003484
# 4 -0.001008 0.002976 -0.000414 0.016757 -0.002427 -0.007509
# 5 0.018726 -0.002787 -0.008641 -0.002427 0.039772 0.006755
# 6 0.006138 -0.006828 0.003484 -0.007509 0.006755 0.034141
#
#
# Mechanical properties :
#
#
# Convention : Reuss Voigt Hill
#
# Bulk Modulus (GPa) = 36.51598 46.41146 41.46372
# Shear Modulus (GPa) = 21.68044 36.41836 29.04940
#
# Velocity S-wave (km/s) = 2.95501 3.82988 3.42053
# Velocity P-wave (km/s) = 5.13323 6.18467 5.68332
#
# Compressibility (1/GPa) = 0.02738527
#
# Stress axis : x y z
#
# Youngs Moduli (GPa) = 22.44763 75.08622 47.08358
#
# Poissons Ratio (x) = 0.59902 0.68956
# Poissons Ratio (y) = 0.17908 0.15240
# Poissons Ratio (z) = 0.32875 0.24304
#
# Static dielectric constant tensor:
#      x y z
#    x 2.143490 0.025010 0.033170 
#    y 0.025010 1.939220 0.028680 
#    z 0.033170 0.028680 1.992000 
# 
# From -- ./inp_files/438503.got.cif
#   From: 2010.05.17/outbox.cif.g08.bks.cpg/sg2_220_cif.got.tgz:438503.got - 2010.06.03 11:33:40.
