data_PCOD9071259
_publ_section_title
;
Structure prediction by ZEFSAII (Michael W. Deem and Ramdas Pophale) SiO2 
 PCOD9071259
Probable space group: P -1
;
_chemical_formula_sum "Si O2"
_cell_formula_units_Z 14
_cell_length_a 9.758691
_cell_length_b 5.040445
_cell_length_c 14.926473
_cell_angle_alpha 62.274732
_cell_angle_beta 109.353187
_cell_angle_gamma 91.717207
_cell_volume 606.367201
_symmetry_space_group_name_H-M "P -1"
_symmetry_group_IT_number 2
_symmetry_cell_setting 'triclinic'
loop_
_space_group_symop_operation_xyz
x,y,z
-x,-y,-z
loop_
_atom_site_type_symbol
_atom_site_label
_atom_site_fract_x
_atom_site_fract_y
_atom_site_fract_z
Si Si1 0.976592 0.531917 0.595977
Si Si2 0.719692 0.962810 0.527513
Si Si3 0.243854 0.887081 0.301051
Si Si4 0.105318 0.198669 0.043515
Si Si5 0.723385 0.820088 0.215251
Si Si6 0.337156 0.484755 0.930117
Si Si7 0.573508 0.658011 0.382816
O O1 0.887329 0.860781 0.548435
O O2 0.866163 0.313348 0.645009
O O3 0.000000 0.500000 0.500000
O O4 0.128674 0.412066 0.696222
O O5 0.624269 0.798390 0.463731
O O6 0.720484 0.893294 0.644600
O O7 0.654240 0.314869 0.448635
O O8 0.399328 0.699059 0.338005
O O9 0.170403 0.041791 0.173111
O O10 0.238927 0.288839 0.998830
O O11 0.000000 0.500000 0.000000
O O12 0.000000 0.000000 0.000000
O O13 0.649288 0.675043 0.138738
O O14 0.627740 0.831344 0.282759
O O15 0.744398 0.166486 0.146187
O O16 0.500000 0.500000 0.000000
#
# Coordination Sequence:
#
# PCOD9071259 Si02
#       7
#     2   2   2   2   2   2   2
#     4  12  27  47  74 112 153 198 247 306 378 465
#     4  12  26  47  72 112 149 194 248 303 375 459
#     4  12  28  46  78 106 151 200 248 312 383 444
#     4  12  29  51  77 112 152 202 263 320 379 453
#     4  12  27  48  78 111 152 200 250 316 387 448
#     4  12  27  52  78 112 151 200 262 324 380 448
#     4  12  27  47  75 112 152 194 250 305 379 465
#
# _framework density 23.088322999999999
#
# number of rings (size 3 to 8) (size 9 to 14) (size 15 to 20)
#    0.000    0.000    2.857    5.571    8.000    2.286 
#    0.000    0.000    0.000    0.000    0.000    0.000 
#    0.000    0.000    0.000    0.000    0.000    0.000 
#
# Total GULP energy -78454.271119 kJ/mol
# GULP energy per Si atom -5603.876508 kJ/mol
# Density = 2.303577 g / cm^3
# Si number density = 23.088323 Si / 1000 Ang^3
#
#
#
# Elastic Constant Matrix: (Units=GPa)
#
#
# Indices 1 2 3 4 5 6 
#
# 1 179.8600 44.0514 87.2155 3.9295 -0.5942 5.7114
# 2 44.0514 166.8187 81.3981 6.4597 5.1620 1.5506
# 3 87.2155 81.3981 203.4242 16.7813 -4.9914 7.5147
# 4 3.9295 6.4597 16.7813 30.2242 2.9026 6.6666
# 5 -0.5942 5.1620 -4.9914 2.9026 23.7481 -2.1124
# 6 5.7114 1.5506 7.5147 6.6666 -2.1124 39.4987
#
#
#
# Elastic Compliance Matrix: (Units=1/GPa)
#
#
# Indices 1 2 3 4 5 6 
#
# 1 0.007088 -0.000461 -0.002925 0.000993 -0.000516 -0.000646
# 2 -0.000461 0.007605 -0.002928 0.000245 -0.002296 0.000161
# 3 -0.002925 -0.002928 0.007699 -0.003473 0.002588 -0.000202
# 4 0.000993 0.000245 -0.003473 0.036710 -0.005779 -0.005998
# 5 -0.000516 -0.002296 0.002588 -0.005779 0.044112 0.003007
# 6 -0.000646 0.000161 -0.000202 -0.005998 0.003007 0.026616
#
#
# Mechanical properties :
#
#
# Convention : Reuss Voigt Hill
#
# Bulk Modulus (GPa) = 102.41701 108.38143 105.39922
# Shear Modulus (GPa) = 34.31373 41.19006 37.75190
#
# Velocity S-wave (km/s) = 3.85930 4.22835 4.04803
# Velocity P-wave (km/s) = 8.01960 8.41918 8.22182
#
# Compressibility (1/GPa) = 0.00976400
#
# Stress axis : x y z
#
# Youngs Moduli (GPa) = 141.07561 131.49321 129.88554
#
# Poissons Ratio (x) = 0.06060 0.37997
# Poissons Ratio (y) = 0.06502 0.38030
# Poissons Ratio (z) = 0.41270 0.38501
#
# Static dielectric constant tensor:
#      x y z
#    x 1.892150 0.048390 -0.021190 
#    y 0.048390 1.912220 -0.030270 
#    z -0.021190 -0.030270 1.834170 
# 
# From -- ./inp_files/488097.got.cif
#   From: 2010.05.17/outbox.cif.g08.bks.cpg/sg2_245_cif.got.tgz:488097.got - 2010.06.03 11:33:40.
