data_PCOD9071265
_publ_section_title
;
Structure prediction by ZEFSAII (Michael W. Deem and Ramdas Pophale) SiO2 
 PCOD9071265
Probable space group: P -1
;
_chemical_formula_sum "Si O2"
_cell_formula_units_Z 8
_cell_length_a 8.107172
_cell_length_b 5.081903
_cell_length_c 8.406015
_cell_angle_alpha 88.310948
_cell_angle_beta 91.104213
_cell_angle_gamma 66.139387
_cell_volume 316.404899
_symmetry_space_group_name_H-M "P -1"
_symmetry_group_IT_number 2
_symmetry_cell_setting 'triclinic'
loop_
_space_group_symop_operation_xyz
x,y,z
-x,-y,-z
loop_
_atom_site_type_symbol
_atom_site_label
_atom_site_fract_x
_atom_site_fract_y
_atom_site_fract_z
Si Si1 0.204237 0.315985 0.636304
Si Si2 0.701554 0.259280 0.548308
Si Si3 0.091489 0.752093 0.138925
Si Si4 0.613717 0.676463 0.048559
O O1 0.164629 0.606413 0.531400
O O2 0.348007 0.330419 0.765434
O O3 0.057243 0.285190 0.751486
O O4 0.275484 0.037990 0.529277
O O5 0.500000 0.500000 0.500000
O O6 0.768775 0.203153 0.733567
O O7 0.795227 0.535239 0.951923
O O8 0.000000 0.000000 0.000000
O O9 0.500000 0.500000 0.000000
O O10 0.500000 0.000000 0.000000
#
# Coordination Sequence:
#
# PCOD9071265 Si02
#       4
#     2   2   2   2
#     4  12  26  47  74 110 150 198 252 312 376 449
#     4  12  27  49  76 110 152 201 252 310 378 453
#     4  12  27  49  78 115 154 200 253 316 380 450
#     4  12  26  47  74 109 151 199 250 308 375 450
#
# _framework density 25.28406
#
# number of rings (size 3 to 8) (size 9 to 14) (size 15 to 20)
#    0.000    0.000    0.000   10.500    0.000    8.000 
#    0.000    0.000    0.000    0.000    0.000    0.000 
#    0.000    0.000    0.000    0.000    0.000    0.000 
#
# Total GULP energy -44857.002791 kJ/mol
# GULP energy per Si atom -5607.125349 kJ/mol
# Density = 2.522651 g / cm^3
# Si number density = 25.284060 Si / 1000 Ang^3
#
#
#
# Elastic Constant Matrix: (Units=GPa)
#
#
# Indices 1 2 3 4 5 6 
#
# 1 118.3361 39.6134 51.7236 -8.9832 7.7495 3.9903
# 2 39.6134 187.9987 95.8505 20.5343 10.3054 -1.5934
# 3 51.7236 95.8505 261.9637 2.1968 32.9649 -2.8192
# 4 -8.9832 20.5343 2.1968 63.2091 7.6459 1.5130
# 5 7.7495 10.3054 32.9649 7.6459 44.8033 1.6474
# 6 3.9903 -1.5934 -2.8192 1.5130 1.6474 49.1672
#
#
#
# Elastic Compliance Matrix: (Units=1/GPa)
#
#
# Indices 1 2 3 4 5 6 
#
# 1 0.009783 -0.001601 -0.001286 0.002062 -0.000694 -0.000960
# 2 -0.001601 0.007095 -0.002357 -0.002555 0.000805 0.000276
# 3 -0.001286 -0.002357 0.005350 0.000789 -0.003322 0.000422
# 4 0.002062 -0.002555 0.000789 0.017328 -0.003283 -0.000628
# 5 -0.000694 0.000805 -0.003322 -0.003283 0.025290 -0.000854
# 6 -0.000960 0.000276 0.000422 -0.000628 -0.000854 0.020498
#
#
# Mechanical properties :
#
#
# Convention : Reuss Voigt Hill
#
# Bulk Modulus (GPa) = 85.17933 104.74149 94.96041
# Shear Modulus (GPa) = 50.12749 56.84333 53.48541
#
# Velocity S-wave (km/s) = 4.45744 4.74665 4.60432
# Velocity P-wave (km/s) = 7.76233 8.45912 8.11821
#
# Compressibility (1/GPa) = 0.01173994
#
# Stress axis : x y z
#
# Youngs Moduli (GPa) = 102.21878 140.93497 186.93187
#
# Poissons Ratio (x) = 0.22563 0.24041
# Poissons Ratio (y) = 0.16365 0.44059
# Poissons Ratio (z) = 0.13146 0.33218
#
# Static dielectric constant tensor:
#      x y z
#    x 2.204350 0.021240 0.064780 
#    y 0.021240 1.870770 -0.026170 
#    z 0.064780 -0.026170 2.014700 
# 
# From -- ./inp_files/58538.got.cif
#   From: 2010.05.17/outbox.cif.g08.bks.cpg/sg2_30_cif.got.tgz:58538.got - 2010.06.03 11:33:40.
