data_PCOD9071244
_publ_section_title
;
Structure prediction by ZEFSAII (Michael W. Deem and Ramdas Pophale) SiO2 
 PCOD9071244
Probable space group: P -1
;
_chemical_formula_sum "Si O2"
_cell_formula_units_Z 15
_cell_length_a 9.219165
_cell_length_b 15.337574
_cell_length_c 15.513420
_cell_angle_alpha 27.080173
_cell_angle_beta 120.719987
_cell_angle_gamma 136.948916
_cell_volume 608.834767
_symmetry_space_group_name_H-M "P -1"
_symmetry_group_IT_number 2
_symmetry_cell_setting 'triclinic'
loop_
_space_group_symop_operation_xyz
x,y,z
-x,-y,-z
loop_
_atom_site_type_symbol
_atom_site_label
_atom_site_fract_x
_atom_site_fract_y
_atom_site_fract_z
Si Si1 0.209331 0.037781 0.568778
Si Si2 0.587967 0.716240 0.265096
Si Si3 0.710935 0.651709 0.185791
Si Si4 0.235249 0.048964 0.218940
Si Si5 0.061736 0.837224 0.895676
Si Si6 0.034342 0.552586 0.362338
Si Si7 0.500000 0.000000 0.000000
Si Si8 0.328448 0.773694 0.718942
O O1 0.451977 0.352150 0.360753
O O2 0.160906 0.946522 0.734022
O O3 0.241882 0.871555 0.669683
O O4 0.000000 0.000000 0.500000
O O5 0.500000 0.500000 0.500000
O O6 0.732134 0.724473 0.228632
O O7 0.408453 0.720273 0.165279
O O8 0.723298 0.996285 0.114744
O O9 0.894354 0.636364 0.225502
O O10 0.741411 0.859804 0.952054
O O11 0.500721 0.237702 0.169069
O O12 0.086602 0.092803 0.184817
O O13 0.098606 0.739517 0.459028
O O14 0.891817 0.520213 0.126523
O O15 0.000000 0.500000 0.500000
O O16 0.303981 0.787163 0.208729
O O17 0.500000 0.000000 0.500000
#
# Coordination Sequence:
#
# PCOD9071244 Si02
#       8
#     2   2   2   2   2   2   1   2
#     4  12  26  48  78 115 159 208 272 338 404 484
#     4  12  26  48  75 117 158 206 264 334 404 483
#     4  12  26  51  79 116 166 213 266 342 409 492
#     4  12  26  49  78 112 159 212 266 339 408 483
#     4  12  26  46  77 111 158 202 272 331 399 485
#     4  12  27  49  76 117 163 211 270 330 409 485
#     4  12  28  42  76 108 152 210 258 318 402 476
#     4  12  27  50  78 113 157 212 273 335 406 483
#
# _framework density 24.637225000000001
#
# number of rings (size 3 to 8) (size 9 to 14) (size 15 to 20)
#    0.000    0.000    2.667    7.200    1.867    3.733 
#    0.000    0.000    0.000    0.000    0.000    0.000 
#    0.000    0.000    0.000    0.000    0.000    0.000 
#
# Total GULP energy -84005.154843 kJ/mol
# GULP energy per Si atom -5600.343656 kJ/mol
# Density = 2.458115 g / cm^3
# Si number density = 24.637225 Si / 1000 Ang^3
#
#
#
# Elastic Constant Matrix: (Units=GPa)
#
#
# Indices 1 2 3 4 5 6 
#
# 1 197.7498 64.4963 66.0743 -6.3126 -8.3121 -10.8475
# 2 64.4963 129.5594 60.5249 -14.5563 -7.1658 1.9612
# 3 66.0743 60.5249 185.7518 -7.2846 -7.0762 -9.8008
# 4 -6.3126 -14.5563 -7.2846 54.0487 -6.0000 -4.3791
# 5 -8.3121 -7.1658 -7.0762 -6.0000 53.9920 0.6379
# 6 -10.8475 1.9612 -9.8008 -4.3791 0.6379 53.1394
#
#
#
# Elastic Compliance Matrix: (Units=1/GPa)
#
#
# Indices 1 2 3 4 5 6 
#
# 1 0.006431 -0.002547 -0.001379 0.000024 0.000460 0.001149
# 2 -0.002547 0.010441 -0.002437 0.002193 0.000932 -0.001185
# 3 -0.001379 -0.002437 0.006747 0.000218 0.000360 0.001066
# 4 0.000024 0.002193 0.000218 0.019525 0.002475 0.001543
# 5 0.000460 0.000932 0.000360 0.002475 0.019037 0.000101
# 6 0.001149 -0.001185 0.001066 0.001543 0.000101 0.019419
#
#
# Mechanical properties :
#
#
# Convention : Reuss Voigt Hill
#
# Bulk Modulus (GPa) = 91.79843 99.47242 95.63543
# Shear Modulus (GPa) = 51.04340 53.70037 52.37188
#
# Velocity S-wave (km/s) = 4.55664 4.67373 4.61556
# Velocity P-wave (km/s) = 8.06380 8.34191 8.20404
#
# Compressibility (1/GPa) = 0.01089343
#
# Stress axis : x y z
#
# Youngs Moduli (GPa) = 155.48818 95.77905 148.22234
#
# Poissons Ratio (x) = 0.24393 0.20437
# Poissons Ratio (y) = 0.39599 0.36123
# Poissons Ratio (z) = 0.21439 0.23342
#
# Static dielectric constant tensor:
#      x y z
#    x 2.087020 0.109360 0.036520 
#    y 0.109360 2.077870 -0.006000 
#    z 0.036520 -0.006000 1.916560 
# 
# From -- ./inp_files/505120.got.cif
#   From: 2010.05.17/outbox.cif.g08.bks.cpg/sg2_253_cif.got.tgz:505120.got - 2010.06.03 11:33:40.
