data_PCOD9071773
_publ_section_title
;
Structure prediction by ZEFSAII (Michael W. Deem and Ramdas Pophale) SiO2 
 PCOD9071773
Probable space group: P -1
;
_chemical_formula_sum "Si O2"
_cell_formula_units_Z 14
_cell_length_a 13.845470
_cell_length_b 14.673537
_cell_length_c 7.852757
_cell_angle_alpha 92.887046
_cell_angle_beta 116.786892
_cell_angle_gamma 138.869244
_cell_volume 700.582240
_symmetry_space_group_name_H-M "P -1"
_symmetry_group_IT_number 2
_symmetry_cell_setting 'triclinic'
loop_
_space_group_symop_operation_xyz
x,y,z
-x,-y,-z
loop_
_atom_site_type_symbol
_atom_site_label
_atom_site_fract_x
_atom_site_fract_y
_atom_site_fract_z
Si Si1 0.970623 0.122105 0.479293
Si Si2 0.307930 0.225169 0.917645
Si Si3 0.776066 0.545297 0.156068
Si Si4 0.168542 0.544727 0.096551
Si Si5 0.089631 0.289660 0.078727
Si Si6 0.246683 0.220551 0.244059
Si Si7 0.333186 0.100475 0.454161
O O1 0.164222 0.194946 0.699417
O O2 0.072860 0.297558 0.564776
O O3 0.844526 0.977307 0.216344
O O4 0.787596 0.995700 0.470362
O O5 0.530834 0.366820 0.011143
O O6 0.353530 0.291320 0.150146
O O7 0.845040 0.501687 0.115378
O O8 0.807406 0.634160 0.024397
O O9 0.114084 0.413781 0.153384
O O10 0.421986 0.757942 0.345404
O O11 0.000000 0.500000 0.000000
O O12 0.219413 0.305756 0.282414
O O13 0.837774 0.072539 0.828496
O O14 0.355057 0.225456 0.450799
O O15 0.000000 0.000000 0.000000
#
# Coordination Sequence:
#
# PCOD9071773 Si02
#       7
#     2   2   2   2   2   2   2
#     4  10  18  29  50  74 103 135 164 196 252 306
#     4  11  17  29  50  72 107 139 154 202 246 311
#     4   9  18  31  47  75 101 125 177 207 240 294
#     4  10  20  34  53  75  98 132 180 221 246 280
#     4   8  18  33  47  77 106 127 164 208 248 305
#     4  10  18  32  50  77 115 134 155 198 260 319
#     4  10  18  35  49  76 107 135 160 205 257 305
#
# _framework density 19.983377000000001
#
# number of rings (size 3 to 8) (size 9 to 14) (size 15 to 20)
#    0.857    1.429    5.714    0.429    0.000    1.143 
#    0.000    2.857    0.000    0.857    0.000    5.000 
#    0.000    0.000    0.000    0.000    0.000    0.000 
#
# Total GULP energy -77958.693877 kJ/mol
# GULP energy per Si atom -5568.478134 kJ/mol
# Density = 1.993789 g / cm^3
# Si number density = 19.983377 Si / 1000 Ang^3
#
#
#
# Elastic Constant Matrix: (Units=GPa)
#
#
# Indices 1 2 3 4 5 6 
#
# 1 134.6450 44.5205 49.8383 30.9398 28.3396 12.2996
# 2 44.5205 54.3173 25.5025 14.7597 6.9123 -0.2103
# 3 49.8383 25.5025 74.7144 31.1918 4.3082 -1.1416
# 4 30.9398 14.7597 31.1918 21.0287 -2.8675 -6.4261
# 5 28.3396 6.9123 4.3082 -2.8675 25.8697 3.5436
# 6 12.2996 -0.2103 -1.1416 -6.4261 3.5436 13.0643
#
#
#
# Elastic Compliance Matrix: (Units=1/GPa)
#
#
# Indices 1 2 3 4 5 6 
#
# 1 -0.329342 0.033489 -0.315506 1.222559 0.434908 0.766421
# 2 0.033489 0.021822 0.034212 -0.149199 -0.052800 -0.087254
# 3 -0.315506 0.034212 -0.253006 1.084173 0.402983 0.699458
# 4 1.222559 -0.149199 1.084173 -4.310640 -1.581062 -2.750132
# 5 0.434908 -0.052800 0.402983 -1.581062 -0.527727 -1.009639
# 6 0.766421 -0.087254 0.699458 -2.750132 -1.009639 -1.664180
#
#
# Mechanical properties :
#
#
# Convention : Reuss Voigt Hill
#
# Bulk Modulus (GPa) = -0.94685 55.93326 27.49321
# Shear Modulus (GPa) = -0.72259 21.58025 10.42883
#
# Velocity S-wave (km/s) = -0.60198 3.28976 2.28694
# Velocity P-wave (km/s) = 0.97879 6.51772 4.55646
#
# Compressibility (1/GPa) = -1.05613527
#
# Stress axis : x y z
#
# Youngs Moduli (GPa) = -3.03636 45.82521 -3.95248
#
# Poissons Ratio (x) = -1.53464 -1.24703
# Poissons Ratio (y) = 0.10168 0.13522
# Poissons Ratio (z) = -0.95799 -1.56775
#
# Static dielectric constant tensor:
#      x y z
#    x 1.717160 -0.009340 -0.086640 
#    y -0.009340 1.762510 0.001700 
#    z -0.086640 0.001700 1.837850 
# 
# From -- ./inp_files/311543.got.cif
#   From: 2010.05.17/outbox.cif.g08.bks.cpg/sg2_156_cif.got.tgz:311543.got - 2010.06.03 11:33:40.
