data_PCOD9071254
_publ_section_title
;
Structure prediction by ZEFSAII (Michael W. Deem and Ramdas Pophale) SiO2 
 PCOD9071254
Probable space group: P -1
;
_chemical_formula_sum "Si O2"
_cell_formula_units_Z 14
_cell_length_a 9.550017
_cell_length_b 8.791565
_cell_length_c 13.225164
_cell_angle_alpha 81.407478
_cell_angle_beta 48.179119
_cell_angle_gamma 50.776180
_cell_volume 565.288260
_symmetry_space_group_name_H-M "P -1"
_symmetry_group_IT_number 2
_symmetry_cell_setting 'triclinic'
loop_
_space_group_symop_operation_xyz
x,y,z
-x,-y,-z
loop_
_atom_site_type_symbol
_atom_site_label
_atom_site_fract_x
_atom_site_fract_y
_atom_site_fract_z
Si Si1 0.444498 0.154095 0.923078
Si Si2 0.255466 0.763693 0.117744
Si Si3 0.980891 0.348344 0.636740
Si Si4 0.500000 0.500000 0.500000
Si Si5 0.541788 0.004509 0.284419
Si Si6 0.091714 0.472595 0.753213
Si Si7 0.441000 0.662102 0.734852
Si Si8 0.000000 0.000000 0.000000
O O1 0.638908 0.181093 0.853788
O O2 0.494838 0.049697 0.801117
O O3 0.134864 0.386649 0.066169
O O4 0.500000 0.000000 0.000000
O O5 0.017084 0.805536 0.280446
O O6 0.500000 0.500000 0.000000
O O7 0.154636 0.906721 0.052090
O O8 0.721854 0.483501 0.675864
O O9 0.253003 0.206206 0.455962
O O10 0.948819 0.509478 0.712619
O O11 0.259749 0.528032 0.655420
O O12 0.486744 0.607017 0.602224
O O13 0.684524 0.089635 0.202065
O O14 0.702429 0.787534 0.295440
O O15 0.189608 0.729167 0.901767
#
# Coordination Sequence:
#
# PCOD9071254 Si02
#       8
#     2   2   2   1   2   2   2   1
#     4  12  29  50  77 116 159 206 264 329 399 480
#     4  12  26  50  81 117 158 212 265 328 394 478
#     4  12  26  51  81 110 164 206 264 331 402 468
#     4  12  32  46  80 116 156 202 270 330 402 472
#     4  12  28  48  79 112 155 214 261 330 401 471
#     4  12  27  52  76 116 159 206 266 331 395 486
#     4  12  28  49  79 114 160 213 260 336 397 478
#     4  12  26  46  80 114 156 210 264 320 398 468
#
# _framework density 24.766126
#
# number of rings (size 3 to 8) (size 9 to 14) (size 15 to 20)
#    0.000    0.000    4.286    3.857   10.000    0.571 
#    0.000    0.000    0.000    0.000    0.000    0.000 
#    0.000    0.000    0.000    0.000    0.000    0.000 
#
# Total GULP energy -78097.135657 kJ/mol
# GULP energy per Si atom -5578.366833 kJ/mol
# Density = 2.470976 g / cm^3
# Si number density = 24.766126 Si / 1000 Ang^3
#
#
#
# Elastic Constant Matrix: (Units=GPa)
#
#
# Indices 1 2 3 4 5 6 
#
# 1 175.9674 47.5036 55.7898 -11.4034 20.6543 16.6532
# 2 47.5036 62.7371 23.6597 5.8635 -7.6124 -17.2069
# 3 55.7898 23.6597 143.3863 -9.9935 18.1714 -8.5815
# 4 -11.4034 5.8635 -9.9935 31.1655 6.8555 -12.6736
# 5 20.6543 -7.6124 18.1714 6.8555 60.4445 -5.6278
# 6 16.6532 -17.2069 -8.5815 -12.6736 -5.6278 42.0634
#
#
#
# Elastic Compliance Matrix: (Units=1/GPa)
#
#
# Indices 1 2 3 4 5 6 
#
# 1 0.011095 -0.011123 -0.002096 0.002990 -0.005761 -0.009240
# 2 -0.011123 0.031315 -0.001603 -0.006084 0.010448 0.016451
# 3 -0.002096 -0.001603 0.008802 0.004037 -0.002322 0.002876
# 4 0.002990 -0.006084 0.004037 0.040559 -0.006814 0.008460
# 5 -0.005761 0.010448 -0.002322 -0.006814 0.021948 0.006965
# 6 -0.009240 0.016451 0.002876 0.008460 0.006965 0.038229
#
#
# Mechanical properties :
#
#
# Convention : Reuss Voigt Hill
#
# Bulk Modulus (GPa) = 46.36567 70.66634 58.51600
# Shear Modulus (GPa) = 26.48591 43.74387 35.11489
#
# Velocity S-wave (km/s) = 3.27378 4.20727 3.76953
# Velocity P-wave (km/s) = 5.74911 7.22474 6.52875
#
# Compressibility (1/GPa) = 0.02156768
#
# Stress axis : x y z
#
# Youngs Moduli (GPa) = 90.13466 31.93397 113.61239
#
# Poissons Ratio (x) = 0.35520 0.23812
# Poissons Ratio (y) = 1.00256 0.18210
# Poissons Ratio (z) = 0.18891 0.05118
#
# Static dielectric constant tensor:
#      x y z
#    x 1.971860 0.014230 -0.071870 
#    y 0.014230 2.051790 -0.023380 
#    z -0.071870 -0.023380 2.064320 
# 
# From -- ./inp_files/379010.got.cif
#   From: 2010.05.17/outbox.cif.g08.bks.cpg/sg2_190_cif.got.tgz:379010.got - 2010.06.03 11:33:40.
