data_PCOD9071299
_publ_section_title
;
Structure prediction by ZEFSAII (Michael W. Deem and Ramdas Pophale) SiO2 
 PCOD9071299
Probable space group: P -1
;
_chemical_formula_sum "Si O2"
_cell_formula_units_Z 14
_cell_length_a 14.354779
_cell_length_b 8.124764
_cell_length_c 8.287821
_cell_angle_alpha 127.599488
_cell_angle_beta 117.266793
_cell_angle_gamma 96.743399
_cell_volume 562.302131
_symmetry_space_group_name_H-M "P -1"
_symmetry_group_IT_number 2
_symmetry_cell_setting 'triclinic'
loop_
_space_group_symop_operation_xyz
x,y,z
-x,-y,-z
loop_
_atom_site_type_symbol
_atom_site_label
_atom_site_fract_x
_atom_site_fract_y
_atom_site_fract_z
Si Si1 0.456356 0.371156 0.710921
Si Si2 0.180524 0.698803 0.386308
Si Si3 0.701263 0.423732 0.881069
Si Si4 0.884658 0.918958 0.478642
Si Si5 0.584284 0.892673 0.981203
Si Si6 0.254251 0.933952 0.105891
Si Si7 0.970074 0.749523 0.742359
O O1 0.550786 0.292628 0.683102
O O2 0.312403 0.139874 0.421923
O O3 0.500000 0.500000 0.000000
O O4 0.489714 0.599612 0.761532
O O5 0.229652 0.584070 0.228359
O O6 0.305442 0.943080 0.704382
O O7 0.105756 0.493524 0.346474
O O8 0.109575 0.824411 0.330837
O O9 0.731233 0.281638 0.949225
O O10 0.761113 0.707221 0.155136
O O11 0.899545 0.764657 0.539822
O O12 0.000000 0.000000 0.500000
O O13 0.654310 0.935356 0.894354
O O14 0.500000 0.000000 0.000000
O O15 0.110247 0.811900 0.864424
O O16 0.000000 0.000000 0.000000
#
# Coordination Sequence:
#
# PCOD9071299 Si02
#       7
#     2   2   2   2   2   2   2
#     4  12  27  49  80 111 152 205 263 324 400 467
#     4  12  27  52  79 119 160 206 267 320 393 469
#     4  12  26  49  80 112 153 204 261 325 393 467
#     4  12  26  49  77 113 160 208 263 315 387 466
#     4  12  26  47  79 112 156 201 261 331 391 467
#     4  12  27  48  75 115 155 202 262 322 393 466
#     4  12  29  46  80 115 159 209 256 322 389 464
#
# _framework density 24.897648
#
# number of rings (size 3 to 8) (size 9 to 14) (size 15 to 20)
#    0.000    0.000    1.429    7.714    6.000    3.429 
#    0.000    0.000    0.000    0.000    0.000    0.000 
#    0.000    0.000    0.000    0.000    0.000    0.000 
#
# Total GULP energy -78390.817619 kJ/mol
# GULP energy per Si atom -5599.344116 kJ/mol
# Density = 2.484098 g / cm^3
# Si number density = 24.897648 Si / 1000 Ang^3
#
#
#
# Elastic Constant Matrix: (Units=GPa)
#
#
# Indices 1 2 3 4 5 6 
#
# 1 139.4505 66.9643 14.5838 3.4545 0.6461 -20.9812
# 2 66.9643 158.2220 26.8830 23.7681 -9.8695 -16.7103
# 3 14.5838 26.8830 107.8387 10.6114 -4.3195 -11.0399
# 4 3.4545 23.7681 10.6114 45.6722 -0.9090 -2.3669
# 5 0.6461 -9.8695 -4.3195 -0.9090 35.9963 -0.5250
# 6 -20.9812 -16.7103 -11.0399 -2.3669 -0.5250 44.5228
#
#
#
# Elastic Compliance Matrix: (Units=1/GPa)
#
#
# Indices 1 2 3 4 5 6 
#
# 1 0.009526 -0.003987 -0.000185 0.001529 -0.001204 0.003014
# 2 -0.003987 0.009064 -0.001120 -0.004054 0.002335 0.001058
# 3 -0.000185 -0.001120 0.009963 -0.001603 0.000879 0.001889
# 4 0.001529 -0.004054 -0.001603 0.024252 -0.000718 0.000082
# 5 -0.001204 0.002335 0.000879 -0.000718 0.028542 0.000826
# 6 0.003014 0.001058 0.001889 0.000082 0.000826 0.024760
#
#
# Mechanical properties :
#
#
# Convention : Reuss Voigt Hill
#
# Bulk Modulus (GPa) = 55.64356 69.15260 62.39808
# Shear Modulus (GPa) = 40.75646 45.04360 42.90003
#
# Velocity S-wave (km/s) = 4.05033 4.25803 4.15547
# Velocity P-wave (km/s) = 6.65364 7.21176 6.93831
#
# Compressibility (1/GPa) = 0.01797153
#
# Stress axis : x y z
#
# Youngs Moduli (GPa) = 104.97632 110.32412 100.36674
#
# Poissons Ratio (x) = 0.43984 0.01852
# Poissons Ratio (y) = 0.41852 0.11238
# Poissons Ratio (z) = 0.01937 0.12353
#
# Static dielectric constant tensor:
#      x y z
#    x 2.058270 0.031900 0.195390 
#    y 0.031900 1.941660 -0.139460 
#    z 0.195390 -0.139460 2.155740 
# 
# From -- ./inp_files/299775.got.cif
#   From: 2010.05.17/outbox.cif.g08.bks.cpg/sg2_150_cif.got.tgz:299775.got - 2010.06.03 11:33:40.
