data_PCOD9071257
_publ_section_title
;
Structure prediction by ZEFSAII (Michael W. Deem and Ramdas Pophale) SiO2 
 PCOD9071257
Probable space group: P -1
;
_chemical_formula_sum "Si O2"
_cell_formula_units_Z 15
_cell_length_a 8.985100
_cell_length_b 9.449286
_cell_length_c 15.090248
_cell_angle_alpha 55.569341
_cell_angle_beta 140.077009
_cell_angle_gamma 108.848586
_cell_volume 663.223244
_symmetry_space_group_name_H-M "P -1"
_symmetry_group_IT_number 2
_symmetry_cell_setting 'triclinic'
loop_
_space_group_symop_operation_xyz
x,y,z
-x,-y,-z
loop_
_atom_site_type_symbol
_atom_site_label
_atom_site_fract_x
_atom_site_fract_y
_atom_site_fract_z
Si Si1 0.132251 0.941291 0.717220
Si Si2 0.483777 0.324044 0.604534
Si Si3 0.149515 0.898185 0.022376
Si Si4 0.999786 0.642987 0.525109
Si Si5 0.500000 0.000000 0.000000
Si Si6 0.424973 0.648285 0.838027
Si Si7 0.185121 0.322600 0.134223
Si Si8 0.365215 0.158895 0.439988
O O1 0.045137 0.153047 0.598438
O O2 0.278237 0.836342 0.739861
O O3 0.319744 0.908599 0.893685
O O4 0.898152 0.863705 0.648408
O O5 0.500000 0.500000 0.500000
O O6 0.671318 0.260779 0.789712
O O7 0.500040 0.183368 0.582416
O O8 0.222661 0.355219 0.514376
O O9 0.322183 0.997341 0.010053
O O10 0.963846 0.827699 0.899128
O O11 0.000000 0.000000 0.000000
O O12 0.242856 0.588076 0.708548
O O13 0.000000 0.500000 0.500000
O O14 0.650479 0.672926 0.876864
O O15 0.500000 0.500000 0.000000
O O16 0.335429 0.307831 0.299022
O O17 0.000000 0.500000 0.000000
O O18 0.500000 0.000000 0.500000
#
# Coordination Sequence:
#
# PCOD9071257 Si02
#       8
#     2   2   2   2   1   2   2   2
#     4  12  26  51  78 110 156 202 267 323 396 480
#     4  12  29  49  75 112 160 199 258 333 397 475
#     4  12  27  50  79 113 153 202 260 322 395 468
#     4  12  30  49  78 112 155 207 263 329 399 473
#     4  12  26  46  82 114 154 204 266 326 394 468
#     4  12  29  50  79 113 155 205 266 332 402 478
#     4  12  27  47  74 109 151 195 253 316 392 470
#     4  12  26  47  78 109 147 205 253 314 394 469
#
# _framework density 22.616817999999999
#
# number of rings (size 3 to 8) (size 9 to 14) (size 15 to 20)
#    0.000    0.000    4.000    4.400   11.200    0.000 
#    0.000    0.000    0.000    0.000    0.000    0.000 
#    0.000    0.000    0.000    0.000    0.000    0.000 
#
# Total GULP energy -83643.944570 kJ/mol
# GULP energy per Si atom -5576.262971 kJ/mol
# Density = 2.256534 g / cm^3
# Si number density = 22.616818 Si / 1000 Ang^3
#
#
#
# Elastic Constant Matrix: (Units=GPa)
#
#
# Indices 1 2 3 4 5 6 
#
# 1 158.3573 22.6000 13.6716 -12.7754 13.9568 -5.6695
# 2 22.6000 91.9740 25.7147 10.9789 -2.1934 -27.6085
# 3 13.6716 25.7147 54.9012 2.7732 13.4308 -11.8270
# 4 -12.7754 10.9789 2.7732 44.7059 -3.7366 0.2206
# 5 13.9568 -2.1934 13.4308 -3.7366 30.9120 1.4181
# 6 -5.6695 -27.6085 -11.8270 0.2206 1.4181 41.7703
#
#
#
# Elastic Compliance Matrix: (Units=1/GPa)
#
#
# Indices 1 2 3 4 5 6 
#
# 1 0.007073 -0.002148 -0.000249 0.002321 -0.002937 -0.000443
# 2 -0.002148 0.016215 -0.005936 -0.003951 0.003826 0.008636
# 3 -0.000249 -0.005936 0.024606 -0.001100 -0.011289 0.003399
# 4 0.002321 -0.003951 -0.001100 0.024269 0.002212 -0.002811
# 5 -0.002937 0.003826 -0.011289 0.002212 0.039230 -0.002410
# 6 -0.000443 0.008636 0.003399 -0.002811 -0.002410 0.030648
#
#
# Mechanical properties :
#
#
# Convention : Reuss Voigt Hill
#
# Bulk Modulus (GPa) = 32.02305 47.68945 39.85625
# Shear Modulus (GPa) = 29.56512 39.69405 34.62959
#
# Velocity S-wave (km/s) = 3.61947 4.19390 3.91723
# Velocity P-wave (km/s) = 5.62646 6.67707 6.17416
#
# Compressibility (1/GPa) = 0.03122751
#
# Stress axis : x y z
#
# Youngs Moduli (GPa) = 141.37877 61.66953 40.63999
#
# Poissons Ratio (x) = 0.13249 0.01013
# Poissons Ratio (y) = 0.30374 0.24124
# Poissons Ratio (z) = 0.03525 0.36607
#
# Static dielectric constant tensor:
#      x y z
#    x 1.864700 0.005560 -0.090340 
#    y 0.005560 1.827160 0.017690 
#    z -0.090340 0.017690 1.857880 
# 
# From -- ./inp_files/158509.got.cif
#   From: 2010.05.17/outbox.cif.g08.bks.cpg/sg2_80_cif.got.tgz:158509.got - 2010.06.03 11:33:40.
