data_PCOD9071824
_publ_section_title
;
Structure prediction by ZEFSAII (Michael W. Deem and Ramdas Pophale) SiO2 
 PCOD9071824
Probable space group: P -1
;
_chemical_formula_sum "Si O2"
_cell_formula_units_Z 16
_cell_length_a 9.000000
_cell_length_b 12.000000
_cell_length_c 9.000000
_cell_angle_alpha 60.000000
_cell_angle_beta 120.000000
_cell_angle_gamma 110.000000
_cell_volume 723.492119
_symmetry_space_group_name_H-M "P -1"
_symmetry_group_IT_number 2
_symmetry_cell_setting 'triclinic'
loop_
_space_group_symop_operation_xyz
x,y,z
-x,-y,-z
loop_
_atom_site_type_symbol
_atom_site_label
_atom_site_fract_x
_atom_site_fract_y
_atom_site_fract_z
Si Si1 0.018744 0.947488 0.800891
Si Si2 0.152226 0.795208 0.529632
Si Si3 0.778681 0.648815 0.522914
Si Si4 0.144705 0.593819 0.420622
Si Si5 0.316854 0.157129 0.876319
Si Si6 0.695040 0.201240 0.104061
Si Si7 0.154806 0.300909 0.958196
Si Si8 0.792729 0.500420 0.915376
O O1 0.138132 0.870681 0.804034
O O2 0.888792 0.833039 0.884150
O O3 0.173791 0.033040 0.911694
O O4 0.911191 0.063761 0.618246
O O5 0.210012 0.718018 0.468097
O O6 0.304562 0.799404 0.718617
O O7 0.983664 0.702009 0.570924
O O8 0.736771 0.510922 0.507582
O O9 0.695292 0.770215 0.336200
O O10 0.740857 0.601985 0.700709
O O11 0.000000 0.500000 0.500000
O O12 0.034669 0.657539 0.198632
O O13 0.511883 0.131220 0.008580
O O14 0.257061 0.263656 0.889484
O O15 0.713534 0.351251 0.961807
O O16 0.245240 0.429131 0.997663
O O17 0.000000 0.500000 0.000000
#
# Coordination Sequence:
#
# PCOD9071824 Si02
#       8
#     2   2   2   2   2   2   2   2
#     4  11  22  41  67  88 121 172 217 252 295 379
#     4  10  20  35  63  91 118 164 218 252 300 368
#     4  10  19  38  61  93 123 167 208 252 305 381
#     4  10  16  32  61  90 118 155 210 252 290 361
#     4  11  26  40  64  93 133 164 203 254 330 367
#     4  12  24  41  62  96 130 164 201 266 319 368
#     4  12  21  40  67  96 121 164 215 261 297 374
#     4  12  21  37  66  96 123 157 215 263 303 361
#
# _framework density 22.114961000000001
#
# number of rings (size 3 to 8) (size 9 to 14) (size 15 to 20)
#    0.000    1.000    7.500    1.875    0.000    2.000 
#    0.000    0.625    0.000    0.000    0.000    0.000 
#    0.000    0.000    0.000    0.000    0.000    0.000 
#
# Total GULP energy -89169.591500 kJ/mol
# GULP energy per Si atom -5573.099469 kJ/mol
# Density = 2.206463 g / cm^3
# Si number density = 22.114961 Si / 1000 Ang^3
#
#
#
# Elastic Constant Matrix: (Units=GPa)
#
#
# Indices 1 2 3 4 5 6 
#
# 1 4.9452 4.3186 -1.5694 2.2121 0.5828 5.3155
# 2 4.3186 100.5689 15.6818 -13.0144 -4.5947 -17.4551
# 3 -1.5694 15.6818 54.2661 -4.5836 5.6504 3.6730
# 4 2.2121 -13.0144 -4.5836 35.3181 0.0956 -4.1837
# 5 0.5828 -4.5947 5.6504 0.0956 16.0300 7.4267
# 6 5.3155 -17.4551 3.6730 -4.1837 7.4267 26.2191
#
#
#
# Elastic Compliance Matrix: (Units=1/GPa)
#
#
# Indices 1 2 3 4 5 6 
#
# 1 0.451771 -0.057810 0.031931 -0.063561 0.026662 -0.152244
# 2 -0.057810 0.020429 -0.008118 0.013592 -0.002906 0.029450
# 3 0.031931 -0.008118 0.022862 -0.003703 -0.004908 -0.014282
# 4 -0.063561 0.013592 -0.003703 0.040504 -0.007052 0.030914
# 5 0.026662 -0.002906 -0.004908 -0.007052 0.075919 -0.029282
# 6 -0.152244 0.029450 -0.014282 0.030914 -0.029282 0.103839
#
#
# Mechanical properties :
#
#
# Convention : Reuss Voigt Hill
#
# Bulk Modulus (GPa) = 2.34155 21.84913 12.09534
# Shear Modulus (GPa) = 5.40147 24.93673 15.16910
#
# Velocity S-wave (km/s) = 1.56453 3.36161 2.62185
# Velocity P-wave (km/s) = 2.07961 4.99685 3.82709
#
# Compressibility (1/GPa) = 0.42706787
#
# Stress axis : x y z
#
# Youngs Moduli (GPa) = 2.21351 48.94927 43.74048
#
# Poissons Ratio (x) = 2.82976 -1.39668
# Poissons Ratio (y) = 0.12796 0.35510
# Poissons Ratio (z) = -0.07068 0.39738
#
# Static dielectric constant tensor:
#      x y z
#    x 1.812410 -0.022550 -0.040520 
#    y -0.022550 1.903710 0.069720 
#    z -0.040520 0.069720 1.909200 
# 
# From -- ./inp_files/185407.got.cif
#   From: 2010.05.17/outbox.ucp.g08.bks.cvg/sg2_93_cif.got.tgz:185407.got - 2010.06.11 11:32:03.
