data_PCOD9071266
_publ_section_title
;
Structure prediction by ZEFSAII (Michael W. Deem and Ramdas Pophale) SiO2 
 PCOD9071266
Probable space group: P -1
;
_chemical_formula_sum "Si O2"
_cell_formula_units_Z 16
_cell_length_a 9.383727
_cell_length_b 8.895428
_cell_length_c 11.292092
_cell_angle_alpha 105.190497
_cell_angle_beta 113.275816
_cell_angle_gamma 111.421096
_cell_volume 709.237304
_symmetry_space_group_name_H-M "P -1"
_symmetry_group_IT_number 2
_symmetry_cell_setting 'triclinic'
loop_
_space_group_symop_operation_xyz
x,y,z
-x,-y,-z
loop_
_atom_site_type_symbol
_atom_site_label
_atom_site_fract_x
_atom_site_fract_y
_atom_site_fract_z
Si Si1 0.459593 0.646090 0.070204
Si Si2 0.270738 0.945276 0.836763
Si Si3 0.427669 0.764841 0.687510
Si Si4 0.542076 0.574183 0.340600
Si Si5 0.873939 0.309539 0.052374
Si Si6 0.756894 0.389264 0.636081
Si Si7 0.067188 0.082849 0.407872
Si Si8 0.223731 0.895335 0.258486
O O1 0.502532 0.649160 0.223474
O O2 0.595004 0.839903 0.094045
O O3 0.500000 0.500000 0.000000
O O4 0.258176 0.610693 0.982329
O O5 0.362444 0.845989 0.784050
O O6 0.225897 0.875666 0.941106
O O7 0.085244 0.893472 0.698918
O O8 0.475040 0.619259 0.721345
O O9 0.260127 0.659357 0.517343
O O10 0.601087 0.928321 0.707505
O O11 0.394854 0.559746 0.381572
O O12 0.744516 0.724447 0.478351
O O13 0.054963 0.450823 0.212699
O O14 0.892891 0.247602 0.914792
O O15 0.709788 0.207621 0.655405
O O16 0.109433 0.955978 0.312458
O O17 0.000000 0.000000 0.500000
#
# Coordination Sequence:
#
# PCOD9071266 Si02
#       8
#     2   2   2   2   2   2   2   2
#     4  12  27  46  73 107 155 202 244 311 377 448
#     4  12  27  49  76 111 153 194 257 309 372 446
#     4  12  26  48  81 108 148 203 247 317 373 441
#     4  12  26  47  74 111 148 192 255 309 375 442
#     4  12  28  48  74 113 151 202 253 305 374 455
#     4  12  26  48  76 108 154 193 254 311 375 443
#     4  12  27  48  77 113 144 195 259 310 376 446
#     4  12  27  47  78 106 153 202 249 304 378 448
#
# _framework density 22.559443999999999
#
# number of rings (size 3 to 8) (size 9 to 14) (size 15 to 20)
#    0.000    0.000    5.000    3.750    5.250    4.500 
#    0.000    0.000    0.000    0.000    0.000    0.000 
#    0.000    0.000    0.000    0.000    0.000    0.000 
#
# Total GULP energy -89702.013963 kJ/mol
# GULP energy per Si atom -5606.375873 kJ/mol
# Density = 2.250810 g / cm^3
# Si number density = 22.559444 Si / 1000 Ang^3
#
#
#
# Elastic Constant Matrix: (Units=GPa)
#
#
# Indices 1 2 3 4 5 6 
#
# 1 99.8515 38.9238 13.2187 4.4900 12.4669 -6.5820
# 2 38.9238 127.9220 16.6150 -3.5213 3.7432 -14.6780
# 3 13.2187 16.6150 79.5973 -2.1061 20.4737 13.3346
# 4 4.4900 -3.5213 -2.1061 44.6844 4.5059 -0.4707
# 5 12.4669 3.7432 20.4737 4.5059 50.4328 -1.1464
# 6 -6.5820 -14.6780 13.3346 -0.4707 -1.1464 31.6174
#
#
#
# Elastic Compliance Matrix: (Units=1/GPa)
#
#
# Indices 1 2 3 4 5 6 
#
# 1 0.011838 -0.003307 -0.000964 -0.001266 -0.002148 0.001239
# 2 -0.003307 0.009721 -0.002593 0.000910 0.001180 0.004975
# 3 -0.000964 -0.002593 0.016410 0.001235 -0.006535 -0.008544
# 4 -0.001266 0.000910 0.001235 0.022867 -0.002301 -0.000105
# 5 -0.002148 0.001180 -0.006535 -0.002301 0.023214 0.003664
# 6 0.001239 0.004975 -0.008544 -0.000105 0.003664 0.037930
#
#
# Mechanical properties :
#
#
# Convention : Reuss Voigt Hill
#
# Bulk Modulus (GPa) = 41.25164 49.43176 45.34170
# Shear Modulus (GPa) = 34.77311 41.25449 38.01380
#
# Velocity S-wave (km/s) = 3.93033 4.28097 4.10939
# Velocity P-wave (km/s) = 6.23875 6.81139 6.53135
#
# Compressibility (1/GPa) = 0.02424146
#
# Stress axis : x y z
#
# Youngs Moduli (GPa) = 84.47110 102.86481 60.93981
#
# Poissons Ratio (x) = 0.34014 0.05877
# Poissons Ratio (y) = 0.27932 0.15802
# Poissons Ratio (z) = 0.08146 0.26673
#
# Static dielectric constant tensor:
#      x y z
#    x 1.886570 0.029330 -0.089460 
#    y 0.029330 1.821830 0.002660 
#    z -0.089460 0.002660 1.922400 
# 
# From -- ./inp_files/382987.got.cif
#   From: 2010.05.17/outbox.cif.g08.bks.cpg/sg2_192_cif.got.tgz:382987.got - 2010.06.03 11:33:40.
