data_PCOD9071989
_publ_section_title
;
Structure prediction by ZEFSAII (Michael W. Deem and Ramdas Pophale) SiO2 
 PCOD9071989
Probable space group: P -1
;
_chemical_formula_sum "Si O2"
_cell_formula_units_Z 12
_cell_length_a 12.000000
_cell_length_b 15.000000
_cell_length_c 9.000000
_cell_angle_alpha 60.000000
_cell_angle_beta 130.000000
_cell_angle_gamma 150.000000
_cell_volume 613.666794
_symmetry_space_group_name_H-M "P -1"
_symmetry_group_IT_number 2
_symmetry_cell_setting 'triclinic'
loop_
_space_group_symop_operation_xyz
x,y,z
-x,-y,-z
loop_
_atom_site_type_symbol
_atom_site_label
_atom_site_fract_x
_atom_site_fract_y
_atom_site_fract_z
Si Si1 0.165518 0.737863 0.577082
Si Si2 0.569373 0.477790 0.928597
Si Si3 0.963318 0.403504 0.742119
Si Si4 0.356892 0.949147 0.068937
Si Si5 0.939615 0.859472 0.865698
Si Si6 0.993576 0.873471 0.259835
O O1 0.171566 0.699633 0.445166
O O2 0.002899 0.549707 0.671799
O O3 0.070355 0.802185 0.434839
O O4 0.435322 0.901803 0.752340
O O5 0.707071 0.646366 0.811171
O O6 0.297691 0.280536 0.808091
O O7 0.500000 0.500000 0.000000
O O8 0.762645 0.496357 0.110061
O O9 0.804646 0.245082 0.856828
O O10 0.172345 0.941755 0.908150
O O11 0.500000 0.000000 0.000000
O O12 0.005174 0.882622 0.080463
O O13 0.877087 0.944514 0.725527
#
# Coordination Sequence:
#
# PCOD9071989 Si02
#       6
#     2   2   2   2   2   2
#     4  11  21  35  58  90 114 140 191 243 284 322
#     4   9  15  31  49  80 110 136 174 224 289 326
#     4  10  21  36  59  87 114 143 189 242 282 329
#     4  11  23  40  57  80 119 159 188 222 280 347
#     4   9  19  33  54  82 110 148 181 226 282 332
#     4  10  18  32  57  87 110 137 183 243 284 322
#
# _framework density 19.554586
#
# number of rings (size 3 to 8) (size 9 to 14) (size 15 to 20)
#    0.000    2.000    5.000    1.500    0.000    2.000 
#    0.000    0.833    0.000    5.000    0.000    0.000 
#    0.000    0.000    0.000    0.000    0.000    0.000 
#
# Total GULP energy -66840.366238 kJ/mol
# GULP energy per Si atom -5570.030520 kJ/mol
# Density = 1.951008 g / cm^3
# Si number density = 19.554586 Si / 1000 Ang^3
#
#
#
# Elastic Constant Matrix: (Units=GPa)
#
#
# Indices 1 2 3 4 5 6 
#
# 1 86.4573 33.3374 13.6939 -18.1118 19.3360 2.9650
# 2 33.3374 81.2943 19.4253 -22.9303 13.0503 -12.8734
# 3 13.6939 19.4253 27.7499 -12.5744 18.6622 -2.0785
# 4 -18.1118 -22.9303 -12.5744 33.2588 -9.4647 15.0670
# 5 19.3360 13.0503 18.6622 -9.4647 11.6897 -12.4878
# 6 2.9650 -12.8734 -2.0785 15.0670 -12.4878 37.4365
#
#
#
# Elastic Compliance Matrix: (Units=1/GPa)
#
#
# Indices 1 2 3 4 5 6 
#
# 1 0.009415 -0.002064 -0.021131 0.000767 0.027887 0.006365
# 2 -0.002064 0.016916 0.001644 0.008123 -0.013244 -0.001616
# 3 -0.021131 0.001644 -0.017257 -0.006246 0.092697 0.034716
# 4 0.000767 0.008123 -0.006246 0.044788 0.029813 -0.005695
# 5 0.027887 -0.013244 0.092697 0.029813 -0.130800 -0.057247
# 6 0.006365 -0.001616 0.034716 -0.005695 -0.057247 0.010776
#
#
# Mechanical properties :
#
#
# Convention : Reuss Voigt Hill
#
# Bulk Modulus (GPa) = -29.38754 36.49053 3.55150
# Shear Modulus (GPa) = -145.33740 25.08000 -60.12870
#
# Velocity S-wave (km/s) = -8.63049 3.58517 -5.55121
# Velocity P-wave (km/s) = 10.69462 5.98660 6.26640
#
# Compressibility (1/GPa) = -0.03402803
#
# Stress axis : x y z
#
# Youngs Moduli (GPa) = 106.21513 59.11507 -57.94765
#
# Poissons Ratio (x) = 0.12201 -1.22449
# Poissons Ratio (y) = 0.21922 0.09526
# Poissons Ratio (z) = 2.24443 -0.09718
#
# Static dielectric constant tensor:
#      x y z
#    x 1.679880 0.024010 0.005710 
#    y 0.024010 1.768690 0.005670 
#    z 0.005710 0.005670 1.703980 
# 
# From -- ./inp_files/255647.got.cif
#   From: 2010.05.17/outbox.ucp.g08.bks.cvg/sg2_128_cif.got.tgz:255647.got - 2010.06.11 11:32:03.
