data_PCOD9071790
_publ_section_title
;
Structure prediction by ZEFSAII (Michael W. Deem and Ramdas Pophale) SiO2 
 PCOD9071790
Probable space group: P -1
;
_chemical_formula_sum "Si O2"
_cell_formula_units_Z 14
_cell_length_a 14.917210
_cell_length_b 15.371139
_cell_length_c 9.309859
_cell_angle_alpha 133.702795
_cell_angle_beta 24.377712
_cell_angle_gamma 141.900372
_cell_volume 540.854104
_symmetry_space_group_name_H-M "P -1"
_symmetry_group_IT_number 2
_symmetry_cell_setting 'triclinic'
loop_
_space_group_symop_operation_xyz
x,y,z
-x,-y,-z
loop_
_atom_site_type_symbol
_atom_site_label
_atom_site_fract_x
_atom_site_fract_y
_atom_site_fract_z
Si Si1 0.736642 0.452586 0.661594
Si Si2 0.834829 0.980947 0.889056
Si Si3 0.359834 0.815150 0.621340
Si Si4 0.817592 0.258946 0.718961
Si Si5 0.229083 0.030529 0.594448
Si Si6 0.406034 0.297061 0.248710
Si Si7 0.832598 0.566224 0.358364
O O1 0.811539 0.340382 0.371461
O O2 0.643572 0.473591 0.662129
O O3 0.964462 0.611025 0.546278
O O4 0.565609 0.376796 0.961705
O O5 0.777076 0.864110 0.721031
O O6 0.105759 0.034858 0.630315
O O7 0.600265 0.896720 0.252162
O O8 0.793742 0.106950 0.051987
O O9 0.510775 0.835826 0.573849
O O10 0.735749 0.104152 0.608376
O O11 0.968875 0.288813 0.680946
O O12 0.592769 0.290806 0.083363
O O13 0.000000 0.000000 0.000000
O O14 0.278584 0.389885 0.560026
O O15 0.000000 0.500000 0.000000
#
# Coordination Sequence:
#
# PCOD9071790 Si02
#       7
#     2   2   2   2   2   2   2
#     4   9  21  36  55  86 117 139 183 236 275 324
#     4   9  16  28  49  77 111 144 169 220 276 331
#     4   9  17  30  47  78 114 137 176 221 276 323
#     4  10  21  35  55  86 113 146 185 226 277 334
#     4  10  18  29  50  81 112 143 177 218 278 333
#     4  11  18  35  60  83 111 143 182 236 280 319
#     4  10  23  39  56  78 112 152 191 224 273 335
#
# _framework density 25.884983999999999
#
# number of rings (size 3 to 8) (size 9 to 14) (size 15 to 20)
#    0.857    1.429    2.857    0.857    2.000    0.571 
#    2.571    0.000    0.000    1.714    0.000    0.000 
#    0.000    0.000    0.000    0.000    0.000    0.000 
#
# Total GULP energy -78116.447763 kJ/mol
# GULP energy per Si atom -5579.746269 kJ/mol
# Density = 2.582607 g / cm^3
# Si number density = 25.884984 Si / 1000 Ang^3
#
#
#
# Elastic Constant Matrix: (Units=GPa)
#
#
# Indices 1 2 3 4 5 6 
#
# 1 81.6393 16.9963 22.6867 1.5714 -24.1264 -10.4640
# 2 16.9963 53.0045 30.5140 -5.6857 5.3234 -0.2261
# 3 22.6867 30.5140 94.8710 23.9578 -10.7836 -23.9861
# 4 1.5714 -5.6857 23.9578 44.1655 -21.8232 8.8918
# 5 -24.1264 5.3234 -10.7836 -21.8232 49.3057 2.1937
# 6 -10.4640 -0.2261 -23.9861 8.8918 2.1937 31.0659
#
#
#
# Elastic Compliance Matrix: (Units=1/GPa)
#
#
# Indices 1 2 3 4 5 6 
#
# 1 0.017053 -0.004978 -0.001820 0.004368 0.010314 0.002324
# 2 -0.004978 0.034985 -0.021418 0.020791 -0.000633 -0.023865
# 3 -0.001820 -0.021418 0.033796 -0.031266 -0.006571 0.034738
# 4 0.004368 0.020791 -0.031266 0.061430 0.022098 -0.041661
# 5 0.010314 -0.000633 -0.006571 0.022098 0.034200 -0.010344
# 6 0.002324 -0.023865 0.034738 -0.041661 -0.010344 0.072275
#
#
# Mechanical properties :
#
#
# Convention : Reuss Voigt Hill
#
# Bulk Modulus (GPa) = 34.01153 41.10099 37.55626
# Shear Modulus (GPa) = 15.62637 35.52861 25.57749
#
# Velocity S-wave (km/s) = 2.45967 3.70882 3.14685
# Velocity P-wave (km/s) = 4.60810 5.85263 5.26725
#
# Compressibility (1/GPa) = 0.02940180
#
# Stress axis : x y z
#
# Youngs Moduli (GPa) = 58.64146 28.58400 29.58901
#
# Poissons Ratio (x) = 0.14228 0.05386
# Poissons Ratio (y) = 0.29190 0.63374
# Poissons Ratio (z) = 0.10674 0.61222
#
# Static dielectric constant tensor:
#      x y z
#    x 2.044630 -0.066390 0.009870 
#    y -0.066390 2.032080 -0.057060 
#    z 0.009870 -0.057060 2.123280 
# 
# From -- ./inp_files/315373.got.cif
#   From: 2010.05.17/outbox.cif.g08.bks.cpg/sg2_158_cif.got.tgz:315373.got - 2010.06.03 11:33:40.
