data_PCOD9071039
_publ_section_title
;
Structure prediction by ZEFSAII (Michael W. Deem and Ramdas Pophale) SiO2 
 PCOD9071039
Probable space group: P -1
;
_chemical_formula_sum "Si O2"
_cell_formula_units_Z 15
_cell_length_a 11.849646
_cell_length_b 11.145109
_cell_length_c 9.282682
_cell_angle_alpha 138.154184
_cell_angle_beta 60.717221
_cell_angle_gamma 130.581688
_cell_volume 621.113944
_symmetry_space_group_name_H-M "P -1"
_symmetry_group_IT_number 2
_symmetry_cell_setting 'triclinic'
loop_
_space_group_symop_operation_xyz
x,y,z
-x,-y,-z
loop_
_atom_site_type_symbol
_atom_site_label
_atom_site_fract_x
_atom_site_fract_y
_atom_site_fract_z
Si Si1 0.361777 0.101417 0.398746
Si Si2 0.875843 0.286338 0.456883
Si Si3 0.952330 0.295557 0.750865
Si Si4 0.000000 0.000000 0.000000
Si Si5 0.473818 0.817974 0.038817
Si Si6 0.696653 0.667487 0.769880
Si Si7 0.276780 0.423835 0.636032
Si Si8 0.429234 0.718935 0.317377
O O1 0.197303 0.912252 0.299589
O O2 0.471796 0.028096 0.198600
O O3 0.362523 0.305183 0.528506
O O4 0.417847 0.143844 0.567942
O O5 0.915573 0.321915 0.633307
O O6 0.709747 0.254842 0.516978
O O7 0.000000 0.500000 0.500000
O O8 0.890084 0.097035 0.212309
O O9 0.101736 0.279035 0.643076
O O10 0.000000 0.500000 0.000000
O O11 0.135376 0.181233 0.162597
O O12 0.446138 0.766230 0.180473
O O13 0.616713 0.798238 0.894998
O O14 0.338486 0.631664 0.873234
O O15 0.695091 0.537875 0.516244
O O16 0.619776 0.515639 0.816209
#
# Coordination Sequence:
#
# PCOD9071039 Si02
#       8
#     2   2   2   1   2   2   2   2
#     4  12  27  44  78 106 141 191 241 300 358 431
#     4  12  25  49  76 106 147 190 242 304 361 429
#     4  12  25  50  74 106 150 190 245 300 362 439
#     4  12  26  44  74 106 142 192 240 300 358 426
#     4  12  26  48  75 104 147 191 242 298 367 428
#     4  12  27  48  73 107 150 189 244 301 365 430
#     4  12  26  50  71 106 150 191 239 302 361 439
#     4  12  25  49  76 106 145 189 245 304 357 432
#
# _framework density 24.150158000000001
#
# number of rings (size 3 to 8) (size 9 to 14) (size 15 to 20)
#    0.000    0.000    6.667    2.400    1.867    1.600 
#    7.200    0.000    0.000    0.000    0.000    0.000 
#    0.000    0.000    0.000    0.000    0.000    0.000 
#
# Total GULP energy -83735.801347 kJ/mol
# GULP energy per Si atom -5582.386756 kJ/mol
# Density = 2.409519 g / cm^3
# Si number density = 24.150158 Si / 1000 Ang^3
#
#
#
# Elastic Constant Matrix: (Units=GPa)
#
#
# Indices 1 2 3 4 5 6 
#
# 1 124.1183 27.9367 43.7427 18.7761 -0.0360 23.6106
# 2 27.9367 33.7552 22.8165 1.1907 7.6109 5.3937
# 3 43.7427 22.8165 126.6193 6.4102 9.7341 -13.6444
# 4 18.7761 1.1907 6.4102 31.5966 3.2305 3.3269
# 5 -0.0360 7.6109 9.7341 3.2305 60.2629 6.1129
# 6 23.6106 5.3937 -13.6444 3.3269 6.1129 51.5220
#
#
#
# Elastic Compliance Matrix: (Units=1/GPa)
#
#
# Indices 1 2 3 4 5 6 
#
# 1 0.013272 -0.007855 -0.003700 -0.006457 0.002565 -0.006127
# 2 -0.007855 0.040351 -0.004630 0.004712 -0.004440 -0.001628
# 3 -0.003700 -0.004630 0.010711 -0.000179 -0.001668 0.005226
# 4 -0.006457 0.004712 -0.000179 0.035558 -0.002519 0.000421
# 5 0.002565 -0.004440 -0.001668 -0.002519 0.017876 -0.003111
# 6 -0.006127 -0.001628 0.005226 0.000421 -0.003111 0.024113
#
#
# Mechanical properties :
#
#
# Convention : Reuss Voigt Hill
#
# Bulk Modulus (GPa) = 31.28584 52.60940 41.94762
# Shear Modulus (GPa) = 27.04078 41.34276 34.19177
#
# Velocity S-wave (km/s) = 3.34981 4.14201 3.76679
# Velocity P-wave (km/s) = 5.28626 6.68629 6.02706
#
# Compressibility (1/GPa) = 0.03196335
#
# Stress axis : x y z
#
# Youngs Moduli (GPa) = 75.34730 24.78267 93.36345
#
# Poissons Ratio (x) = 0.19466 0.34546
# Poissons Ratio (y) = 0.59183 0.43230
# Poissons Ratio (z) = 0.27880 0.11475
#
# Static dielectric constant tensor:
#      x y z
#    x 1.919090 -0.014310 -0.042850 
#    y -0.014310 1.970060 -0.010510 
#    z -0.042850 -0.010510 1.933610 
# 
# From -- ./inp_files/263731.got.cif
#   From: 2010.05.17/outbox.cif.g08.bks.cpg/sg2_132_cif.got.tgz:263731.got - 2010.06.03 11:33:40.
