data_PCOD9071079
_publ_section_title
;
Structure prediction by ZEFSAII (Michael W. Deem and Ramdas Pophale) SiO2 
 PCOD9071079
Probable space group: P -1
;
_chemical_formula_sum "Si O2"
_cell_formula_units_Z 11
_cell_length_a 5.124568
_cell_length_b 12.934221
_cell_length_c 9.410390
_cell_angle_alpha 134.253398
_cell_angle_beta 80.321824
_cell_angle_gamma 100.960979
_cell_volume 438.054642
_symmetry_space_group_name_H-M "P -1"
_symmetry_group_IT_number 2
_symmetry_cell_setting 'triclinic'
loop_
_space_group_symop_operation_xyz
x,y,z
-x,-y,-z
loop_
_atom_site_type_symbol
_atom_site_label
_atom_site_fract_x
_atom_site_fract_y
_atom_site_fract_z
Si Si1 0.000000 0.000000 0.000000
Si Si2 0.335854 0.255185 0.068693
Si Si3 0.090263 0.539106 0.369114
Si Si4 0.451236 0.803254 0.710275
Si Si5 0.410367 0.832195 0.316731
Si Si6 0.170941 0.259763 0.597784
O O1 0.717049 0.063141 0.128484
O O2 0.917246 0.857328 0.974327
O O3 0.231970 0.404716 0.172272
O O4 0.486742 0.273117 0.222470
O O5 0.529993 0.199654 0.881661
O O6 0.285593 0.685395 0.514871
O O7 0.000000 0.500000 0.500000
O O8 0.867569 0.588333 0.330340
O O9 0.735729 0.840167 0.638743
O O10 0.607943 0.742754 0.304654
O O11 0.107406 0.797716 0.360495
O O12 0.500000 0.000000 0.500000
#
# Coordination Sequence:
#
# PCOD9071079 Si02
#       6
#     1   2   2   2   2   2
#     4  12  26  46  76 122 152 204 272 334 386 474
#     4  12  29  46  83 118 158 211 274 324 407 474
#     4  12  25  49  82 120 157 212 266 336 395 476
#     4  12  25  49  81 113 162 205 269 337 391 471
#     4  12  30  52  80 115 169 214 261 331 410 474
#     4  12  27  53  79 113 163 212 264 329 400 474
#
# _framework density 25.111025000000001
#
# number of rings (size 3 to 8) (size 9 to 14) (size 15 to 20)
#    0.000    0.000    5.455    2.727    5.091    2.909 
#    0.000    0.000    0.000    0.000    0.000    0.000 
#    0.000    0.000    0.000    0.000    0.000    0.000 
#
# Total GULP energy -61454.357207 kJ/mol
# GULP energy per Si atom -5586.759746 kJ/mol
# Density = 2.505387 g / cm^3
# Si number density = 25.111025 Si / 1000 Ang^3
#
#
#
# Elastic Constant Matrix: (Units=GPa)
#
#
# Indices 1 2 3 4 5 6 
#
# 1 135.0085 38.6246 39.3667 -9.0988 -31.2874 4.8146
# 2 38.6246 68.9193 26.8185 -14.7255 -5.6175 0.8863
# 3 39.3667 26.8185 124.0280 -14.1158 -44.1159 7.4256
# 4 -9.0988 -14.7255 -14.1158 61.4309 -0.0264 -16.7237
# 5 -31.2874 -5.6175 -44.1159 -0.0264 44.1177 -8.0948
# 6 4.8146 0.8863 7.4256 -16.7237 -8.0948 50.8496
#
#
#
# Elastic Compliance Matrix: (Units=1/GPa)
#
#
# Indices 1 2 3 4 5 6 
#
# 1 0.010525 -0.005384 0.000450 0.000469 0.007293 0.000347
# 2 -0.005384 0.019332 -0.004014 0.003179 -0.005189 0.000978
# 3 0.000450 -0.004014 0.014006 0.002621 0.014012 0.001075
# 4 0.000469 0.003179 0.002621 0.019531 0.004595 0.006672
# 5 0.007293 -0.005189 0.014012 0.004595 0.042217 0.005585
# 6 0.000347 0.000978 0.001075 0.006672 0.005585 0.022543
#
#
# Mechanical properties :
#
#
# Convention : Reuss Voigt Hill
#
# Bulk Modulus (GPa) = 38.50817 59.73062 49.11940
# Shear Modulus (GPa) = 32.31976 46.15603 39.23790
#
# Velocity S-wave (km/s) = 3.59147 4.29193 3.95723
# Velocity P-wave (km/s) = 5.70672 6.95695 6.36262
#
# Compressibility (1/GPa) = 0.02596851
#
# Stress axis : x y z
#
# Youngs Moduli (GPa) = 95.01010 51.72677 71.39930
#
# Poissons Ratio (x) = 0.27847 -0.03213
# Poissons Ratio (y) = 0.51149 0.28658
# Poissons Ratio (z) = -0.04275 0.20762
#
# Static dielectric constant tensor:
#      x y z
#    x 2.031670 0.036230 0.014980 
#    y 0.036230 1.941190 0.009810 
#    z 0.014980 0.009810 1.951200 
# 
# From -- ./inp_files/131219.got.cif
#   From: 2010.05.17/outbox.cif.g08.bks.cpg/sg2_66_cif.got.tgz:131219.got - 2010.06.03 11:33:40.
