data_PCOD9071538
_publ_section_title
;
Structure prediction by ZEFSAII (Michael W. Deem and Ramdas Pophale) SiO2 
 PCOD9071538
Probable space group: P -1
;
_chemical_formula_sum "Si O2"
_cell_formula_units_Z 11
_cell_length_a 9.761303
_cell_length_b 8.903195
_cell_length_c 13.086539
_cell_angle_alpha 73.711848
_cell_angle_beta 59.709947
_cell_angle_gamma 30.015721
_cell_volume 457.982304
_symmetry_space_group_name_H-M "P -1"
_symmetry_group_IT_number 2
_symmetry_cell_setting 'triclinic'
loop_
_space_group_symop_operation_xyz
x,y,z
-x,-y,-z
loop_
_atom_site_type_symbol
_atom_site_label
_atom_site_fract_x
_atom_site_fract_y
_atom_site_fract_z
Si Si1 0.328023 0.774001 0.364010
Si Si2 0.084392 0.593806 0.665105
Si Si3 0.008653 0.140408 0.895741
Si Si4 0.000000 0.500000 0.500000
Si Si5 0.286708 0.537600 0.269324
Si Si6 0.820897 0.623466 0.939546
O O1 0.610575 0.569731 0.376937
O O2 0.411825 0.565342 0.292734
O O3 0.000000 0.000000 0.500000
O O4 0.224875 0.023341 0.299328
O O5 0.128992 0.476923 0.560895
O O6 0.015400 0.520362 0.788276
O O7 0.866774 0.250684 0.813790
O O8 0.794983 0.461623 0.964284
O O9 0.396248 0.843697 0.801275
O O10 0.000000 0.000000 0.000000
O O11 0.967852 0.359126 0.601408
O O12 0.000000 0.500000 0.000000
O O13 0.500000 0.000000 0.000000
#
# Coordination Sequence:
#
# PCOD9071538 Si02
#       6
#     2   2   2   1   2   2
#     4  12  27  48  74 114 153 204 251 318 396 478
#     4  12  28  49  78 112 158 203 264 324 399 473
#     4  12  29  51  77 114 156 211 268 324 400 467
#     4  12  28  50  82 116 162 204 266 326 404 478
#     4  12  28  49  79 113 159 208 260 331 399 475
#     4  12  28  50  79 112 154 208 267 327 397 466
#
# _framework density 24.018395000000002
#
# number of rings (size 3 to 8) (size 9 to 14) (size 15 to 20)
#    0.000    0.000    3.636    4.364   12.727    1.455 
#    0.000    0.000    0.000    0.000    0.000    0.000 
#    0.000    0.000    0.000    0.000    0.000    0.000 
#
# Total GULP energy -61395.497105 kJ/mol
# GULP energy per Si atom -5581.408828 kJ/mol
# Density = 2.396373 g / cm^3
# Si number density = 24.018395 Si / 1000 Ang^3
#
#
#
# Elastic Constant Matrix: (Units=GPa)
#
#
# Indices 1 2 3 4 5 6 
#
# 1 188.8129 67.7230 54.7083 -33.8128 25.5992 -4.0343
# 2 67.7230 154.7073 40.4777 -21.1867 15.2803 -6.4229
# 3 54.7083 40.4777 115.3780 -44.6460 16.8530 -5.7512
# 4 -33.8128 -21.1867 -44.6460 41.1332 -4.5569 2.4737
# 5 25.5992 15.2803 16.8530 -4.5569 34.3534 -15.5297
# 6 -4.0343 -6.4229 -5.7512 2.4737 -15.5297 47.3214
#
#
#
# Elastic Compliance Matrix: (Units=1/GPa)
#
#
# Indices 1 2 3 4 5 6 
#
# 1 0.007564 -0.002210 -0.000738 0.003875 -0.004408 -0.001394
# 2 -0.002210 0.007989 -0.001297 0.000757 -0.001003 0.000370
# 3 -0.000738 -0.001297 0.016358 0.015959 -0.005129 -0.000768
# 4 0.003875 0.000757 0.015959 0.044659 -0.006002 -0.001932
# 5 -0.004408 -0.001003 -0.005129 -0.006002 0.040144 0.012353
# 6 -0.001394 0.000370 -0.000768 -0.001932 0.012353 0.025125
#
#
# Mechanical properties :
#
#
# Convention : Reuss Voigt Hill
#
# Bulk Modulus (GPa) = 42.69567 87.19069 64.94318
# Shear Modulus (GPa) = 31.61841 44.29421 37.95631
#
# Velocity S-wave (km/s) = 3.63219 4.29905 3.97961
# Velocity P-wave (km/s) = 5.95023 7.81171 6.94363
#
# Compressibility (1/GPa) = 0.02342158
#
# Stress axis : x y z
#
# Youngs Moduli (GPa) = 132.19693 125.17698 61.13206
#
# Poissons Ratio (x) = 0.27667 0.04510
# Poissons Ratio (y) = 0.29218 0.07928
# Poissons Ratio (z) = 0.09753 0.16233
#
# Static dielectric constant tensor:
#      x y z
#    x 2.215530 0.087700 0.228750 
#    y 0.087700 1.918820 0.098130 
#    z 0.228750 0.098130 2.181140 
# 
# From -- ./inp_files/177109.got.cif
#   From: 2010.05.17/outbox.cif.g08.bks.cpg/sg2_89_cif.got.tgz:177109.got - 2010.06.03 11:33:40.
