data_PCOD9071863
_publ_section_title
;
Structure prediction by ZEFSAII (Michael W. Deem and Ramdas Pophale) SiO2 
 PCOD9071863
Probable space group: P -1
;
_chemical_formula_sum "Si O2"
_cell_formula_units_Z 14
_cell_length_a 13.135263
_cell_length_b 10.622488
_cell_length_c 17.102125
_cell_angle_alpha 52.600958
_cell_angle_beta 51.397737
_cell_angle_gamma 23.743887
_cell_volume 745.873504
_symmetry_space_group_name_H-M "P -1"
_symmetry_group_IT_number 2
_symmetry_cell_setting 'triclinic'
loop_
_space_group_symop_operation_xyz
x,y,z
-x,-y,-z
loop_
_atom_site_type_symbol
_atom_site_label
_atom_site_fract_x
_atom_site_fract_y
_atom_site_fract_z
Si Si1 0.751403 0.306848 0.218792
Si Si2 0.434399 0.457316 0.619753
Si Si3 0.468564 0.721174 0.935526
Si Si4 0.706654 0.176264 0.852684
Si Si5 0.767885 0.632470 0.031758
Si Si6 0.960691 0.381648 0.867224
Si Si7 0.910712 0.812480 0.727643
O O1 0.664184 0.342094 0.332214
O O2 0.551547 0.465968 0.188252
O O3 0.723911 0.530457 0.148630
O O4 0.052605 0.964885 0.188248
O O5 0.500000 0.500000 0.500000
O O6 0.190171 0.601183 0.662121
O O7 0.693867 0.097336 0.662199
O O8 0.364907 0.850305 0.026543
O O9 0.500000 0.500000 0.000000
O O10 0.741491 0.523429 0.869003
O O11 0.252900 0.011264 0.869304
O O12 0.806622 0.977045 0.801863
O O13 0.866488 0.448126 0.975460
O O14 0.000000 0.500000 0.000000
O O15 0.500000 0.000000 0.000000
O O16 0.943231 0.589636 0.790214
#
# Coordination Sequence:
#
# PCOD9071863 Si02
#       7
#     2   2   2   2   2   2   2
#     4  10  18  30  44  69  97 131 170 200 237 305
#     4  10  19  33  49  74 112 140 161 209 269 333
#     4  12  24  37  50  72 109 154 184 212 257 304
#     4  10  18  34  47  72 101 133 171 214 238 309
#     4  12  19  27  46  73 102 131 162 202 247 297
#     4  12  23  34  54  76 110 142 182 220 251 310
#     4  10  21  33  53  80 104 135 179 211 265 316
#
# _framework density 18.769939000000001
#
# number of rings (size 3 to 8) (size 9 to 14) (size 15 to 20)
#    0.000    1.143    2.857    6.857    0.000    0.000 
#    0.000    0.000    0.000    0.000    0.000    0.000 
#    0.000   91.429    0.000    0.000    0.000    0.000 
#
# Total GULP energy -78057.237254 kJ/mol
# GULP energy per Si atom -5575.516947 kJ/mol
# Density = 1.872722 g / cm^3
# Si number density = 18.769939 Si / 1000 Ang^3
#
#
#
# Elastic Constant Matrix: (Units=GPa)
#
#
# Indices 1 2 3 4 5 6 
#
# 1 63.4458 76.2592 26.2825 -2.0651 -15.8278 -28.0285
# 2 76.2592 114.4540 32.5841 -10.3803 -9.7927 -54.7554
# 3 26.2825 32.5841 99.1486 2.1655 2.5583 -13.1277
# 4 -2.0651 -10.3803 2.1655 25.1314 -4.7479 -4.7315
# 5 -15.8278 -9.7927 2.5583 -4.7479 24.3214 0.0638
# 6 -28.0285 -54.7554 -13.1277 -4.7315 0.0638 50.8032
#
#
#
# Elastic Compliance Matrix: (Units=1/GPa)
#
#
# Indices 1 2 3 4 5 6 
#
# 1 0.192188 -0.164708 -0.007245 -0.057271 0.048542 -0.078756
# 2 -0.164708 0.170198 -0.000038 0.070694 -0.025115 0.099174
# 3 -0.007245 -0.000038 0.012100 -0.003127 -0.006610 -0.001195
# 4 -0.057271 0.070694 -0.003127 0.075265 0.006082 0.050791
# 5 0.048542 -0.025115 -0.006610 0.006082 0.064481 -0.001510
# 6 -0.078756 0.099174 -0.001195 0.050791 -0.001510 0.087546
#
#
# Mechanical properties :
#
#
# Convention : Reuss Voigt Hill
#
# Bulk Modulus (GPa) = 32.78247 60.81111 46.79679
# Shear Modulus (GPa) = 5.23052 29.51271 17.37161
#
# Velocity S-wave (km/s) = 1.67114 3.96957 3.04551
# Velocity P-wave (km/s) = 4.60727 7.31290 6.11169
#
# Compressibility (1/GPa) = 0.03050410
#
# Stress axis : x y z
#
# Youngs Moduli (GPa) = 5.20324 5.87550 82.64708
#
# Poissons Ratio (x) = 0.96774 0.59881
# Poissons Ratio (y) = 0.85701 0.00313
# Poissons Ratio (z) = 0.03770 0.00022
#
# Static dielectric constant tensor:
#      x y z
#    x 1.728390 -0.037330 -0.006000 
#    y -0.037330 1.749430 0.003120 
#    z -0.006000 0.003120 1.629310 
# 
# From -- ./inp_files/459261.got.cif
#   From: 2010.05.17/outbox.cif.g08.bks.cpg/sg2_230_cif.got.tgz:459261.got - 2010.06.03 11:33:40.
