data_PCOD9071623
_publ_section_title
;
Structure prediction by ZEFSAII (Michael W. Deem and Ramdas Pophale) SiO2 
 PCOD9071623
Probable space group: P -1
;
_chemical_formula_sum "Si O2"
_cell_formula_units_Z 9
_cell_length_a 12.667592
_cell_length_b 10.767629
_cell_length_c 5.014042
_cell_angle_alpha 74.725297
_cell_angle_beta 89.135190
_cell_angle_gamma 36.612099
_cell_volume 369.844052
_symmetry_space_group_name_H-M "P -1"
_symmetry_group_IT_number 2
_symmetry_cell_setting 'triclinic'
loop_
_space_group_symop_operation_xyz
x,y,z
-x,-y,-z
loop_
_atom_site_type_symbol
_atom_site_label
_atom_site_fract_x
_atom_site_fract_y
_atom_site_fract_z
Si Si1 0.403317 0.734604 0.402864
Si Si2 0.500000 0.000000 0.500000
Si Si3 0.076265 0.344132 0.337681
Si Si4 0.009113 0.850291 0.718416
Si Si5 0.587460 0.648834 0.942969
O O1 0.500000 0.500000 0.500000
O O2 0.435616 0.733237 0.712101
O O3 0.520172 0.710585 0.217258
O O4 0.183292 0.960927 0.209732
O O5 0.698858 0.878454 0.539420
O O6 0.607633 0.774732 0.783375
O O7 0.000000 0.500000 0.500000
O O8 0.007126 0.265557 0.387363
O O9 0.000000 0.500000 0.000000
O O10 0.216108 0.623942 0.960713
O O11 0.000000 0.000000 0.500000
#
# Coordination Sequence:
#
# PCOD9071623 Si02
#       5
#     2   1   2   2   2
#     4  12  28  50  77 116 159 205 261 326 402 473
#     4  12  28  50  84 106 164 206 268 318 398 474
#     4  12  30  51  78 117 156 210 267 323 395 475
#     4  12  28  52  82 120 161 209 267 334 400 477
#     4  12  29  48  78 117 155 210 264 326 398 469
#
# _framework density 24.334582000000001
#
# number of rings (size 3 to 8) (size 9 to 14) (size 15 to 20)
#    0.000    0.000    6.667    0.667    6.222    4.444 
#    0.000    0.000    0.000    0.000    0.000    0.000 
#    0.000    0.000    0.000    0.000    0.000    0.000 
#
# Total GULP energy -50126.933305 kJ/mol
# GULP energy per Si atom -5569.659256 kJ/mol
# Density = 2.427920 g / cm^3
# Si number density = 24.334582 Si / 1000 Ang^3
#
#
#
# Elastic Constant Matrix: (Units=GPa)
#
#
# Indices 1 2 3 4 5 6 
#
# 1 129.4669 31.6391 34.0890 -11.2158 -27.6464 9.0602
# 2 31.6391 121.8592 62.7923 -39.0185 -1.0268 -10.7124
# 3 34.0890 62.7923 115.2742 -25.6602 -17.2192 2.7364
# 4 -11.2158 -39.0185 -25.6602 53.2133 12.2752 10.6293
# 5 -27.6464 -1.0268 -17.2192 12.2752 47.5812 -25.9398
# 6 9.0602 -10.7124 2.7364 10.6293 -25.9398 52.6753
#
#
#
# Elastic Compliance Matrix: (Units=1/GPa)
#
#
# Indices 1 2 3 4 5 6 
#
# 1 0.009722 -0.002462 -0.001051 -0.002098 0.006606 0.001558
# 2 -0.002462 0.014791 -0.006241 0.009018 -0.006344 -0.001188
# 3 -0.001051 -0.006241 0.013099 0.000641 0.003820 -0.000017
# 4 -0.002098 0.009018 0.000641 0.031059 -0.015096 -0.011540
# 5 0.006606 -0.006344 0.003820 -0.015096 0.041317 0.020768
# 6 0.001558 -0.001188 -0.000017 -0.011540 0.020768 0.031031
#
#
# Mechanical properties :
#
#
# Convention : Reuss Voigt Hill
#
# Bulk Modulus (GPa) = 55.23544 69.29347 62.26445
# Shear Modulus (GPa) = 30.01880 46.56596 38.29238
#
# Velocity S-wave (km/s) = 3.51605 4.37918 3.97114
# Velocity P-wave (km/s) = 6.26348 7.35573 6.83147
#
# Compressibility (1/GPa) = 0.01810432
#
# Stress axis : x y z
#
# Youngs Moduli (GPa) = 102.85674 67.61038 76.34058
#
# Poissons Ratio (x) = 0.16643 0.08026
# Poissons Ratio (y) = 0.25319 0.47643
# Poissons Ratio (z) = 0.10814 0.42195
#
# Static dielectric constant tensor:
#      x y z
#    x 1.936020 0.041180 0.057310 
#    y 0.041180 1.859950 -0.071730 
#    z 0.057310 -0.071730 1.873320 
# 
# From -- ./inp_files/65428.got.cif
#   From: 2010.05.17/outbox.cif.g08.bks.cpg/sg2_33_cif.got.tgz:65428.got - 2010.06.03 11:33:40.
