data_PCOD9071022
_publ_section_title
;
Structure prediction by ZEFSAII (Michael W. Deem and Ramdas Pophale) SiO2 
 PCOD9071022
Probable space group: P -1
;
_chemical_formula_sum "Si O2"
_cell_formula_units_Z 16
_cell_length_a 16.513425
_cell_length_b 17.341525
_cell_length_c 8.502075
_cell_angle_alpha 147.757866
_cell_angle_beta 43.511901
_cell_angle_gamma 146.648691
_cell_volume 712.652692
_symmetry_space_group_name_H-M "P -1"
_symmetry_group_IT_number 2
_symmetry_cell_setting 'triclinic'
loop_
_space_group_symop_operation_xyz
x,y,z
-x,-y,-z
loop_
_atom_site_type_symbol
_atom_site_label
_atom_site_fract_x
_atom_site_fract_y
_atom_site_fract_z
Si Si1 0.170163 0.525722 0.063655
Si Si2 0.311571 0.467106 0.508078
Si Si3 0.796862 0.904764 0.835603
Si Si4 0.115631 0.537825 0.701764
Si Si5 0.338577 0.909953 0.511246
Si Si6 0.657525 0.061731 0.823026
Si Si7 0.348148 0.258061 0.583228
Si Si8 0.100123 0.288869 0.032655
O O1 0.240860 0.709047 0.375656
O O2 0.096657 0.346026 0.958712
O O3 0.043579 0.512184 0.119398
O O4 0.305237 0.553107 0.827719
O O5 0.237708 0.260001 0.294230
O O6 0.200755 0.479810 0.582283
O O7 0.477661 0.580958 0.406952
O O8 0.725949 0.825491 0.627188
O O9 0.717642 0.980611 0.158634
O O10 0.968014 0.078125 0.882528
O O11 0.088701 0.425084 0.387337
O O12 0.223533 0.755585 0.933452
O O13 0.328818 0.899464 0.316439
O O14 0.500000 0.000000 0.500000
O O15 0.670031 0.901398 0.565789
O O16 0.500000 0.000000 0.000000
O O17 0.255544 0.322119 0.896222
#
# Coordination Sequence:
#
# PCOD9071022 Si02
#       8
#     2   2   2   2   2   2   2   2
#     4  12  25  49  73 106 147 197 247 300 368 429
#     4  12  27  47  75 106 149 195 243 307 370 430
#     4  12  27  49  71 112 148 195 248 297 373 437
#     4  12  27  47  73 106 146 193 247 302 361 441
#     4  12  28  45  78 109 145 195 246 306 362 441
#     4  12  26  48  74 109 147 191 245 304 370 429
#     4  12  27  49  75 110 151 192 245 305 370 435
#     4  12  29  47  75 108 150 201 240 305 365 441
#
# _framework density 22.451329000000001
#
# number of rings (size 3 to 8) (size 9 to 14) (size 15 to 20)
#    0.000    0.000    5.000    3.750    8.750    1.000 
#    0.000    0.000    0.000    0.000    0.000    0.000 
#    0.000    0.000    0.000    0.000    0.000    0.000 
#
# Total GULP energy -89486.223255 kJ/mol
# GULP energy per Si atom -5592.888953 kJ/mol
# Density = 2.240023 g / cm^3
# Si number density = 22.451329 Si / 1000 Ang^3
#
#
#
# Elastic Constant Matrix: (Units=GPa)
#
#
# Indices 1 2 3 4 5 6 
#
# 1 59.9541 61.3731 11.6254 14.8158 -38.9338 20.7222
# 2 61.3731 152.8201 46.8473 21.5367 -26.6660 18.4136
# 3 11.6254 46.8473 98.5085 0.3408 -32.7452 6.2499
# 4 14.8158 21.5367 0.3408 42.9866 5.7326 -12.9742
# 5 -38.9338 -26.6660 -32.7452 5.7326 36.3135 6.6274
# 6 20.7222 18.4136 6.2499 -12.9742 6.6274 40.1299
#
#
#
# Elastic Compliance Matrix: (Units=1/GPa)
#
#
# Indices 1 2 3 4 5 6 
#
# 1 -0.018288 -0.001742 -0.011682 0.020036 -0.039147 0.025005
# 2 -0.001742 0.011301 -0.002278 -0.008349 0.007120 -0.007807
# 3 -0.011682 -0.002278 0.008660 0.009556 -0.009802 0.010437
# 4 0.020036 -0.008349 0.009556 0.015376 0.022780 -0.006794
# 5 -0.039147 0.007120 -0.009802 0.022780 -0.027175 0.030327
# 6 0.025005 -0.007807 0.010437 -0.006794 0.030327 0.006759
#
#
# Mechanical properties :
#
#
# Convention : Reuss Voigt Hill
#
# Bulk Modulus (GPa) = -33.63586 61.21937 13.79176
# Shear Modulus (GPa) = 275.84188 36.64845 156.24517
#
# Velocity S-wave (km/s) = 11.09635 4.04462 8.35128
# Velocity P-wave (km/s) = 12.21301 7.00990 9.95732
#
# Compressibility (1/GPa) = -0.02973018
#
# Stress axis : x y z
#
# Youngs Moduli (GPa) = -54.68187 88.48683 115.47740
#
# Poissons Ratio (x) = 0.15413 1.34900
# Poissons Ratio (y) = -0.09524 0.26305
# Poissons Ratio (z) = -0.63879 0.20157
#
# Static dielectric constant tensor:
#      x y z
#    x 1.854990 -0.029710 0.039920 
#    y -0.029710 1.832550 -0.014930 
#    z 0.039920 -0.014930 1.826490 
# 
# From -- ./inp_files/299024.got.cif
#   From: 2010.05.17/outbox.cif.g08.bks.cpg/sg2_150_cif.got.tgz:299024.got - 2010.06.03 11:33:40.
