data_PCOD9071742
_publ_section_title
;
Structure prediction by ZEFSAII (Michael W. Deem and Ramdas Pophale) SiO2 
 PCOD9071742
Probable space group: P -1
;
_chemical_formula_sum "Si O2"
_cell_formula_units_Z 16
_cell_length_a 11.908411
_cell_length_b 10.766713
_cell_length_c 8.194935
_cell_angle_alpha 85.987392
_cell_angle_beta 52.968150
_cell_angle_gamma 49.084198
_cell_volume 534.348298
_symmetry_space_group_name_H-M "P -1"
_symmetry_group_IT_number 2
_symmetry_cell_setting 'triclinic'
loop_
_space_group_symop_operation_xyz
x,y,z
-x,-y,-z
loop_
_atom_site_type_symbol
_atom_site_label
_atom_site_fract_x
_atom_site_fract_y
_atom_site_fract_z
Si Si1 0.713741 0.987172 0.469789
Si Si2 0.091585 0.578897 0.790673
Si Si3 0.195570 0.724377 0.487955
Si Si4 0.623080 0.970496 0.112666
Si Si5 0.737398 0.195818 0.236377
Si Si6 0.770719 0.406194 0.004497
Si Si7 0.847988 0.594850 0.780472
Si Si8 0.312132 0.855444 0.174905
O O1 0.568959 0.963148 0.623868
O O2 0.640626 0.126492 0.370726
O O3 0.678202 0.084634 0.662013
O O4 0.975270 0.790290 0.249528
O O5 0.857435 0.805228 0.015899
O O6 0.238344 0.513314 0.821714
O O7 0.014681 0.497139 0.801383
O O8 0.183138 0.587086 0.549044
O O9 0.283451 0.718532 0.582048
O O10 0.316482 0.705689 0.231593
O O11 0.944315 0.943519 0.673026
O O12 0.698963 0.819464 0.916294
O O13 0.574694 0.137707 0.064822
O O14 0.671514 0.337344 0.138488
O O15 0.000000 0.000000 0.000000
O O16 0.713849 0.557089 0.916259
O O17 0.000000 0.500000 0.500000
#
# Coordination Sequence:
#
# PCOD9071742 Si02
#       8
#     2   2   2   2   2   2   2   2
#     4  10  18  29  49  74 101 126 157 198 243 288
#     4   8  18  32  49  71  99 122 164 200 239 279
#     4   8  14  26  45  68  94 123 158 202 235 267
#     4   9  19  30  45  73 105 125 155 197 245 287
#     4   8  16  29  46  71  95 122 164 201 232 279
#     4  10  18  32  53  72  93 129 165 198 235 282
#     4  10  20  33  49  72  96 126 162 201 236 285
#     4   9  15  26  44  69  99 126 157 191 242 280
#
# _framework density 29.943016
#
# number of rings (size 3 to 8) (size 9 to 14) (size 15 to 20)
#    0.750    2.250    0.000    1.500    0.000    0.500 
#    0.000    0.625    0.000    0.000    0.000    8.750 
#    0.000    0.000    0.000    0.000    0.000    0.000 
#
# Total GULP energy -89525.559944 kJ/mol
# GULP energy per Si atom -5595.347496 kJ/mol
# Density = 2.987486 g / cm^3
# Si number density = 29.943016 Si / 1000 Ang^3
#
#
#
# Elastic Constant Matrix: (Units=GPa)
#
#
# Indices 1 2 3 4 5 6 
#
# 1 63.9650 4.3474 36.7540 -11.0713 -4.8754 5.6415
# 2 4.3474 159.7156 88.6605 -35.5583 -8.6354 -6.9066
# 3 36.7540 88.6605 194.5523 -46.0867 -26.9257 6.6050
# 4 -11.0713 -35.5583 -46.0867 97.0480 11.8292 -6.4625
# 5 -4.8754 -8.6354 -26.9257 11.8292 66.3522 -14.9379
# 6 5.6415 -6.9066 6.6050 -6.4625 -14.9379 39.5536
#
#
#
# Elastic Compliance Matrix: (Units=1/GPa)
#
#
# Indices 1 2 3 4 5 6 
#
# 1 0.018103 0.001853 -0.004113 0.000753 -0.000610 -0.001679
# 2 0.001853 0.008970 -0.004134 0.001704 -0.000182 0.002202
# 3 -0.004113 -0.004134 0.008542 0.001774 0.002212 -0.000437
# 4 0.000753 0.001704 0.001774 0.012058 -0.000801 0.001561
# 5 -0.000610 -0.000182 0.002212 -0.000801 0.017424 0.006135
# 6 -0.001679 0.002202 -0.000437 0.001561 0.006135 0.028551
#
#
# Mechanical properties :
#
#
# Convention : Reuss Voigt Hill
#
# Bulk Modulus (GPa) = 43.81000 75.30631 59.55815
# Shear Modulus (GPa) = 43.84120 59.82216 51.83168
#
# Velocity S-wave (km/s) = 3.83058 4.47460 4.16506
# Velocity P-wave (km/s) = 5.85041 7.20420 6.56231
#
# Compressibility (1/GPa) = 0.02282584
#
# Stress axis : x y z
#
# Youngs Moduli (GPa) = 55.23932 111.47780 117.06496
#
# Poissons Ratio (x) = -0.20653 0.48152
# Poissons Ratio (y) = -0.10234 0.48399
# Poissons Ratio (z) = 0.22721 0.46089
#
# Static dielectric constant tensor:
#      x y z
#    x 2.583790 -0.218530 -0.099060 
#    y -0.218530 2.470280 0.033180 
#    z -0.099060 0.033180 2.314650 
# 
# From -- ./inp_files/302985.got.cif
#   From: 2010.05.17/outbox.cif.g08.bks.cpg/sg2_152_cif.got.tgz:302985.got - 2010.06.03 11:33:40.
