data_PCOD9071907
_publ_section_title
;
Structure prediction by ZEFSAII (Michael W. Deem and Ramdas Pophale) SiO2 
 PCOD9071907
Probable space group: P -1
;
_chemical_formula_sum "Si O2"
_cell_formula_units_Z 16
_cell_length_a 15.000000
_cell_length_b 12.000000
_cell_length_c 21.000000
_cell_angle_alpha 150.000000
_cell_angle_beta 150.000000
_cell_angle_gamma 30.000000
_cell_volume 837.063958
_symmetry_space_group_name_H-M "P -1"
_symmetry_group_IT_number 2
_symmetry_cell_setting 'triclinic'
loop_
_space_group_symop_operation_xyz
x,y,z
-x,-y,-z
loop_
_atom_site_type_symbol
_atom_site_label
_atom_site_fract_x
_atom_site_fract_y
_atom_site_fract_z
Si Si1 0.756911 0.977903 0.484018
Si Si2 0.952825 0.566382 0.578383
Si Si3 0.166139 0.896048 0.261939
Si Si4 0.206292 0.092231 0.900090
Si Si5 0.535083 0.133534 0.212476
Si Si6 0.387924 0.326476 0.350952
Si Si7 0.018854 0.240900 0.725099
Si Si8 0.585316 0.459993 0.308860
O O1 0.868771 0.674426 0.396005
O O2 0.770159 0.041235 0.597930
O O3 0.527055 0.122639 0.388654
O O4 0.898336 0.079097 0.585257
O O5 0.741066 0.570377 0.463245
O O6 0.000000 0.500000 0.500000
O O7 0.917823 0.849276 0.705184
O O8 0.368881 0.658412 0.245790
O O9 0.977758 0.846274 0.135588
O O10 0.100562 0.267142 0.859282
O O11 0.299167 0.803615 0.788866
O O12 0.391989 0.103962 0.055773
O O13 0.428018 0.181443 0.237052
O O14 0.549685 0.377267 0.315853
O O15 0.766160 0.918524 0.254936
O O16 0.500000 0.500000 0.500000
O O17 0.147179 0.515801 0.294922
#
# Coordination Sequence:
#
# PCOD9071907 Si02
#       8
#     2   2   2   2   2   2   2   2
#     4   9  17  34  50  75 110 135 170 217 260 303
#     4  10  17  34  55  75 108 134 171 226 266 296
#     4  10  20  33  56  81 104 137 175 218 263 305
#     4  10  20  34  51  79 111 138 169 216 259 309
#     4  11  21  33  54  78 111 143 169 205 266 316
#     4  10  21  33  50  76 111 142 171 209 256 318
#     4   9  17  33  49  75 107 136 171 210 253 310
#     4  11  18  32  53  80 107 134 170 216 265 311
#
# _framework density 19.114429999999999
#
# number of rings (size 3 to 8) (size 9 to 14) (size 15 to 20)
#    0.000    2.000    5.000    4.125    0.000    5.000 
#    2.250    0.000    0.000    0.750    0.000    1.750 
#    0.000    0.000    0.000    0.000    0.000    0.000 
#
# Total GULP energy -89183.205199 kJ/mol
# GULP energy per Si atom -5573.950325 kJ/mol
# Density = 1.907092 g / cm^3
# Si number density = 19.114430 Si / 1000 Ang^3
#
#
#
# Elastic Constant Matrix: (Units=GPa)
#
#
# Indices 1 2 3 4 5 6 
#
# 1 15.9071 16.0040 4.5148 2.0930 7.5785 0.5599
# 2 16.0040 184.3210 21.4500 -26.6007 9.2041 -11.9901
# 3 4.5148 21.4500 27.7911 -15.6110 0.7073 -3.7756
# 4 2.0930 -26.6007 -15.6110 28.4655 -1.2534 2.2272
# 5 7.5785 9.2041 0.7073 -1.2534 18.7075 -4.0258
# 6 0.5599 -11.9901 -3.7756 2.2272 -4.0258 24.8529
#
#
#
# Elastic Compliance Matrix: (Units=1/GPa)
#
#
# Indices 1 2 3 4 5 6 
#
# 1 0.106302 -0.009485 -0.029924 -0.033770 -0.042849 -0.015431
# 2 -0.009485 0.007456 0.000587 0.007781 0.001412 0.003431
# 3 -0.029924 0.000587 0.061831 0.036542 0.013953 0.009336
# 4 -0.033770 0.007781 0.036542 0.065039 0.014237 0.006544
# 5 -0.042849 0.001412 0.013953 0.014237 0.073648 0.014420
# 6 -0.015431 0.003431 0.009336 0.006544 0.014420 0.045408
#
#
# Mechanical properties :
#
#
# Convention : Reuss Voigt Hill
#
# Bulk Modulus (GPa) = 10.20989 34.66188 22.43588
# Shear Modulus (GPa) = 10.63883 26.80856 18.72370
#
# Velocity S-wave (km/s) = 2.36177 3.74910 3.13318
# Velocity P-wave (km/s) = 3.57635 6.07571 4.98521
#
# Compressibility (1/GPa) = 0.09794429
#
# Stress axis : x y z
#
# Youngs Moduli (GPa) = 9.40716 134.11645 16.17318
#
# Poissons Ratio (x) = 1.27214 0.48397
# Poissons Ratio (y) = 0.08923 -0.00949
# Poissons Ratio (z) = 0.28150 -0.07872
#
# Static dielectric constant tensor:
#      x y z
#    x 1.710330 -0.002790 -0.015090 
#    y -0.002790 1.715190 0.031240 
#    z -0.015090 0.031240 1.676690 
# 
# From -- ./inp_files/426578.got.cif
#   From: 2010.05.17/outbox.ucp.g08.bks.cvg/sg2_214_cif.got.tgz:426578.got - 2010.06.11 11:32:03.
