data_PCOD9071803
_publ_section_title
;
Structure prediction by ZEFSAII (Michael W. Deem and Ramdas Pophale) SiO2 
 PCOD9071803
Probable space group: P -1
;
_chemical_formula_sum "Si O2"
_cell_formula_units_Z 16
_cell_length_a 12.326304
_cell_length_b 12.634288
_cell_length_c 10.101735
_cell_angle_alpha 96.718230
_cell_angle_beta 84.312683
_cell_angle_gamma 35.705990
_cell_volume 859.201731
_symmetry_space_group_name_H-M "P -1"
_symmetry_group_IT_number 2
_symmetry_cell_setting 'triclinic'
loop_
_space_group_symop_operation_xyz
x,y,z
-x,-y,-z
loop_
_atom_site_type_symbol
_atom_site_label
_atom_site_fract_x
_atom_site_fract_y
_atom_site_fract_z
Si Si1 0.783554 0.561702 0.428547
Si Si2 0.408092 0.101502 0.329023
Si Si3 0.459926 0.649363 0.472731
Si Si4 0.116573 0.046425 0.718245
Si Si5 0.850177 0.769184 0.131921
Si Si6 0.134603 0.922214 0.346005
Si Si7 0.119496 0.164094 0.456715
Si Si8 0.894854 0.613810 0.830136
O O1 0.653552 0.761621 0.534207
O O2 0.648487 0.569775 0.422259
O O3 0.950306 0.388377 0.487127
O O4 0.911637 0.495286 0.279795
O O5 0.322788 0.057916 0.383065
O O6 0.283480 0.235200 0.231555
O O7 0.639940 0.914103 0.246704
O O8 0.500000 0.500000 0.500000
O O9 0.349550 0.734807 0.356722
O O10 0.317063 0.820576 0.624842
O O11 0.125704 0.123074 0.846225
O O12 0.098622 0.135514 0.602116
O O13 0.941949 0.101032 0.753635
O O14 0.031603 0.561154 0.152552
O O15 0.842987 0.727312 0.979862
O O16 0.098892 0.076923 0.351573
O O17 0.000000 0.000000 0.500000
#
# Coordination Sequence:
#
# PCOD9071803 Si02
#       8
#     2   2   2   2   2   2   2   2
#     4  11  19  33  54  85 109 135 183 231 268 318
#     4  11  21  35  58  83 109 141 183 229 269 321
#     4  10  18  29  51  82 108 134 176 228 275 313
#     4  10  18  33  52  78 106 143 183 216 274 322
#     4  11  22  38  56  78 114 152 179 217 269 335
#     4   8  17  30  47  74 107 141 166 222 274 313
#     4   9  18  31  51  80 112 136 171 234 274 311
#     4  10  24  37  53  82 115 148 177 219 278 322
#
# _framework density 18.621936999999999
#
# number of rings (size 3 to 8) (size 9 to 14) (size 15 to 20)
#    0.000    2.250    1.250    5.625    3.500    1.000 
#    0.000    0.000    0.000    7.500    0.000    0.000 
#    0.000    0.000    0.000    0.000    0.000    0.000 
#
# Total GULP energy -89217.844626 kJ/mol
# GULP energy per Si atom -5576.115289 kJ/mol
# Density = 1.857955 g / cm^3
# Si number density = 18.621937 Si / 1000 Ang^3
#
#
#
# Elastic Constant Matrix: (Units=GPa)
#
#
# Indices 1 2 3 4 5 6 
#
# 1 98.6170 2.9846 18.0986 13.6178 15.1143 8.6365
# 2 2.9846 53.3541 14.9618 11.9503 9.1976 8.1931
# 3 18.0986 14.9618 58.4645 20.9466 7.6184 7.3090
# 4 13.6178 11.9503 20.9466 21.0150 7.9126 4.0710
# 5 15.1143 9.1976 7.6184 7.9126 14.7679 4.1267
# 6 8.6365 8.1931 7.3090 4.0710 4.1267 32.3100
#
#
#
# Elastic Compliance Matrix: (Units=1/GPa)
#
#
# Indices 1 2 3 4 5 6 
#
# 1 0.012782 0.002818 -0.001692 -0.003481 -0.011588 -0.001830
# 2 0.002818 0.023483 -0.001994 -0.008330 -0.010953 -0.003808
# 3 -0.001692 -0.001994 0.027202 -0.025690 0.003373 -0.002390
# 4 -0.003481 -0.008330 -0.025690 0.089971 -0.026453 0.000897
# 5 -0.011588 -0.010953 0.003373 -0.026453 0.100039 -0.004333
# 6 -0.001830 -0.003808 -0.002390 0.000897 -0.004333 0.033386
#
#
# Mechanical properties :
#
#
# Convention : Reuss Voigt Hill
#
# Bulk Modulus (GPa) = 16.19932 31.39174 23.79553
# Shear Modulus (GPa) = 16.17194 25.24462 20.70828
#
# Velocity S-wave (km/s) = 2.95012 3.68589 3.33834
# Velocity P-wave (km/s) = 4.50802 5.91679 5.25978
#
# Compressibility (1/GPa) = 0.06173098
#
# Stress axis : x y z
#
# Youngs Moduli (GPa) = 78.23234 42.58393 36.76208
#
# Poissons Ratio (x) = -0.11999 0.06220
# Poissons Ratio (y) = -0.22044 0.07330
# Poissons Ratio (z) = 0.13238 0.08491
#
# Static dielectric constant tensor:
#      x y z
#    x 1.737060 -0.036570 0.046110 
#    y -0.036570 1.690390 -0.012700 
#    z 0.046110 -0.012700 1.634920 
# 
# From -- ./inp_files/425052.got.cif
#   From: 2010.05.17/outbox.cif.g08.bks.cpg/sg2_213_cif.got.tgz:425052.got - 2010.06.03 11:33:40.
