data_PCOD9071610
_publ_section_title
;
Structure prediction by ZEFSAII (Michael W. Deem and Ramdas Pophale) SiO2 
 PCOD9071610
Probable space group: P -1
;
_chemical_formula_sum "Si O2"
_cell_formula_units_Z 10
_cell_length_a 7.430621
_cell_length_b 11.161043
_cell_length_c 4.582531
_cell_angle_alpha 86.387283
_cell_angle_beta 112.262929
_cell_angle_gamma 97.306559
_cell_volume 348.813296
_symmetry_space_group_name_H-M "P -1"
_symmetry_group_IT_number 2
_symmetry_cell_setting 'triclinic'
loop_
_space_group_symop_operation_xyz
x,y,z
-x,-y,-z
loop_
_atom_site_type_symbol
_atom_site_label
_atom_site_fract_x
_atom_site_fract_y
_atom_site_fract_z
Si Si1 0.644098 0.355420 0.087113
Si Si2 0.144600 0.842053 0.110089
Si Si3 0.296318 0.998309 0.703393
Si Si4 0.802035 0.507427 0.692879
Si Si5 0.229340 0.254183 0.731059
O O1 0.765379 0.408175 0.430143
O O2 0.804527 0.635677 0.518880
O O3 0.754267 0.258011 0.992923
O O4 0.636923 0.466147 0.837903
O O5 0.950621 0.782626 0.158712
O O6 0.280084 0.908077 0.436000
O O7 0.130889 0.945693 0.843131
O O8 0.268951 0.135414 0.595085
O O9 0.500000 0.000000 0.000000
O O10 0.572064 0.706141 0.975896
O O11 0.000000 0.500000 0.000000
#
# Coordination Sequence:
#
# PCOD9071610 Si02
#       5
#     2   2   2   2   2
#     4  12  29  55  87 123 174 224 284 354 426 504
#     4  12  29  52  86 126 171 222 283 350 431 503
#     4  12  27  54  86 123 173 223 281 354 427 503
#     4  12  31  55  86 126 172 227 283 353 430 508
#     4  12  30  53  91 124 172 225 289 348 425 513
#
# _framework density 28.668635999999999
#
# number of rings (size 3 to 8) (size 9 to 14) (size 15 to 20)
#    0.000    0.000    2.000    4.800    8.400    3.200 
#    0.000    0.000    0.000    0.000    0.000    0.000 
#    0.000    0.000    0.000    0.000    0.000    0.000 
#
# Total GULP energy -56300.579839 kJ/mol
# GULP energy per Si atom -5630.057984 kJ/mol
# Density = 2.860338 g / cm^3
# Si number density = 28.668636 Si / 1000 Ang^3
#
#
#
# Elastic Constant Matrix: (Units=GPa)
#
#
# Indices 1 2 3 4 5 6 
#
# 1 177.3173 81.1709 85.6039 19.6371 9.4305 20.6368
# 2 81.1709 227.8368 108.7010 15.8693 4.6929 7.2498
# 3 85.6039 108.7010 284.5770 44.9325 7.9332 -5.7969
# 4 19.6371 15.8693 44.9325 67.3380 5.8568 -17.1448
# 5 9.4305 4.6929 7.9332 5.8568 60.1062 -0.3511
# 6 20.6368 7.2498 -5.7969 -17.1448 -0.3511 52.8485
#
#
#
# Elastic Compliance Matrix: (Units=1/GPa)
#
#
# Indices 1 2 3 4 5 6 
#
# 1 0.007816 -0.001860 -0.001419 -0.001725 -0.000746 -0.003517
# 2 -0.001860 0.005862 -0.001726 0.000263 0.000035 -0.000181
# 3 -0.001419 -0.001726 0.004985 -0.002354 -0.000068 0.000574
# 4 -0.001725 0.000263 -0.002354 0.018598 -0.001214 0.006405
# 5 -0.000746 0.000035 -0.000068 -0.001214 0.016879 -0.000003
# 6 -0.003517 -0.000181 0.000574 0.006405 -0.000003 0.022461
#
#
# Mechanical properties :
#
#
# Convention : Reuss Voigt Hill
#
# Bulk Modulus (GPa) = 115.56418 137.85362 126.70890
# Shear Modulus (GPa) = 55.86809 63.67556 59.77183
#
# Velocity S-wave (km/s) = 4.41926 4.71795 4.57105
# Velocity P-wave (km/s) = 8.15093 8.82430 8.49429
#
# Compressibility (1/GPa) = 0.00865320
#
# Stress axis : x y z
#
# Youngs Moduli (GPa) = 127.93728 170.59291 200.58668
#
# Poissons Ratio (x) = 0.31733 0.28468
# Poissons Ratio (y) = 0.23799 0.34617
# Poissons Ratio (z) = 0.18157 0.29441
#
# Static dielectric constant tensor:
#      x y z
#    x 2.263570 0.001360 0.019730 
#    y 0.001360 2.267230 -0.007110 
#    z 0.019730 -0.007110 2.178720 
# 
# From -- ./inp_files/28807.got.cif
#   From: 2010.05.17/outbox.cif.g08.bks.cpg/sg2_15_cif.got.tgz:28807.got - 2010.06.03 11:33:40.
