data_PCOD9071296
_publ_section_title
;
Structure prediction by ZEFSAII (Michael W. Deem and Ramdas Pophale) SiO2 
 PCOD9071296
Probable space group: P -1
;
_chemical_formula_sum "Si O2"
_cell_formula_units_Z 16
_cell_length_a 13.551524
_cell_length_b 18.382872
_cell_length_c 12.428432
_cell_angle_alpha 155.194929
_cell_angle_beta 44.080446
_cell_angle_gamma 149.075546
_cell_volume 640.852964
_symmetry_space_group_name_H-M "P -1"
_symmetry_group_IT_number 2
_symmetry_cell_setting 'triclinic'
loop_
_space_group_symop_operation_xyz
x,y,z
-x,-y,-z
loop_
_atom_site_type_symbol
_atom_site_label
_atom_site_fract_x
_atom_site_fract_y
_atom_site_fract_z
Si Si1 0.361809 0.749001 0.202471
Si Si2 0.156362 0.570581 0.562006
Si Si3 0.926001 0.883854 0.021189
Si Si4 0.467073 0.961692 0.201181
Si Si5 0.081142 0.494765 0.771627
Si Si6 0.371485 0.219404 0.720786
Si Si7 0.271372 0.295030 0.437468
Si Si8 0.770813 0.752912 0.345189
O O1 0.143109 0.644404 0.206553
O O2 0.500000 0.000000 0.500000
O O3 0.470850 0.811813 0.085978
O O4 0.303303 0.509007 0.973769
O O5 0.353554 0.856792 0.777665
O O6 0.081037 0.504287 0.654753
O O7 0.000000 0.500000 0.500000
O O8 0.191313 0.397756 0.276411
O O9 0.780039 0.891802 0.209258
O O10 0.123345 0.033248 0.141373
O O11 0.000000 0.000000 0.000000
O O12 0.482354 0.135811 0.505662
O O13 0.256660 0.769421 0.046766
O O14 0.157933 0.376656 0.600850
O O15 0.288282 0.171742 0.602371
O O16 0.500000 0.500000 0.000000
O O17 0.500000 0.500000 0.500000
O O18 0.287771 0.268893 0.515218
O O19 0.000000 0.000000 0.500000
#
# Coordination Sequence:
#
# PCOD9071296 Si02
#       8
#     2   2   2   2   2   2   2   2
#     4  12  27  48  79 112 150 199 258 323 394 466
#     4  12  29  48  75 113 156 207 259 320 389 467
#     4  12  27  51  76 108 157 205 256 319 395 466
#     4  12  26  49  78 110 153 203 259 320 393 462
#     4  12  27  51  77 112 159 203 258 321 391 467
#     4  12  26  47  78 113 150 197 264 328 389 453
#     4  12  29  48  76 113 155 210 259 314 392 469
#     4  12  27  49  77 113 151 198 264 328 381 462
#
# _framework density 24.966725
#
# number of rings (size 3 to 8) (size 9 to 14) (size 15 to 20)
#    0.000    0.000    5.000    3.750    7.000    2.000 
#    0.000    0.000    0.000    0.000    0.000    0.000 
#    0.000    0.000    0.000    0.000    0.000    0.000 
#
# Total GULP energy -89401.652986 kJ/mol
# GULP energy per Si atom -5587.603312 kJ/mol
# Density = 2.490990 g / cm^3
# Si number density = 24.966725 Si / 1000 Ang^3
#
#
#
# Elastic Constant Matrix: (Units=GPa)
#
#
# Indices 1 2 3 4 5 6 
#
# 1 64.6578 -12.8776 -13.9714 -13.4786 2.5752 -25.3460
# 2 -12.8776 122.6021 -5.5293 -3.4581 3.5727 -17.5895
# 3 -13.9714 -5.5293 106.3374 16.6722 10.4150 -1.5368
# 4 -13.4786 -3.4581 16.6722 46.7986 -0.2257 17.6861
# 5 2.5752 3.5727 10.4150 -0.2257 53.9461 0.2722
# 6 -25.3460 -17.5895 -1.5368 17.6861 0.2722 47.3274
#
#
#
# Elastic Compliance Matrix: (Units=1/GPa)
#
#
# Indices 1 2 3 4 5 6 
#
# 1 0.022776 0.004623 0.003589 0.000355 -0.002155 0.013912
# 2 0.004623 0.009643 0.001462 -0.000924 -0.001178 0.006459
# 3 0.003589 0.001462 0.010956 -0.004477 -0.002425 0.004508
# 4 0.000355 -0.000924 -0.004477 0.026919 0.001074 -0.010365
# 5 -0.002155 -0.001178 -0.002425 0.001074 0.019202 -0.002182
# 6 0.013912 0.006459 0.004508 -0.010365 -0.002182 0.035013
#
#
# Mechanical properties :
#
#
# Convention : Reuss Voigt Hill
#
# Bulk Modulus (GPa) = 15.94287 25.42673 20.68480
# Shear Modulus (GPa) = 39.66147 51.34612 45.50379
#
# Velocity S-wave (km/s) = 3.99001 4.53988 4.27380
# Velocity P-wave (km/s) = 5.25609 6.13897 5.71461
#
# Compressibility (1/GPa) = 0.06272396
#
# Stress axis : x y z
#
# Youngs Moduli (GPa) = 43.90656 103.70292 91.27219
#
# Poissons Ratio (x) = -0.47941 -0.32761
# Poissons Ratio (y) = -0.20297 -0.13347
# Poissons Ratio (z) = -0.15760 -0.15165
#
# Static dielectric constant tensor:
#      x y z
#    x 1.962170 0.003200 -0.057190 
#    y 0.003200 1.953700 -0.000120 
#    z -0.057190 -0.000120 2.078800 
# 
# From -- ./inp_files/457010.got.cif
#   From: 2010.05.17/outbox.cif.g08.bks.cpg/sg2_229_cif.got.tgz:457010.got - 2010.06.03 11:33:40.
