data_PCOD9071274
_publ_section_title
;
Structure prediction by ZEFSAII (Michael W. Deem and Ramdas Pophale) SiO2 
 PCOD9071274
Probable space group: P -1
;
_chemical_formula_sum "Si O2"
_cell_formula_units_Z 14
_cell_length_a 9.512436
_cell_length_b 9.654309
_cell_length_c 12.852611
_cell_angle_alpha 123.584578
_cell_angle_beta 51.886830
_cell_angle_gamma 135.254798
_cell_volume 639.552275
_symmetry_space_group_name_H-M "P -1"
_symmetry_group_IT_number 2
_symmetry_cell_setting 'triclinic'
loop_
_space_group_symop_operation_xyz
x,y,z
-x,-y,-z
loop_
_atom_site_type_symbol
_atom_site_label
_atom_site_fract_x
_atom_site_fract_y
_atom_site_fract_z
Si Si1 0.087285 0.355800 0.398749
Si Si2 0.012503 0.826996 0.860097
Si Si3 0.541430 0.018163 0.201729
Si Si4 0.751235 0.368189 0.096491
Si Si5 0.354920 0.570378 0.047472
Si Si6 0.447474 0.443185 0.620535
Si Si7 0.189708 0.019541 0.488352
O O1 0.075706 0.251708 0.249281
O O2 0.330946 0.463764 0.377474
O O3 0.000000 0.500000 0.500000
O O4 0.921211 0.182514 0.480702
O O5 0.883506 0.623642 0.902793
O O6 0.261223 0.906519 0.779185
O O7 0.000000 0.000000 0.000000
O O8 0.651165 0.146124 0.098103
O O9 0.371675 0.058314 0.340495
O O10 0.417140 0.778444 0.154418
O O11 0.706086 0.483806 0.250107
O O12 0.618422 0.372402 0.061436
O O13 0.000000 0.500000 0.000000
O O14 0.500000 0.500000 0.000000
O O15 0.500000 0.500000 0.500000
O O16 0.301729 0.203209 0.593855
O O17 0.000000 0.000000 0.500000
#
# Coordination Sequence:
#
# PCOD9071274 Si02
#       7
#     2   2   2   2   2   2   2
#     4  12  28  49  81 112 151 205 261 319 392 462
#     4  12  27  48  74 113 158 199 257 321 384 463
#     4  12  26  48  76 110 157 197 259 320 385 459
#     4  12  27  46  77 111 150 206 253 316 387 461
#     4  12  26  47  75 108 155 202 251 317 387 460
#     4  12  26  51  77 112 157 196 260 322 385 463
#     4  12  27  47  80 111 151 204 256 320 385 463
#
# _framework density 21.890314
#
# number of rings (size 3 to 8) (size 9 to 14) (size 15 to 20)
#    0.000    0.000    5.714    3.000    4.000    3.429 
#    0.000    0.000    0.000    0.000    0.000    0.000 
#    0.000    0.000    0.000    0.000    0.000    0.000 
#
# Total GULP energy -78198.310248 kJ/mol
# GULP energy per Si atom -5585.593589 kJ/mol
# Density = 2.184049 g / cm^3
# Si number density = 21.890314 Si / 1000 Ang^3
#
#
#
# Elastic Constant Matrix: (Units=GPa)
#
#
# Indices 1 2 3 4 5 6 
#
# 1 127.5093 46.4365 65.0081 5.6404 -1.9033 6.7267
# 2 46.4365 184.1440 41.4167 16.0467 -5.4222 -1.1078
# 3 65.0081 41.4167 113.9018 6.3256 -9.5618 12.7445
# 4 5.6404 16.0467 6.3256 30.9560 0.2268 -0.4737
# 5 -1.9033 -5.4222 -9.5618 0.2268 46.4678 -7.6066
# 6 6.7267 -1.1078 12.7445 -0.4737 -7.6066 42.6505
#
#
#
# Elastic Compliance Matrix: (Units=1/GPa)
#
#
# Indices 1 2 3 4 5 6 
#
# 1 0.011495 -0.001565 -0.006047 -0.000043 -0.000993 -0.000224
# 2 -0.001565 0.006385 -0.001327 -0.002744 0.000565 0.000880
# 3 -0.006047 -0.001327 0.013228 -0.000969 0.001881 -0.002709
# 4 -0.000043 -0.002744 -0.000969 0.033944 -0.000606 0.000494
# 5 -0.000993 0.000565 0.001881 -0.000606 0.022528 0.003620
# 6 -0.000224 0.000880 -0.002709 0.000494 0.003620 0.024965
#
#
# Mechanical properties :
#
#
# Convention : Reuss Voigt Hill
#
# Bulk Modulus (GPa) = 75.59177 81.25306 78.42241
# Shear Modulus (GPa) = 37.08305 42.19448 39.63876
#
# Velocity S-wave (km/s) = 4.12034 4.39514 4.25995
# Velocity P-wave (km/s) = 7.56593 7.93443 7.75237
#
# Compressibility (1/GPa) = 0.01322895
#
# Stress axis : x y z
#
# Youngs Moduli (GPa) = 86.99805 156.62347 75.59756
#
# Poissons Ratio (x) = 0.24517 0.45714
# Poissons Ratio (y) = 0.13618 0.10030
# Poissons Ratio (z) = 0.52608 0.20780
#
# Static dielectric constant tensor:
#      x y z
#    x 1.861350 0.044960 0.034420 
#    y 0.044960 1.857990 0.087100 
#    z 0.034420 0.087100 1.887720 
# 
# From -- ./inp_files/383151.got.cif
#   From: 2010.05.17/outbox.cif.g08.bks.cpg/sg2_192_cif.got.tgz:383151.got - 2010.06.03 11:33:40.
