data_PCOD9071511
_publ_section_title
;
Structure prediction by ZEFSAII (Michael W. Deem and Ramdas Pophale) SiO2 
 PCOD9071511
Probable space group: P -1
;
_chemical_formula_sum "Si O2"
_cell_formula_units_Z 13
_cell_length_a 14.658026
_cell_length_b 9.036085
_cell_length_c 5.515434
_cell_angle_alpha 105.869176
_cell_angle_beta 108.510529
_cell_angle_gamma 119.996858
_cell_volume 510.156196
_symmetry_space_group_name_H-M "P -1"
_symmetry_group_IT_number 2
_symmetry_cell_setting 'triclinic'
loop_
_space_group_symop_operation_xyz
x,y,z
-x,-y,-z
loop_
_atom_site_type_symbol
_atom_site_label
_atom_site_fract_x
_atom_site_fract_y
_atom_site_fract_z
Si Si1 0.385887 0.791832 0.187939
Si Si2 0.000000 0.000000 0.500000
Si Si3 0.211154 0.109217 0.338495
Si Si4 0.202113 0.398826 0.174698
Si Si5 0.925679 0.444432 0.663658
Si Si6 0.443781 0.276027 0.908090
Si Si7 0.752484 0.065230 0.093812
O O1 0.309098 0.602824 0.217164
O O2 0.451534 0.747281 0.030023
O O3 0.500000 0.000000 0.500000
O O4 0.294439 0.827066 0.021333
O O5 0.111446 0.052228 0.431891
O O6 0.102838 0.222622 0.823785
O O7 0.251424 0.308699 0.333964
O O8 0.335061 0.151555 0.557125
O O9 0.157801 0.944529 0.005848
O O10 0.136786 0.453638 0.322729
O O11 0.824136 0.203480 0.450292
O O12 0.000000 0.500000 0.500000
O O13 0.000000 0.500000 0.000000
O O14 0.363466 0.162228 0.030656
O O15 0.500000 0.500000 0.000000
#
# Coordination Sequence:
#
# PCOD9071511 Si02
#       7
#     2   1   2   2   2   2   2
#     4  12  26  53  82 122 166 222 285 350 423 510
#     4  12  28  52  78 116 164 214 280 346 426 510
#     4  12  28  51  81 119 166 220 282 348 433 511
#     4  12  30  50  83 119 164 221 281 349 436 504
#     4  12  30  51  85 121 169 225 286 358 433 518
#     4  12  28  48  82 118 166 220 281 343 427 512
#     4  12  28  52  81 123 166 222 284 353 432 508
#
# _framework density 25.482389999999999
#
# number of rings (size 3 to 8) (size 9 to 14) (size 15 to 20)
#    0.000    0.000    1.538    6.462   15.077    1.231 
#    0.000    0.000    0.000    0.000    0.000    0.000 
#    0.000    0.000    0.000    0.000    0.000    0.000 
#
# Total GULP energy -72664.760235 kJ/mol
# GULP energy per Si atom -5589.596941 kJ/mol
# Density = 2.542439 g / cm^3
# Si number density = 25.482390 Si / 1000 Ang^3
#
#
#
# Elastic Constant Matrix: (Units=GPa)
#
#
# Indices 1 2 3 4 5 6 
#
# 1 180.5543 63.6439 43.4150 0.7366 -52.3717 5.9581
# 2 63.6439 142.1299 41.3157 8.5388 4.2710 2.2551
# 3 43.4150 41.3157 123.1338 23.9292 -29.4832 9.3481
# 4 0.7366 8.5388 23.9292 44.4169 -1.4902 3.1242
# 5 -52.3717 4.2710 -29.4832 -1.4902 48.2325 5.2801
# 6 5.9581 2.2551 9.3481 3.1242 5.2801 46.1788
#
#
#
# Elastic Compliance Matrix: (Units=1/GPa)
#
#
# Indices 1 2 3 4 5 6 
#
# 1 0.011602 -0.006055 0.001460 0.000894 0.014405 -0.003204
# 2 -0.006055 0.011284 -0.004274 -0.000279 -0.010448 0.002309
# 3 0.001460 -0.004274 0.012744 -0.005501 0.009947 -0.003325
# 4 0.000894 -0.000279 -0.005501 0.025503 -0.001520 -0.000540
# 5 0.014405 -0.010448 0.009947 -0.001520 0.044243 -0.008318
# 6 -0.003204 0.002309 -0.003325 -0.000540 -0.008318 0.023616
#
#
# Mechanical properties :
#
#
# Convention : Reuss Voigt Hill
#
# Bulk Modulus (GPa) = 55.89462 82.50747 69.20105
# Shear Modulus (GPa) = 32.74486 47.59519 40.17003
#
# Velocity S-wave (km/s) = 3.58858 4.32646 3.97468
# Velocity P-wave (km/s) = 6.25722 7.57669 6.94834
#
# Compressibility (1/GPa) = 0.01789081
#
# Stress axis : x y z
#
# Youngs Moduli (GPa) = 86.18883 88.62237 78.46986
#
# Poissons Ratio (x) = 0.53665 -0.11454
# Poissons Ratio (y) = 0.52191 0.33536
# Poissons Ratio (z) = -0.12581 0.37875
#
# Static dielectric constant tensor:
#      x y z
#    x 1.963050 0.014350 0.022440 
#    y 0.014350 2.061790 -0.026990 
#    z 0.022440 -0.026990 2.127160 
# 
# From -- ./inp_files/24331.got.cif
#   From: 2010.05.17/outbox.cif.g08.bks.cpg/sg2_13_cif.got.tgz:24331.got - 2010.06.03 11:33:40.
