data_PCOD9071800
_publ_section_title
;
Structure prediction by ZEFSAII (Michael W. Deem and Ramdas Pophale) SiO2 
 PCOD9071800
Probable space group: P -1
;
_chemical_formula_sum "Si O2"
_cell_formula_units_Z 16
_cell_length_a 14.009974
_cell_length_b 17.272811
_cell_length_c 11.504284
_cell_angle_alpha 31.885992
_cell_angle_beta 142.349782
_cell_angle_gamma 155.064851
_cell_volume 616.999620
_symmetry_space_group_name_H-M "P -1"
_symmetry_group_IT_number 2
_symmetry_cell_setting 'triclinic'
loop_
_space_group_symop_operation_xyz
x,y,z
-x,-y,-z
loop_
_atom_site_type_symbol
_atom_site_label
_atom_site_fract_x
_atom_site_fract_y
_atom_site_fract_z
Si Si1 0.525705 0.684972 0.404424
Si Si2 0.157695 0.841385 0.521922
Si Si3 0.121538 0.398433 0.956572
Si Si4 0.228014 0.617049 0.005160
Si Si5 0.760911 0.648464 0.085103
Si Si6 0.654798 0.833997 0.904450
Si Si7 0.233366 0.600650 0.417772
Si Si8 0.806466 0.820371 0.302285
O O1 0.473358 0.732514 0.415219
O O2 0.767807 0.831789 0.386411
O O3 0.393184 0.438743 0.591939
O O4 0.402293 0.690996 0.176274
O O5 0.304671 0.820390 0.757224
O O6 0.943877 0.601381 0.580024
O O7 0.043559 0.896827 0.411186
O O8 0.276292 0.983381 0.341029
O O9 0.148546 0.431648 0.078475
O O10 0.123100 0.263143 0.042430
O O11 0.381007 0.635882 0.879975
O O12 0.891169 0.328101 0.789008
O O13 0.000000 0.500000 0.000000
O O14 0.783480 0.501812 0.348569
O O15 0.500000 0.500000 0.000000
O O16 0.790640 0.787136 0.038909
O O17 0.737627 0.889919 0.045941
#
# Coordination Sequence:
#
# PCOD9071800 Si02
#       8
#     2   2   2   2   2   2   2   2
#     4  10  18  31  53  80 106 133 176 229 265 311
#     4  10  21  32  54  79 116 141 168 231 269 321
#     4  10  21  33  56  77 112 144 178 218 260 326
#     4  11  18  35  52  82 106 134 180 221 272 307
#     4  10  21  35  52  78 109 146 183 219 256 320
#     4  11  20  35  49  82 116 141 177 214 279 314
#     4  10  19  35  53  84 105 137 183 221 274 306
#     4  10  18  29  51  78 108 137 171 219 272 310
#
# _framework density 25.931944999999999
#
# number of rings (size 3 to 8) (size 9 to 14) (size 15 to 20)
#    0.000    1.750    7.500    0.750    0.000    2.000 
#    0.000    0.000    0.000    0.750    0.000    4.375 
#    0.000    0.000    0.000    0.000    0.000    0.000 
#
# Total GULP energy -89217.821522 kJ/mol
# GULP energy per Si atom -5576.113845 kJ/mol
# Density = 2.587292 g / cm^3
# Si number density = 25.931945 Si / 1000 Ang^3
#
#
#
# Elastic Constant Matrix: (Units=GPa)
#
#
# Indices 1 2 3 4 5 6 
#
# 1 155.9675 10.3638 -3.0852 -9.9887 -8.6111 13.3610
# 2 10.3638 57.3284 6.7146 12.2432 -4.2501 0.2220
# 3 -3.0852 6.7146 134.0552 10.4249 -5.8389 3.6786
# 4 -9.9887 12.2432 10.4249 21.8930 14.3462 -5.2139
# 5 -8.6111 -4.2501 -5.8389 14.3462 34.1883 -0.9269
# 6 13.3610 0.2220 3.6786 -5.2139 -0.9269 27.4579
#
#
#
# Elastic Compliance Matrix: (Units=1/GPa)
#
#
# Indices 1 2 3 4 5 6 
#
# 1 0.007017 -0.002090 0.000036 0.003821 -0.000163 -0.002682
# 2 -0.002090 0.023716 0.001262 -0.023870 0.012560 -0.003452
# 3 0.000036 0.001262 0.008370 -0.008688 0.005170 -0.002624
# 4 0.003821 -0.023870 -0.008688 0.097710 -0.044041 0.016565
# 5 -0.000163 0.012560 0.005170 -0.044041 0.049933 -0.007392
# 6 -0.002682 -0.003452 -0.002624 0.016565 -0.007392 0.041000
#
#
# Mechanical properties :
#
#
# Convention : Reuss Voigt Hill
#
# Bulk Modulus (GPa) = 26.65487 41.70415 34.17951
# Shear Modulus (GPa) = 20.67511 38.93169 29.80340
#
# Velocity S-wave (km/s) = 2.82668 3.87887 3.39380
# Velocity P-wave (km/s) = 4.57762 6.01481 5.34474
#
# Compressibility (1/GPa) = 0.03751660
#
# Stress axis : x y z
#
# Youngs Moduli (GPa) = 142.51693 42.16636 119.47427
#
# Poissons Ratio (x) = 0.08815 -0.00424
# Poissons Ratio (y) = 0.29792 -0.15078
# Poissons Ratio (z) = -0.00506 -0.05322
#
# Static dielectric constant tensor:
#      x y z
#    x 2.194250 -0.006100 0.028120 
#    y -0.006100 2.149350 -0.070690 
#    z 0.028120 -0.070690 2.164190 
# 
# From -- ./inp_files/271479.got.cif
#   From: 2010.05.17/outbox.cif.g08.bks.cpg/sg2_136_cif.got.tgz:271479.got - 2010.06.03 11:33:40.
