data_PCOD9071651
_publ_section_title
;
Structure prediction by ZEFSAII (Michael W. Deem and Ramdas Pophale) SiO2 
 PCOD9071651
Probable space group: P -1
;
_chemical_formula_sum "Si O2"
_cell_formula_units_Z 13
_cell_length_a 10.752076
_cell_length_b 11.175199
_cell_length_c 10.959461
_cell_angle_alpha 36.086078
_cell_angle_beta 49.446995
_cell_angle_gamma 41.577075
_cell_volume 511.208830
_symmetry_space_group_name_H-M "P -1"
_symmetry_group_IT_number 2
_symmetry_cell_setting 'triclinic'
loop_
_space_group_symop_operation_xyz
x,y,z
-x,-y,-z
loop_
_atom_site_type_symbol
_atom_site_label
_atom_site_fract_x
_atom_site_fract_y
_atom_site_fract_z
Si Si1 0.000000 0.000000 0.500000
Si Si2 0.659189 0.393919 0.086651
Si Si3 0.970119 0.615141 0.554947
Si Si4 0.529276 0.299906 0.821634
Si Si5 0.051629 0.042132 0.151439
Si Si6 0.334636 0.012198 0.425129
Si Si7 0.643090 0.685140 0.334090
O O1 0.178209 0.025652 0.418476
O O2 0.976973 0.911021 0.723975
O O3 0.607862 0.578112 0.077889
O O4 0.635999 0.184953 0.333824
O O5 0.500000 0.500000 0.000000
O O6 0.878564 0.261785 0.014571
O O7 0.013851 0.826794 0.331099
O O8 0.133420 0.443066 0.685451
O O9 0.000000 0.500000 0.500000
O O10 0.761942 0.744516 0.640354
O O11 0.726341 0.071207 0.919073
O O12 0.586897 0.490396 0.577073
O O13 0.422628 0.264868 0.804707
O O14 0.526417 0.904379 0.316495
#
# Coordination Sequence:
#
# PCOD9071651 Si02
#       7
#     1   2   2   2   2   2   2
#     4   8  12  24  42  64  80 104 128 170 222 244
#     4   9  18  27  39  63  91 118 139 165 214 263
#     4   9  18  27  39  63  91 118 139 165 214 263
#     4   9  16  25  43  65  86 111 138 173 220 259
#     4   9  17  27  44  61  91 110 137 178 213 250
#     4   9  17  27  44  61  91 110 137 178 213 250
#     4   9  16  25  43  65  86 111 138 173 220 259
#
# _framework density 25.429922000000001
#
# number of rings (size 3 to 8) (size 9 to 14) (size 15 to 20)
#    0.000    3.385    1.538    0.000   12.923    1.231 
#    0.000    0.000    0.000    0.000    0.000    4.308 
#    0.000   20.923    0.000    0.000    0.000    0.000 
#
# Total GULP energy -72466.636985 kJ/mol
# GULP energy per Si atom -5574.356691 kJ/mol
# Density = 2.537204 g / cm^3
# Si number density = 25.429922 Si / 1000 Ang^3
#
#
#
# Elastic Constant Matrix: (Units=GPa)
#
#
# Indices 1 2 3 4 5 6 
#
# 1 102.6819 56.2128 59.0183 -9.6690 33.2634 -14.6027
# 2 56.2128 202.5953 59.3198 -27.6857 29.5095 -24.0901
# 3 59.0183 59.3198 81.3339 -23.0749 18.1180 4.9670
# 4 -9.6690 -27.6857 -23.0749 45.8345 -12.6210 0.0421
# 5 33.2634 29.5095 18.1180 -12.6210 42.3220 10.3505
# 6 -14.6027 -24.0901 4.9670 0.0421 10.3505 31.5936
#
#
#
# Elastic Compliance Matrix: (Units=1/GPa)
#
#
# Indices 1 2 3 4 5 6 
#
# 1 0.043532 0.007047 -0.034891 -0.015017 -0.039408 0.043909
# 2 0.007047 0.009653 -0.010891 -0.001494 -0.012032 0.016274
# 3 -0.034891 -0.010891 0.046337 0.017892 0.030741 -0.041811
# 4 -0.015017 -0.001494 0.017892 0.031978 0.018911 -0.017131
# 5 -0.039408 -0.012032 0.030741 0.018911 0.068876 -0.054812
# 6 0.043909 0.016274 -0.041811 -0.017131 -0.054812 0.088909
#
#
# Mechanical properties :
#
#
# Convention : Reuss Voigt Hill
#
# Bulk Modulus (GPa) = 45.34663 81.74586 63.54625
# Shear Modulus (GPa) = 13.36521 38.08736 25.72629
#
# Velocity S-wave (km/s) = 2.29502 3.87426 3.18410
# Velocity P-wave (km/s) = 4.98934 7.22693 6.20975
#
# Compressibility (1/GPa) = 0.02205236
#
# Stress axis : x y z
#
# Youngs Moduli (GPa) = 22.97177 103.59355 21.58081
#
# Poissons Ratio (x) = -0.72998 0.75297
# Poissons Ratio (y) = -0.16187 0.23503
# Poissons Ratio (z) = 0.80150 1.12822
#
# Static dielectric constant tensor:
#      x y z
#    x 2.044280 -0.049640 -0.201650 
#    y -0.049640 2.042760 -0.014300 
#    z -0.201650 -0.014300 2.223460 
# 
# From -- ./inp_files/373750.got.cif
#   From: 2010.05.17/outbox.cif.g08.bks.cpg/sg2_187_cif.got.tgz:373750.got - 2010.06.03 11:33:40.
