data_PCOD9071866
_publ_section_title
;
Structure prediction by ZEFSAII (Michael W. Deem and Ramdas Pophale) SiO2 
 PCOD9071866
Probable space group: P -1
;
_chemical_formula_sum "Si O2"
_cell_formula_units_Z 16
_cell_length_a 13.219899
_cell_length_b 5.352748
_cell_length_c 13.707999
_cell_angle_alpha 108.114697
_cell_angle_beta 128.135760
_cell_angle_gamma 64.247420
_cell_volume 685.942884
_symmetry_space_group_name_H-M "P -1"
_symmetry_group_IT_number 2
_symmetry_cell_setting 'triclinic'
loop_
_space_group_symop_operation_xyz
x,y,z
-x,-y,-z
loop_
_atom_site_type_symbol
_atom_site_label
_atom_site_fract_x
_atom_site_fract_y
_atom_site_fract_z
Si Si1 0.840400 0.112222 0.431371
Si Si2 0.592092 0.491852 0.715962
Si Si3 0.945708 0.676850 0.890133
Si Si4 0.492539 0.740338 0.130652
Si Si5 0.297922 0.232552 0.571009
Si Si6 0.403486 0.820948 0.813714
Si Si7 0.330821 0.170560 0.357192
Si Si8 0.790714 0.277206 0.961005
O O1 0.795962 0.445884 0.442891
O O2 0.755099 0.035923 0.282386
O O3 0.786471 0.972452 0.473334
O O4 0.000000 0.000000 0.500000
O O5 0.465983 0.640519 0.729773
O O6 0.586614 0.670275 0.637874
O O7 0.717905 0.500061 0.860913
O O8 0.628106 0.160959 0.680780
O O9 0.825481 0.652944 0.745748
O O10 0.870548 0.987020 0.922545
O O11 0.000000 0.500000 0.000000
O O12 0.084995 0.643991 0.909154
O O13 0.579921 0.805176 0.282989
O O14 0.571249 0.416823 0.119712
O O15 0.337583 0.762836 0.064005
O O16 0.513179 0.969678 0.100834
O O17 0.346982 0.187028 0.483787
#
# Coordination Sequence:
#
# PCOD9071866 Si02
#       8
#     2   2   2   2   2   2   2   2
#     4  10  20  37  57  74  99 133 165 214 261 304
#     4  10  18  31  47  68 100 139 169 205 239 289
#     4  10  18  30  45  64  95 140 184 210 231 282
#     4   9  18  31  47  65  97 127 156 221 245 283
#     4  10  21  37  52  79 107 130 172 207 248 321
#     4   9  17  31  48  72  98 124 168 208 237 304
#     4  11  21  33  50  72 107 147 167 203 252 287
#     4   9  18  29  44  65  92 134 181 214 231 276
#
# _framework density 23.325558999999998
#
# number of rings (size 3 to 8) (size 9 to 14) (size 15 to 20)
#    0.000    2.250    1.250    3.375    1.750    0.000 
#    0.000   30.625    0.000    0.000    0.000    0.000 
#    0.000   38.000    0.000    0.000    0.000    0.000 
#
# Total GULP energy -89179.990199 kJ/mol
# GULP energy per Si atom -5573.749387 kJ/mol
# Density = 2.327247 g / cm^3
# Si number density = 23.325559 Si / 1000 Ang^3
#
#
#
# Elastic Constant Matrix: (Units=GPa)
#
#
# Indices 1 2 3 4 5 6 
#
# 1 106.6055 34.7261 72.2951 -16.5820 14.9883 24.0648
# 2 34.7261 114.2427 19.6938 -19.3112 -2.8452 20.4044
# 3 72.2951 19.6938 111.9911 -20.8869 20.1675 3.4769
# 4 -16.5820 -19.3112 -20.8869 33.8411 1.7029 -1.9297
# 5 14.9883 -2.8452 20.1675 1.7029 53.9331 -8.8742
# 6 24.0648 20.4044 3.4769 -1.9297 -8.8742 38.5099
#
#
#
# Elastic Compliance Matrix: (Units=1/GPa)
#
#
# Indices 1 2 3 4 5 6 
#
# 1 0.022165 -0.002239 -0.012649 0.001257 -0.003610 -0.012292
# 2 -0.002239 0.010973 0.000613 0.005298 0.000117 -0.004178
# 3 -0.012649 0.000613 0.018389 0.005953 -0.002592 0.005620
# 4 0.001257 0.005298 0.005953 0.036881 -0.003987 -0.003201
# 5 -0.003610 0.000117 -0.002592 -0.003987 0.021841 0.007261
# 6 -0.012292 -0.004178 0.005620 -0.003201 0.007261 0.036867
#
#
# Mechanical properties :
#
#
# Convention : Reuss Voigt Hill
#
# Bulk Modulus (GPa) = 43.52144 65.14104 54.33124
# Shear Modulus (GPa) = 27.27360 38.99844 33.13602
#
# Velocity S-wave (km/s) = 3.42315 4.09335 3.77316
# Velocity P-wave (km/s) = 5.85856 7.09423 6.50580
#
# Compressibility (1/GPa) = 0.02297718
#
# Stress axis : x y z
#
# Youngs Moduli (GPa) = 45.11522 91.13273 54.37908
#
# Poissons Ratio (x) = 0.20406 0.68783
# Poissons Ratio (y) = 0.10102 -0.03331
# Poissons Ratio (z) = 0.57065 -0.05583
#
# Static dielectric constant tensor:
#      x y z
#    x 1.942260 0.036590 -0.000050 
#    y 0.036590 1.944610 0.024320 
#    z -0.000050 0.024320 2.028210 
# 
# From -- ./inp_files/563861.got.cif
#   From: 2010.05.17/outbox.cif.g08.bks.cpg/sg2_282_cif.got.tgz:563861.got - 2010.06.03 11:33:40.
