data_PCOD9071674
_publ_section_title
;
Structure prediction by ZEFSAII (Michael W. Deem and Ramdas Pophale) SiO2 
 PCOD9071674
Probable space group: P -1
;
_chemical_formula_sum "Si O2"
_cell_formula_units_Z 12
_cell_length_a 5.038320
_cell_length_b 5.038316
_cell_length_c 21.361058
_cell_angle_alpha 73.786905
_cell_angle_beta 56.895423
_cell_angle_gamma 97.574711
_cell_volume 408.003516
_symmetry_space_group_name_H-M "P -1"
_symmetry_group_IT_number 2
_symmetry_cell_setting 'triclinic'
loop_
_space_group_symop_operation_xyz
x,y,z
-x,-y,-z
loop_
_atom_site_type_symbol
_atom_site_label
_atom_site_fract_x
_atom_site_fract_y
_atom_site_fract_z
Si Si1 0.237151 0.803204 0.980954
Si Si2 0.839538 0.137956 0.646465
Si Si3 0.008510 0.514000 0.853536
Si Si4 0.322250 0.218105 0.480955
Si Si5 0.194924 0.724137 0.683231
Si Si6 0.540905 0.878152 0.183231
O O1 0.701691 0.308261 0.950468
O O2 0.522523 0.963727 0.882324
O O3 0.000000 0.500000 0.000000
O O4 0.000000 0.000000 0.000000
O O5 0.741794 0.238805 0.718943
O O6 0.142208 0.347842 0.549532
O O7 0.497095 0.991564 0.660955
O O8 0.971882 0.874288 0.664689
O O9 0.980142 0.539263 0.781057
O O10 0.290404 0.363434 0.835311
O O11 0.169391 0.841955 0.839045
O O12 0.581401 0.404846 0.382324
O O13 0.500000 0.000000 0.500000
O O14 0.000000 0.000000 0.500000
#
# Coordination Sequence:
#
# PCOD9071674 Si02
#       6
#     2   2   2   2   2   2
#     4   8  14  26  47  72 102 136 174 216 264 316
#     4   9  17  31  51  77 106 140 178 221 268 320
#     4   9  17  31  51  77 106 140 178 221 268 320
#     4   8  14  26  47  72 102 136 174 216 264 316
#     4   9  17  31  51  77 106 140 178 221 268 320
#     4   9  17  31  51  77 106 140 178 221 268 320
#
# _framework density 29.411514
#
# number of rings (size 3 to 8) (size 9 to 14) (size 15 to 20)
#    0.000    3.333    0.000    0.000    0.000    0.000 
#    0.000    8.333    0.000    0.000    0.000   70.000 
#    0.000    0.000    0.000    0.000    0.000    0.000 
#
# Total GULP energy -67255.956133 kJ/mol
# GULP energy per Si atom -5604.663011 kJ/mol
# Density = 2.934457 g / cm^3
# Si number density = 29.411514 Si / 1000 Ang^3
#
#
#
# Elastic Constant Matrix: (Units=GPa)
#
#
# Indices 1 2 3 4 5 6 
#
# 1 111.3980 45.0915 36.7389 -1.4784 1.4445 -11.0571
# 2 45.0915 120.5430 38.0669 -6.6237 -15.5320 -7.7727
# 3 36.7389 38.0669 196.9224 -11.3387 13.0357 3.5045
# 4 -1.4784 -6.6237 -11.3387 56.7379 8.8823 1.0320
# 5 1.4445 -15.5320 13.0357 8.8823 62.6898 -1.4105
# 6 -11.0571 -7.7727 3.5045 1.0320 -1.4105 28.6207
#
#
#
# Elastic Compliance Matrix: (Units=1/GPa)
#
#
# Indices 1 2 3 4 5 6 
#
# 1 0.011283 -0.003656 -0.001433 -0.000368 -0.000737 0.003519
# 2 -0.003656 0.010700 -0.001603 0.000320 0.003064 0.001829
# 3 -0.001433 -0.001603 0.005881 0.001267 -0.001808 -0.001844
# 4 -0.000368 0.000320 0.001267 0.018363 -0.002800 -0.001010
# 5 -0.000737 0.003064 -0.001808 -0.002800 0.017540 0.001734
# 6 0.003519 0.001829 -0.001844 -0.001010 0.001734 0.037144
#
#
# Mechanical properties :
#
#
# Convention : Reuss Voigt Hill
#
# Bulk Modulus (GPa) = 69.06699 74.29535 71.68117
# Shear Modulus (GPa) = 41.97352 50.20743 46.09048
#
# Velocity S-wave (km/s) = 3.78181 4.13615 3.96294
# Velocity P-wave (km/s) = 6.52713 6.93727 6.73532
#
# Compressibility (1/GPa) = 0.01447870
#
# Stress axis : x y z
#
# Youngs Moduli (GPa) = 88.62508 93.45570 170.04016
#
# Poissons Ratio (x) = 0.34171 0.24373
# Poissons Ratio (y) = 0.32405 0.27262
# Poissons Ratio (z) = 0.12703 0.14983
#
# Static dielectric constant tensor:
#      x y z
#    x 2.267390 0.151900 0.102080 
#    y 0.151900 2.201870 -0.037500 
#    z 0.102080 -0.037500 2.472010 
# 
# From -- ./inp_files/8730.got.cif
#   From: 2010.05.17/outbox.cif.g08.bks.cpg/sg2_5_cif.got.tgz:8730.got - 2010.06.03 11:33:40.
