data_PCOD9071521
_publ_section_title
;
Structure prediction by ZEFSAII (Michael W. Deem and Ramdas Pophale) SiO2 
 PCOD9071521
Probable space group: P -1
;
_chemical_formula_sum "Si O2"
_cell_formula_units_Z 12
_cell_length_a 9.761379
_cell_length_b 9.145124
_cell_length_c 12.247022
_cell_angle_alpha 86.344155
_cell_angle_beta 106.070920
_cell_angle_gamma 149.147323
_cell_volume 504.101688
_symmetry_space_group_name_H-M "P -1"
_symmetry_group_IT_number 2
_symmetry_cell_setting 'triclinic'
loop_
_space_group_symop_operation_xyz
x,y,z
-x,-y,-z
loop_
_atom_site_type_symbol
_atom_site_label
_atom_site_fract_x
_atom_site_fract_y
_atom_site_fract_z
Si Si1 0.237622 0.026979 0.291538
Si Si2 0.261924 0.731951 0.244134
Si Si3 0.246664 0.345305 0.523194
Si Si4 0.165790 0.802580 0.520160
Si Si5 0.655565 0.032401 0.118544
Si Si6 0.183677 0.144409 0.922586
O O1 0.249996 0.897759 0.220650
O O2 0.552355 0.394767 0.351986
O O3 0.170754 0.892934 0.401425
O O4 0.992485 0.922321 0.205314
O O5 0.498022 0.914193 0.382597
O O6 0.410623 0.789754 0.169641
O O7 0.937662 0.377214 0.208174
O O8 0.500000 0.500000 0.500000
O O9 0.032474 0.279940 0.436879
O O10 0.000000 0.000000 0.500000
O O11 0.000000 0.500000 0.500000
O O12 0.766043 0.978363 0.096004
O O13 0.500000 0.000000 0.000000
O O14 0.500000 0.500000 0.000000
O O15 0.000000 0.000000 0.000000
#
# Coordination Sequence:
#
# PCOD9071521 Si02
#       6
#     2   2   2   2   2   2
#     4  12  28  49  76 111 160 203 253 318 385 453
#     4  12  27  45  77 108 150 195 254 311 373 447
#     4  12  28  45  73 109 159 199 255 305 383 453
#     4  12  27  49  76 115 156 207 254 309 387 458
#     4  12  27  50  78 110 144 197 259 314 372 447
#     4  12  29  51  78 109 150 200 255 316 387 452
#
# _framework density 23.80472
#
# number of rings (size 3 to 8) (size 9 to 14) (size 15 to 20)
#    0.000    0.000    3.333    5.000    9.333    0.000 
#    0.000    0.000    0.000    0.000    0.000    0.000 
#    0.000    0.000    0.000    0.000    0.000    0.000 
#
# Total GULP energy -67189.274752 kJ/mol
# GULP energy per Si atom -5599.106229 kJ/mol
# Density = 2.375054 g / cm^3
# Si number density = 23.804720 Si / 1000 Ang^3
#
#
#
# Elastic Constant Matrix: (Units=GPa)
#
#
# Indices 1 2 3 4 5 6 
#
# 1 203.0333 41.4581 29.4137 0.5132 22.5127 -22.8249
# 2 41.4581 174.5633 38.5384 24.9471 22.3579 -4.4908
# 3 29.4137 38.5384 125.5781 -3.9097 44.3822 -4.8906
# 4 0.5132 24.9471 -3.9097 47.1292 11.4990 -6.0854
# 5 22.5127 22.3579 44.3822 11.4990 51.7743 3.0902
# 6 -22.8249 -4.4908 -4.8906 -6.0854 3.0902 54.5828
#
#
#
# Elastic Compliance Matrix: (Units=1/GPa)
#
#
# Indices 1 2 3 4 5 6 
#
# 1 0.005732 -0.001205 0.000072 0.001537 -0.002531 0.002619
# 2 -0.001205 0.007005 -0.002088 -0.003993 0.000210 -0.000572
# 3 0.000072 -0.002088 0.012901 0.005270 -0.011493 0.002252
# 4 0.001537 -0.003993 0.005270 0.026660 -0.009640 0.004305
# 5 -0.002531 0.000210 -0.011493 -0.009640 0.032616 -0.004992
# 6 0.002619 -0.000572 0.002252 0.004305 -0.004992 0.020333
#
#
# Mechanical properties :
#
#
# Convention : Reuss Voigt Hill
#
# Bulk Modulus (GPa) = 52.09885 80.22168 66.16026
# Shear Modulus (GPa) = 42.34077 56.94824 49.64450
#
# Velocity S-wave (km/s) = 4.22200 4.89643 4.57167
# Velocity P-wave (km/s) = 6.76022 8.10801 7.46459
#
# Compressibility (1/GPa) = 0.01919428
#
# Stress axis : x y z
#
# Youngs Moduli (GPa) = 174.45174 142.75701 77.51298
#
# Poissons Ratio (x) = 0.17207 -0.00556
# Poissons Ratio (y) = 0.21027 0.16187
# Poissons Ratio (z) = -0.01251 0.29813
#
# Static dielectric constant tensor:
#      x y z
#    x 1.966760 -0.029610 -0.046310 
#    y -0.029610 1.893390 -0.057690 
#    z -0.046310 -0.057690 1.975270 
# 
# From -- ./inp_files/378841.got.cif
#   From: 2010.05.17/outbox.cif.g08.bks.cpg/sg2_190_cif.got.tgz:378841.got - 2010.06.03 11:33:40.
