data_PCOD9071336
_publ_section_title
;
Structure prediction by ZEFSAII (Michael W. Deem and Ramdas Pophale) SiO2 
 PCOD9071336
Probable space group: P -1
;
_chemical_formula_sum "Si O2"
_cell_formula_units_Z 13
_cell_length_a 16.893223
_cell_length_b 8.971952
_cell_length_c 14.026356
_cell_angle_alpha 50.851201
_cell_angle_beta 20.903959
_cell_angle_gamma 61.062872
_cell_volume 543.431238
_symmetry_space_group_name_H-M "P -1"
_symmetry_group_IT_number 2
_symmetry_cell_setting 'triclinic'
loop_
_space_group_symop_operation_xyz
x,y,z
-x,-y,-z
loop_
_atom_site_type_symbol
_atom_site_label
_atom_site_fract_x
_atom_site_fract_y
_atom_site_fract_z
Si Si1 0.212549 0.688255 0.135719
Si Si2 0.283349 0.783885 0.810409
Si Si3 0.500000 0.500000 0.000000
Si Si4 0.559671 0.597447 0.212303
Si Si5 0.344517 0.118225 0.178006
Si Si6 0.163005 0.104695 0.066361
Si Si7 0.059561 0.350036 0.918614
O O1 0.000000 0.500000 0.500000
O O2 0.228572 0.903365 0.075155
O O3 0.138228 0.712996 0.101048
O O4 0.437304 0.624526 0.928575
O O5 0.374739 0.599703 0.769105
O O6 0.500000 0.000000 0.500000
O O7 0.141897 0.784361 0.873921
O O8 0.534157 0.706471 0.947795
O O9 0.276972 0.508360 0.547714
O O10 0.708393 0.752687 0.900940
O O11 0.625692 0.720532 0.186463
O O12 0.095938 0.957167 0.566445
O O13 0.500000 0.000000 0.000000
O O14 0.138037 0.193130 0.955853
O O15 0.000000 0.500000 0.000000
#
# Coordination Sequence:
#
# PCOD9071336 Si02
#       7
#     2   2   1   2   2   2   2
#     4  12  27  49  77 111 160 195 267 327 395 471
#     4  12  29  48  77 113 155 204 258 324 393 473
#     4  12  26  48  76 112 154 206 254 328 406 460
#     4  12  26  50  76 110 153 202 267 326 388 473
#     4  12  27  47  81 115 157 205 269 328 403 472
#     4  12  26  50  80 114 157 211 262 328 399 473
#     4  12  28  48  78 111 158 207 261 324 397 470
#
# _framework density 23.922072
#
# number of rings (size 3 to 8) (size 9 to 14) (size 15 to 20)
#    0.000    0.000    4.615    3.692    6.462    2.462 
#    0.000    0.000    0.000    0.000    0.000    0.000 
#    0.000    0.000    0.000    0.000    0.000    0.000 
#
# Total GULP energy -72486.683940 kJ/mol
# GULP energy per Si atom -5575.898765 kJ/mol
# Density = 2.386762 g / cm^3
# Si number density = 23.922072 Si / 1000 Ang^3
#
#
#
# Elastic Constant Matrix: (Units=GPa)
#
#
# Indices 1 2 3 4 5 6 
#
# 1 144.1481 20.0132 11.4287 -26.5670 -8.6224 2.9297
# 2 20.0132 164.9822 10.4794 -28.3367 -16.9079 6.8113
# 3 11.4287 10.4794 73.6514 -18.9427 10.8220 8.5201
# 4 -26.5670 -28.3367 -18.9427 37.0034 4.4572 2.3185
# 5 -8.6224 -16.9079 10.8220 4.4572 40.0873 -15.6181
# 6 2.9297 6.8113 8.5201 2.3185 -15.6181 45.4801
#
#
#
# Elastic Compliance Matrix: (Units=1/GPa)
#
#
# Indices 1 2 3 4 5 6 
#
# 1 0.008058 0.000139 0.000197 0.005927 0.000851 -0.000587
# 2 0.000139 0.007227 0.000107 0.005465 0.002194 -0.000637
# 3 0.000197 0.000107 0.018575 0.011261 -0.008970 -0.007163
# 4 0.005927 0.005465 0.011261 0.042611 -0.007312 -0.007993
# 5 0.000851 0.002194 -0.008970 -0.007312 0.034563 0.013539
# 6 -0.000587 -0.000637 -0.007163 -0.007993 0.013539 0.028519
#
#
# Mechanical properties :
#
#
# Convention : Reuss Voigt Hill
#
# Bulk Modulus (GPa) = 28.78015 51.84716 40.31365
# Shear Modulus (GPa) = 33.27823 47.23818 40.25821
#
# Velocity S-wave (km/s) = 3.73380 4.44855 4.10675
# Velocity P-wave (km/s) = 5.53582 6.93588 6.27502
#
# Compressibility (1/GPa) = 0.03474617
#
# Stress axis : x y z
#
# Youngs Moduli (GPa) = 124.10793 138.36391 53.83722
#
# Poissons Ratio (x) = -0.01930 -0.01061
# Poissons Ratio (y) = -0.01731 -0.00576
# Poissons Ratio (z) = -0.02445 -0.01479
#
# Static dielectric constant tensor:
#      x y z
#    x 1.935780 0.015610 -0.010840 
#    y 0.015610 1.902460 0.079550 
#    z -0.010840 0.079550 1.951090 
# 
# From -- ./inp_files/537257.got.cif
#   From: 2010.05.17/outbox.cif.g08.bks.cpg/sg2_269_cif.got.tgz:537257.got - 2010.06.03 11:33:40.
