data_PCOD9071253
_publ_section_title
;
Structure prediction by ZEFSAII (Michael W. Deem and Ramdas Pophale) SiO2 
 PCOD9071253
Probable space group: P -1
;
_chemical_formula_sum "Si O2"
_cell_formula_units_Z 15
_cell_length_a 5.418109
_cell_length_b 12.226781
_cell_length_c 9.630505
_cell_angle_alpha 98.462819
_cell_angle_beta 66.536401
_cell_angle_gamma 89.478294
_cell_volume 577.244039
_symmetry_space_group_name_H-M "P -1"
_symmetry_group_IT_number 2
_symmetry_cell_setting 'triclinic'
loop_
_space_group_symop_operation_xyz
x,y,z
-x,-y,-z
loop_
_atom_site_type_symbol
_atom_site_label
_atom_site_fract_x
_atom_site_fract_y
_atom_site_fract_z
Si Si1 0.291482 0.270587 0.989904
Si Si2 0.655023 0.325702 0.488501
Si Si3 0.325729 0.929866 0.627792
Si Si4 0.500000 0.500000 0.000000
Si Si5 0.525610 0.108480 0.104879
Si Si6 0.967042 0.858045 0.177113
Si Si7 0.172295 0.559256 0.811236
Si Si8 0.006504 0.352243 0.681660
O O1 0.498760 0.363344 0.959917
O O2 0.314112 0.204316 0.115772
O O3 0.013140 0.344190 0.057092
O O4 0.300909 0.182605 0.846315
O O5 0.719834 0.192733 0.436867
O O6 0.721524 0.390208 0.344698
O O7 0.333213 0.348527 0.588143
O O8 0.840492 0.364333 0.579245
O O9 0.477738 0.910010 0.736114
O O10 0.500000 0.000000 0.500000
O O11 0.073293 0.017515 0.733551
O O12 0.608840 0.486296 0.137844
O O13 0.816527 0.142325 0.994303
O O14 0.500000 0.000000 0.000000
O O15 0.035643 0.766118 0.260737
O O16 0.958896 0.465605 0.805998
#
# Coordination Sequence:
#
# PCOD9071253 Si02
#       8
#     2   2   2   1   2   2   2   2
#     4  12  27  48  78 119 157 213 279 349 418 503
#     4  12  30  53  80 123 171 222 281 348 425 512
#     4  12  27  52  80 122 161 223 281 345 425 502
#     4  12  26  46  80 112 158 208 280 336 430 484
#     4  12  29  49  85 115 167 221 277 355 424 501
#     4  12  27  50  79 119 164 218 281 353 415 507
#     4  12  29  49  83 118 165 218 281 353 422 507
#     4  12  30  52  83 119 170 224 279 345 430 507
#
# _framework density 25.985541000000001
#
# number of rings (size 3 to 8) (size 9 to 14) (size 15 to 20)
#    0.000    0.000    4.000    4.000   13.067    0.533 
#    0.000    0.000    0.000    0.000    0.000    0.000 
#    0.000    0.000    0.000    0.000    0.000    0.000 
#
# Total GULP energy -83954.741718 kJ/mol
# GULP energy per Si atom -5596.982781 kJ/mol
# Density = 2.592640 g / cm^3
# Si number density = 25.985541 Si / 1000 Ang^3
#
#
#
# Elastic Constant Matrix: (Units=GPa)
#
#
# Indices 1 2 3 4 5 6 
#
# 1 122.1553 46.7008 45.5660 -8.4144 32.1481 -1.7428
# 2 46.7008 190.7400 58.5873 -6.3848 22.3831 3.0767
# 3 45.5660 58.5873 115.3849 -32.3103 35.5968 -5.2770
# 4 -8.4144 -6.3848 -32.3103 73.9322 -7.8704 13.5259
# 5 32.1481 22.3831 35.5968 -7.8704 40.1502 0.3183
# 6 -1.7428 3.0767 -5.2770 13.5259 0.3183 53.2925
#
#
#
# Elastic Compliance Matrix: (Units=1/GPa)
#
#
# Indices 1 2 3 4 5 6 
#
# 1 0.011099 -0.001437 -0.001683 -0.000383 -0.006672 0.000416
# 2 -0.001437 0.006490 -0.002986 -0.000812 0.000025 -0.000511
# 3 -0.001683 -0.002986 0.015227 0.005126 -0.009486 0.000381
# 4 -0.000383 -0.000812 0.005126 0.016246 -0.000572 -0.003578
# 5 -0.006672 0.000025 -0.009486 -0.000572 0.038542 -0.001244
# 6 0.000416 -0.000511 0.000381 -0.003578 -0.001244 0.019761
#
#
# Mechanical properties :
#
#
# Convention : Reuss Voigt Hill
#
# Bulk Modulus (GPa) = 48.53820 81.10983 64.82401
# Shear Modulus (GPa) = 39.54284 51.97005 45.75645
#
# Velocity S-wave (km/s) = 3.90516 4.47694 4.20079
# Velocity P-wave (km/s) = 6.24925 7.61612 6.96629
#
# Compressibility (1/GPa) = 0.02060233
#
# Stress axis : x y z
#
# Youngs Moduli (GPa) = 90.09841 154.08365 65.67406
#
# Poissons Ratio (x) = 0.22143 0.11055
# Poissons Ratio (y) = 0.12948 0.19612
# Poissons Ratio (z) = 0.15166 0.46014
#
# Static dielectric constant tensor:
#      x y z
#    x 2.065250 0.058880 -0.086590 
#    y 0.058880 1.967300 0.012130 
#    z -0.086590 0.012130 2.017880 
# 
# From -- ./inp_files/131760.got.cif
#   From: 2010.05.17/outbox.cif.g08.bks.cpg/sg2_66_cif.got.tgz:131760.got - 2010.06.03 11:33:40.
