data_PCOD9071871
_publ_section_title
;
Structure prediction by ZEFSAII (Michael W. Deem and Ramdas Pophale) SiO2 
 PCOD9071871
Probable space group: P -1
;
_chemical_formula_sum "Si O2"
_cell_formula_units_Z 16
_cell_length_a 25.846702
_cell_length_b 5.077129
_cell_length_c 12.923681
_cell_angle_alpha 86.258999
_cell_angle_beta 150.863960
_cell_angle_gamma 88.623012
_cell_volume 812.428422
_symmetry_space_group_name_H-M "P -1"
_symmetry_group_IT_number 2
_symmetry_cell_setting 'triclinic'
loop_
_space_group_symop_operation_xyz
x,y,z
-x,-y,-z
loop_
_atom_site_type_symbol
_atom_site_label
_atom_site_fract_x
_atom_site_fract_y
_atom_site_fract_z
Si Si1 0.401994 0.744234 0.041259
Si Si2 0.412174 0.191378 0.770356
Si Si3 0.713023 0.682027 0.247847
Si Si4 0.070372 0.248830 0.307647
Si Si5 0.508746 0.758211 0.441328
Si Si6 0.906118 0.218003 0.780639
Si Si7 0.826742 0.345127 0.857858
Si Si8 0.698797 0.906767 0.631164
O O1 0.320092 0.555975 0.868704
O O2 0.355591 0.044218 0.919171
O O3 0.511724 0.644443 0.168358
O O4 0.423753 0.754387 0.200199
O O5 0.324959 0.336591 0.697094
O O6 0.351743 0.060403 0.574587
O O7 0.500000 0.000000 0.000000
O O8 0.839492 0.689019 0.457763
O O9 0.061088 0.508002 0.209203
O O10 0.126501 0.965349 0.363337
O O11 0.945691 0.237615 0.114745
O O12 0.500000 0.500000 0.500000
O O13 0.614705 0.791346 0.560248
O O14 0.500000 0.000000 0.500000
O O15 0.828763 0.290532 0.739662
O O16 0.000000 0.000000 0.000000
O O17 0.799130 0.663354 0.811796
O O18 0.736386 0.170641 0.736966
#
# Coordination Sequence:
#
# PCOD9071871 Si02
#       8
#     2   2   2   2   2   2   2   2
#     4  10  22  36  56  83 110 142 186 227 276 334
#     4   9  20  35  51  77 116 152 183 221 264 329
#     4  11  20  34  53  82 116 155 184 215 262 324
#     4  11  21  32  50  76 113 160 197 225 264 313
#     4  11  23  43  65  87 109 135 179 242 299 346
#     4  10  18  30  45  69 108 158 199 228 251 290
#     4  11  20  34  50  78 113 147 191 235 263 320
#     4  11  23  36  58  84 110 147 186 229 287 332
#
# _framework density 19.694044000000002
#
# number of rings (size 3 to 8) (size 9 to 14) (size 15 to 20)
#    0.000    1.500    0.000    7.875    0.000    8.000 
#    0.000    0.000    0.000    0.000    0.000   17.500 
#    0.000    0.000    0.000    0.000    0.000    0.000 
#
# Total GULP energy -89174.633959 kJ/mol
# GULP energy per Si atom -5573.414622 kJ/mol
# Density = 1.964922 g / cm^3
# Si number density = 19.694044 Si / 1000 Ang^3
#
#
#
# Elastic Constant Matrix: (Units=GPa)
#
#
# Indices 1 2 3 4 5 6 
#
# 1 64.8686 20.7901 37.3002 -0.8963 -19.1464 3.9432
# 2 20.7901 133.7614 59.7378 22.3110 -1.1789 3.8880
# 3 37.3002 59.7378 159.4302 28.2795 7.0167 3.8248
# 4 -0.8963 22.3110 28.2795 39.7632 4.8740 1.0060
# 5 -19.1464 -1.1789 7.0167 4.8740 30.1399 1.2249
# 6 3.9432 3.8880 3.8248 1.0060 1.2249 28.6738
#
#
#
# Elastic Compliance Matrix: (Units=1/GPa)
#
#
# Indices 1 2 3 4 5 6 
#
# 1 0.024920 -0.001311 -0.006730 0.004104 0.016813 -0.003214
# 2 -0.001311 0.009472 -0.002630 -0.003549 0.000751 -0.000661
# 3 -0.006730 -0.002630 0.009981 -0.005061 -0.005899 0.000380
# 4 0.004104 -0.003549 -0.005061 0.031008 -0.001350 -0.000438
# 5 0.016813 0.000751 -0.005899 -0.001350 0.045624 -0.003529
# 6 -0.003214 -0.000661 0.000380 -0.000438 -0.003529 0.035522
#
#
# Mechanical properties :
#
#
# Convention : Reuss Voigt Hill
#
# Bulk Modulus (GPa) = 43.41927 65.96848 54.69387
# Shear Modulus (GPa) = 26.94755 35.73087 31.33921
#
# Velocity S-wave (km/s) = 3.70308 4.26408 3.99344
# Velocity P-wave (km/s) = 6.35441 7.60346 7.00682
#
# Compressibility (1/GPa) = 0.02303125
#
# Stress axis : x y z
#
# Youngs Moduli (GPa) = 40.12806 105.57264 100.19473
#
# Poissons Ratio (x) = 0.13836 0.67432
# Poissons Ratio (y) = 0.05259 0.26354
# Poissons Ratio (z) = 0.27006 0.27768
#
# Static dielectric constant tensor:
#      x y z
#    x 1.731900 -0.020370 0.021070 
#    y -0.020370 1.749640 0.010470 
#    z 0.021070 0.010470 1.768350 
# 
# From -- ./inp_files/473431.got.cif
#   From: 2010.05.17/outbox.cif.g08.bks.cpg/sg2_237_cif.got.tgz:473431.got - 2010.06.03 11:33:40.
