data_PCOD9071484
_publ_section_title
;
Structure prediction by ZEFSAII (Michael W. Deem and Ramdas Pophale) SiO2 
 PCOD9071484
Probable space group: P -1
;
_chemical_formula_sum "Si O2"
_cell_formula_units_Z 12
_cell_length_a 5.379887
_cell_length_b 10.036351
_cell_length_c 14.824438
_cell_angle_alpha 64.284041
_cell_angle_beta 67.873108
_cell_angle_gamma 111.767775
_cell_volume 513.219678
_symmetry_space_group_name_H-M "P -1"
_symmetry_group_IT_number 2
_symmetry_cell_setting 'triclinic'
loop_
_space_group_symop_operation_xyz
x,y,z
-x,-y,-z
loop_
_atom_site_type_symbol
_atom_site_label
_atom_site_fract_x
_atom_site_fract_y
_atom_site_fract_z
Si Si1 0.547710 0.576744 0.185196
Si Si2 0.569789 0.135491 0.868556
Si Si3 0.629048 0.499745 0.384224
Si Si4 0.272945 0.066596 0.525897
Si Si5 0.172425 0.759293 0.932678
Si Si6 0.220442 0.256547 0.180497
O O1 0.594989 0.767019 0.109342
O O2 0.447393 0.519255 0.319382
O O3 0.284560 0.401313 0.206496
O O4 0.920733 0.638874 0.087621
O O5 0.967028 0.314006 0.737223
O O6 0.392517 0.985628 0.854816
O O7 0.500000 0.000000 0.000000
O O8 0.500000 0.500000 0.500000
O O9 0.529498 0.295074 0.438307
O O10 0.500000 0.000000 0.500000
O O11 0.000000 0.000000 0.500000
O O12 0.048345 0.956319 0.678632
O O13 0.430978 0.714378 0.895140
O O14 0.928762 0.713690 0.894831
#
# Coordination Sequence:
#
# PCOD9071484 Si02
#       6
#     2   2   2   2   2   2
#     4  12  27  48  77 113 155 199 258 322 386 459
#     4  12  27  50  78 109 159 203 256 319 391 458
#     4  12  29  49  78 112 155 207 259 317 388 464
#     4  12  26  51  79 108 156 206 256 318 385 455
#     4  12  27  47  80 113 154 201 257 317 389 457
#     4  12  27  49  79 114 153 201 259 320 385 459
#
# _framework density 23.381799999999998
#
# number of rings (size 3 to 8) (size 9 to 14) (size 15 to 20)
#    0.000    0.000    3.333    5.500    7.000    0.667 
#    0.000    0.000    0.000    0.000    0.000    0.000 
#    0.000    0.000    0.000    0.000    0.000    0.000 
#
# Total GULP energy -67239.552286 kJ/mol
# GULP energy per Si atom -5603.296024 kJ/mol
# Density = 2.332858 g / cm^3
# Si number density = 23.381800 Si / 1000 Ang^3
#
#
#
# Elastic Constant Matrix: (Units=GPa)
#
#
# Indices 1 2 3 4 5 6 
#
# 1 149.6805 70.8908 53.3757 17.2488 5.7258 -7.6837
# 2 70.8908 182.4818 47.9974 -17.3929 3.6301 7.3161
# 3 53.3757 47.9974 159.5397 1.4618 5.0491 -1.1484
# 4 17.2488 -17.3929 1.4618 54.7146 0.6042 3.7634
# 5 5.7258 3.6301 5.0491 0.6042 37.1919 -2.1459
# 6 -7.6837 7.3161 -1.1484 3.7634 -2.1459 50.7362
#
#
#
# Elastic Compliance Matrix: (Units=1/GPa)
#
#
# Indices 1 2 3 4 5 6 
#
# 1 0.009867 -0.003784 -0.002085 -0.004408 -0.000663 0.002292
# 2 -0.003784 0.007683 -0.001088 0.003804 -0.000197 -0.001996
# 3 -0.002085 -0.001088 0.007310 0.000124 -0.000569 -0.000027
# 4 -0.004408 0.003804 0.000124 0.021066 -0.000212 -0.002785
# 5 -0.000663 -0.000197 -0.000569 -0.000212 0.027152 0.001079
# 6 0.002292 -0.001996 -0.000027 -0.002785 0.001079 0.020596
#
#
# Mechanical properties :
#
#
# Convention : Reuss Voigt Hill
#
# Bulk Modulus (GPa) = 91.36275 92.91441 92.13858
# Shear Modulus (GPa) = 44.94916 49.82439 47.38678
#
# Velocity S-wave (km/s) = 4.38927 4.62118 4.50672
# Velocity P-wave (km/s) = 8.05275 8.26426 8.15919
#
# Compressibility (1/GPa) = 0.01094538
#
# Stress axis : x y z
#
# Youngs Moduli (GPa) = 101.34346 130.16338 136.80391
#
# Poissons Ratio (x) = 0.49250 0.28524
# Poissons Ratio (y) = 0.38346 0.14890
# Poissons Ratio (z) = 0.21131 0.14167
#
# Static dielectric constant tensor:
#      x y z
#    x 1.920470 0.036090 -0.018030 
#    y 0.036090 1.937190 -0.014170 
#    z -0.018030 -0.014170 1.898240 
# 
# From -- ./inp_files/53452.got.cif
#   From: 2010.05.17/outbox.cif.g08.bks.cpg/sg2_27_cif.got.tgz:53452.got - 2010.06.03 11:33:40.
