data_PCOD9071451
_publ_section_title
;
Structure prediction by ZEFSAII (Michael W. Deem and Ramdas Pophale) SiO2 
 PCOD9071451
Probable space group: P -1
;
_chemical_formula_sum "Si O2"
_cell_formula_units_Z 12
_cell_length_a 7.045726
_cell_length_b 4.882620
_cell_length_c 16.122718
_cell_angle_alpha 80.233212
_cell_angle_beta 120.372698
_cell_angle_gamma 84.327420
_cell_volume 460.338006
_symmetry_space_group_name_H-M "P -1"
_symmetry_group_IT_number 2
_symmetry_cell_setting 'triclinic'
loop_
_space_group_symop_operation_xyz
x,y,z
-x,-y,-z
loop_
_atom_site_type_symbol
_atom_site_label
_atom_site_fract_x
_atom_site_fract_y
_atom_site_fract_z
Si Si1 0.238168 0.059731 0.520784
Si Si2 0.100807 0.944944 0.794257
Si Si3 0.807588 0.348078 0.604044
Si Si4 0.201941 0.089819 0.989942
Si Si5 0.346178 0.311973 0.285663
Si Si6 0.559330 0.501971 0.884467
O O1 0.705019 0.120213 0.542780
O O2 0.197653 0.388927 0.471238
O O3 0.431911 0.932374 0.635178
O O4 0.000000 0.000000 0.500000
O O5 0.132673 0.096686 0.879278
O O6 0.313577 0.694549 0.835340
O O7 0.877116 0.816681 0.758887
O O8 0.683628 0.471637 0.654564
O O9 0.051147 0.177132 0.697857
O O10 0.410828 0.824626 0.066832
O O11 0.269155 0.368398 0.026523
O O12 0.000000 0.000000 0.000000
O O13 0.373633 0.463588 0.197487
#
# Coordination Sequence:
#
# PCOD9071451 Si02
#       6
#     2   2   2   2   2   2
#     4  12  28  50  77 112 148 198 247 306 373 444
#     4  12  28  48  77 111 150 197 251 306 370 438
#     4  12  27  49  74 107 153 190 248 306 372 435
#     4  12  26  50  77 109 153 198 245 308 370 438
#     4  12  28  47  78 108 152 195 250 308 369 439
#     4  12  29  48  76 110 151 197 250 303 372 440
#
# _framework density 26.067799999999998
#
# number of rings (size 3 to 8) (size 9 to 14) (size 15 to 20)
#    0.000    0.000    3.333    5.000    7.000    0.000 
#    0.000    0.000    0.000    0.000    0.000    0.000 
#    0.000    0.000    0.000    0.000    0.000    0.000 
#
# Total GULP energy -67472.081152 kJ/mol
# GULP energy per Si atom -5622.673429 kJ/mol
# Density = 2.600847 g / cm^3
# Si number density = 26.067800 Si / 1000 Ang^3
#
#
#
# Elastic Constant Matrix: (Units=GPa)
#
#
# Indices 1 2 3 4 5 6 
#
# 1 101.1470 25.2679 36.1777 23.8942 14.6538 -2.2779
# 2 25.2679 119.3661 33.3353 -5.5038 -4.1538 2.3436
# 3 36.1777 33.3353 146.2537 -5.3331 3.9197 -2.4241
# 4 23.8942 -5.5038 -5.3331 45.8116 -3.6572 6.3515
# 5 14.6538 -4.1538 3.9197 -3.6572 53.4683 5.6717
# 6 -2.2779 2.3436 -2.4241 6.3515 5.6717 32.6251
#
#
#
# Elastic Compliance Matrix: (Units=1/GPa)
#
#
# Indices 1 2 3 4 5 6 
#
# 1 0.014761 -0.002932 -0.003126 -0.009335 -0.005076 0.003709
# 2 -0.002932 0.009651 -0.001454 0.002953 0.002068 -0.001940
# 3 -0.003126 -0.001454 0.008021 0.002422 0.000326 -0.000046
# 4 -0.009335 0.002953 0.002422 0.028760 0.005342 -0.007212
# 5 -0.005076 0.002068 0.000326 0.005342 0.021147 -0.005195
# 6 0.003709 -0.001940 -0.000046 -0.007212 -0.005195 0.033353
#
#
# Mechanical properties :
#
#
# Convention : Reuss Voigt Hill
#
# Bulk Modulus (GPa) = 57.44242 61.81430 59.62836
# Shear Modulus (GPa) = 36.62470 44.51339 40.56905
#
# Velocity S-wave (km/s) = 3.75237 4.13680 3.94926
# Velocity P-wave (km/s) = 6.39197 6.82509 6.61208
#
# Compressibility (1/GPa) = 0.01740874
#
# Stress axis : x y z
#
# Youngs Moduli (GPa) = 67.74582 103.62137 124.67285
#
# Poissons Ratio (x) = 0.30377 0.38973
# Poissons Ratio (y) = 0.19860 0.18132
# Poissons Ratio (z) = 0.21178 0.15070
#
# Static dielectric constant tensor:
#      x y z
#    x 2.083570 -0.011060 0.049800 
#    y -0.011060 1.982960 -0.015080 
#    z 0.049800 -0.015080 2.035810 
# 
# From -- ./inp_files/103192.got.cif
#   From: 2010.05.17/outbox.cif.g08.bks.cpg/sg2_52_cif.got.tgz:103192.got - 2010.06.03 11:33:40.
