data_PCOD9071539
_publ_section_title
;
Structure prediction by ZEFSAII (Michael W. Deem and Ramdas Pophale) SiO2 
 PCOD9071539
Probable space group: P -1
;
_chemical_formula_sum "Si O2"
_cell_formula_units_Z 13
_cell_length_a 9.986877
_cell_length_b 12.715676
_cell_length_c 13.447723
_cell_angle_alpha 33.525099
_cell_angle_beta 35.156230
_cell_angle_gamma 50.701418
_cell_volume 536.813237
_symmetry_space_group_name_H-M "P -1"
_symmetry_group_IT_number 2
_symmetry_cell_setting 'triclinic'
loop_
_space_group_symop_operation_xyz
x,y,z
-x,-y,-z
loop_
_atom_site_type_symbol
_atom_site_label
_atom_site_fract_x
_atom_site_fract_y
_atom_site_fract_z
Si Si1 0.500000 0.500000 0.500000
Si Si2 0.422112 0.105076 0.559163
Si Si3 0.219585 0.645243 0.712241
Si Si4 0.293789 0.047113 0.018429
Si Si5 0.842230 0.580834 0.614940
Si Si6 0.964067 0.815348 0.547978
Si Si7 0.433574 0.811291 0.935592
O O1 0.406859 0.521255 0.650887
O O2 0.353394 0.265663 0.770435
O O3 0.639999 0.226403 0.389643
O O4 0.242167 0.236683 0.527038
O O5 0.500000 0.000000 0.500000
O O6 0.316508 0.934723 0.829138
O O7 0.131025 0.757564 0.581019
O O8 0.000000 0.500000 0.000000
O O9 0.072200 0.993442 0.270462
O O10 0.500000 0.000000 0.000000
O O11 0.320849 0.886901 0.043418
O O12 0.936213 0.640033 0.621817
O O13 0.000000 0.500000 0.500000
O O14 0.625310 0.409767 0.884636
O O15 0.718103 0.848861 0.720488
#
# Coordination Sequence:
#
# PCOD9071539 Si02
#       7
#     1   2   2   2   2   2   2
#     4  12  28  48  72 116 160 200 262 340 394 470
#     4  12  28  52  77 118 162 214 268 336 405 490
#     4  12  30  49  81 119 159 211 270 333 408 481
#     4  12  27  48  75 116 158 206 270 332 406 478
#     4  12  28  51  82 117 162 214 268 335 412 484
#     4  12  27  52  82 119 159 215 268 338 404 487
#     4  12  27  51  80 115 163 211 271 337 405 491
#
# _framework density 24.216987
#
# number of rings (size 3 to 8) (size 9 to 14) (size 15 to 20)
#    0.000    0.000    6.154    1.385   10.769    1.846 
#    0.000    0.000    0.000    0.000    0.000    0.000 
#    0.000    0.000    0.000    0.000    0.000    0.000 
#
# Total GULP energy -72410.488428 kJ/mol
# GULP energy per Si atom -5570.037571 kJ/mol
# Density = 2.416187 g / cm^3
# Si number density = 24.216987 Si / 1000 Ang^3
#
#
#
# Elastic Constant Matrix: (Units=GPa)
#
#
# Indices 1 2 3 4 5 6 
#
# 1 141.0167 71.8850 47.6296 -16.3599 -0.4394 43.6159
# 2 71.8850 147.7554 52.1033 -21.6556 -16.2961 40.9133
# 3 47.6296 52.1033 235.8908 -66.8246 -28.7752 50.1199
# 4 -16.3599 -21.6556 -66.8246 89.2331 21.0516 -17.8553
# 5 -0.4394 -16.2961 -28.7752 21.0516 39.5895 -10.5647
# 6 43.6159 40.9133 50.1199 -17.8553 -10.5647 56.5771
#
#
#
# Elastic Compliance Matrix: (Units=1/GPa)
#
#
# Indices 1 2 3 4 5 6 
#
# 1 0.011109 -0.003966 -0.000447 0.000424 -0.003619 -0.005842
# 2 -0.003966 0.010082 -0.000322 0.000118 0.002911 -0.003367
# 3 -0.000447 -0.000322 0.006367 0.003485 0.001662 -0.003652
# 4 0.000424 0.000118 0.003485 0.015269 -0.005453 0.000301
# 5 -0.003619 0.002911 0.001662 -0.005453 0.031421 0.003359
# 6 -0.005842 -0.003367 -0.003652 0.000301 0.003359 0.028571
#
#
# Mechanical properties :
#
#
# Convention : Reuss Voigt Hill
#
# Bulk Modulus (GPa) = 55.29146 96.43318 75.86232
# Shear Modulus (GPa) = 42.25871 60.61627 51.43749
#
# Velocity S-wave (km/s) = 4.18186 5.00847 4.61371
# Velocity P-wave (km/s) = 6.79695 8.56466 7.73149
#
# Compressibility (1/GPa) = 0.01808598
#
# Stress axis : x y z
#
# Youngs Moduli (GPa) = 90.01695 99.18840 157.06925
#
# Poissons Ratio (x) = 0.39343 0.07022
# Poissons Ratio (y) = 0.35705 0.05061
# Poissons Ratio (z) = 0.04024 0.03196
#
# Static dielectric constant tensor:
#      x y z
#    x 2.291770 0.105590 -0.225340 
#    y 0.105590 1.925830 -0.084560 
#    z -0.225340 -0.084560 2.164860 
# 
# From -- ./inp_files/391799.got.cif
#   From: 2010.05.17/outbox.cif.g08.bks.cpg/sg2_196_cif.got.tgz:391799.got - 2010.06.03 11:33:40.
