data_PCOD9071548
_publ_section_title
;
Structure prediction by ZEFSAII (Michael W. Deem and Ramdas Pophale) SiO2 
 PCOD9071548
Probable space group: P -1
;
_chemical_formula_sum "Si O2"
_cell_formula_units_Z 12
_cell_length_a 21.547603
_cell_length_b 6.933449
_cell_length_c 22.140452
_cell_angle_alpha 40.962780
_cell_angle_beta 166.749755
_cell_angle_gamma 136.877279
_cell_volume 496.731609
_symmetry_space_group_name_H-M "P -1"
_symmetry_group_IT_number 2
_symmetry_cell_setting 'triclinic'
loop_
_space_group_symop_operation_xyz
x,y,z
-x,-y,-z
loop_
_atom_site_type_symbol
_atom_site_label
_atom_site_fract_x
_atom_site_fract_y
_atom_site_fract_z
Si Si1 0.243766 0.258839 0.518236
Si Si2 0.926342 0.662423 0.523817
Si Si3 0.460587 0.808873 0.353147
Si Si4 0.508543 0.613210 0.912587
Si Si5 0.962150 0.274570 0.131753
Si Si6 0.632008 0.778294 0.724924
O O1 0.985214 0.219720 0.238418
O O2 0.424959 0.516087 0.602422
O O3 0.165154 0.339257 0.492905
O O4 0.410030 0.951183 0.744131
O O5 0.695640 0.557719 0.284172
O O6 0.191219 0.453178 0.812894
O O7 0.000000 0.000000 0.500000
O O8 0.500000 0.500000 0.500000
O O9 0.263116 0.812688 0.108320
O O10 0.759386 0.857378 0.599823
O O11 0.344670 0.053145 0.230619
O O12 0.500000 0.500000 0.000000
O O13 0.909851 0.630153 0.998041
O O14 0.500000 0.000000 0.500000
#
# Coordination Sequence:
#
# PCOD9071548 Si02
#       6
#     2   2   2   2   2   2
#     4  12  31  48  82 119 163 210 270 329 400 475
#     4  12  29  52  86 120 158 209 265 329 408 478
#     4  12  27  48  79 109 153 210 269 328 394 461
#     4  12  29  52  84 118 166 206 264 332 403 481
#     4  12  28  49  73 114 155 204 268 323 398 458
#     4  12  29  51  79 114 161 213 270 329 391 473
#
# _framework density 24.157916
#
# number of rings (size 3 to 8) (size 9 to 14) (size 15 to 20)
#    0.000    0.000    5.000    1.500    9.333    1.333 
#    0.000    0.000    0.000    0.000    0.000    0.000 
#    0.000    0.000    0.000    0.000    0.000    0.000 
#
# Total GULP energy -67263.700834 kJ/mol
# GULP energy per Si atom -5605.308403 kJ/mol
# Density = 2.410293 g / cm^3
# Si number density = 24.157916 Si / 1000 Ang^3
#
#
#
# Elastic Constant Matrix: (Units=GPa)
#
#
# Indices 1 2 3 4 5 6 
#
# 1 223.4645 67.9557 75.8103 12.7434 -18.1975 -24.6558
# 2 67.9557 113.1207 41.2858 -7.8436 -19.0010 -5.9665
# 3 75.8103 41.2858 163.1008 5.8757 -17.6976 -18.6057
# 4 12.7434 -7.8436 5.8757 54.0114 -7.4129 -5.9745
# 5 -18.1975 -19.0010 -17.6976 -7.4129 56.7682 -6.0709
# 6 -24.6558 -5.9665 -18.6057 -5.9745 -6.0709 48.6156
#
#
#
# Elastic Compliance Matrix: (Units=1/GPa)
#
#
# Indices 1 2 3 4 5 6 
#
# 1 0.006384 -0.003075 -0.001855 -0.001463 0.000465 0.002029
# 2 -0.003075 0.011899 -0.001353 0.003024 0.002984 0.000127
# 3 -0.001855 -0.001353 0.007743 -0.000162 0.001562 0.002032
# 4 -0.001463 0.003024 -0.000162 0.020051 0.003373 0.002453
# 5 0.000465 0.002984 0.001562 0.003373 0.020132 0.004129
# 6 0.002029 0.000127 0.002032 0.002453 0.004129 0.023209
#
#
# Mechanical properties :
#
#
# Convention : Reuss Voigt Hill
#
# Bulk Modulus (GPa) = 74.29111 96.64331 85.46721
# Shear Modulus (GPa) = 46.96143 52.85465 49.90804
#
# Velocity S-wave (km/s) = 4.41379 4.68255 4.55016
# Velocity P-wave (km/s) = 7.53621 8.32627 7.94107
#
# Compressibility (1/GPa) = 0.01346056
#
# Stress axis : x y z
#
# Youngs Moduli (GPa) = 156.63333 84.04252 129.14975
#
# Poissons Ratio (x) = 0.25841 0.23951
# Poissons Ratio (y) = 0.48160 0.17480
# Poissons Ratio (z) = 0.29048 0.11375
#
# Static dielectric constant tensor:
#      x y z
#    x 1.892420 0.023510 0.019960 
#    y 0.023510 2.052550 0.051600 
#    z 0.019960 0.051600 1.940350 
# 
# From -- ./inp_files/537011.got.cif
#   From: 2010.05.17/outbox.cif.g08.bks.cpg/sg2_269_cif.got.tgz:537011.got - 2010.06.03 11:33:40.
