data_PCOD9071417
_publ_section_title
;
Structure prediction by ZEFSAII (Michael W. Deem and Ramdas Pophale) SiO2 
 PCOD9071417
Probable space group: P -1
;
_chemical_formula_sum "Si O2"
_cell_formula_units_Z 11
_cell_length_a 15.643260
_cell_length_b 16.074353
_cell_length_c 12.683904
_cell_angle_alpha 27.605842
_cell_angle_beta 25.213656
_cell_angle_gamma 17.809414
_cell_volume 407.966910
_symmetry_space_group_name_H-M "P -1"
_symmetry_group_IT_number 2
_symmetry_cell_setting 'triclinic'
loop_
_space_group_symop_operation_xyz
x,y,z
-x,-y,-z
loop_
_atom_site_type_symbol
_atom_site_label
_atom_site_fract_x
_atom_site_fract_y
_atom_site_fract_z
Si Si1 0.734478 0.124164 0.460719
Si Si2 0.775717 0.421396 0.835087
Si Si3 0.500000 0.500000 0.500000
Si Si4 0.765799 0.651461 0.384421
Si Si5 0.773379 0.688786 0.942000
Si Si6 0.293865 0.911103 0.968282
O O1 0.647864 0.328047 0.415768
O O2 0.516702 0.270302 0.437345
O O3 0.683068 0.958494 0.748508
O O4 0.084115 0.920579 0.261187
O O5 0.855573 0.510083 0.555713
O O6 0.076988 0.107528 0.888213
O O7 0.612425 0.614980 0.903533
O O8 0.500000 0.500000 0.000000
O O9 0.466720 0.309903 0.788154
O O10 0.667478 0.924893 0.201490
O O11 0.028092 0.460385 0.218441
O O12 0.000000 0.500000 0.000000
#
# Coordination Sequence:
#
# PCOD9071417 Si02
#       6
#     2   2   1   2   2   2
#     4  12  28  49  80 112 157 205 264 329 390 478
#     4  12  26  49  79 115 163 206 259 321 389 468
#     4  12  26  52  72 110 150 200 262 324 404 444
#     4  12  27  47  77 113 156 208 263 315 396 470
#     4  12  28  49  76 112 150 204 264 332 393 468
#     4  12  28  50  79 118 161 209 256 324 393 465
#
# _framework density 26.962971
#
# number of rings (size 3 to 8) (size 9 to 14) (size 15 to 20)
#    0.000    0.000    5.455    3.273    5.091    2.182 
#    0.000    0.000    0.000    0.000    0.000    0.000 
#    0.000    0.000    0.000    0.000    0.000    0.000 
#
# Total GULP energy -61548.425887 kJ/mol
# GULP energy per Si atom -5595.311444 kJ/mol
# Density = 2.690160 g / cm^3
# Si number density = 26.962971 Si / 1000 Ang^3
#
#
#
# Elastic Constant Matrix: (Units=GPa)
#
#
# Indices 1 2 3 4 5 6 
#
# 1 134.2294 46.9160 38.7482 0.7738 1.5389 24.1245
# 2 46.9160 73.0035 31.5403 -7.5981 3.2648 15.6599
# 3 38.7482 31.5403 194.8350 -1.5382 1.1744 15.0968
# 4 0.7738 -7.5981 -1.5382 56.7224 7.5643 -3.9065
# 5 1.5389 3.2648 1.1744 7.5643 46.9724 -9.5649
# 6 24.1245 15.6599 15.0968 -3.9065 -9.5649 63.1076
#
#
#
# Elastic Compliance Matrix: (Units=1/GPa)
#
#
# Indices 1 2 3 4 5 6 
#
# 1 0.010143 -0.005722 -0.000917 -0.001062 -0.000217 -0.002337
# 2 -0.005722 0.018969 -0.001726 0.002681 -0.001976 -0.002240
# 3 -0.000917 -0.001726 0.005640 -0.000094 -0.000096 -0.000591
# 4 -0.001062 0.002681 -0.000094 0.018435 -0.003027 0.000445
# 5 -0.000217 -0.001976 -0.000096 -0.003027 0.022707 0.003850
# 6 -0.002337 -0.002240 -0.000591 0.000445 0.003850 0.018048
#
#
# Mechanical properties :
#
#
# Convention : Reuss Voigt Hill
#
# Bulk Modulus (GPa) = 55.48766 70.71964 63.10365
# Shear Modulus (GPa) = 42.85235 52.35140 47.60187
#
# Velocity S-wave (km/s) = 3.99093 4.41114 4.20629
# Velocity P-wave (km/s) = 6.46998 7.22701 6.85894
#
# Compressibility (1/GPa) = 0.01802203
#
# Stress axis : x y z
#
# Youngs Moduli (GPa) = 98.58869 52.71774 177.30645
#
# Poissons Ratio (x) = 0.30165 0.16258
# Poissons Ratio (y) = 0.56412 0.30605
# Poissons Ratio (z) = 0.09040 0.09100
#
# Static dielectric constant tensor:
#      x y z
#    x 2.131520 -0.081470 -0.006010 
#    y -0.081470 2.042020 -0.018660 
#    z -0.006010 -0.018660 2.128070 
# 
# From -- ./inp_files/21885.got.cif
#   From: 2010.05.17/outbox.cif.g08.bks.cpg/sg2_11_cif.got.tgz:21885.got - 2010.06.03 11:33:40.
