data_PCOD9071555
_publ_section_title
;
Structure prediction by ZEFSAII (Michael W. Deem and Ramdas Pophale) SiO2 
 PCOD9071555
Probable space group: P -1
;
_chemical_formula_sum "Si O2"
_cell_formula_units_Z 14
_cell_length_a 7.060062
_cell_length_b 14.228891
_cell_length_c 5.281500
_cell_angle_alpha 101.852454
_cell_angle_beta 101.353044
_cell_angle_gamma 105.163901
_cell_volume 483.215885
_symmetry_space_group_name_H-M "P -1"
_symmetry_group_IT_number 2
_symmetry_cell_setting 'triclinic'
loop_
_space_group_symop_operation_xyz
x,y,z
-x,-y,-z
loop_
_atom_site_type_symbol
_atom_site_label
_atom_site_fract_x
_atom_site_fract_y
_atom_site_fract_z
Si Si1 0.515222 0.761655 0.552102
Si Si2 0.867138 0.540416 0.116944
Si Si3 0.060674 0.284797 0.387996
Si Si4 0.725086 0.334320 0.045970
Si Si5 0.235352 0.017260 0.099554
Si Si6 0.785807 0.106506 0.465483
Si Si7 0.542953 0.599134 0.738797
O O1 0.669136 0.864183 0.769221
O O2 0.406473 0.682504 0.716621
O O3 0.333734 0.814731 0.503204
O O4 0.462030 0.713591 0.224948
O O5 0.951654 0.611941 0.424457
O O6 0.664904 0.450448 0.145744
O O7 0.734249 0.597205 0.958949
O O8 0.088774 0.575371 0.014751
O O9 0.008585 0.185162 0.495611
O O10 0.297644 0.309441 0.379716
O O11 0.880018 0.268757 0.124228
O O12 0.250063 0.958012 0.326211
O O13 0.291492 0.969724 0.831840
O O14 0.000000 0.000000 0.000000
O O15 0.500000 0.500000 0.500000
#
# Coordination Sequence:
#
# PCOD9071555 Si02
#       7
#     2   2   2   2   2   2   2
#     4  12  28  49  79 117 162 209 270 335 409 486
#     4  12  27  48  80 112 161 213 272 335 406 484
#     4  12  27  50  79 114 158 212 270 337 401 488
#     4  12  27  51  76 116 162 211 269 338 406 481
#     4  12  29  51  84 120 163 214 275 336 408 493
#     4  12  27  51  83 116 164 216 269 338 411 481
#     4  12  28  46  81 110 161 205 277 321 416 471
#
# _framework density 28.972553999999999
#
# number of rings (size 3 to 8) (size 9 to 14) (size 15 to 20)
#    0.000    0.000    2.857    5.571    6.000    1.143 
#    0.000    0.000    0.000    0.000    0.000    0.000 
#    0.000    0.000    0.000    0.000    0.000    0.000 
#
# Total GULP energy -78334.389598 kJ/mol
# GULP energy per Si atom -5595.313543 kJ/mol
# Density = 2.890661 g / cm^3
# Si number density = 28.972554 Si / 1000 Ang^3
#
#
#
# Elastic Constant Matrix: (Units=GPa)
#
#
# Indices 1 2 3 4 5 6 
#
# 1 229.5612 27.9919 47.8435 5.5793 -16.1120 -35.4422
# 2 27.9919 229.0517 89.6789 -14.4053 -7.0714 -1.1292
# 3 47.8435 89.6789 198.2293 -11.7248 2.4098 -19.5096
# 4 5.5793 -14.4053 -11.7248 64.9807 -12.2958 10.7093
# 5 -16.1120 -7.0714 2.4098 -12.2958 64.7912 17.0149
# 6 -35.4422 -1.1292 -19.5096 10.7093 17.0149 55.6511
#
#
#
# Elastic Compliance Matrix: (Units=1/GPa)
#
#
# Indices 1 2 3 4 5 6 
#
# 1 0.005094 -0.000342 -0.000840 -0.001129 0.000235 0.003088
# 2 -0.000342 0.005502 -0.002505 0.001309 0.001285 -0.001629
# 3 -0.000840 -0.002505 0.006609 0.000128 -0.001253 0.002089
# 4 -0.001129 0.001309 0.000128 0.017571 0.004621 -0.005442
# 5 0.000235 0.001285 -0.001253 0.004621 0.018331 -0.006757
# 6 0.003088 -0.001629 0.002089 -0.005442 -0.006757 0.023748
#
#
# Mechanical properties :
#
#
# Convention : Reuss Voigt Hill
#
# Bulk Modulus (GPa) = 101.72905 109.76342 105.74624
# Shear Modulus (GPa) = 57.13827 69.83979 63.48903
#
# Velocity S-wave (km/s) = 4.44571 4.91506 4.68627
# Velocity P-wave (km/s) = 7.84480 8.37723 8.11538
#
# Compressibility (1/GPa) = 0.00983003
#
# Stress axis : x y z
#
# Youngs Moduli (GPa) = 196.32188 181.73723 151.30108
#
# Poissons Ratio (x) = 0.06215 0.12716
# Poissons Ratio (y) = 0.06713 0.37906
# Poissons Ratio (z) = 0.16500 0.45531
#
# Static dielectric constant tensor:
#      x y z
#    x 2.305820 -0.096790 0.921930 
#    y -0.096790 2.119700 0.278490 
#    z 0.921930 0.278490 -2.489860 
# 
# From -- ./inp_files/39474.got.cif
#   From: 2010.05.17/outbox.cif.g08.bks.cpg/sg2_20_cif.got.tgz:39474.got - 2010.06.03 11:33:40.
