data_PCOD9071574
_publ_section_title
;
Structure prediction by ZEFSAII (Michael W. Deem and Ramdas Pophale) SiO2 
 PCOD9071574
Probable space group: P -1
;
_chemical_formula_sum "Si O2"
_cell_formula_units_Z 10
_cell_length_a 10.398855
_cell_length_b 8.340008
_cell_length_c 5.356650
_cell_angle_alpha 89.269011
_cell_angle_beta 72.447996
_cell_angle_gamma 121.079033
_cell_volume 371.196779
_symmetry_space_group_name_H-M "P -1"
_symmetry_group_IT_number 2
_symmetry_cell_setting 'triclinic'
loop_
_space_group_symop_operation_xyz
x,y,z
-x,-y,-z
loop_
_atom_site_type_symbol
_atom_site_label
_atom_site_fract_x
_atom_site_fract_y
_atom_site_fract_z
Si Si1 0.983833 0.886831 0.765756
Si Si2 0.150794 0.469700 0.879807
Si Si3 0.061557 0.715594 0.392002
Si Si4 0.511493 0.695925 0.562237
Si Si5 0.621618 0.935384 0.983749
O O1 0.904592 0.664629 0.328719
O O2 0.841763 0.663966 0.907881
O O3 0.000000 0.000000 0.500000
O O4 0.000000 0.000000 0.000000
O O5 0.329555 0.644275 0.719149
O O6 0.000000 0.500000 0.000000
O O7 0.888022 0.166394 0.382448
O O8 0.000000 0.500000 0.500000
O O9 0.207963 0.862997 0.130976
O O10 0.500000 0.500000 0.500000
O O11 0.603148 0.796342 0.766984
O O12 0.585485 0.829538 0.271696
O O13 0.500000 0.000000 0.000000
#
# Coordination Sequence:
#
# PCOD9071574 Si02
#       5
#     2   2   2   2   2
#     4  12  28  45  76 116 158 198 268 335 396 453
#     4  12  27  50  85 116 160 213 270 322 398 488
#     4  12  27  49  84 115 158 211 278 328 391 477
#     4  12  31  54  81 120 170 208 259 337 416 468
#     4  12  29  52  81 117 162 217 267 325 405 489
#
# _framework density 26.939888
#
# number of rings (size 3 to 8) (size 9 to 14) (size 15 to 20)
#    0.000    0.000    4.000    3.600   11.200    0.000 
#    0.000    0.000    0.000    0.000    0.000    0.000 
#    0.000    0.000    0.000    0.000    0.000    0.000 
#
# Total GULP energy -55696.563967 kJ/mol
# GULP energy per Si atom -5569.656397 kJ/mol
# Density = 2.687857 g / cm^3
# Si number density = 26.939888 Si / 1000 Ang^3
#
#
#
# Elastic Constant Matrix: (Units=GPa)
#
#
# Indices 1 2 3 4 5 6 
#
# 1 83.5347 51.8352 63.1965 -13.0318 5.7959 7.8504
# 2 51.8352 196.4873 123.5557 2.0529 12.7663 -4.6468
# 3 63.1965 123.5557 265.5407 -25.2768 41.7793 2.4310
# 4 -13.0318 2.0529 -25.2768 79.3576 -0.7488 -1.7949
# 5 5.7959 12.7663 41.7793 -0.7488 59.6057 -13.0298
# 6 7.8504 -4.6468 2.4310 -1.7949 -13.0298 54.8213
#
#
#
# Elastic Compliance Matrix: (Units=1/GPa)
#
#
# Indices 1 2 3 4 5 6 
#
# 1 0.015990 -0.002858 -0.002301 0.001916 0.000187 -0.002323
# 2 -0.002858 0.007947 -0.003391 -0.001710 0.001254 0.001475
# 3 -0.002301 -0.003391 0.006696 0.001779 -0.003970 -0.001140
# 4 0.001916 -0.001710 0.001779 0.013511 -0.000960 -0.000284
# 5 0.000187 0.001254 -0.003970 -0.000960 0.020368 0.005065
# 6 -0.002323 0.001475 -0.001140 -0.000284 0.005065 0.019944
#
#
# Mechanical properties :
#
#
# Convention : Reuss Voigt Hill
#
# Bulk Modulus (GPa) = 73.90029 113.63750 93.76889
# Shear Modulus (GPa) = 47.13950 59.22193 53.18072
#
# Velocity S-wave (km/s) = 4.18760 4.69369 4.44785
# Velocity P-wave (km/s) = 7.13249 8.46450 7.82688
#
# Compressibility (1/GPa) = 0.01353175
#
# Stress axis : x y z
#
# Youngs Moduli (GPa) = 62.53943 125.83206 149.34535
#
# Poissons Ratio (x) = 0.35967 0.34368
# Poissons Ratio (y) = 0.17876 0.50644
# Poissons Ratio (z) = 0.14392 0.42670
#
# Static dielectric constant tensor:
#      x y z
#    x 2.263990 -0.079910 0.030570 
#    y -0.079910 2.418610 0.225720 
#    z 0.030570 0.225720 2.437820 
# 
# From -- ./inp_files/86424.got.cif
#   From: 2010.05.17/outbox.cif.g08.bks.cpg/sg2_44_cif.got.tgz:86424.got - 2010.06.03 11:33:40.
