data_PCOD9071965
_publ_section_title
;
Structure prediction by ZEFSAII (Michael W. Deem and Ramdas Pophale) SiO2 
 PCOD9071965
Probable space group: P -1
;
_chemical_formula_sum "Si O2"
_cell_formula_units_Z 15
_cell_length_a 6.678029
_cell_length_b 21.575027
_cell_length_c 7.942613
_cell_angle_alpha 147.819934
_cell_angle_beta 69.987401
_cell_angle_gamma 104.895558
_cell_volume 571.448641
_symmetry_space_group_name_H-M "P -1"
_symmetry_group_IT_number 2
_symmetry_cell_setting 'triclinic'
loop_
_space_group_symop_operation_xyz
x,y,z
-x,-y,-z
loop_
_atom_site_type_symbol
_atom_site_label
_atom_site_fract_x
_atom_site_fract_y
_atom_site_fract_z
Si Si1 0.987900 0.160114 0.528465
Si Si2 0.024744 0.721540 0.836416
Si Si3 0.865652 0.630770 0.186680
Si Si4 0.000000 0.500000 0.500000
Si Si5 0.568683 0.189377 0.485385
Si Si6 0.844857 0.945876 0.218833
Si Si7 0.706523 0.404213 0.791038
Si Si8 0.403306 0.979778 0.223995
O O1 0.775540 0.178534 0.520378
O O2 0.160072 0.232022 0.541805
O O3 0.007817 0.022219 0.244766
O O4 0.937377 0.219129 0.859041
O O5 0.891978 0.612153 0.675097
O O6 0.239210 0.657899 0.547352
O O7 0.922602 0.816726 0.956458
O O8 0.063382 0.618754 0.232498
O O9 0.686926 0.545418 0.110164
O O10 0.945062 0.570158 0.851477
O O11 0.546464 0.326583 0.762333
O O12 0.403993 0.111729 0.452853
O O13 0.613847 0.116328 0.134325
O O14 0.629251 0.949798 0.181238
O O15 0.772762 0.014043 0.567059
#
# Coordination Sequence:
#
# PCOD9071965 Si02
#       8
#     2   2   2   1   2   2   2   2
#     4   9  17  29  47  75 103 124 155 206 260 300
#     4  10  18  30  49  78 103 127 160 206 264 306
#     4   8  15  28  45  73  99 126 155 189 257 308
#     4   8  16  30  46  70 102 128 156 192 250 308
#     4   9  17  32  49  70 101 136 173 206 239 295
#     4  10  19  32  50  72 103 135 170 205 240 299
#     4   9  16  28  50  75  98 125 161 209 257 299
#     4   9  19  34  48  67 100 145 177 200 235 282
#
# _framework density 26.249075999999999
#
# number of rings (size 3 to 8) (size 9 to 14) (size 15 to 20)
#    0.000    2.933    0.000    1.200    0.000    0.000 
#    0.000   18.667    0.000    0.000    0.000  252.000 
#    0.000    0.000    0.000    0.000    0.000    0.000 
#
# Total GULP energy -83590.813142 kJ/mol
# GULP energy per Si atom -5572.720876 kJ/mol
# Density = 2.618933 g / cm^3
# Si number density = 26.249076 Si / 1000 Ang^3
#
#
#
# Elastic Constant Matrix: (Units=GPa)
#
#
# Indices 1 2 3 4 5 6 
#
# 1 86.6100 42.2390 48.4506 17.6449 12.4885 5.8788
# 2 42.2390 165.5043 85.4947 54.4113 3.5375 -15.0551
# 3 48.4506 85.4947 106.0236 33.0577 -14.8858 -0.6737
# 4 17.6449 54.4113 33.0577 108.5093 6.8296 4.2798
# 5 12.4885 3.5375 -14.8858 6.8296 33.7370 12.9558
# 6 5.8788 -15.0551 -0.6737 4.2798 12.9558 45.6914
#
#
#
# Elastic Compliance Matrix: (Units=1/GPa)
#
#
# Indices 1 2 3 4 5 6 
#
# 1 0.019260 0.001611 -0.012137 0.000536 -0.013384 0.001618
# 2 0.001611 0.013824 -0.012191 -0.003162 -0.009538 0.007169
# 3 -0.012137 -0.012191 0.028290 -0.001578 0.021657 -0.008031
# 4 0.000536 -0.003162 -0.001578 0.011400 -0.002273 -0.001558
# 5 -0.013384 -0.009538 0.021657 -0.002273 0.051568 -0.015510
# 6 0.001618 0.007169 -0.008031 -0.001558 -0.015510 0.028465
#
#
# Mechanical properties :
#
#
# Convention : Reuss Voigt Hill
#
# Bulk Modulus (GPa) = 62.72981 78.94517 70.83749
# Shear Modulus (GPa) = 24.56333 49.71778 37.14055
#
# Velocity S-wave (km/s) = 3.06237 4.35682 3.76563
# Velocity P-wave (km/s) = 6.03771 7.44647 6.77878
#
# Compressibility (1/GPa) = 0.01594138
#
# Stress axis : x y z
#
# Youngs Moduli (GPa) = 51.91986 72.33662 35.34761
#
# Poissons Ratio (x) = -0.11652 0.42900
# Poissons Ratio (y) = -0.08363 0.43093
# Poissons Ratio (z) = 0.63013 0.88187
#
# Static dielectric constant tensor:
#      x y z
#    x 2.137400 -0.011680 0.029460 
#    y -0.011680 2.106300 0.113060 
#    z 0.029460 0.113060 2.213280 
# 
# From -- ./inp_files/199575.got.cif
#   From: 2010.05.17/outbox.cif.g08.bks.cpg/sg2_100_cif.got.tgz:199575.got - 2010.06.03 11:33:40.
