data_PCOD9071643
_publ_section_title
;
Structure prediction by ZEFSAII (Michael W. Deem and Ramdas Pophale) SiO2 
 PCOD9071643
Probable space group: P -1
;
_chemical_formula_sum "Si O2"
_cell_formula_units_Z 14
_cell_length_a 15.740781
_cell_length_b 7.883579
_cell_length_c 14.976109
_cell_angle_alpha 115.749658
_cell_angle_beta 135.418068
_cell_angle_gamma 31.210909
_cell_volume 592.879708
_symmetry_space_group_name_H-M "P -1"
_symmetry_group_IT_number 2
_symmetry_cell_setting 'triclinic'
loop_
_space_group_symop_operation_xyz
x,y,z
-x,-y,-z
loop_
_atom_site_type_symbol
_atom_site_label
_atom_site_fract_x
_atom_site_fract_y
_atom_site_fract_z
Si Si1 0.888788 0.591806 0.529261
Si Si2 0.226116 0.637564 0.191475
Si Si3 0.832974 0.448124 0.679986
Si Si4 0.276819 0.565629 0.593461
Si Si5 0.187457 0.102672 0.295890
Si Si6 0.701791 0.132342 0.202534
Si Si7 0.259325 0.523741 0.998942
O O1 0.774248 0.911476 0.574104
O O2 0.000000 0.500000 0.500000
O O3 0.708110 0.660365 0.403131
O O4 0.107991 0.225096 0.671170
O O5 0.312686 0.739442 0.279921
O O6 0.243800 0.521448 0.274606
O O7 0.937881 0.042606 0.051961
O O8 0.333735 0.397298 0.129209
O O9 0.772979 0.751313 0.690780
O O10 0.712135 0.490759 0.517867
O O11 0.121492 0.042301 0.785228
O O12 0.404809 0.550476 0.746096
O O13 0.000000 0.000000 0.500000
O O14 0.906654 0.424313 0.144813
O O15 0.484850 0.283188 0.054960
#
# Coordination Sequence:
#
# PCOD9071643 Si02
#       7
#     2   2   2   2   2   2   2
#     4   9  17  28  52  76  95 131 160 204 258 285
#     4   9  19  34  53  69  98 142 167 192 248 304
#     4   9  17  31  53  75  90 135 166 203 257 278
#     4   7  15  28  45  70  96 122 159 200 242 294
#     4   8  18  32  51  72 101 126 170 208 228 309
#     4   9  18  31  50  74 105 123 162 214 243 290
#     4   9  19  35  47  74 101 133 166 201 248 288
#
# _framework density 23.613558000000001
#
# number of rings (size 3 to 8) (size 9 to 14) (size 15 to 20)
#    0.857    3.143    0.000    0.000    6.000    3.429 
#    0.000    2.143    0.000    1.714    0.000    0.000 
#    0.000    0.000    0.000    0.000    0.000    0.000 
#
# Total GULP energy -77980.916090 kJ/mol
# GULP energy per Si atom -5570.065435 kJ/mol
# Density = 2.355981 g / cm^3
# Si number density = 23.613558 Si / 1000 Ang^3
#
#
#
# Elastic Constant Matrix: (Units=GPa)
#
#
# Indices 1 2 3 4 5 6 
#
# 1 118.0569 33.0745 53.9926 18.3747 -13.4511 -10.8049
# 2 33.0745 53.6975 34.5052 4.9365 7.9539 -8.2454
# 3 53.9926 34.5052 71.5985 16.4236 13.7533 -0.7429
# 4 18.3747 4.9365 16.4236 36.6321 -8.8469 8.5371
# 5 -13.4511 7.9539 13.7533 -8.8469 36.2907 2.0605
# 6 -10.8049 -8.2454 -0.7429 8.5371 2.0605 21.9877
#
#
#
# Elastic Compliance Matrix: (Units=1/GPa)
#
#
# Indices 1 2 3 4 5 6 
#
# 1 0.017766 -0.002488 -0.014238 -0.000824 0.011956 0.006516
# 2 -0.002488 0.029703 -0.011329 -0.001038 -0.003977 0.010309
# 3 -0.014238 -0.011329 0.036421 -0.011405 -0.019162 -0.003791
# 4 -0.000824 -0.001038 -0.011405 0.040972 0.015284 -0.018520
# 5 0.011956 -0.003977 -0.019162 0.015284 0.044206 -0.006341
# 6 0.006516 0.010309 -0.003791 -0.018520 -0.006341 0.060204
#
#
# Mechanical properties :
#
#
# Convention : Reuss Voigt Hill
#
# Bulk Modulus (GPa) = 35.99832 54.05530 45.02681
# Shear Modulus (GPa) = 16.96963 27.10081 22.03522
#
# Velocity S-wave (km/s) = 2.68365 3.39142 3.05808
# Velocity P-wave (km/s) = 4.98804 6.18684 5.61950
#
# Compressibility (1/GPa) = 0.02777908
#
# Stress axis : x y z
#
# Youngs Moduli (GPa) = 56.28674 33.66677 27.45639
#
# Poissons Ratio (x) = 0.08377 0.39093
# Poissons Ratio (y) = 0.14005 0.31105
# Poissons Ratio (z) = 0.80143 0.38141
#
# Static dielectric constant tensor:
#      x y z
#    x 1.935190 -0.018990 0.044830 
#    y -0.018990 2.010030 -0.003680 
#    z 0.044830 -0.003680 1.932190 
# 
# From -- ./inp_files/401152.got.cif
#   From: 2010.05.17/outbox.cif.g08.bks.cpg/sg2_201_cif.got.tgz:401152.got - 2010.06.03 11:33:40.
