data_PCOD9071112
_publ_section_title
;
Structure prediction by ZEFSAII (Michael W. Deem and Ramdas Pophale) SiO2 
 PCOD9071112
Probable space group: P -1
;
_chemical_formula_sum "Si O2"
_cell_formula_units_Z 14
_cell_length_a 9.507211
_cell_length_b 8.594714
_cell_length_c 16.316588
_cell_angle_alpha 148.841230
_cell_angle_beta 111.947968
_cell_angle_gamma 59.570430
_cell_volume 589.477988
_symmetry_space_group_name_H-M "P -1"
_symmetry_group_IT_number 2
_symmetry_cell_setting 'triclinic'
loop_
_space_group_symop_operation_xyz
x,y,z
-x,-y,-z
loop_
_atom_site_type_symbol
_atom_site_label
_atom_site_fract_x
_atom_site_fract_y
_atom_site_fract_z
Si Si1 0.005646 0.228280 0.530883
Si Si2 0.134899 0.599077 0.032094
Si Si3 0.909455 0.173602 0.143690
Si Si4 0.706311 0.203581 0.703047
Si Si5 0.674779 0.642823 0.547207
Si Si6 0.413707 0.738528 0.784622
Si Si7 0.552212 0.812385 0.133839
O O1 0.097047 0.462368 0.686444
O O2 0.835717 0.456282 0.553426
O O3 0.115377 0.959748 0.370595
O O4 0.000000 0.000000 0.500000
O O5 0.268742 0.601235 0.126992
O O6 0.250327 0.341729 0.876432
O O7 0.044428 0.957546 0.140476
O O8 0.000000 0.500000 0.000000
O O9 0.737181 0.160699 0.135490
O O10 0.000000 0.000000 0.000000
O O11 0.565714 0.437419 0.719550
O O12 0.680126 0.893857 0.592109
O O13 0.645415 0.377625 0.364191
O O14 0.540468 0.892206 0.690986
O O15 0.477810 0.005646 0.880381
O O16 0.500000 0.500000 0.000000
#
# Coordination Sequence:
#
# PCOD9071112 Si02
#       7
#     2   2   2   2   2   2   2
#     4  12  27  47  77 111 155 205 259 318 382 458
#     4  12  27  51  77 111 153 208 252 322 388 450
#     4  12  28  48  76 112 156 200 266 315 386 456
#     4  12  26  48  80 107 158 198 260 313 386 460
#     4  12  25  50  78 112 154 202 257 316 384 460
#     4  12  28  49  78 116 153 206 254 319 385 462
#     4  12  26  48  80 110 156 201 255 312 387 451
#
# _framework density 23.749825000000001
#
# number of rings (size 3 to 8) (size 9 to 14) (size 15 to 20)
#    0.000    0.000    5.714    3.000    4.000    1.714 
#    0.000    0.000    0.000    0.000    0.000    0.000 
#    0.000    0.000    0.000    0.000    0.000    0.000 
#
# Total GULP energy -78150.502432 kJ/mol
# GULP energy per Si atom -5582.178745 kJ/mol
# Density = 2.369577 g / cm^3
# Si number density = 23.749825 Si / 1000 Ang^3
#
#
#
# Elastic Constant Matrix: (Units=GPa)
#
#
# Indices 1 2 3 4 5 6 
#
# 1 142.0769 54.9493 45.9491 17.6423 -17.4595 20.4963
# 2 54.9493 120.9865 45.5484 34.5005 13.6964 15.0568
# 3 45.9491 45.5484 89.3369 9.6934 -13.3286 4.1143
# 4 17.6423 34.5005 9.6934 42.7134 -7.6385 3.7001
# 5 -17.4595 13.6964 -13.3286 -7.6385 46.2004 13.8823
# 6 20.4963 15.0568 4.1143 3.7001 13.8823 48.3221
#
#
#
# Elastic Compliance Matrix: (Units=1/GPa)
#
#
# Indices 1 2 3 4 5 6 
#
# 1 0.010898 -0.004643 -0.002172 0.001353 0.006591 -0.004988
# 2 -0.004643 0.018006 -0.007175 -0.013218 -0.011757 0.001359
# 3 -0.002172 -0.007175 0.016575 0.004225 0.006960 -0.000578
# 4 0.001353 -0.013218 0.004225 0.035045 0.012359 -0.003049
# 5 0.006591 -0.011757 0.006960 0.012359 0.034885 -0.010693
# 6 -0.004988 0.001359 -0.000578 -0.003049 -0.010693 0.025741
#
#
# Mechanical properties :
#
#
# Convention : Reuss Voigt Hill
#
# Bulk Modulus (GPa) = 57.14154 71.69931 64.42043
# Shear Modulus (GPa) = 28.57721 41.17741 34.87731
#
# Velocity S-wave (km/s) = 3.47257 4.16841 3.83630
# Velocity P-wave (km/s) = 6.33958 7.30907 6.84152
#
# Compressibility (1/GPa) = 0.01750040
#
# Stress axis : x y z
#
# Youngs Moduli (GPa) = 91.75907 55.53577 60.33106
#
# Poissons Ratio (x) = 0.25786 0.13102
# Poissons Ratio (y) = 0.42605 0.43286
# Poissons Ratio (z) = 0.19927 0.39846
#
# Static dielectric constant tensor:
#      x y z
#    x 1.864230 -0.089820 0.069710 
#    y -0.089820 1.696690 0.087810 
#    z 0.069710 0.087810 1.887050 
# 
# From -- ./inp_files/557722.got.cif
#   From: 2010.05.17/outbox.cif.g08.bks.cpg/sg2_279_cif.got.tgz:557722.got - 2010.06.03 11:33:40.
