data_PCOD9071114
_publ_section_title
;
Structure prediction by ZEFSAII (Michael W. Deem and Ramdas Pophale) SiO2 
 PCOD9071114
Probable space group: P -1
;
_chemical_formula_sum "Si O2"
_cell_formula_units_Z 9
_cell_length_a 5.409583
_cell_length_b 7.155735
_cell_length_c 12.262895
_cell_angle_alpha 120.504630
_cell_angle_beta 123.957058
_cell_angle_gamma 81.801575
_cell_volume 332.575923
_symmetry_space_group_name_H-M "P -1"
_symmetry_group_IT_number 2
_symmetry_cell_setting 'triclinic'
loop_
_space_group_symop_operation_xyz
x,y,z
-x,-y,-z
loop_
_atom_site_type_symbol
_atom_site_label
_atom_site_fract_x
_atom_site_fract_y
_atom_site_fract_z
Si Si1 0.500000 0.500000 0.500000
Si Si2 0.747643 0.125301 0.924204
Si Si3 0.768534 0.263900 0.309856
Si Si4 0.934203 0.537940 0.234292
Si Si5 0.792813 0.024949 0.654298
O O1 0.315930 0.668960 0.572228
O O2 0.726459 0.494289 0.662691
O O3 0.757827 0.113684 0.792691
O O4 0.436373 0.969515 0.841076
O O5 0.806931 0.373210 0.056272
O O6 0.000000 0.000000 0.000000
O O7 0.743016 0.439613 0.263249
O O8 0.116991 0.217290 0.381735
O O9 0.954363 0.793500 0.289854
O O10 0.500000 0.000000 0.500000
#
# Coordination Sequence:
#
# PCOD9071114 Si02
#       5
#     1   2   2   2   2
#     4  12  26  46  78 110 156 208 256 314 392 452
#     4  12  25  50  78 114 160 204 257 321 390 467
#     4  12  26  50  78 111 160 207 260 323 384 465
#     4  12  26  47  78 114 155 208 259 315 393 465
#     4  12  29  51  79 119 159 203 260 323 389 468
#
# _framework density 27.061491
#
# number of rings (size 3 to 8) (size 9 to 14) (size 15 to 20)
#    0.000    0.000    4.444    4.667    0.000    6.222 
#    0.000    1.111    0.000    0.000    0.000    0.000 
#    0.000    0.000    0.000    0.000    0.000    0.000 
#
# Total GULP energy -50355.442902 kJ/mol
# GULP energy per Si atom -5595.049211 kJ/mol
# Density = 2.699990 g / cm^3
# Si number density = 27.061491 Si / 1000 Ang^3
#
#
#
# Elastic Constant Matrix: (Units=GPa)
#
#
# Indices 1 2 3 4 5 6 
#
# 1 140.2828 15.5228 38.9755 -17.6216 -36.3589 10.7941
# 2 15.5228 153.1088 40.0442 8.5114 -4.7596 23.3467
# 3 38.9755 40.0442 159.9223 3.1426 -38.4057 5.0895
# 4 -17.6216 8.5114 3.1426 56.4136 0.6838 0.0728
# 5 -36.3589 -4.7596 -38.4057 0.6838 43.2870 1.6997
# 6 10.7941 23.3467 5.0895 0.0728 1.6997 42.5665
#
#
#
# Elastic Compliance Matrix: (Units=1/GPa)
#
#
# Indices 1 2 3 4 5 6 
#
# 1 0.009948 -0.000446 -0.000362 0.003101 0.008037 -0.002561
# 2 -0.000446 0.007698 -0.001931 -0.001175 -0.001073 -0.003833
# 3 -0.000362 -0.001931 0.008535 -0.000383 0.007068 -0.000151
# 4 0.003101 -0.001175 -0.000383 0.018871 0.001846 -0.000202
# 5 0.008037 -0.001073 0.007068 0.001846 0.036123 -0.003740
# 6 -0.002561 -0.003833 -0.000151 -0.000202 -0.003740 0.026412
#
#
# Mechanical properties :
#
#
# Convention : Reuss Voigt Hill
#
# Bulk Modulus (GPa) = 48.30487 71.37766 59.84126
# Shear Modulus (GPa) = 41.67827 52.37153 47.02490
#
# Velocity S-wave (km/s) = 3.92871 4.40395 4.17310
# Velocity P-wave (km/s) = 6.20230 7.23140 6.73653
#
# Compressibility (1/GPa) = 0.02070185
#
# Stress axis : x y z
#
# Youngs Moduli (GPa) = 100.52216 129.90078 117.17117
#
# Poissons Ratio (x) = 0.05792 0.04243
# Poissons Ratio (y) = 0.04482 0.22631
# Poissons Ratio (z) = 0.03640 0.25090
#
# Static dielectric constant tensor:
#      x y z
#    x 1.770690 -0.153540 -0.120860 
#    y -0.153540 2.004170 -0.131080 
#    z -0.120860 -0.131080 1.953510 
# 
# From -- ./inp_files/117619.got.cif
#   From: 2010.05.17/outbox.cif.g08.bks.cpg/sg2_59_cif.got.tgz:117619.got - 2010.06.03 11:33:40.
