data_PCOD9071896
_publ_section_title
;
Structure prediction by ZEFSAII (Michael W. Deem and Ramdas Pophale) SiO2 
 PCOD9071896
Probable space group: P -1
;
_chemical_formula_sum "Si O2"
_cell_formula_units_Z 16
_cell_length_a 22.069855
_cell_length_b 17.457639
_cell_length_c 13.534291
_cell_angle_alpha 156.649747
_cell_angle_beta 29.577904
_cell_angle_gamma 156.299379
_cell_volume 816.870799
_symmetry_space_group_name_H-M "P -1"
_symmetry_group_IT_number 2
_symmetry_cell_setting 'triclinic'
loop_
_space_group_symop_operation_xyz
x,y,z
-x,-y,-z
loop_
_atom_site_type_symbol
_atom_site_label
_atom_site_fract_x
_atom_site_fract_y
_atom_site_fract_z
Si Si1 0.001411 0.167697 0.276886
Si Si2 0.987234 0.566243 0.790649
Si Si3 0.052128 0.682901 0.052329
Si Si4 0.100661 0.094126 0.242354
Si Si5 0.251255 0.405798 0.583596
Si Si6 0.341439 0.555833 0.848111
Si Si7 0.231484 0.085066 0.528603
Si Si8 0.645402 0.066360 0.985378
O O1 0.021021 0.404128 0.490567
O O2 0.836113 0.015330 0.386715
O O3 0.120028 0.217051 0.254543
O O4 0.000000 0.000000 0.000000
O O5 0.037305 0.561073 0.825610
O O6 0.810777 0.466424 0.933841
O O7 0.079109 0.845355 0.962162
O O8 0.225934 0.898526 0.082030
O O9 0.000000 0.500000 0.000000
O O10 0.922559 0.721457 0.281445
O O11 0.928023 0.009240 0.414634
O O12 0.219998 0.250613 0.345869
O O13 0.333679 0.449085 0.623058
O O14 0.327253 0.678822 0.760271
O O15 0.339882 0.373342 0.708613
O O16 0.483543 0.833753 0.973070
O O17 0.310647 0.980586 0.239532
#
# Coordination Sequence:
#
# PCOD9071896 Si02
#       8
#     2   2   2   2   2   2   2   2
#     4  10  20  37  58  79 101 134 179 237 283 300
#     4  10  20  35  54  77 112 134 176 225 263 312
#     4   9  16  27  49  73 104 148 172 205 249 303
#     4   9  20  34  51  81 105 133 182 214 266 313
#     4  10  18  30  47  73 109 149 175 207 257 310
#     4  10  21  30  47  82 117 149 168 204 260 324
#     4   9  19  33  46  77 112 134 179 217 250 316
#     4  11  18  30  50  76 118 150 174 198 255 326
#
# _framework density 19.586940999999999
#
# number of rings (size 3 to 8) (size 9 to 14) (size 15 to 20)
#    0.750    1.500    1.250    4.500    1.750    2.000 
#    0.000    0.000    0.000    0.000    0.000   11.375 
#    0.000    0.000    0.000    0.000    0.000    0.000 
#
# Total GULP energy -89135.720334 kJ/mol
# GULP energy per Si atom -5570.982521 kJ/mol
# Density = 1.954236 g / cm^3
# Si number density = 19.586941 Si / 1000 Ang^3
#
#
#
# Elastic Constant Matrix: (Units=GPa)
#
#
# Indices 1 2 3 4 5 6 
#
# 1 29.0754 -0.2559 9.2962 8.0089 -6.9130 0.1636
# 2 -0.2559 55.2773 23.7924 24.9122 -4.0474 6.6669
# 3 9.2962 23.7924 134.9379 18.4159 -10.9166 -5.1510
# 4 8.0089 24.9122 18.4159 26.7378 -7.6042 -0.5174
# 5 -6.9130 -4.0474 -10.9166 -7.6042 21.3872 9.4753
# 6 0.1636 6.6669 -5.1510 -0.5174 9.4753 17.1033
#
#
#
# Elastic Compliance Matrix: (Units=1/GPa)
#
#
# Indices 1 2 3 4 5 6 
#
# 1 0.044407 0.013033 -0.001960 -0.019988 0.015482 -0.015277
# 2 0.013033 0.039000 -0.003048 -0.036793 0.006158 -0.020770
# 3 -0.001960 -0.003048 0.008577 -0.002133 0.001005 0.003168
# 4 -0.019988 -0.036793 -0.002133 0.082153 0.009862 0.010912
# 5 0.015482 0.006158 0.001005 0.009862 0.076613 -0.044391
# 6 -0.015277 -0.020770 0.003168 0.010912 -0.044391 0.092588
#
#
# Mechanical properties :
#
#
# Convention : Reuss Voigt Hill
#
# Bulk Modulus (GPa) = 9.25626 31.66177 20.45901
# Shear Modulus (GPa) = 13.76278 25.47620 19.61949
#
# Velocity S-wave (km/s) = 2.65363 3.61040 3.16834
# Velocity P-wave (km/s) = 3.75832 5.79481 4.88389
#
# Compressibility (1/GPa) = 0.10803497
#
# Stress axis : x y z
#
# Youngs Moduli (GPa) = 22.51876 25.64090 116.59561
#
# Poissons Ratio (x) = -0.33419 0.22856
# Poissons Ratio (y) = -0.29350 0.35536
# Poissons Ratio (z) = 0.04414 0.07815
#
# Static dielectric constant tensor:
#      x y z
#    x 1.791890 0.018980 -0.036550 
#    y 0.018980 1.701650 0.037270 
#    z -0.036550 0.037270 1.742690 
# 
# From -- ./inp_files/544455.got.cif
#   From: 2010.05.17/outbox.cif.g08.bks.cpg/sg2_273_cif.got.tgz:544455.got - 2010.06.03 11:33:40.
