data_PCOD9071606
_publ_section_title
;
Structure prediction by ZEFSAII (Michael W. Deem and Ramdas Pophale) SiO2 
 PCOD9071606
Probable space group: P -1
;
_chemical_formula_sum "Si O2"
_cell_formula_units_Z 10
_cell_length_a 11.501654
_cell_length_b 5.053279
_cell_length_c 8.226467
_cell_angle_alpha 93.255228
_cell_angle_beta 108.308604
_cell_angle_gamma 114.933411
_cell_volume 401.555620
_symmetry_space_group_name_H-M "P -1"
_symmetry_group_IT_number 2
_symmetry_cell_setting 'triclinic'
loop_
_space_group_symop_operation_xyz
x,y,z
-x,-y,-z
loop_
_atom_site_type_symbol
_atom_site_label
_atom_site_fract_x
_atom_site_fract_y
_atom_site_fract_z
Si Si1 0.922256 0.350782 0.127169
Si Si2 0.163240 0.568968 0.482566
Si Si3 0.618152 0.314840 0.997454
Si Si4 0.419459 0.662704 0.393446
Si Si5 0.792099 0.859326 0.276945
O O1 0.029345 0.529114 0.324334
O O2 0.883493 0.013548 0.160901
O O3 0.769608 0.324947 0.057359
O O4 0.000000 0.500000 0.000000
O O5 0.268039 0.556039 0.395857
O O6 0.145044 0.300017 0.583959
O O7 0.221762 0.881620 0.618140
O O8 0.587552 0.365470 0.802779
O O9 0.350878 0.408342 0.859806
O O10 0.500000 0.000000 0.000000
O O11 0.500000 0.500000 0.500000
O O12 0.500000 0.000000 0.500000
#
# Coordination Sequence:
#
# PCOD9071606 Si02
#       5
#     2   2   2   2   2
#     4  12  28  53  85 125 168 214 275 345 405 494
#     4  12  27  52  84 124 163 216 275 336 416 484
#     4  12  30  55  83 122 167 223 277 338 413 488
#     4  12  29  52  79 116 166 217 270 335 407 488
#     4  12  28  52  84 123 166 213 274 343 408 492
#
# _framework density 24.903151000000001
#
# number of rings (size 3 to 8) (size 9 to 14) (size 15 to 20)
#    0.000    0.000    4.000    3.600    8.400    3.200 
#    0.000    1.000    0.000    0.000    0.000    0.000 
#    0.000    0.000    0.000    0.000    0.000    0.000 
#
# Total GULP energy -56018.424225 kJ/mol
# GULP energy per Si atom -5601.842422 kJ/mol
# Density = 2.484647 g / cm^3
# Si number density = 24.903151 Si / 1000 Ang^3
#
#
#
# Elastic Constant Matrix: (Units=GPa)
#
#
# Indices 1 2 3 4 5 6 
#
# 1 182.9492 83.1459 77.1494 -19.0561 4.3481 16.5007
# 2 83.1459 194.1784 103.8691 -6.7351 -13.2936 3.3778
# 3 77.1494 103.8691 244.3165 -20.8991 5.1653 0.3325
# 4 -19.0561 -6.7351 -20.8991 61.3452 6.0603 -0.7295
# 5 4.3481 -13.2936 5.1653 6.0603 35.6725 -4.2671
# 6 16.5007 3.3778 0.3325 -0.7295 -4.2671 54.9467
#
#
#
# Elastic Compliance Matrix: (Units=1/GPa)
#
#
# Indices 1 2 3 4 5 6 
#
# 1 0.007618 -0.002785 -0.001002 0.001932 -0.002421 -0.002273
# 2 -0.002785 0.008021 -0.002728 -0.001304 0.004023 0.000655
# 3 -0.001002 -0.002728 0.005742 0.001542 -0.001952 0.000303
# 4 0.001932 -0.001304 0.001542 0.017673 -0.004017 -0.000587
# 5 -0.002421 0.004023 -0.001952 -0.004017 0.031134 0.002856
# 6 -0.002273 0.000655 0.000303 -0.000587 0.002856 0.019054
#
#
# Mechanical properties :
#
#
# Convention : Reuss Voigt Hill
#
# Bulk Modulus (GPa) = 119.75470 127.75256 123.75363
# Shear Modulus (GPa) = 47.59407 54.21151 50.90279
#
# Velocity S-wave (km/s) = 4.37643 4.67078 4.52600
# Velocity P-wave (km/s) = 8.58662 8.97214 8.78150
#
# Compressibility (1/GPa) = 0.00835040
#
# Stress axis : x y z
#
# Youngs Moduli (GPa) = 131.26627 124.68049 174.15912
#
# Poissons Ratio (x) = 0.34727 0.17450
# Poissons Ratio (y) = 0.36562 0.47507
# Poissons Ratio (z) = 0.13152 0.34010
#
# Static dielectric constant tensor:
#      x y z
#    x 2.230610 0.079500 -0.058110 
#    y 0.079500 2.030780 -0.028980 
#    z -0.058110 -0.028980 1.967990 
# 
# From -- ./inp_files/228181.got.cif
#   From: 2010.05.17/outbox.cif.g08.bks.cpg/sg2_115_cif.got.tgz:228181.got - 2010.06.03 11:33:40.
