data_PCOD9071835
_publ_section_title
;
Structure prediction by ZEFSAII (Michael W. Deem and Ramdas Pophale) SiO2 
 PCOD9071835
Probable space group: P -1
;
_chemical_formula_sum "Si O2"
_cell_formula_units_Z 16
_cell_length_a 9.000000
_cell_length_b 15.000000
_cell_length_c 9.000000
_cell_angle_alpha 100.000000
_cell_angle_beta 140.000000
_cell_angle_gamma 90.000000
_cell_volume 751.948787
_symmetry_space_group_name_H-M "P -1"
_symmetry_group_IT_number 2
_symmetry_cell_setting 'triclinic'
loop_
_space_group_symop_operation_xyz
x,y,z
-x,-y,-z
loop_
_atom_site_type_symbol
_atom_site_label
_atom_site_fract_x
_atom_site_fract_y
_atom_site_fract_z
Si Si1 0.016454 0.342684 0.949189
Si Si2 0.783394 0.235838 0.469003
Si Si3 0.463435 0.490355 0.294700
Si Si4 0.181226 0.597778 0.639484
Si Si5 0.372891 0.662546 0.120753
Si Si6 0.729988 0.828034 0.871385
Si Si7 0.458442 0.130849 0.579808
Si Si8 0.165771 0.935947 0.359604
O O1 0.822067 0.297715 0.666436
O O2 0.880490 0.360029 0.996807
O O3 0.195409 0.432393 0.050487
O O4 0.153696 0.261008 0.060942
O O5 0.905823 0.310959 0.462767
O O6 0.505784 0.201948 0.220943
O O7 0.852550 0.138735 0.540888
O O8 0.500000 0.500000 0.500000
O O9 0.635914 0.429052 0.345109
O O10 0.510795 0.591219 0.284466
O O11 0.000000 0.500000 0.500000
O O12 0.326769 0.632057 0.908530
O O13 0.477257 0.771931 0.255497
O O14 0.674636 0.849364 0.666346
O O15 0.899555 0.919251 0.092906
O O16 0.689139 0.100624 0.675843
O O17 0.303209 0.041487 0.519131
#
# Coordination Sequence:
#
# PCOD9071835 Si02
#       8
#     2   2   2   2   2   2   2   2
#     4  11  20  39  64  92 122 162 214 254 301 369
#     4  10  20  39  63  88 121 169 211 251 299 379
#     4  12  24  41  67  90 121 170 213 255 312 377
#     4  12  26  43  60  93 131 166 204 258 321 369
#     4  12  23  39  60  95 132 159 206 265 311 371
#     4  10  16  34  63  90 123 159 211 253 308 356
#     4  10  19  35  57  98 124 158 205 267 311 356
#     4   9  19  34  64  89 126 158 212 260 304 363
#
# _framework density 21.278044999999999
#
# number of rings (size 3 to 8) (size 9 to 14) (size 15 to 20)
#    0.000    1.250    5.000    4.125    0.000    0.000 
#    0.000    0.625    0.000    0.750    0.000    0.000 
#    0.000    0.000    0.000    0.000    0.000    0.000 
#
# Total GULP energy -89293.120683 kJ/mol
# GULP energy per Si atom -5580.820043 kJ/mol
# Density = 2.122962 g / cm^3
# Si number density = 21.278045 Si / 1000 Ang^3
#
#
#
# Elastic Constant Matrix: (Units=GPa)
#
#
# Indices 1 2 3 4 5 6 
#
# 1 34.5250 20.5777 25.9063 4.5246 -7.6236 15.0241
# 2 20.5777 159.8909 44.6824 32.3086 -6.7585 35.6225
# 3 25.9063 44.6824 78.0512 22.8090 0.2766 13.5737
# 4 4.5246 32.3086 22.8090 36.1916 10.2974 5.1376
# 5 -7.6236 -6.7585 0.2766 10.2974 33.3480 1.7726
# 6 15.0241 35.6225 13.5737 5.1376 1.7726 35.1711
#
#
#
# Elastic Compliance Matrix: (Units=1/GPa)
#
#
# Indices 1 2 3 4 5 6 
#
# 1 0.049401 0.002444 -0.014537 -0.000249 0.012974 -0.018585
# 2 0.002444 0.010975 -0.002851 -0.008576 0.005992 -0.010109
# 3 -0.014537 -0.002851 0.021569 -0.009150 -0.001370 0.002179
# 4 -0.000249 -0.008576 -0.009150 0.044660 -0.015861 0.006600
# 5 0.012974 0.005992 -0.001370 -0.015861 0.039648 -0.010764
# 6 -0.018585 -0.010109 0.002179 0.006600 -0.010764 0.045347
#
#
# Mechanical properties :
#
#
# Convention : Reuss Voigt Hill
#
# Bulk Modulus (GPa) = 19.20968 50.53334 34.87151
# Shear Modulus (GPa) = 19.31676 33.02884 26.17280
#
# Velocity S-wave (km/s) = 3.01628 3.94413 3.51099
# Velocity P-wave (km/s) = 4.60197 6.67399 5.73238
#
# Compressibility (1/GPa) = 0.05205710
#
# Stress axis : x y z
#
# Youngs Moduli (GPa) = 20.24236 91.11792 46.36203
#
# Poissons Ratio (x) = -0.22270 0.67397
# Poissons Ratio (y) = -0.04947 0.13219
# Poissons Ratio (z) = 0.29427 0.25979
#
# Static dielectric constant tensor:
#      x y z
#    x 1.764740 0.019130 0.040770 
#    y 0.019130 1.806250 -0.026230 
#    z 0.040770 -0.026230 1.843790 
# 
# From -- ./inp_files/39027.got.cif
#   From: 2010.05.17/outbox.ucp.g08.bks.cvg/sg2_20_cif.got.tgz:39027.got - 2010.06.11 11:32:03.
