data_PCOD9071368
_publ_section_title
;
Structure prediction by ZEFSAII (Michael W. Deem and Ramdas Pophale) SiO2 
 PCOD9071368
Probable space group: P -1
;
_chemical_formula_sum "Si O2"
_cell_formula_units_Z 14
_cell_length_a 14.587398
_cell_length_b 9.142714
_cell_length_c 8.320285
_cell_angle_alpha 114.482062
_cell_angle_beta 106.166078
_cell_angle_gamma 32.284257
_cell_volume 533.468094
_symmetry_space_group_name_H-M "P -1"
_symmetry_group_IT_number 2
_symmetry_cell_setting 'triclinic'
loop_
_space_group_symop_operation_xyz
x,y,z
-x,-y,-z
loop_
_atom_site_type_symbol
_atom_site_label
_atom_site_fract_x
_atom_site_fract_y
_atom_site_fract_z
Si Si1 0.821558 0.738045 0.116158
Si Si2 0.121051 0.889201 0.244510
Si Si3 0.398055 0.132833 0.707762
Si Si4 0.746622 0.610406 0.785550
Si Si5 0.686864 0.265074 0.406652
Si Si6 0.877662 0.516685 0.476438
Si Si7 0.638755 0.440082 0.096813
O O1 0.694460 0.836696 0.969058
O O2 0.786948 0.664570 0.210629
O O3 0.000000 0.500000 0.000000
O O4 0.762212 0.988265 0.268620
O O5 0.139751 0.671254 0.179490
O O6 0.206774 0.815182 0.426586
O O7 0.213715 0.790518 0.073510
O O8 0.954886 0.238749 0.322636
O O9 0.330419 0.175239 0.519264
O O10 0.416068 0.296331 0.819141
O O11 0.563856 0.806342 0.711460
O O12 0.869250 0.498891 0.654562
O O13 0.500000 0.500000 0.500000
O O14 0.680516 0.358538 0.270597
O O15 0.000000 0.500000 0.500000
O O16 0.500000 0.500000 0.000000
#
# Coordination Sequence:
#
# PCOD9071368 Si02
#       7
#     2   2   2   2   2   2   2
#     4  12  27  49  79 119 162 218 273 345 425 493
#     4  12  27  51  80 116 163 214 277 334 421 490
#     4  12  27  49  79 118 161 215 277 340 414 497
#     4  12  26  51  81 113 166 217 273 340 418 503
#     4  12  26  48  79 116 162 215 272 336 418 497
#     4  12  29  50  79 124 164 212 278 350 417 499
#     4  12  27  48  82 120 162 212 277 344 408 499
#
# _framework density 26.243369999999999
#
# number of rings (size 3 to 8) (size 9 to 14) (size 15 to 20)
#    0.000    0.000    2.857    6.429    6.000    2.857 
#    0.000    0.000    0.000    0.000    0.000    0.000 
#    0.000    0.000    0.000    0.000    0.000    0.000 
#
# Total GULP energy -78205.955310 kJ/mol
# GULP energy per Si atom -5586.139665 kJ/mol
# Density = 2.618364 g / cm^3
# Si number density = 26.243370 Si / 1000 Ang^3
#
#
#
# Elastic Constant Matrix: (Units=GPa)
#
#
# Indices 1 2 3 4 5 6 
#
# 1 132.2159 44.6384 8.5801 16.7269 -2.8429 15.4802
# 2 44.6384 142.3350 11.9962 4.5499 4.0062 0.9220
# 3 8.5801 11.9962 124.4924 34.6683 -11.6589 8.7824
# 4 16.7269 4.5499 34.6683 33.7456 7.4713 1.4254
# 5 -2.8429 4.0062 -11.6589 7.4713 48.2888 -9.3179
# 6 15.4802 0.9220 8.7824 1.4254 -9.3179 36.3866
#
#
#
# Elastic Compliance Matrix: (Units=1/GPa)
#
#
# Indices 1 2 3 4 5 6 
#
# 1 0.009779 -0.003032 0.001850 -0.006514 0.001533 -0.003882
# 2 -0.003032 0.008053 -0.001318 0.002014 -0.001284 0.000996
# 3 0.001850 -0.001318 0.012844 -0.015021 0.005274 -0.001915
# 4 -0.006514 0.002014 -0.015021 0.050564 -0.011739 0.001359
# 5 0.001533 -0.001284 0.005274 -0.011739 0.024952 0.004957
# 6 -0.003882 0.000996 -0.001915 0.001359 0.004957 0.030787
#
#
# Mechanical properties :
#
#
# Convention : Reuss Voigt Hill
#
# Bulk Modulus (GPa) = 38.95061 58.83030 48.89046
# Shear Modulus (GPa) = 33.21381 45.93943 39.57662
#
# Velocity S-wave (km/s) = 3.56140 4.18846 3.88759
# Velocity P-wave (km/s) = 5.63788 6.77176 6.23067
#
# Compressibility (1/GPa) = 0.02567354
#
# Stress axis : x y z
#
# Youngs Moduli (GPa) = 102.26305 124.17546 77.85551
#
# Poissons Ratio (x) = 0.37655 -0.14400
# Poissons Ratio (y) = 0.31010 0.10265
# Poissons Ratio (z) = -0.18914 0.16372
#
# Static dielectric constant tensor:
#      x y z
#    x 2.531800 0.369860 0.369370 
#    y 0.369860 2.788700 0.337430 
#    z 0.369370 0.337430 2.955960 
# 
# From -- ./inp_files/299526.got.cif
#   From: 2010.05.17/outbox.cif.g08.bks.cpg/sg2_150_cif.got.tgz:299526.got - 2010.06.03 11:33:40.
