data_PCOD9071287
_publ_section_title
;
Structure prediction by ZEFSAII (Michael W. Deem and Ramdas Pophale) SiO2 
 PCOD9071287
Probable space group: P -1
;
_chemical_formula_sum "Si O2"
_cell_formula_units_Z 10
_cell_length_a 4.964174
_cell_length_b 16.114765
_cell_length_c 5.592179
_cell_angle_alpha 64.282552
_cell_angle_beta 80.904711
_cell_angle_gamma 62.975171
_cell_volume 358.607535
_symmetry_space_group_name_H-M "P -1"
_symmetry_group_IT_number 2
_symmetry_cell_setting 'triclinic'
loop_
_space_group_symop_operation_xyz
x,y,z
-x,-y,-z
loop_
_atom_site_type_symbol
_atom_site_label
_atom_site_fract_x
_atom_site_fract_y
_atom_site_fract_z
Si Si1 0.175954 0.088380 0.513089
Si Si2 0.504549 0.441622 0.325255
Si Si3 0.301599 0.311048 0.792430
Si Si4 0.222226 0.710188 0.880121
Si Si5 0.415798 0.905800 0.198198
O O1 0.318014 0.148316 0.578376
O O2 0.967069 0.167515 0.249279
O O3 0.931088 0.055473 0.710669
O O4 0.500000 0.000000 0.500000
O O5 0.500000 0.500000 0.500000
O O6 0.272980 0.393553 0.491464
O O7 0.765563 0.331926 0.336656
O O8 0.500000 0.500000 0.000000
O O9 0.513171 0.190902 0.859254
O O10 0.455163 0.326189 0.994990
O O11 0.970930 0.327239 0.880618
O O12 0.500000 0.000000 0.000000
#
# Coordination Sequence:
#
# PCOD9071287 Si02
#       5
#     2   2   2   2   2
#     4  12  26  47  77 118 171 226 287 348 424 515
#     4  12  28  56  90 126 166 224 286 360 438 508
#     4  12  28  53  84 121 172 217 282 357 426 511
#     4  12  28  53  84 121 172 217 282 357 426 511
#     4  12  26  47  77 118 171 226 287 348 424 515
#
# _framework density 27.885636000000002
#
# number of rings (size 3 to 8) (size 9 to 14) (size 15 to 20)
#    0.000    0.000    4.000    4.800    0.000    4.800 
#    0.000    0.000    0.000    0.000    0.000    0.000 
#    0.000    0.000    0.000    0.000    0.000    0.000 
#
# Total GULP energy -55771.855129 kJ/mol
# GULP energy per Si atom -5577.185513 kJ/mol
# Density = 2.782217 g / cm^3
# Si number density = 27.885636 Si / 1000 Ang^3
#
#
#
# Elastic Constant Matrix: (Units=GPa)
#
#
# Indices 1 2 3 4 5 6 
#
# 1 143.3589 50.6005 57.9975 -3.7398 -20.8040 -3.8085
# 2 50.6005 159.7423 51.7215 32.1272 -5.3361 1.0612
# 3 57.9975 51.7215 160.8602 3.8608 -25.9581 9.0490
# 4 -3.7398 32.1272 3.8608 40.0337 1.6482 7.9840
# 5 -20.8040 -5.3361 -25.9581 1.6482 71.7689 -1.9476
# 6 -3.8085 1.0612 9.0490 7.9840 -1.9476 53.3085
#
#
#
# Elastic Compliance Matrix: (Units=1/GPa)
#
#
# Indices 1 2 3 4 5 6 
#
# 1 0.009199 -0.002742 -0.002293 0.003077 0.001582 0.000698
# 2 -0.002742 0.009291 -0.001973 -0.007714 -0.000611 0.001087
# 3 -0.002293 -0.001973 0.008076 0.000814 0.002049 -0.001542
# 4 0.003077 -0.007714 0.000814 0.032309 -0.000254 -0.004613
# 5 0.001582 -0.000611 0.002049 -0.000254 0.015104 0.000367
# 6 0.000698 0.001087 -0.001542 -0.004613 0.000367 0.019753
#
#
# Mechanical properties :
#
#
# Convention : Reuss Voigt Hill
#
# Bulk Modulus (GPa) = 79.68569 87.17781 83.43175
# Shear Modulus (GPa) = 44.66988 53.26501 48.96744
#
# Velocity S-wave (km/s) = 4.00671 4.37524 4.19502
# Velocity P-wave (km/s) = 7.07410 7.54017 7.31085
#
# Compressibility (1/GPa) = 0.01254930
#
# Stress axis : x y z
#
# Youngs Moduli (GPa) = 108.70283 107.62577 123.82853
#
# Poissons Ratio (x) = 0.29513 0.28393
# Poissons Ratio (y) = 0.29809 0.24437
# Poissons Ratio (z) = 0.24925 0.21239
#
# Static dielectric constant tensor:
#      x y z
#    x 2.253850 0.096000 0.099200 
#    y 0.096000 2.338190 0.029680 
#    z 0.099200 0.029680 2.537940 
# 
# From -- ./inp_files/5717.got.cif
#   From: 2010.05.17/outbox.cif.g08.bks.cpg/sg2_3_cif.got.tgz:5717.got - 2010.06.03 11:33:40.
