data_PCOD9071737
_publ_section_title
;
Structure prediction by ZEFSAII (Michael W. Deem and Ramdas Pophale) SiO2 
 PCOD9071737
Probable space group: P -1
;
_chemical_formula_sum "Si O2"
_cell_formula_units_Z 16
_cell_length_a 14.720440
_cell_length_b 5.326714
_cell_length_c 16.331116
_cell_angle_alpha 105.771038
_cell_angle_beta 37.149103
_cell_angle_gamma 95.561695
_cell_volume 728.239067
_symmetry_space_group_name_H-M "P -1"
_symmetry_group_IT_number 2
_symmetry_cell_setting 'triclinic'
loop_
_space_group_symop_operation_xyz
x,y,z
-x,-y,-z
loop_
_atom_site_type_symbol
_atom_site_label
_atom_site_fract_x
_atom_site_fract_y
_atom_site_fract_z
Si Si1 0.409332 0.780564 0.513601
Si Si2 0.608063 0.844994 0.666906
Si Si3 0.629492 0.739035 0.870081
Si Si4 0.947914 0.807957 0.589001
Si Si5 0.790846 0.236446 0.486502
Si Si6 0.678968 0.177969 0.244260
Si Si7 0.690230 0.607974 0.172397
Si Si8 0.429590 0.329962 0.918860
O O1 0.355829 0.678528 0.630070
O O2 0.531180 0.650014 0.344255
O O3 0.500000 0.000000 0.500000
O O4 0.252605 0.846622 0.580098
O O5 0.711814 0.552186 0.580215
O O6 0.712386 0.050484 0.584497
O O7 0.485531 0.841509 0.681304
O O8 0.501417 0.013399 0.827768
O O9 0.558743 0.506435 0.857386
O O10 0.672995 0.631957 0.922178
O O11 0.500000 0.000000 0.000000
O O12 0.000000 0.500000 0.500000
O O13 0.767841 0.835988 0.734576
O O14 0.035001 0.826697 0.613902
O O15 0.000000 0.000000 0.500000
O O16 0.770728 0.331748 0.130595
O O17 0.757527 0.866776 0.166542
O O18 0.652836 0.588256 0.101795
#
# Coordination Sequence:
#
# PCOD9071737 Si02
#       8
#     2   2   2   2   2   2   2   2
#     4  10  18  32  53  92 135 168 215 270 336 392
#     4  11  20  36  61  93 126 173 212 270 327 399
#     4  11  28  44  70  94 131 175 235 293 333 401
#     4  12  30  48  68  96 140 179 226 280 354 405
#     4  12  23  36  63  89 133 178 214 263 351 391
#     4  10  18  29  48  87 132 159 201 262 326 376
#     4  10  19  29  53  80 121 162 202 257 326 373
#     4  10  23  41  64  93 130 167 233 280 335 390
#
# _framework density 21.970804999999999
#
# number of rings (size 3 to 8) (size 9 to 14) (size 15 to 20)
#    0.000    1.250    5.000    1.875   12.250    0.000 
#    0.000    0.000    0.000    0.000    0.000    8.750 
#    0.000    1.125    0.000    0.000    0.000    0.000 
#
# Total GULP energy -89133.807444 kJ/mol
# GULP energy per Si atom -5570.862965 kJ/mol
# Density = 2.192080 g / cm^3
# Si number density = 21.970805 Si / 1000 Ang^3
#
#
#
# Elastic Constant Matrix: (Units=GPa)
#
#
# Indices 1 2 3 4 5 6 
#
# 1 88.6559 11.3623 27.5695 -3.5336 21.9192 -3.4497
# 2 11.3623 163.7769 29.9603 -12.8479 1.9127 5.1549
# 3 27.5695 29.9603 74.5187 -19.4931 19.1089 -2.3797
# 4 -3.5336 -12.8479 -19.4931 32.4042 -7.1016 9.9306
# 5 21.9192 1.9127 19.1089 -7.1016 43.1259 -7.8829
# 6 -3.4497 5.1549 -2.3797 9.9306 -7.8829 27.1290
#
#
#
# Elastic Compliance Matrix: (Units=1/GPa)
#
#
# Indices 1 2 3 4 5 6 
#
# 1 0.013931 -0.000355 -0.004280 -0.002651 -0.005449 0.000850
# 2 -0.000355 0.006775 -0.002348 0.002052 0.000887 -0.002032
# 3 -0.004280 -0.002348 0.020021 0.010606 -0.005546 -0.003836
# 4 -0.002651 0.002052 0.010606 0.042584 0.000800 -0.015152
# 5 -0.005449 0.000887 -0.005546 0.000800 0.029790 0.007015
# 6 0.000850 -0.002032 -0.003836 -0.015152 0.007015 0.044604
#
#
# Mechanical properties :
#
#
# Convention : Reuss Voigt Hill
#
# Bulk Modulus (GPa) = 37.36836 51.63731 44.50284
# Shear Modulus (GPa) = 27.68705 37.73580 32.71142
#
# Velocity S-wave (km/s) = 3.55374 4.14882 3.86276
# Velocity P-wave (km/s) = 5.82099 6.81938 6.33987
#
# Compressibility (1/GPa) = 0.02676060
#
# Stress axis : x y z
#
# Youngs Moduli (GPa) = 71.78359 147.61095 49.94683
#
# Poissons Ratio (x) = 0.05234 0.21379
# Poissons Ratio (y) = 0.02545 0.11728
# Poissons Ratio (z) = 0.30726 0.34660
#
# Static dielectric constant tensor:
#      x y z
#    x 1.873480 -0.066580 0.045630 
#    y -0.066580 1.974060 -0.002620 
#    z 0.045630 -0.002620 1.824540 
# 
# From -- ./inp_files/509921.got.cif
#   From: 2010.05.17/outbox.cif.g08.bks.cpg/sg2_255_cif.got.tgz:509921.got - 2010.06.03 11:33:40.
