data_PCOD9071041
_publ_section_title
;
Structure prediction by ZEFSAII (Michael W. Deem and Ramdas Pophale) SiO2 
 PCOD9071041
Probable space group: P -1
;
_chemical_formula_sum "Si O2"
_cell_formula_units_Z 15
_cell_length_a 16.591525
_cell_length_b 9.192509
_cell_length_c 13.550633
_cell_angle_alpha 51.815478
_cell_angle_beta 155.662720
_cell_angle_gamma 126.894709
_cell_volume 665.060056
_symmetry_space_group_name_H-M "P -1"
_symmetry_group_IT_number 2
_symmetry_cell_setting 'triclinic'
loop_
_space_group_symop_operation_xyz
x,y,z
-x,-y,-z
loop_
_atom_site_type_symbol
_atom_site_label
_atom_site_fract_x
_atom_site_fract_y
_atom_site_fract_z
Si Si1 0.000000 0.500000 0.000000
Si Si2 0.286720 0.331505 0.535848
Si Si3 0.826041 0.868153 0.310776
Si Si4 0.571481 0.021247 0.262680
Si Si5 0.318760 0.443072 0.076397
Si Si6 0.119370 0.679496 0.601790
Si Si7 0.023516 0.783372 0.086624
Si Si8 0.548754 0.130226 0.404957
O O1 0.984834 0.293259 0.003236
O O2 0.892559 0.591486 0.751147
O O3 0.245991 0.290789 0.622961
O O4 0.486256 0.470084 0.685451
O O5 0.329368 0.139184 0.613769
O O6 0.943622 0.799362 0.379566
O O7 0.637738 0.963253 0.027999
O O8 0.000000 0.000000 0.500000
O O9 0.715048 0.211060 0.326510
O O10 0.546433 0.002013 0.359693
O O11 0.394948 0.282352 0.160382
O O12 0.232352 0.609310 0.852309
O O13 0.152816 0.342747 0.003300
O O14 0.000000 0.500000 0.500000
O O15 0.236053 0.762047 0.379937
O O16 0.000000 0.000000 0.000000
O O17 0.500000 0.000000 0.500000
#
# Coordination Sequence:
#
# PCOD9071041 Si02
#       8
#     1   2   2   2   2   2   2   2
#     4  12  28  46  80 112 152 208 274 322 394 480
#     4  12  26  49  74 112 156 202 262 327 393 472
#     4  12  25  49  76 109 153 200 257 321 396 470
#     4  12  27  49  78 111 153 207 259 319 409 477
#     4  12  26  47  75 107 156 199 256 332 389 467
#     4  12  26  44  76 114 149 198 260 320 395 474
#     4  12  26  50  75 109 158 205 266 328 396 471
#     4  12  27  49  74 108 153 203 261 320 397 474
#
# _framework density 22.554354
#
# number of rings (size 3 to 8) (size 9 to 14) (size 15 to 20)
#    0.000    0.000    5.333    4.400    1.867    3.733 
#    0.000    0.000    0.000    0.000    0.000    0.000 
#    0.000    0.000    0.000    0.000    0.000    0.000 
#
# Total GULP energy -83643.056385 kJ/mol
# GULP energy per Si atom -5576.203759 kJ/mol
# Density = 2.250302 g / cm^3
# Si number density = 22.554354 Si / 1000 Ang^3
#
#
#
# Elastic Constant Matrix: (Units=GPa)
#
#
# Indices 1 2 3 4 5 6 
#
# 1 69.9742 10.3464 23.4296 15.1253 -3.9420 12.3063
# 2 10.3464 74.3034 4.8590 17.3295 9.0208 1.3570
# 3 23.4296 4.8590 97.2691 -0.8547 2.9738 10.9922
# 4 15.1253 17.3295 -0.8547 44.9447 2.0630 2.3147
# 5 -3.9420 9.0208 2.9738 2.0630 36.7775 1.8285
# 6 12.3063 1.3570 10.9922 2.3147 1.8285 45.5876
#
#
#
# Elastic Compliance Matrix: (Units=1/GPa)
#
#
# Indices 1 2 3 4 5 6 
#
# 1 0.017809 -0.001228 -0.003956 -0.005546 0.003023 -0.003657
# 2 -0.001228 0.015337 -0.000453 -0.005365 -0.003576 0.000400
# 3 -0.003956 -0.000453 0.011508 0.001873 -0.001262 -0.001738
# 4 -0.005546 -0.005365 0.001873 0.026266 -0.000899 -0.000092
# 5 0.003023 -0.003576 -0.001262 -0.000899 0.028619 -0.001508
# 6 -0.003657 0.000400 -0.001738 -0.000092 -0.001508 0.023395
#
#
# Mechanical properties :
#
#
# Convention : Reuss Voigt Hill
#
# Bulk Modulus (GPa) = 29.95915 35.42409 32.69162
# Shear Modulus (GPa) = 34.40290 38.98940 36.69615
#
# Velocity S-wave (km/s) = 3.90979 4.16226 4.03800
# Velocity P-wave (km/s) = 5.80464 6.23213 6.02218
#
# Compressibility (1/GPa) = 0.03337879
#
# Stress axis : x y z
#
# Youngs Moduli (GPa) = 56.15016 65.20120 86.89750
#
# Poissons Ratio (x) = 0.08007 0.34380
# Poissons Ratio (y) = 0.06895 0.03940
# Poissons Ratio (z) = 0.22215 0.02956
#
# Static dielectric constant tensor:
#      x y z
#    x 1.826260 -0.027820 0.045230 
#    y -0.027820 1.869410 -0.014790 
#    z 0.045230 -0.014790 1.755110 
# 
# From -- ./inp_files/537615.got.cif
#   From: 2010.05.17/outbox.cif.g08.bks.cpg/sg2_269_cif.got.tgz:537615.got - 2010.06.03 11:33:40.
