data_PCOD9071655
_publ_section_title
;
Structure prediction by ZEFSAII (Michael W. Deem and Ramdas Pophale) SiO2 
 PCOD9071655
Probable space group: P -1
;
_chemical_formula_sum "Si O2"
_cell_formula_units_Z 16
_cell_length_a 8.427394
_cell_length_b 11.801787
_cell_length_c 18.295847
_cell_angle_alpha 150.910773
_cell_angle_beta 127.852898
_cell_angle_gamma 70.605722
_cell_volume 591.536326
_symmetry_space_group_name_H-M "P -1"
_symmetry_group_IT_number 2
_symmetry_cell_setting 'triclinic'
loop_
_space_group_symop_operation_xyz
x,y,z
-x,-y,-z
loop_
_atom_site_type_symbol
_atom_site_label
_atom_site_fract_x
_atom_site_fract_y
_atom_site_fract_z
Si Si1 0.617298 0.057761 0.680221
Si Si2 0.169867 0.800161 0.334833
Si Si3 0.924076 0.791164 0.057555
Si Si4 0.542874 0.297742 0.170869
Si Si5 0.657833 0.252660 0.021434
Si Si6 0.630713 0.414097 0.412824
Si Si7 0.285351 0.339680 0.920272
Si Si8 0.873144 0.674730 0.768062
O O1 0.694696 0.020418 0.598826
O O2 0.653319 0.355967 0.870567
O O3 0.336698 0.868944 0.490029
O O4 0.791012 0.022717 0.763436
O O5 0.107934 0.505525 0.122669
O O6 0.929181 0.793929 0.273014
O O7 0.723059 0.761560 0.930688
O O8 0.838592 0.826976 0.132904
O O9 0.639900 0.389339 0.168913
O O10 0.706620 0.468845 0.380619
O O11 0.500000 0.000000 0.000000
O O12 0.514485 0.321913 0.962344
O O13 0.936221 0.367047 0.158087
O O14 0.504122 0.917425 0.795679
O O15 0.851164 0.585863 0.626326
O O16 0.409699 0.461367 0.378588
O O17 0.000000 0.000000 0.000000
#
# Coordination Sequence:
#
# PCOD9071655 Si02
#       8
#     2   2   2   2   2   2   2   2
#     4   8  13  22  37  55  81 116 146 175 214 260
#     4   8  13  22  36  55  80 115 151 175 208 261
#     4   8  14  25  37  55  87 119 145 175 213 261
#     4   9  17  30  46  68  98 123 146 185 230 267
#     4   9  17  29  46  70  96 119 146 186 231 269
#     4   9  18  32  48  65  90 124 155 185 221 266
#     4   8  14  23  37  60  88 112 140 181 221 258
#     4   9  18  33  49  63  86 121 160 191 219 263
#
# _framework density 27.048211999999999
#
# number of rings (size 3 to 8) (size 9 to 14) (size 15 to 20)
#    0.000    3.500    0.000    1.500    0.000    1.500 
#    0.000   11.250    0.000    0.000    0.000    3.500 
#    0.000   38.000    0.000    1.000    0.000    1.000 
#
# Total GULP energy -89291.030522 kJ/mol
# GULP energy per Si atom -5580.689408 kJ/mol
# Density = 2.698665 g / cm^3
# Si number density = 27.048212 Si / 1000 Ang^3
#
#
#
# Elastic Constant Matrix: (Units=GPa)
#
#
# Indices 1 2 3 4 5 6 
#
# 1 74.1418 23.9311 28.8529 -9.9749 10.5825 -4.8149
# 2 23.9311 131.6807 39.3501 -36.3799 16.3181 -48.0720
# 3 28.8529 39.3501 142.3489 -31.6808 12.0919 -4.5992
# 4 -9.9749 -36.3799 -31.6808 43.9684 -3.1075 12.2092
# 5 10.5825 16.3181 12.0919 -3.1075 40.7873 -13.3817
# 6 -4.8149 -48.0720 -4.5992 12.2092 -13.3817 34.6201
#
#
#
# Elastic Compliance Matrix: (Units=1/GPa)
#
#
# Indices 1 2 3 4 5 6 
#
# 1 0.015575 -0.003120 -0.002062 0.000299 -0.003429 -0.003871
# 2 -0.003120 0.019741 -0.002693 0.006876 0.002487 0.025156
# 3 -0.002062 -0.002693 0.009457 0.005526 -0.002655 -0.005745
# 4 0.000299 0.006876 0.005526 0.032942 -0.002727 -0.002348
# 5 -0.003429 0.002487 -0.002655 -0.002727 0.029968 0.015169
# 6 -0.003871 0.025156 -0.005745 -0.002348 0.015169 0.069206
#
#
# Mechanical properties :
#
#
# Convention : Reuss Voigt Hill
#
# Bulk Modulus (GPa) = 34.45437 59.15995 46.80716
# Shear Modulus (GPa) = 24.71419 40.94430 32.82925
#
# Velocity S-wave (km/s) = 3.02604 3.89492 3.48764
# Velocity P-wave (km/s) = 4.99750 6.49205 5.79317
#
# Compressibility (1/GPa) = 0.02902390
#
# Stress axis : x y z
#
# Youngs Moduli (GPa) = 64.20402 50.65597 105.74146
#
# Poissons Ratio (x) = 0.15806 0.21801
# Poissons Ratio (y) = 0.20033 0.28474
# Poissons Ratio (z) = 0.13237 0.13641
#
# Static dielectric constant tensor:
#      x y z
#    x 2.374990 0.082990 0.018600 
#    y 0.082990 2.142950 -0.010030 
#    z 0.018600 -0.010030 2.115810 
# 
# From -- ./inp_files/436989.got.cif
#   From: 2010.05.17/outbox.cif.g08.bks.cpg/sg2_219_cif.got.tgz:436989.got - 2010.06.03 11:33:40.
