data_PCOD9071384
_publ_section_title
;
Structure prediction by ZEFSAII (Michael W. Deem and Ramdas Pophale) SiO2 
 PCOD9071384
Probable space group: P -1
;
_chemical_formula_sum "Si O2"
_cell_formula_units_Z 12
_cell_length_a 11.106404
_cell_length_b 5.435239
_cell_length_c 12.688110
_cell_angle_alpha 68.732090
_cell_angle_beta 68.145167
_cell_angle_gamma 119.323999
_cell_volume 458.113416
_symmetry_space_group_name_H-M "P -1"
_symmetry_group_IT_number 2
_symmetry_cell_setting 'triclinic'
loop_
_space_group_symop_operation_xyz
x,y,z
-x,-y,-z
loop_
_atom_site_type_symbol
_atom_site_label
_atom_site_fract_x
_atom_site_fract_y
_atom_site_fract_z
Si Si1 0.043815 0.323437 0.730427
Si Si2 0.628097 0.807346 0.501513
Si Si3 0.172170 0.385903 0.443449
Si Si4 0.814423 0.344167 0.032345
Si Si5 0.292702 0.402121 0.796957
Si Si6 0.706991 0.186093 0.873755
O O1 0.099611 0.387936 0.578895
O O2 0.125009 0.211360 0.796424
O O3 0.825575 0.080074 0.851342
O O4 0.183568 0.763943 0.657357
O O5 0.500000 0.500000 0.500000
O O6 0.690655 0.648570 0.570986
O O7 0.488435 0.774331 0.622580
O O8 0.264346 0.702940 0.275371
O O9 0.000000 0.000000 0.500000
O O10 0.735815 0.448976 0.118963
O O11 0.697277 0.894915 0.134160
O O12 0.822163 0.473525 0.891675
O O13 0.000000 0.500000 0.000000
O O14 0.500000 0.000000 0.000000
#
# Coordination Sequence:
#
# PCOD9071384 Si02
#       6
#     2   2   2   2   2   2
#     4  12  27  49  83 119 165 206 278 349 407 485
#     4  12  26  48  83 121 155 207 277 343 409 482
#     4  12  28  50  81 119 165 213 271 338 420 485
#     4  12  28  51  80 115 164 217 274 333 412 487
#     4  12  27  48  85 119 156 210 281 342 399 481
#     4  12  29  51  79 114 165 218 269 332 416 495
#
# _framework density 26.194386000000002
#
# number of rings (size 3 to 8) (size 9 to 14) (size 15 to 20)
#    0.000    0.000    5.000    3.500    7.000    0.000 
#    0.000    2.500    0.000    0.000    0.000    0.000 
#    0.000    0.000    0.000    0.000    0.000    0.000 
#
# Total GULP energy -67058.840469 kJ/mol
# GULP energy per Si atom -5588.236706 kJ/mol
# Density = 2.613477 g / cm^3
# Si number density = 26.194386 Si / 1000 Ang^3
#
#
#
# Elastic Constant Matrix: (Units=GPa)
#
#
# Indices 1 2 3 4 5 6 
#
# 1 170.5597 36.8436 61.1208 4.2788 -16.9095 13.9796
# 2 36.8436 116.9154 41.1240 31.8433 0.1166 -1.6945
# 3 61.1208 41.1240 153.1506 33.9985 -24.1903 -7.9106
# 4 4.2788 31.8433 33.9985 57.4114 -1.6884 6.1369
# 5 -16.9095 0.1166 -24.1903 -1.6884 63.0952 10.2584
# 6 13.9796 -1.6945 -7.9106 6.1369 10.2584 45.6416
#
#
#
# Elastic Compliance Matrix: (Units=1/GPa)
#
#
# Indices 1 2 3 4 5 6 
#
# 1 0.007868 -0.002240 -0.003140 0.002969 0.001606 -0.003798
# 2 -0.002240 0.011190 -0.000967 -0.005728 -0.001476 0.002036
# 3 -0.003140 -0.000967 0.009704 -0.005208 0.002287 0.002794
# 4 0.002969 -0.005728 -0.005208 0.024037 0.000319 -0.005328
# 5 0.001606 -0.001476 0.002287 0.000319 0.017851 -0.004205
# 6 -0.003798 0.002036 0.002794 -0.005328 -0.004205 0.025294
#
#
# Mechanical properties :
#
#
# Convention : Reuss Voigt Hill
#
# Bulk Modulus (GPa) = 62.23733 79.86696 71.05215
# Shear Modulus (GPa) = 43.86102 53.33211 48.59657
#
# Velocity S-wave (km/s) = 4.09644 4.51712 4.31191
# Velocity P-wave (km/s) = 6.79601 7.60014 7.20929
#
# Compressibility (1/GPa) = 0.01606753
#
# Stress axis : x y z
#
# Youngs Moduli (GPa) = 127.09304 89.36174 103.04970
#
# Poissons Ratio (x) = 0.20019 0.32359
# Poissons Ratio (y) = 0.28472 0.09967
# Poissons Ratio (z) = 0.39909 0.08643
#
# Static dielectric constant tensor:
#      x y z
#    x 2.059260 -0.106370 0.205940 
#    y -0.106370 2.141310 -0.255230 
#    z 0.205940 -0.255230 2.996170 
# 
# From -- ./inp_files/408333.got.cif
#   From: 2010.05.17/outbox.cif.g08.bks.cpg/sg2_205_cif.got.tgz:408333.got - 2010.06.03 11:33:40.
