data_PCOD9071421
_publ_section_title
;
Structure prediction by ZEFSAII (Michael W. Deem and Ramdas Pophale) SiO2 
 PCOD9071421
Probable space group: P -1
;
_chemical_formula_sum "Si O2"
_cell_formula_units_Z 12
_cell_length_a 7.100749
_cell_length_b 6.827803
_cell_length_c 11.028844
_cell_angle_alpha 65.429254
_cell_angle_beta 90.433356
_cell_angle_gamma 101.696840
_cell_volume 474.418369
_symmetry_space_group_name_H-M "P -1"
_symmetry_group_IT_number 2
_symmetry_cell_setting 'triclinic'
loop_
_space_group_symop_operation_xyz
x,y,z
-x,-y,-z
loop_
_atom_site_type_symbol
_atom_site_label
_atom_site_fract_x
_atom_site_fract_y
_atom_site_fract_z
Si Si1 0.646502 0.873453 0.102769
Si Si2 0.053638 0.609543 0.606710
Si Si3 0.305538 0.487131 0.238233
Si Si4 0.205405 0.452662 0.974132
Si Si5 0.745095 0.113932 0.278944
Si Si6 0.498753 0.283329 0.478138
O O1 0.490964 0.678876 0.214082
O O2 0.774512 0.999413 0.179944
O O3 0.776032 0.767084 0.039232
O O4 0.500000 0.000000 0.000000
O O5 0.071236 0.826416 0.644678
O O6 0.284609 0.664760 0.582738
O O7 0.000000 0.500000 0.500000
O O8 0.891060 0.451598 0.728909
O O9 0.305744 0.453831 0.103876
O O10 0.341855 0.287593 0.371790
O O11 0.293465 0.656077 0.833045
O O12 0.000000 0.500000 0.000000
O O13 0.573688 0.939969 0.388755
O O14 0.500000 0.500000 0.500000
#
# Coordination Sequence:
#
# PCOD9071421 Si02
#       6
#     2   2   2   2   2   2
#     4  12  27  50  84 122 169 220 281 348 423 494
#     4  12  26  50  76 116 165 214 279 342 415 497
#     4  12  26  50  79 117 167 216 272 352 413 493
#     4  12  28  54  83 123 169 220 282 349 414 513
#     4  12  27  50  84 119 162 228 272 345 424 493
#     4  12  26  49  79 117 168 215 279 349 414 503
#
# _framework density 25.294128000000001
#
# number of rings (size 3 to 8) (size 9 to 14) (size 15 to 20)
#    0.000    0.000    6.667    2.000    2.333    1.333 
#    3.000    0.000    0.000    0.000    0.000    0.000 
#    0.000    0.000    0.000    0.000    0.000    0.000 
#
# Total GULP energy -66830.597047 kJ/mol
# GULP energy per Si atom -5569.216421 kJ/mol
# Density = 2.523656 g / cm^3
# Si number density = 25.294128 Si / 1000 Ang^3
#
#
#
# Elastic Constant Matrix: (Units=GPa)
#
#
# Indices 1 2 3 4 5 6 
#
# 1 136.0888 59.0717 55.6048 9.8912 -1.3574 8.4099
# 2 59.0717 152.7466 72.0982 43.2126 11.4748 11.9850
# 3 55.6048 72.0982 199.0449 23.5862 17.0607 1.3667
# 4 9.8912 43.2126 23.5862 52.9981 7.1805 18.1052
# 5 -1.3574 11.4748 17.0607 7.1805 48.6691 6.5406
# 6 8.4099 11.9850 1.3667 18.1052 6.5406 42.9938
#
#
#
# Elastic Compliance Matrix: (Units=1/GPa)
#
#
# Indices 1 2 3 4 5 6 
#
# 1 0.009572 -0.003463 -0.001825 0.002337 0.001658 -0.002085
# 2 -0.003463 0.011000 -0.002034 -0.007640 -0.000990 0.001043
# 3 -0.001825 -0.002034 0.006562 -0.001176 -0.001900 0.001500
# 4 0.002337 -0.007640 -0.001176 0.028792 -0.000581 -0.010326
# 5 0.001658 -0.000990 -0.001900 -0.000581 0.021993 -0.003089
# 6 -0.002085 0.001043 0.001500 -0.010326 -0.003089 0.028147
#
#
# Mechanical properties :
#
#
# Convention : Reuss Voigt Hill
#
# Bulk Modulus (GPa) = 80.05154 95.71441 87.88298
# Shear Modulus (GPa) = 40.04070 49.00589 44.52330
#
# Velocity S-wave (km/s) = 3.98301 4.40641 4.20005
# Velocity P-wave (km/s) = 7.27114 7.98820 7.63809
#
# Compressibility (1/GPa) = 0.01249195
#
# Stress axis : x y z
#
# Youngs Moduli (GPa) = 104.46860 90.91070 152.38296
#
# Poissons Ratio (x) = 0.31479 0.27803
# Poissons Ratio (y) = 0.36174 0.30996
# Poissons Ratio (z) = 0.19061 0.18492
#
# Static dielectric constant tensor:
#      x y z
#    x 2.091320 -0.061990 0.017560 
#    y -0.061990 2.173010 0.098290 
#    z 0.017560 0.098290 2.150120 
# 
# From -- ./inp_files/372468.got.cif
#   From: 2010.05.17/outbox.cif.g08.bks.cpg/sg2_187_cif.got.tgz:372468.got - 2010.06.03 11:33:40.
