data_PCOD9071604
_publ_section_title
;
Structure prediction by ZEFSAII (Michael W. Deem and Ramdas Pophale) SiO2 
 PCOD9071604
Probable space group: P -1
;
_chemical_formula_sum "Si O2"
_cell_formula_units_Z 8
_cell_length_a 10.451510
_cell_length_b 9.419339
_cell_length_c 9.167557
_cell_angle_alpha 96.246696
_cell_angle_beta 62.157202
_cell_angle_gamma 41.353681
_cell_volume 325.736088
_symmetry_space_group_name_H-M "P -1"
_symmetry_group_IT_number 2
_symmetry_cell_setting 'triclinic'
loop_
_space_group_symop_operation_xyz
x,y,z
-x,-y,-z
loop_
_atom_site_type_symbol
_atom_site_label
_atom_site_fract_x
_atom_site_fract_y
_atom_site_fract_z
Si Si1 0.265822 0.132072 0.262036
Si Si2 0.530597 0.633820 0.938649
Si Si3 0.299273 0.043155 0.553423
Si Si4 0.366840 0.733409 0.713249
O O1 0.433547 0.921264 0.300298
O O2 0.000000 0.500000 0.500000
O O3 0.500000 0.000000 0.000000
O O4 0.212306 0.027888 0.193454
O O5 0.561917 0.592307 0.744120
O O6 0.885127 0.387562 0.782887
O O7 0.500000 0.500000 0.000000
O O8 0.500000 0.000000 0.500000
O O9 0.362611 0.876005 0.631156
O O10 0.500000 0.500000 0.500000
O O11 0.000000 0.000000 0.000000
#
# Coordination Sequence:
#
# PCOD9071604 Si02
#       4
#     2   2   2   2
#     4  12  27  52  82 121 167 220 275 346 421 493
#     4  12  27  54  85 121 170 219 277 350 417 496
#     4  12  29  51  82 120 167 218 281 338 422 494
#     4  12  29  51  83 124 164 216 283 345 419 498
#
# _framework density 24.559759
#
# number of rings (size 3 to 8) (size 9 to 14) (size 15 to 20)
#    0.000    0.000    5.000    3.000    3.500    3.000 
#    0.000    0.000    0.000    0.000    0.000    0.000 
#    0.000    0.000    0.000    0.000    0.000    0.000 
#
# Total GULP energy -44570.150784 kJ/mol
# GULP energy per Si atom -5571.268848 kJ/mol
# Density = 2.450386 g / cm^3
# Si number density = 24.559759 Si / 1000 Ang^3
#
#
#
# Elastic Constant Matrix: (Units=GPa)
#
#
# Indices 1 2 3 4 5 6 
#
# 1 192.6011 89.5510 113.3833 5.5695 8.9970 19.8249
# 2 89.5510 223.5562 95.9060 -59.6227 9.7744 30.2783
# 3 113.3833 95.9060 242.9152 -36.7412 31.0498 14.1130
# 4 5.5695 -59.6227 -36.7412 54.9451 -1.7324 -0.5527
# 5 8.9970 9.7744 31.0498 -1.7324 53.6218 -13.0558
# 6 19.8249 30.2783 14.1130 -0.5527 -13.0558 67.2774
#
#
#
# Elastic Compliance Matrix: (Units=1/GPa)
#
#
# Indices 1 2 3 4 5 6 
#
# 1 0.010154 -0.004656 -0.004474 -0.009023 0.001507 0.000260
# 2 -0.004656 0.009633 0.000463 0.011148 -0.001685 -0.003296
# 3 -0.004474 0.000463 0.007442 0.005804 -0.003730 -0.001127
# 4 -0.009023 0.011148 0.005804 0.034935 -0.003727 -0.004012
# 5 0.001507 -0.001685 -0.003730 -0.003727 0.022044 0.005344
# 6 0.000260 -0.003296 -0.001127 -0.004012 0.005344 0.017511
#
#
# Mechanical properties :
#
#
# Convention : Reuss Voigt Hill
#
# Bulk Modulus (GPa) = 101.05266 139.63924 120.34595
# Shear Modulus (GPa) = 40.86586 59.18433 50.02509
#
# Velocity S-wave (km/s) = 4.08356 4.91431 4.51807
# Velocity P-wave (km/s) = 7.96674 9.44356 8.73641
#
# Compressibility (1/GPa) = 0.00989583
#
# Stress axis : x y z
#
# Youngs Moduli (GPa) = 98.47938 103.81212 134.36820
#
# Poissons Ratio (x) = 0.48333 0.60117
# Poissons Ratio (y) = 0.45850 -0.06222
# Poissons Ratio (z) = 0.44060 -0.04807
#
# Static dielectric constant tensor:
#      x y z
#    x 2.068670 -0.015200 -0.074590 
#    y -0.015200 2.166630 -0.060850 
#    z -0.074590 -0.060850 2.147460 
# 
# From -- ./inp_files/16855.got.cif
#   From: 2010.05.17/outbox.cif.g08.bks.cpg/sg2_9_cif.got.tgz:16855.got - 2010.06.03 11:33:40.
