data_PCOD9071842
_publ_section_title
;
Structure prediction by ZEFSAII (Michael W. Deem and Ramdas Pophale) SiO2 
 PCOD9071842
Probable space group: P -1
;
_chemical_formula_sum "Si O2"
_cell_formula_units_Z 16
_cell_length_a 13.829325
_cell_length_b 9.212640
_cell_length_c 9.009719
_cell_angle_alpha 68.279040
_cell_angle_beta 137.248938
_cell_angle_gamma 103.458728
_cell_volume 722.485417
_symmetry_space_group_name_H-M "P -1"
_symmetry_group_IT_number 2
_symmetry_cell_setting 'triclinic'
loop_
_space_group_symop_operation_xyz
x,y,z
-x,-y,-z
loop_
_atom_site_type_symbol
_atom_site_label
_atom_site_fract_x
_atom_site_fract_y
_atom_site_fract_z
Si Si1 0.133429 0.216067 0.316099
Si Si2 0.184127 0.759197 0.921697
Si Si3 0.200406 0.370521 0.810587
Si Si4 0.786032 0.273740 0.382759
Si Si5 0.479419 0.631846 0.800254
Si Si6 0.267186 0.543967 0.346997
Si Si7 0.004711 0.731259 0.149524
Si Si8 0.847776 0.928411 0.322831
O O1 0.225036 0.367190 0.348220
O O2 0.210386 0.097194 0.566031
O O3 0.980141 0.261975 0.206911
O O4 0.085629 0.171482 0.113242
O O5 0.208505 0.746264 0.778584
O O6 0.220136 0.940520 0.915601
O O7 0.278194 0.634759 0.169994
O O8 0.193349 0.537631 0.657087
O O9 0.152314 0.238147 0.694183
O O10 0.101292 0.376148 0.841427
O O11 0.361065 0.321390 0.061636
O O12 0.636210 0.245179 0.302190
O O13 0.912183 0.188482 0.653226
O O14 0.403626 0.564834 0.596190
O O15 0.500000 0.500000 0.000000
O O16 0.131142 0.634150 0.241859
O O17 0.000000 0.000000 0.500000
#
# Coordination Sequence:
#
# PCOD9071842 Si02
#       8
#     2   2   2   2   2   2   2   2
#     4  10  18  32  54  84 115 143 178 229 279 322
#     4  10  20  36  57  84 112 144 184 229 274 323
#     4  11  20  36  56  79 111 148 182 222 275 330
#     4  10  19  35  58  84 108 145 189 227 267 325
#     4   9  20  35  54  81 111 144 183 228 272 320
#     4  10  19  35  57  83 111 143 185 229 269 322
#     4  10  18  29  54  82 103 138 186 226 263 316
#     4  10  21  36  54  81 117 147 174 224 284 326
#
# _framework density 22.145775
#
# number of rings (size 3 to 8) (size 9 to 14) (size 15 to 20)
#    0.000    2.000    0.000    7.125    0.000    1.000 
#    0.000   19.375    0.000    0.000    0.000    0.000 
#    0.000    0.000    0.000    0.000    0.000    0.000 
#
# Total GULP energy -89212.216124 kJ/mol
# GULP energy per Si atom -5575.763508 kJ/mol
# Density = 2.209537 g / cm^3
# Si number density = 22.145775 Si / 1000 Ang^3
#
#
#
# Elastic Constant Matrix: (Units=GPa)
#
#
# Indices 1 2 3 4 5 6 
#
# 1 60.4712 -3.3770 36.9243 12.1754 -4.3057 7.7012
# 2 -3.3770 83.3560 35.9297 -10.4209 -12.1841 0.6888
# 3 36.9243 35.9297 148.0323 1.6682 -23.9883 18.0498
# 4 12.1754 -10.4209 1.6682 31.6812 7.1266 -9.5875
# 5 -4.3057 -12.1841 -23.9883 7.1266 36.0766 3.0171
# 6 7.7012 0.6888 18.0498 -9.5875 3.0171 16.7410
#
#
#
# Elastic Compliance Matrix: (Units=1/GPa)
#
#
# Indices 1 2 3 4 5 6 
#
# 1 0.024290 0.001404 -0.003123 -0.015380 0.005817 -0.017721
# 2 0.001404 0.015103 -0.005223 0.007421 -0.000397 0.008685
# 3 -0.003123 -0.005223 0.012851 -0.009241 0.009846 -0.019271
# 4 -0.015380 0.007421 -0.009241 0.062634 -0.022587 0.056674
# 5 0.005817 -0.000397 0.009846 -0.022587 0.042114 -0.033800
# 6 -0.017721 0.008685 -0.019271 0.056674 -0.033800 0.126855
#
#
# Mechanical properties :
#
#
# Convention : Reuss Voigt Hill
#
# Bulk Modulus (GPa) = 26.06849 47.86816 36.96832
# Shear Modulus (GPa) = 16.10217 31.72526 23.91372
#
# Velocity S-wave (km/s) = 2.69940 3.78903 3.28964
# Velocity P-wave (km/s) = 4.63816 6.38782 5.58197
#
# Compressibility (1/GPa) = 0.03836049
#
# Stress axis : x y z
#
# Youngs Moduli (GPa) = 41.17000 66.21282 77.81307
#
# Poissons Ratio (x) = -0.09297 0.24299
# Poissons Ratio (y) = -0.05781 0.40641
# Poissons Ratio (z) = 0.12857 0.34582
#
# Static dielectric constant tensor:
#      x y z
#    x 1.890550 -0.052850 0.009890 
#    y -0.052850 1.858560 -0.029710 
#    z 0.009890 -0.029710 1.910940 
# 
# From -- ./inp_files/306851.got.cif
#   From: 2010.05.17/outbox.cif.g08.bks.cpg/sg2_154_cif.got.tgz:306851.got - 2010.06.03 11:33:40.
