data_PCOD9071308
_publ_section_title
;
Structure prediction by ZEFSAII (Michael W. Deem and Ramdas Pophale) SiO2 
 PCOD9071308
Probable space group: P -1
;
_chemical_formula_sum "Si O2"
_cell_formula_units_Z 13
_cell_length_a 5.479663
_cell_length_b 12.415228
_cell_length_c 11.264974
_cell_angle_alpha 138.070074
_cell_angle_beta 81.148149
_cell_angle_gamma 75.182707
_cell_volume 418.977336
_symmetry_space_group_name_H-M "P -1"
_symmetry_group_IT_number 2
_symmetry_cell_setting 'triclinic'
loop_
_space_group_symop_operation_xyz
x,y,z
-x,-y,-z
loop_
_atom_site_type_symbol
_atom_site_label
_atom_site_fract_x
_atom_site_fract_y
_atom_site_fract_z
Si Si1 0.843838 0.228933 0.688547
Si Si2 0.258563 0.476553 0.245334
Si Si3 0.804070 0.487034 0.434262
Si Si4 0.703866 0.757698 0.170726
Si Si5 0.131484 0.835673 0.966608
Si Si6 0.519269 0.114703 0.342496
Si Si7 0.500000 0.000000 0.000000
O O1 0.843523 0.319562 0.636527
O O2 0.506169 0.301560 0.805179
O O3 0.017332 0.287362 0.810274
O O4 0.000000 0.000000 0.500000
O O5 0.614473 0.339791 0.117545
O O6 0.128816 0.493480 0.405305
O O7 0.197252 0.357061 0.056528
O O8 0.500000 0.500000 0.500000
O O9 0.003880 0.255785 0.184905
O O10 0.660307 0.654960 0.474897
O O11 0.513764 0.992530 0.352163
O O12 0.324363 0.886587 0.914714
O O13 0.875119 0.001683 0.203363
O O14 0.406427 0.050950 0.187771
#
# Coordination Sequence:
#
# PCOD9071308 Si02
#       7
#     2   2   2   2   2   2   1
#     4  12  29  50  83 123 166 218 281 351 423 505
#     4  12  27  50  80 120 163 216 280 338 425 499
#     4  12  29  51  80 122 165 222 280 348 417 505
#     4  12  26  50  81 122 163 223 276 346 424 500
#     4  12  26  51  78 117 164 216 279 347 420 502
#     4  12  26  47  80 113 163 215 277 341 419 498
#     4  12  26  48  78 112 160 212 276 336 428 484
#
# _framework density 31.027933000000001
#
# number of rings (size 3 to 8) (size 9 to 14) (size 15 to 20)
#    0.000    0.000    3.077    5.538    4.308    3.692 
#    0.000    0.769    0.000    0.000    0.000    0.000 
#    0.000    0.000    0.000    0.000    0.000    0.000 
#
# Total GULP energy -72811.837079 kJ/mol
# GULP energy per Si atom -5600.910545 kJ/mol
# Density = 3.095731 g / cm^3
# Si number density = 31.027933 Si / 1000 Ang^3
#
#
#
# Elastic Constant Matrix: (Units=GPa)
#
#
# Indices 1 2 3 4 5 6 
#
# 1 282.2833 95.0696 65.5320 -17.9120 18.4152 20.4999
# 2 95.0696 270.6344 84.6468 15.0607 -6.2516 28.0408
# 3 65.5320 84.6468 171.2240 19.3996 5.8059 1.3801
# 4 -17.9120 15.0607 19.3996 77.1923 1.2296 -13.4103
# 5 18.4152 -6.2516 5.8059 1.2296 67.3882 -10.5590
# 6 20.4999 28.0408 1.3801 -13.4103 -10.5590 72.1074
#
#
#
# Elastic Compliance Matrix: (Units=1/GPa)
#
#
# Indices 1 2 3 4 5 6 
#
# 1 0.004475 -0.001233 -0.001220 0.001487 -0.001368 -0.000693
# 2 -0.001233 0.004959 -0.001869 -0.001080 0.000721 -0.001637
# 3 -0.001220 -0.001869 0.007429 -0.001681 -0.000361 0.000566
# 4 0.001487 -0.001080 -0.001681 0.014401 -0.000205 0.002678
# 5 -0.001368 0.000721 -0.000361 -0.000205 0.015687 0.002374
# 6 -0.000693 -0.001637 0.000566 0.002678 0.002374 0.015537
#
#
# Mechanical properties :
#
#
# Convention : Reuss Voigt Hill
#
# Bulk Modulus (GPa) = 121.64569 134.95983 128.30276
# Shear Modulus (GPa) = 67.68604 75.26381 71.47492
#
# Velocity S-wave (km/s) = 4.67567 4.93046 4.80476
# Velocity P-wave (km/s) = 8.27282 8.71798 8.49832
#
# Compressibility (1/GPa) = 0.00822060
#
# Stress axis : x y z
#
# Youngs Moduli (GPa) = 223.47153 201.65376 134.60801
#
# Poissons Ratio (x) = 0.24864 0.16416
# Poissons Ratio (y) = 0.27554 0.25152
# Poissons Ratio (z) = 0.27254 0.37680
#
# Static dielectric constant tensor:
#      x y z
#    x 2.328500 0.035660 0.041100 
#    y 0.035660 2.360780 -0.075590 
#    z 0.041100 -0.075590 2.369950 
# 
# From -- ./inp_files/365356.got.cif
#   From: 2010.05.17/outbox.cif.g08.bks.cpg/sg2_183_cif.got.tgz:365356.got - 2010.06.03 11:33:40.
