data_PCOD9071559
_publ_section_title
;
Structure prediction by ZEFSAII (Michael W. Deem and Ramdas Pophale) SiO2 
 PCOD9071559
Probable space group: P -1
;
_chemical_formula_sum "Si O2"
_cell_formula_units_Z 12
_cell_length_a 5.454927
_cell_length_b 14.818736
_cell_length_c 9.682707
_cell_angle_alpha 142.470920
_cell_angle_beta 93.495619
_cell_angle_gamma 83.961599
_cell_volume 473.823175
_symmetry_space_group_name_H-M "P -1"
_symmetry_group_IT_number 2
_symmetry_cell_setting 'triclinic'
loop_
_space_group_symop_operation_xyz
x,y,z
-x,-y,-z
loop_
_atom_site_type_symbol
_atom_site_label
_atom_site_fract_x
_atom_site_fract_y
_atom_site_fract_z
Si Si1 0.889091 0.106766 0.006537
Si Si2 0.933010 0.440601 0.772144
Si Si3 0.536875 0.171673 0.693208
Si Si4 0.433691 0.629053 0.543264
Si Si5 0.959614 0.739362 0.054129
Si Si6 0.685321 0.819017 0.583876
O O1 0.068127 0.158660 0.958054
O O2 0.702564 0.995357 0.801449
O O3 0.766790 0.257341 0.250083
O O4 0.000000 0.000000 0.000000
O O5 0.670394 0.435349 0.680920
O O6 0.062049 0.274093 0.566176
O O7 0.000000 0.500000 0.000000
O O8 0.042196 0.563731 0.825184
O O9 0.806571 0.203323 0.790039
O O10 0.505236 0.211234 0.579702
O O11 0.300192 0.251232 0.862991
O O12 0.500000 0.000000 0.500000
O O13 0.500000 0.500000 0.500000
O O14 0.624882 0.742362 0.632724
#
# Coordination Sequence:
#
# PCOD9071559 Si02
#       6
#     2   2   2   2   2   2
#     4  12  28  49  77 115 160 214 271 331 407 495
#     4  12  27  50  78 115 158 210 272 336 406 483
#     4  12  27  48  81 119 159 206 272 341 404 476
#     4  12  30  50  80 116 162 215 270 336 414 494
#     4  12  29  48  81 118 162 209 271 335 410 483
#     4  12  27  48  82 111 157 212 274 334 404 485
#
# _framework density 25.325901000000002
#
# number of rings (size 3 to 8) (size 9 to 14) (size 15 to 20)
#    0.000    0.000    5.000    3.000    9.333    2.667 
#    0.000    0.000    0.000    0.000    0.000    0.000 
#    0.000    0.000    0.000    0.000    0.000    0.000 
#
# Total GULP energy -67088.748698 kJ/mol
# GULP energy per Si atom -5590.729058 kJ/mol
# Density = 2.526826 g / cm^3
# Si number density = 25.325901 Si / 1000 Ang^3
#
#
#
# Elastic Constant Matrix: (Units=GPa)
#
#
# Indices 1 2 3 4 5 6 
#
# 1 43.6554 11.1319 30.6304 -7.4890 7.5558 -15.5701
# 2 11.1319 205.9868 41.1617 -0.8062 7.1905 -5.6144
# 3 30.6304 41.1617 106.5130 8.0823 10.4869 -6.4679
# 4 -7.4890 -0.8062 8.0823 53.3918 -5.3214 3.1544
# 5 7.5558 7.1905 10.4869 -5.3214 31.9083 4.4144
# 6 -15.5701 -5.6144 -6.4679 3.1544 4.4144 47.3364
#
#
#
# Elastic Compliance Matrix: (Units=1/GPa)
#
#
# Indices 1 2 3 4 5 6 
#
# 1 0.035061 0.000506 -0.009449 0.005146 -0.005907 0.010509
# 2 0.000506 0.005290 -0.002124 0.000378 -0.000625 0.000537
# 3 -0.009449 -0.002124 0.013333 -0.003520 -0.002100 -0.001108
# 4 0.005146 0.000378 -0.003520 0.020343 0.003302 -0.000407
# 5 -0.005907 -0.000625 -0.002100 0.003302 0.034920 -0.005780
# 6 0.010509 0.000537 -0.001108 -0.000407 -0.005780 0.025061
#
#
# Mechanical properties :
#
#
# Convention : Reuss Voigt Hill
#
# Bulk Modulus (GPa) = 31.69633 58.00035 44.84834
# Shear Modulus (GPa) = 30.00162 44.74273 37.37217
#
# Velocity S-wave (km/s) = 3.44557 4.20775 3.84559
# Velocity P-wave (km/s) = 5.32652 6.82335 6.12086
#
# Compressibility (1/GPa) = 0.03154939
#
# Stress axis : x y z
#
# Youngs Moduli (GPa) = 28.52193 189.04465 75.00025
#
# Poissons Ratio (x) = -0.09569 0.70868
# Poissons Ratio (y) = -0.01444 0.15933
# Poissons Ratio (z) = 0.26950 0.40160
#
# Static dielectric constant tensor:
#      x y z
#    x 2.202400 0.055600 0.027110 
#    y 0.055600 2.032560 -0.033950 
#    z 0.027110 -0.033950 2.132310 
# 
# From -- ./inp_files/65730.got.cif
#   From: 2010.05.17/outbox.cif.g08.bks.cpg/sg2_33_cif.got.tgz:65730.got - 2010.06.03 11:33:40.
