data_PCOD9071013
_publ_section_title
;
Structure prediction by ZEFSAII (Michael W. Deem and Ramdas Pophale) SiO2 
 PCOD9071013
Probable space group: P -1
;
_chemical_formula_sum "Si O2"
_cell_formula_units_Z 14
_cell_length_a 17.552592
_cell_length_b 11.162209
_cell_length_c 16.821712
_cell_angle_alpha 150.977102
_cell_angle_beta 161.828314
_cell_angle_gamma 33.500574
_cell_volume 498.567420
_symmetry_space_group_name_H-M "P -1"
_symmetry_group_IT_number 2
_symmetry_cell_setting 'triclinic'
loop_
_space_group_symop_operation_xyz
x,y,z
-x,-y,-z
loop_
_atom_site_type_symbol
_atom_site_label
_atom_site_fract_x
_atom_site_fract_y
_atom_site_fract_z
Si Si1 0.000002 0.908920 0.136309
Si Si2 0.588350 0.268736 0.959847
Si Si3 0.325768 0.977221 0.651507
Si Si4 0.325763 0.522774 0.500021
Si Si5 0.000000 0.500000 0.500000
Si Si6 0.000003 0.434689 0.644899
Si Si7 0.411650 0.922985 0.437395
Si Si8 0.000000 0.000000 0.000000
O O1 0.165836 0.879652 0.361225
O O2 0.104451 0.949437 0.173419
O O3 0.834173 0.673136 0.823044
O O4 0.895551 0.191967 0.207051
O O5 0.319491 0.442324 0.810109
O O6 0.556698 0.090822 0.902651
O O7 0.500001 0.108148 0.702718
O O8 0.385125 0.755155 0.640281
O O9 0.181808 0.198281 0.682324
O O10 0.181805 0.604985 0.484556
O O11 0.556696 0.356211 0.657778
O O12 0.892247 0.471269 0.471205
O O13 0.107757 0.705665 0.921109
O O14 0.319493 0.087214 0.358409
#
# Coordination Sequence:
#
# PCOD9071013 Si02
#       8
#     2   2   2   2   1   2   2   1
#     4  12  26  52  78 118 159 209 270 332 382 480
#     4  12  25  48  80 117 155 209 267 330 402 469
#     4  12  29  51  79 116 165 214 263 326 404 480
#     4  12  29  51  79 116 165 214 263 326 404 480
#     4  12  26  48  78 118 154 204 264 344 388 470
#     4  12  26  50  80 116 161 203 270 334 402 466
#     4  12  25  48  80 117 155 209 267 330 402 469
#     4  12  26  48  78 118 154 204 264 344 388 470
#
# _framework density 28.080454
#
# number of rings (size 3 to 8) (size 9 to 14) (size 15 to 20)
#    0.000    0.000    5.714    2.571    0.000    6.857 
#    0.000    1.429    0.000    0.000    0.000    0.000 
#    0.000    0.000    0.000    0.000    0.000    0.000 
#
# Total GULP energy -78315.671352 kJ/mol
# GULP energy per Si atom -5593.976525 kJ/mol
# Density = 2.801654 g / cm^3
# Si number density = 28.080454 Si / 1000 Ang^3
#
#
#
# Elastic Constant Matrix: (Units=GPa)
#
#
# Indices 1 2 3 4 5 6 
#
# 1 229.5467 137.9977 50.1647 18.4531 11.2443 11.8380
# 2 137.9977 245.5057 66.2089 11.8632 19.8499 27.8385
# 3 50.1647 66.2089 145.0863 -4.3791 16.8584 29.4244
# 4 18.4531 11.8632 -4.3791 54.5040 -5.6318 -5.7723
# 5 11.2443 19.8499 16.8584 -5.6318 57.3449 13.8568
# 6 11.8380 27.8385 29.4244 -5.7723 13.8568 75.9553
#
#
#
# Elastic Compliance Matrix: (Units=1/GPa)
#
#
# Indices 1 2 3 4 5 6 
#
# 1 0.006785 -0.003553 -0.000855 -0.001554 -0.000118 0.000479
# 2 -0.003553 0.006718 -0.001501 -0.000606 -0.000957 -0.001198
# 3 -0.000855 -0.001501 0.008509 0.000933 -0.001159 -0.002330
# 4 -0.001554 -0.000606 0.000933 0.019402 0.001846 0.001240
# 5 -0.000118 -0.000957 -0.001159 0.001846 0.018917 -0.002493
# 6 0.000479 -0.001198 -0.002330 0.001240 -0.002493 0.014982
#
#
# Mechanical properties :
#
#
# Convention : Reuss Voigt Hill
#
# Bulk Modulus (GPa) = 98.10637 125.43126 111.76881
# Shear Modulus (GPa) = 55.23073 61.94533 58.58803
#
# Velocity S-wave (km/s) = 4.43976 4.70190 4.57271
# Velocity P-wave (km/s) = 7.82914 8.61642 8.23219
#
# Compressibility (1/GPa) = 0.01019302
#
# Stress axis : x y z
#
# Youngs Moduli (GPa) = 147.37733 148.85831 117.52823
#
# Poissons Ratio (x) = 0.52892 0.10050
# Poissons Ratio (y) = 0.52365 0.17642
# Poissons Ratio (z) = 0.12602 0.22345
#
# Static dielectric constant tensor:
#      x y z
#    x 2.100010 -0.125870 0.060430 
#    y -0.125870 2.134570 -0.226520 
#    z 0.060430 -0.226520 2.640140 
# 
# From -- ./inp_files/424702.got.cif
#   From: 2010.05.17/outbox.cif.g08.bks.cpg/sg2_213_cif.got.tgz:424702.got - 2010.06.03 11:33:40.
