data_PCOD9071764
_publ_section_title
;
Structure prediction by ZEFSAII (Michael W. Deem and Ramdas Pophale) SiO2 
 PCOD9071764
Probable space group: P -1
;
_chemical_formula_sum "Si O2"
_cell_formula_units_Z 16
_cell_length_a 25.686057
_cell_length_b 18.818494
_cell_length_c 13.488524
_cell_angle_alpha 18.085656
_cell_angle_beta 156.565581
_cell_angle_gamma 163.858113
_cell_volume 561.990346
_symmetry_space_group_name_H-M "P -1"
_symmetry_group_IT_number 2
_symmetry_cell_setting 'triclinic'
loop_
_space_group_symop_operation_xyz
x,y,z
-x,-y,-z
loop_
_atom_site_type_symbol
_atom_site_label
_atom_site_fract_x
_atom_site_fract_y
_atom_site_fract_z
Si Si1 0.095965 0.707297 0.253416
Si Si2 0.285261 0.517060 0.117117
Si Si3 0.413617 0.122655 0.416918
Si Si4 0.824056 0.083209 0.367910
Si Si5 0.111367 0.354753 0.351633
Si Si6 0.361805 0.871530 0.337455
Si Si7 0.716101 0.749297 0.351554
Si Si8 0.149240 0.985977 0.267975
O O1 0.271175 0.982716 0.261947
O O2 0.171467 0.695578 0.297244
O O3 0.980002 0.353283 0.567761
O O4 0.936124 0.696030 0.976167
O O5 0.356578 0.544742 0.314718
O O6 0.294087 0.284430 0.386159
O O7 0.370129 0.838361 0.782213
O O8 0.346143 0.242450 0.213608
O O9 0.601032 0.280627 0.476557
O O10 0.809464 0.063272 0.486436
O O11 0.028896 0.284743 0.410265
O O12 0.790392 0.288002 0.988318
O O13 0.243182 0.312231 0.602651
O O14 0.917224 0.079514 0.313034
O O15 0.500000 0.000000 0.500000
O O16 0.405132 0.173615 0.964323
O O17 0.000000 0.000000 0.000000
#
# Coordination Sequence:
#
# PCOD9071764 Si02
#       8
#     2   2   2   2   2   2   2   2
#     4  10  19  36  57  79 106 140 182 220 259 310
#     4  10  19  33  58  82 105 135 179 227 261 307
#     4  10  21  36  53  79 110 142 177 215 264 317
#     4  10  18  29  49  81 109 131 167 220 273 303
#     4   9  18  31  54  83 107 131 175 228 261 305
#     4  10  21  35  55  78 105 139 178 219 261 316
#     4  10  18  33  55  79 105 139 178 219 267 309
#     4  11  20  32  55  80 108 139 175 219 261 310
#
# _framework density 28.470241999999999
#
# number of rings (size 3 to 8) (size 9 to 14) (size 15 to 20)
#    0.000    2.000    0.000    7.500    0.000    1.500 
#    0.000    0.625    0.000   24.750    0.000    0.000 
#    0.000    0.000    0.000    0.000    0.000    0.000 
#
# Total GULP energy -89499.370676 kJ/mol
# GULP energy per Si atom -5593.710667 kJ/mol
# Density = 2.840544 g / cm^3
# Si number density = 28.470242 Si / 1000 Ang^3
#
#
#
# Elastic Constant Matrix: (Units=GPa)
#
#
# Indices 1 2 3 4 5 6 
#
# 1 205.8372 30.6797 36.7384 16.1867 28.0136 21.9784
# 2 30.6797 71.2565 40.7813 27.5952 8.5311 18.1014
# 3 36.7384 40.7813 160.1852 8.8002 6.1075 13.4876
# 4 16.1867 27.5952 8.8002 50.4241 10.7912 6.6647
# 5 28.0136 8.5311 6.1075 10.7912 67.6391 -0.0848
# 6 21.9784 18.1014 13.4876 6.6647 -0.0848 37.6516
#
#
#
# Elastic Compliance Matrix: (Units=1/GPa)
#
#
# Indices 1 2 3 4 5 6 
#
# 1 0.005729 -0.000997 -0.000745 -0.000374 -0.002123 -0.002537
# 2 -0.000997 0.022836 -0.004410 -0.010395 -0.000419 -0.006978
# 3 -0.000745 -0.004410 0.007493 0.001403 -0.000036 -0.000377
# 4 -0.000374 -0.010395 0.001403 0.025982 -0.002806 0.000108
# 5 -0.002123 -0.000419 -0.000036 -0.002806 0.016170 0.001987
# 6 -0.002537 -0.006978 -0.000377 0.000108 0.001987 0.031515
#
#
# Mechanical properties :
#
#
# Convention : Reuss Voigt Hill
#
# Bulk Modulus (GPa) = 42.10092 72.63086 57.36589
# Shear Modulus (GPa) = 38.47731 53.08158 45.77945
#
# Velocity S-wave (km/s) = 3.68025 4.32262 4.01431
# Velocity P-wave (km/s) = 5.73400 7.10492 6.45596
#
# Compressibility (1/GPa) = 0.02375245
#
# Stress axis : x y z
#
# Youngs Moduli (GPa) = 174.55082 43.79108 133.46553
#
# Poissons Ratio (x) = 0.04365 0.09944
# Poissons Ratio (y) = 0.17400 0.58865
# Poissons Ratio (z) = 0.13005 0.19314
#
# Static dielectric constant tensor:
#      x y z
#    x 2.268610 0.044370 -0.011810 
#    y 0.044370 2.342150 -0.081260 
#    z -0.011810 -0.081260 2.236200 
# 
# From -- ./inp_files/504347.got.cif
#   From: 2010.05.17/outbox.cif.g08.bks.cpg/sg2_253_cif.got.tgz:504347.got - 2010.06.03 11:33:40.
