data_PCOD9071124
_publ_section_title
;
Structure prediction by ZEFSAII (Michael W. Deem and Ramdas Pophale) SiO2 
 PCOD9071124
Probable space group: P -1
;
_chemical_formula_sum "Si O2"
_cell_formula_units_Z 12
_cell_length_a 11.018526
_cell_length_b 9.209678
_cell_length_c 9.518439
_cell_angle_alpha 86.276833
_cell_angle_beta 136.169984
_cell_angle_gamma 117.640813
_cell_volume 532.216623
_symmetry_space_group_name_H-M "P -1"
_symmetry_group_IT_number 2
_symmetry_cell_setting 'triclinic'
loop_
_space_group_symop_operation_xyz
x,y,z
-x,-y,-z
loop_
_atom_site_type_symbol
_atom_site_label
_atom_site_fract_x
_atom_site_fract_y
_atom_site_fract_z
Si Si1 0.213474 0.707033 0.184377
Si Si2 0.466376 0.602290 0.589533
Si Si3 0.702632 0.502247 0.230089
Si Si4 0.427809 0.835337 0.055386
Si Si5 0.077933 0.917457 0.467780
Si Si6 0.044459 0.152445 0.927682
O O1 0.389759 0.706902 0.428736
O O2 0.279672 0.782616 0.074516
O O3 0.122198 0.800707 0.184522
O O4 0.000000 0.500000 0.000000
O O5 0.500000 0.500000 0.500000
O O6 0.317590 0.523523 0.614040
O O7 0.700617 0.691546 0.852573
O O8 0.940531 0.698947 0.391157
O O9 0.500000 0.500000 0.000000
O O10 0.670356 0.340602 0.117179
O O11 0.662589 0.935028 0.319990
O O12 0.500000 0.000000 0.000000
O O13 0.996062 0.929180 0.251412
O O14 0.000000 0.000000 0.500000
O O15 0.000000 0.000000 0.000000
#
# Coordination Sequence:
#
# PCOD9071124 Si02
#       6
#     2   2   2   2   2   2
#     4  12  28  50  79 114 156 206 264 319 390 466
#     4  12  26  48  79 110 153 203 254 326 387 458
#     4  12  25  50  80 111 152 206 261 316 396 465
#     4  12  30  50  75 116 157 200 260 324 387 464
#     4  12  27  48  80 112 152 202 261 321 389 467
#     4  12  28  47  77 112 151 199 259 320 389 459
#
# _framework density 22.54721
#
# number of rings (size 3 to 8) (size 9 to 14) (size 15 to 20)
#    0.000    0.000    5.000    3.000   11.667    2.000 
#    0.000    0.000    0.000    0.000    0.000    0.000 
#    0.000    0.000    0.000    0.000    0.000    0.000 
#
# Total GULP energy -66842.169415 kJ/mol
# GULP energy per Si atom -5570.180785 kJ/mol
# Density = 2.249589 g / cm^3
# Si number density = 22.547210 Si / 1000 Ang^3
#
#
#
# Elastic Constant Matrix: (Units=GPa)
#
#
# Indices 1 2 3 4 5 6 
#
# 1 89.3476 27.2254 47.2016 -8.1537 -24.1277 19.3173
# 2 27.2254 72.1194 15.1010 -0.6370 -16.9881 3.7362
# 3 47.2016 15.1010 124.3159 -2.4073 -33.6657 -8.0143
# 4 -8.1537 -0.6370 -2.4073 57.1782 5.2041 -0.6941
# 5 -24.1277 -16.9881 -33.6657 5.2041 55.5303 -10.2969
# 6 19.3173 3.7362 -8.0143 -0.6941 -10.2969 47.7945
#
#
#
# Elastic Compliance Matrix: (Units=1/GPa)
#
#
# Indices 1 2 3 4 5 6 
#
# 1 0.018295 -0.004911 -0.006610 0.002109 0.000772 -0.007922
# 2 -0.004911 0.016322 0.001025 -0.000807 0.003872 0.001703
# 3 -0.006610 0.001025 0.012480 -0.000898 0.006206 0.006008
# 4 0.002109 -0.000807 -0.000898 0.017889 -0.001747 -0.001057
# 5 0.000772 0.003872 0.006206 -0.001747 0.024508 0.005680
# 6 -0.007922 0.001703 0.006008 -0.001057 0.005680 0.026207
#
#
# Mechanical properties :
#
#
# Convention : Reuss Voigt Hill
#
# Bulk Modulus (GPa) = 38.30967 51.64879 44.97923
# Shear Modulus (GPa) = 34.38886 45.18426 39.78656
#
# Velocity S-wave (km/s) = 3.90961 4.48144 4.20526
# Velocity P-wave (km/s) = 6.11619 7.05227 6.60084
#
# Compressibility (1/GPa) = 0.02610307
#
# Stress axis : x y z
#
# Youngs Moduli (GPa) = 54.66036 61.26678 80.12857
#
# Poissons Ratio (x) = 0.30090 0.52969
# Poissons Ratio (y) = 0.26845 -0.08212
# Poissons Ratio (z) = 0.36133 -0.06279
#
# Static dielectric constant tensor:
#      x y z
#    x 1.745210 -0.028790 -0.006830 
#    y -0.028790 1.885260 -0.016450 
#    z -0.006830 -0.016450 1.740230 
# 
# From -- ./inp_files/234040.got.cif
#   From: 2010.05.17/outbox.cif.g08.bks.cpg/sg2_118_cif.got.tgz:234040.got - 2010.06.03 11:33:40.
