data_PCOD9071806
_publ_section_title
;
Structure prediction by ZEFSAII (Michael W. Deem and Ramdas Pophale) SiO2 
 PCOD9071806
Probable space group: P -1
;
_chemical_formula_sum "Si O2"
_cell_formula_units_Z 14
_cell_length_a 9.060084
_cell_length_b 7.013539
_cell_length_c 10.791479
_cell_angle_alpha 114.603508
_cell_angle_beta 55.549991
_cell_angle_gamma 114.317017
_cell_volume 499.714470
_symmetry_space_group_name_H-M "P -1"
_symmetry_group_IT_number 2
_symmetry_cell_setting 'triclinic'
loop_
_space_group_symop_operation_xyz
x,y,z
-x,-y,-z
loop_
_atom_site_type_symbol
_atom_site_label
_atom_site_fract_x
_atom_site_fract_y
_atom_site_fract_z
Si Si1 0.362753 0.118163 0.670111
Si Si2 0.714744 0.214421 0.178835
Si Si3 0.275825 0.525981 0.364161
Si Si4 0.341546 0.247258 0.457082
Si Si5 0.336156 0.230546 0.044667
Si Si6 0.873610 0.164484 0.633211
Si Si7 0.766061 0.426050 0.966216
O O1 0.270802 0.197909 0.616120
O O2 0.317303 0.981477 0.960201
O O3 0.500000 0.000000 0.500000
O O4 0.243362 0.932163 0.764137
O O5 0.485015 0.677582 0.290620
O O6 0.558866 0.318905 0.345246
O O7 0.802268 0.398064 0.086259
O O8 0.249885 0.419372 0.481231
O O9 0.145485 0.677506 0.427114
O O10 0.254276 0.321317 0.228879
O O11 0.315497 0.020527 0.333054
O O12 0.555225 0.323268 0.990267
O O13 0.226071 0.329426 0.015557
O O14 0.884002 0.305807 0.789226
O O15 0.000000 0.000000 0.500000
#
# Coordination Sequence:
#
# PCOD9071806 Si02
#       7
#     2   2   2   2   2   2   2
#     4  10  20  34  52  84 115 142 173 226 288 327
#     4  11  18  31  53  84 114 132 173 224 290 323
#     4  11  20  36  57  84 114 140 180 227 282 327
#     4  11  21  35  56  82 116 143 180 224 278 330
#     4  10  18  29  51  83 109 130 170 231 282 317
#     4  11  23  38  53  78 115 152 186 218 260 328
#     4  10  18  30  51  79 106 137 173 227 275 316
#
# _framework density 28.015999999999998
#
# number of rings (size 3 to 8) (size 9 to 14) (size 15 to 20)
#    0.000    1.429    5.714    3.429    0.000    0.571 
#    0.000    0.000    0.000    0.857    0.000   10.000 
#    0.000    0.000    0.000    0.000    0.000    0.000 
#
# Total GULP energy -78070.990367 kJ/mol
# GULP energy per Si atom -5576.499312 kJ/mol
# Density = 2.795223 g / cm^3
# Si number density = 28.016000 Si / 1000 Ang^3
#
#
#
# Elastic Constant Matrix: (Units=GPa)
#
#
# Indices 1 2 3 4 5 6 
#
# 1 50.1786 58.4719 49.9594 -3.8687 -4.5700 -25.8742
# 2 58.4719 181.1279 73.0733 -34.8576 4.5729 -57.4055
# 3 49.9594 73.0733 135.8316 -7.3324 2.1219 -36.9755
# 4 -3.8687 -34.8576 -7.3324 74.0935 -7.9445 12.5314
# 5 -4.5700 4.5729 2.1219 -7.9445 29.1122 6.5572
# 6 -25.8742 -57.4055 -36.9755 12.5314 6.5572 44.3209
#
#
#
# Elastic Compliance Matrix: (Units=1/GPa)
#
#
# Indices 1 2 3 4 5 6 
#
# 1 0.043640 -0.009258 -0.009989 -0.003156 0.007045 0.005002
# 2 -0.009258 0.012757 -0.000290 0.003139 -0.004996 0.010728
# 3 -0.009989 -0.000290 0.012586 -0.000667 -0.003757 0.005037
# 4 -0.003156 0.003139 -0.000667 0.015760 0.004127 -0.003399
# 5 0.007045 -0.004996 -0.003757 0.004127 0.040489 -0.012649
# 6 0.005002 0.010728 0.005037 -0.003399 -0.012649 0.046413
#
#
# Mechanical properties :
#
#
# Convention : Reuss Voigt Hill
#
# Bulk Modulus (GPa) = 33.43498 81.12749 57.28123
# Shear Modulus (GPa) = 22.65633 41.88088 32.26860
#
# Velocity S-wave (km/s) = 2.84684 3.87058 3.39749
# Velocity P-wave (km/s) = 4.77139 6.99968 5.99006
#
# Compressibility (1/GPa) = 0.02990880
#
# Stress axis : x y z
#
# Youngs Moduli (GPa) = 22.91480 78.38907 79.45293
#
# Poissons Ratio (x) = 0.72571 0.79368
# Poissons Ratio (y) = 0.21214 0.02304
# Poissons Ratio (z) = 0.22890 0.02273
#
# Static dielectric constant tensor:
#      x y z
#    x 2.781530 0.114670 0.054970 
#    y 0.114670 2.227150 -0.076240 
#    z 0.054970 -0.076240 2.193940 
# 
# From -- ./inp_files/235534.got.cif
#   From: 2010.05.17/outbox.cif.g08.bks.cpg/sg2_118_cif.got.tgz:235534.got - 2010.06.03 11:33:40.
