data_PCOD9071970
_publ_section_title
;
Structure prediction by ZEFSAII (Michael W. Deem and Ramdas Pophale) SiO2 
 PCOD9071970
Probable space group: P -1
;
_chemical_formula_sum "Si O2"
_cell_formula_units_Z 16
_cell_length_a 9.000000
_cell_length_b 15.000000
_cell_length_c 15.000000
_cell_angle_alpha 140.000000
_cell_angle_beta 100.000000
_cell_angle_gamma 50.000000
_cell_volume 759.999475
_symmetry_space_group_name_H-M "P -1"
_symmetry_group_IT_number 2
_symmetry_cell_setting 'triclinic'
loop_
_space_group_symop_operation_xyz
x,y,z
-x,-y,-z
loop_
_atom_site_type_symbol
_atom_site_label
_atom_site_fract_x
_atom_site_fract_y
_atom_site_fract_z
Si Si1 0.890234 0.662221 0.821235
Si Si2 0.648335 0.026171 0.928872
Si Si3 0.599955 0.609024 0.250978
Si Si4 0.214853 0.197302 0.416226
Si Si5 0.853692 0.879973 0.467743
Si Si6 0.265591 0.162266 0.742883
Si Si7 0.722752 0.520064 0.996590
Si Si8 0.545587 0.551784 0.818810
O O1 0.803041 0.851028 0.893263
O O2 0.139750 0.507481 0.785658
O O3 0.971799 0.472822 0.621522
O O4 0.645141 0.808606 0.967437
O O5 0.767925 0.881178 0.738777
O O6 0.614205 0.215714 0.070963
O O7 0.636438 0.540504 0.099660
O O8 0.574952 0.508046 0.243182
O O9 0.320251 0.883949 0.423053
O O10 0.223222 0.079660 0.407262
O O11 0.474935 0.089242 0.382241
O O12 0.769925 0.808130 0.345422
O O13 0.154552 0.673909 0.343856
O O14 0.263911 0.323287 0.895715
O O15 0.018849 0.260111 0.820805
O O16 0.554826 0.588558 0.951760
#
# Coordination Sequence:
#
# PCOD9071970 Si02
#       8
#     2   2   2   2   2   2   2   2
#     4  11  25  41  64  89 118 153 209 251 293 348
#     4  11  24  43  63  89 115 158 206 254 290 342
#     4  12  22  37  58  89 124 163 192 237 304 363
#     4  12  19  37  65  90 116 153 197 252 303 345
#     4  11  21  34  58  90 123 155 193 240 305 357
#     4  10  18  31  57  89 120 146 190 249 294 349
#     4  10  20  32  56  91 118 153 193 242 301 357
#     4  11  23  38  58  85 128 161 195 241 296 360
#
# _framework density 21.052645999999999
#
# number of rings (size 3 to 8) (size 9 to 14) (size 15 to 20)
#    0.000    1.000    5.000    3.000    1.750    0.500 
#    0.000    0.000    0.000    0.750    0.000    0.000 
#    0.000    0.000    0.000    0.000    0.000    0.000 
#
# Total GULP energy -89140.620481 kJ/mol
# GULP energy per Si atom -5571.288780 kJ/mol
# Density = 2.100473 g / cm^3
# Si number density = 21.052646 Si / 1000 Ang^3
#
#
#
# Elastic Constant Matrix: (Units=GPa)
#
#
# Indices 1 2 3 4 5 6 
#
# 1 -49.4872 70.1290 41.6624 47.9879 72.7544 -7.0404
# 2 70.1290 5.6488 9.8470 -8.1174 -35.0310 45.7143
# 3 41.6624 9.8470 85.6985 -0.1393 -31.0114 20.6300
# 4 47.9879 -8.1174 -0.1393 17.0246 -20.7027 14.6938
# 5 72.7544 -35.0310 -31.0114 -20.7027 -42.2063 29.1645
# 6 -7.0404 45.7143 20.6300 14.6938 29.1645 15.8287
#
#
#
# Elastic Compliance Matrix: (Units=1/GPa)
#
#
# Indices 1 2 3 4 5 6 
#
# 1 -0.144778 -0.226284 0.045275 0.111480 0.063833 0.309019
# 2 -0.226284 -0.246098 0.037274 0.157855 -0.001703 0.418117
# 3 0.045275 0.037274 0.006258 -0.035306 0.007201 -0.076160
# 4 0.111480 0.157855 -0.035306 -0.043469 -0.049565 -0.228619
# 5 0.063833 -0.001703 0.007201 -0.049565 0.068231 -0.055780
# 6 0.309019 0.418117 -0.076160 -0.228619 -0.055780 -0.592658
#
#
# Mechanical properties :
#
#
# Convention : Reuss Voigt Hill
#
# Bulk Modulus (GPa) = -1.48790 31.68190 15.09700
# Shear Modulus (GPa) = -5.62382 -7.18915 -6.40648
#
# Velocity S-wave (km/s) = -1.63619 -1.84993 -1.74633
# Velocity P-wave (km/s) = 2.06828 3.24323 1.76646
#
# Compressibility (1/GPa) = -0.67208906
#
# Stress axis : x y z
#
# Youngs Moduli (GPa) = -6.90712 -4.06342 159.80618
#
# Poissons Ratio (x) = -0.91949 -7.23529
# Poissons Ratio (y) = -1.56297 -5.95659
# Poissons Ratio (z) = 0.31272 0.15146
#
# Static dielectric constant tensor:
#      x y z
#    x 1.825320 0.032070 0.007350 
#    y 0.032070 1.712250 -0.006680 
#    z 0.007350 -0.006680 1.951270 
# 
# From -- ./inp_files/349904.got.cif
#   From: 2010.05.17/outbox.ucp.g08.bks.cvg/sg2_175_cif.got.tgz:349904.got - 2010.06.11 11:32:03.
