data_PCOD9071001
_publ_section_title
;
Structure prediction by ZEFSAII (Michael W. Deem and Ramdas Pophale) SiO2 
 PCOD9071001
Probable space group: P -1
;
_chemical_formula_sum "Si O2"
_cell_formula_units_Z 14
_cell_length_a 9.660143
_cell_length_b 17.238952
_cell_length_c 12.053591
_cell_angle_alpha 159.357491
_cell_angle_beta 70.612022
_cell_angle_gamma 111.262644
_cell_volume 659.305261
_symmetry_space_group_name_H-M "P -1"
_symmetry_group_IT_number 2
_symmetry_cell_setting 'triclinic'
loop_
_space_group_symop_operation_xyz
x,y,z
-x,-y,-z
loop_
_atom_site_type_symbol
_atom_site_label
_atom_site_fract_x
_atom_site_fract_y
_atom_site_fract_z
Si Si1 0.050083 0.109812 0.252054
Si Si2 0.647918 0.067767 0.626461
Si Si3 0.535401 0.257705 0.366956
Si Si4 0.685829 0.493014 0.339665
Si Si5 0.136984 0.666510 0.234962
Si Si6 0.378229 0.342251 0.753500
Si Si7 0.846602 0.330986 0.295511
O O1 0.185128 0.311459 0.474432
O O2 0.916636 0.213244 0.482165
O O3 0.106616 0.914194 0.046507
O O4 0.000000 0.000000 0.000000
O O5 0.788816 0.135027 0.599289
O O6 0.500000 0.000000 0.500000
O O7 0.665887 0.878134 0.456580
O O8 0.641721 0.290851 0.996018
O O9 0.460041 0.387450 0.464313
O O10 0.450766 0.292377 0.550131
O O11 0.714122 0.329977 0.420291
O O12 0.500000 0.000000 0.000000
O O13 0.762543 0.396309 0.295568
O O14 0.252233 0.495566 0.986124
O O15 0.000000 0.500000 0.000000
O O16 0.500000 0.500000 0.000000
O O17 0.000000 0.500000 0.500000
#
# Coordination Sequence:
#
# PCOD9071001 Si02
#       7
#     2   2   2   2   2   2   2
#     4  12  27  50  76 114 161 199 251 320 389 458
#     4  12  26  49  79 111 151 202 262 312 386 459
#     4  12  25  48  79 107 153 202 252 319 381 451
#     4  12  25  49  77 115 152 200 264 314 380 464
#     4  12  27  50  77 112 157 199 255 323 385 460
#     4  12  27  49  76 111 150 200 261 315 384 453
#     4  12  28  47  77 117 153 201 256 316 393 458
#
# _framework density 21.234475
#
# number of rings (size 3 to 8) (size 9 to 14) (size 15 to 20)
#    0.000    0.000    7.143    1.286    4.000    4.000 
#    2.571    0.000    0.000    0.000    0.000    0.000 
#    0.000    0.000    0.000    0.000    0.000    0.000 
#
# Total GULP energy -78244.723570 kJ/mol
# GULP energy per Si atom -5588.908826 kJ/mol
# Density = 2.118614 g / cm^3
# Si number density = 21.234475 Si / 1000 Ang^3
#
#
#
# Elastic Constant Matrix: (Units=GPa)
#
#
# Indices 1 2 3 4 5 6 
#
# 1 164.3290 71.7560 75.3014 -10.3598 -2.0695 10.7409
# 2 71.7560 143.7614 85.3623 12.7232 -7.8043 4.1470
# 3 75.3014 85.3623 173.4898 -2.4194 -9.5530 -1.3837
# 4 -10.3598 12.7232 -2.4194 46.0246 2.9960 0.3852
# 5 -2.0695 -7.8043 -9.5530 2.9960 46.9487 2.4330
# 6 10.7409 4.1470 -1.3837 0.3852 2.4330 42.4072
#
#
#
# Elastic Compliance Matrix: (Units=1/GPa)
#
#
# Indices 1 2 3 4 5 6 
#
# 1 0.008861 -0.003341 -0.002216 0.002863 -0.000696 -0.001976
# 2 -0.003341 0.011608 -0.004258 -0.004260 0.001212 -0.000459
# 3 -0.002216 -0.004258 0.008894 0.001079 0.000873 0.001208
# 4 0.002863 -0.004260 0.001079 0.023730 -0.001857 -0.000382
# 5 -0.000696 0.001212 0.000873 -0.001857 0.021826 -0.001149
# 6 -0.001976 -0.000459 0.001208 -0.000382 -0.001149 0.024235
#
#
# Mechanical properties :
#
#
# Convention : Reuss Voigt Hill
#
# Bulk Modulus (GPa) = 102.74927 105.15773 103.95350
# Shear Modulus (GPa) = 40.97465 43.68681 42.33073
#
# Velocity S-wave (km/s) = 4.39752 4.54073 4.46970
# Velocity P-wave (km/s) = 8.61842 8.78183 8.70051
#
# Compressibility (1/GPa) = 0.00973243
#
# Stress axis : x y z
#
# Youngs Moduli (GPa) = 112.85882 86.15085 112.44153
#
# Poissons Ratio (x) = 0.28782 0.24919
# Poissons Ratio (y) = 0.37705 0.47872
# Poissons Ratio (z) = 0.25012 0.36679
#
# Static dielectric constant tensor:
#      x y z
#    x 1.739260 -0.016540 -0.009860 
#    y -0.016540 1.772910 -0.000900 
#    z -0.009860 -0.000900 1.733220 
# 
# From -- ./inp_files/403675.got.cif
#   From: 2010.05.17/outbox.cif.g08.bks.cpg/sg2_202_cif.got.tgz:403675.got - 2010.06.03 11:33:40.
