data_PCOD9071434
_publ_section_title
;
Structure prediction by ZEFSAII (Michael W. Deem and Ramdas Pophale) SiO2 
 PCOD9071434
Probable space group: P -1
;
_chemical_formula_sum "Si O2"
_cell_formula_units_Z 12
_cell_length_a 10.797031
_cell_length_b 7.850240
_cell_length_c 9.085859
_cell_angle_alpha 68.477201
_cell_angle_beta 42.215580
_cell_angle_gamma 91.458356
_cell_volume 423.495483
_symmetry_space_group_name_H-M "P -1"
_symmetry_group_IT_number 2
_symmetry_cell_setting 'triclinic'
loop_
_space_group_symop_operation_xyz
x,y,z
-x,-y,-z
loop_
_atom_site_type_symbol
_atom_site_label
_atom_site_fract_x
_atom_site_fract_y
_atom_site_fract_z
Si Si1 0.858352 0.949815 0.833800
Si Si2 0.932967 0.498643 0.229356
Si Si3 0.482834 0.574456 0.153796
Si Si4 0.702594 0.035861 0.529496
Si Si5 0.759993 0.303305 0.851019
Si Si6 0.715067 0.777016 0.340126
O O1 0.081176 0.959381 0.609426
O O2 0.681432 0.793495 0.932232
O O3 0.756078 0.853180 0.113505
O O4 0.876176 0.174874 0.739518
O O5 0.736677 0.263860 0.467407
O O6 0.884217 0.691659 0.231936
O O7 0.000000 0.500000 0.000000
O O8 0.120614 0.547577 0.164121
O O9 0.467023 0.424620 0.350717
O O10 0.500000 0.500000 0.000000
O O11 0.271594 0.589329 0.301106
O O12 0.474775 0.869735 0.840384
O O13 0.711832 0.963907 0.376173
#
# Coordination Sequence:
#
# PCOD9071434 Si02
#       6
#     2   2   2   2   2   2
#     4  12  26  51  83 115 162 211 275 331 399 473
#     4  12  26  49  82 121 160 209 269 331 405 470
#     4  12  27  50  78 120 163 216 263 329 408 480
#     4  12  26  49  81 119 159 209 267 334 398 468
#     4  12  28  52  80 120 163 211 271 327 406 483
#     4  12  26  52  81 118 159 212 271 332 396 478
#
# _framework density 28.335602000000002
#
# number of rings (size 3 to 8) (size 9 to 14) (size 15 to 20)
#    0.000    0.000    5.000    4.500    0.000    5.333 
#    3.000    0.000    0.000    0.000    0.000    0.000 
#    0.000    0.000    0.000    0.000    0.000    0.000 
#
# Total GULP energy -67159.252173 kJ/mol
# GULP energy per Si atom -5596.604348 kJ/mol
# Density = 2.827111 g / cm^3
# Si number density = 28.335602 Si / 1000 Ang^3
#
#
#
# Elastic Constant Matrix: (Units=GPa)
#
#
# Indices 1 2 3 4 5 6 
#
# 1 105.3445 40.2373 46.0450 -9.8114 -0.8415 13.5003
# 2 40.2373 136.1705 36.3205 -1.9693 5.2379 26.7499
# 3 46.0450 36.3205 177.1982 -14.6907 -6.1241 29.3318
# 4 -9.8114 -1.9693 -14.6907 50.1012 0.5059 -8.9405
# 5 -0.8415 5.2379 -6.1241 0.5059 52.3935 -4.2132
# 6 13.5003 26.7499 29.3318 -8.9405 -4.2132 64.0556
#
#
#
# Elastic Compliance Matrix: (Units=1/GPa)
#
#
# Indices 1 2 3 4 5 6 
#
# 1 0.011737 -0.002830 -0.002339 0.001500 0.000184 0.000001
# 2 -0.002830 0.009008 -0.000729 -0.000945 -0.001267 -0.003047
# 3 -0.002339 -0.000729 0.006873 0.001139 0.000655 -0.002148
# 4 0.001500 -0.000945 0.001139 0.020994 0.000250 0.002504
# 5 0.000184 -0.001267 0.000655 0.000250 0.019411 0.001502
# 6 0.000001 -0.003047 -0.002148 0.002504 0.001502 0.018316
#
#
# Mechanical properties :
#
#
# Convention : Reuss Voigt Hill
#
# Bulk Modulus (GPa) = 63.20117 73.76874 68.48495
# Shear Modulus (GPa) = 48.35181 53.05076 50.70128
#
# Velocity S-wave (km/s) = 4.13534 4.33162 4.23462
# Velocity P-wave (km/s) = 6.71969 7.14897 6.93765
#
# Compressibility (1/GPa) = 0.01582249
#
# Stress axis : x y z
#
# Youngs Moduli (GPa) = 85.20037 111.01369 145.49179
#
# Poissons Ratio (x) = 0.31414 0.34035
# Poissons Ratio (y) = 0.24109 0.10604
# Poissons Ratio (z) = 0.19931 0.08091
#
# Static dielectric constant tensor:
#      x y z
#    x 2.255300 -0.077110 -0.019700 
#    y -0.077110 2.239090 0.105880 
#    z -0.019700 0.105880 2.338250 
# 
# From -- ./inp_files/237432.got.cif
#   From: 2010.05.17/outbox.cif.g08.bks.cpg/sg2_119_cif.got.tgz:237432.got - 2010.06.03 11:33:40.
