data_PCOD9071513
_publ_section_title
;
Structure prediction by ZEFSAII (Michael W. Deem and Ramdas Pophale) SiO2 
 PCOD9071513
Probable space group: P -1
;
_chemical_formula_sum "Si O2"
_cell_formula_units_Z 12
_cell_length_a 15.872945
_cell_length_b 5.760765
_cell_length_c 16.387528
_cell_angle_alpha 99.222074
_cell_angle_beta 163.125889
_cell_angle_gamma 78.553360
_cell_volume 423.990823
_symmetry_space_group_name_H-M "P -1"
_symmetry_group_IT_number 2
_symmetry_cell_setting 'triclinic'
loop_
_space_group_symop_operation_xyz
x,y,z
-x,-y,-z
loop_
_atom_site_type_symbol
_atom_site_label
_atom_site_fract_x
_atom_site_fract_y
_atom_site_fract_z
Si Si1 0.500000 0.500000 0.500000
Si Si2 0.340666 0.246634 0.481857
Si Si3 0.000000 0.500000 0.000000
Si Si4 0.104136 0.093972 0.962281
Si Si5 0.492626 0.649450 0.763348
Si Si6 0.969469 0.943200 0.563714
Si Si7 0.501517 0.639484 0.093756
O O1 0.271170 0.329821 0.326337
O O2 0.315579 0.462847 0.245453
O O3 0.352804 0.460503 0.567141
O O4 0.089953 0.092518 0.263177
O O5 0.643305 0.063035 0.759070
O O6 0.125629 0.728237 0.181516
O O7 0.258925 0.226651 0.043840
O O8 0.235297 0.851457 0.567104
O O9 0.611109 0.503892 0.945090
O O10 0.288642 0.886197 0.895364
O O11 0.816925 0.706091 0.412274
O O12 0.000000 0.000000 0.500000
O O13 0.500000 0.500000 0.000000
#
# Coordination Sequence:
#
# PCOD9071513 Si02
#       7
#     1   2   1   2   2   2   2
#     4  12  26  54  82 118 160 212 282 336 406 500
#     4  12  30  55  82 121 167 222 275 345 419 494
#     4  12  26  54  82 118 160 212 282 336 406 500
#     4  12  30  55  82 121 167 222 275 345 419 494
#     4  12  30  56  80 126 176 214 290 346 428 492
#     4  12  28  53  85 121 161 220 278 350 419 498
#     4  12  28  53  85 121 161 220 278 350 419 498
#
# _framework density 28.302498
#
# number of rings (size 3 to 8) (size 9 to 14) (size 15 to 20)
#    0.000    0.000    3.333    4.000    0.000   12.000 
#    0.000    0.000    0.000    0.000    0.000    0.000 
#    0.000    0.000    0.000    0.000    0.000    0.000 
#
# Total GULP energy -67183.759336 kJ/mol
# GULP energy per Si atom -5598.646611 kJ/mol
# Density = 2.823808 g / cm^3
# Si number density = 28.302498 Si / 1000 Ang^3
#
#
#
# Elastic Constant Matrix: (Units=GPa)
#
#
# Indices 1 2 3 4 5 6 
#
# 1 236.4384 113.8654 39.1987 20.9077 -6.8114 12.8171
# 2 113.8654 173.3197 38.5666 12.7479 -4.0566 -13.9644
# 3 39.1987 38.5666 170.8853 17.5805 11.7688 -0.2024
# 4 20.9077 12.7479 17.5805 69.7582 5.9717 -4.4886
# 5 -6.8114 -4.0566 11.7688 5.9717 36.1060 1.6446
# 6 12.8171 -13.9644 -0.2024 -4.4886 1.6446 77.8377
#
#
#
# Elastic Compliance Matrix: (Units=1/GPa)
#
#
# Indices 1 2 3 4 5 6 
#
# 1 0.006631 -0.004276 -0.000509 -0.001310 0.001243 -0.001962
# 2 -0.004276 0.009015 -0.001084 0.000017 0.000452 0.002310
# 3 -0.000509 -0.001084 0.006474 -0.001105 -0.002140 -0.000112
# 4 -0.001310 0.000017 -0.001105 0.015288 -0.002466 0.001150
# 5 0.001243 0.000452 -0.002140 -0.002466 0.029127 -0.000887
# 6 -0.001962 0.002310 -0.000112 0.001150 -0.000887 0.013670
#
#
# Mechanical properties :
#
#
# Convention : Reuss Voigt Hill
#
# Bulk Modulus (GPa) = 96.31255 107.10056 101.70656
# Shear Modulus (GPa) = 52.40850 62.67455 57.54152
#
# Velocity S-wave (km/s) = 4.30784 4.71090 4.51387
# Velocity P-wave (km/s) = 7.67117 8.21667 7.94860
#
# Compressibility (1/GPa) = 0.01038286
#
# Stress axis : x y z
#
# Youngs Moduli (GPa) = 150.80720 110.92262 154.45775
#
# Poissons Ratio (x) = 0.47427 0.07865
# Poissons Ratio (y) = 0.64480 0.16743
# Poissons Ratio (z) = 0.07679 0.12024
#
# Static dielectric constant tensor:
#      x y z
#    x 1.967560 0.150010 0.051120 
#    y 0.150010 2.470590 0.499470 
#    z 0.051120 0.499470 1.524550 
# 
# From -- ./inp_files/525409.got.cif
#   From: 2010.05.17/outbox.cif.g08.bks.cpg/sg2_263_cif.got.tgz:525409.got - 2010.06.03 11:33:40.
