data_PCOD9071894
_publ_section_title
;
Structure prediction by ZEFSAII (Michael W. Deem and Ramdas Pophale) SiO2 
 PCOD9071894
Probable space group: P -1
;
_chemical_formula_sum "Si O2"
_cell_formula_units_Z 16
_cell_length_a 22.555906
_cell_length_b 12.750584
_cell_length_c 12.236883
_cell_angle_alpha 64.298696
_cell_angle_beta 138.266237
_cell_angle_gamma 149.559086
_cell_volume 929.612538
_symmetry_space_group_name_H-M "P -1"
_symmetry_group_IT_number 2
_symmetry_cell_setting 'triclinic'
loop_
_space_group_symop_operation_xyz
x,y,z
-x,-y,-z
loop_
_atom_site_type_symbol
_atom_site_label
_atom_site_fract_x
_atom_site_fract_y
_atom_site_fract_z
Si Si1 0.189637 0.220630 0.510891
Si Si2 0.528926 0.373450 0.086140
Si Si3 0.558825 0.652422 0.663125
Si Si4 0.301109 0.642291 0.968392
Si Si5 0.652659 0.043843 0.090551
Si Si6 0.885315 0.128281 0.497845
Si Si7 0.482711 0.304857 0.641567
Si Si8 0.245648 0.182545 0.928812
O O1 0.302143 0.400693 0.692241
O O2 0.342180 0.415949 0.530842
O O3 0.140656 0.025423 0.530126
O O4 0.981412 0.043800 0.291729
O O5 0.608862 0.532050 0.014553
O O6 0.330743 0.202821 0.939491
O O7 0.469673 0.172700 0.070450
O O8 0.573951 0.538824 0.688910
O O9 0.579078 0.762683 0.539905
O O10 0.713607 0.835203 0.894090
O O11 0.283199 0.750854 0.944413
O O12 0.102249 0.386284 0.738001
O O13 0.356880 0.606751 0.146938
O O14 0.493416 0.867660 0.050202
O O15 0.835079 0.176252 0.325691
O O16 0.714921 0.936270 0.444856
#
# Coordination Sequence:
#
# PCOD9071894 Si02
#       8
#     2   2   2   2   2   2   2   2
#     4  10  19  30  50  75  97 125 156 193 241 287
#     4  10  19  31  47  71 100 126 156 195 236 280
#     4   9  18  31  48  71 101 124 152 198 240 282
#     4  10  20  33  50  70  97 130 160 191 232 283
#     4  10  20  33  48  70  99 129 159 193 232 279
#     4  10  18  31  50  73  99 123 156 197 238 283
#     4   9  18  32  48  71  97 126 158 194 239 281
#     4  10  18  30  47  71  99 126 155 194 240 282
#
# _framework density 17.211471
#
# number of rings (size 3 to 8) (size 9 to 14) (size 15 to 20)
#    0.000    2.250    0.000    6.000    0.000    2.000 
#    0.000    3.750    0.000    3.000    0.000    5.250 
#    0.000    0.000    0.000    0.000    0.000    0.000 
#
# Total GULP energy -89178.123116 kJ/mol
# GULP energy per Si atom -5573.632695 kJ/mol
# Density = 1.717230 g / cm^3
# Si number density = 17.211471 Si / 1000 Ang^3
#
#
#
# Elastic Constant Matrix: (Units=GPa)
#
#
# Indices 1 2 3 4 5 6 
#
# 1 62.2413 23.6208 55.3868 -9.7476 -5.2696 -12.9023
# 2 23.6208 41.6227 45.5080 -14.6602 -5.7713 -14.0877
# 3 55.3868 45.5080 154.2183 -13.5658 6.3010 -7.1009
# 4 -9.7476 -14.6602 -13.5658 18.2426 1.8148 -3.3350
# 5 -5.2696 -5.7713 6.3010 1.8148 30.0536 0.0483
# 6 -12.9023 -14.0877 -7.1009 -3.3350 0.0483 19.5560
#
#
#
# Elastic Compliance Matrix: (Units=1/GPa)
#
#
# Indices 1 2 3 4 5 6 
#
# 1 0.035174 0.023255 -0.015310 0.032208 0.011834 0.039863
# 2 0.023255 0.125358 -0.031899 0.107166 0.028186 0.112270
# 3 -0.015310 -0.031899 0.018263 -0.024732 -0.011096 -0.030639
# 4 0.032208 0.107166 -0.024732 0.158905 0.021629 0.116514
# 5 0.011834 0.028186 -0.011096 0.021629 0.041737 0.027669
# 6 0.039863 0.112270 -0.030639 0.116514 0.027669 0.166988
#
#
# Mechanical properties :
#
#
# Convention : Reuss Voigt Hill
#
# Bulk Modulus (GPa) = 7.64015 56.34592 31.99304
# Shear Modulus (GPa) = 7.83746 22.47489 15.15617
#
# Velocity S-wave (km/s) = 2.13624 3.61752 2.97069
# Velocity P-wave (km/s) = 3.24551 7.08922 5.51318
#
# Compressibility (1/GPa) = 0.13088740
#
# Stress axis : x y z
#
# Youngs Moduli (GPa) = 28.42969 7.97718 54.75617
#
# Poissons Ratio (x) = -0.18551 0.83830
# Poissons Ratio (y) = -0.66113 1.74665
# Poissons Ratio (z) = 0.43525 0.25446
#
# Static dielectric constant tensor:
#      x y z
#    x 1.602680 -0.008550 -0.007900 
#    y -0.008550 1.594830 -0.014470 
#    z -0.007900 -0.014470 1.610800 
# 
# From -- ./inp_files/128741.got.cif
#   From: 2010.05.17/outbox.cif.g08.bks.cpg/sg2_65_cif.got.tgz:128741.got - 2010.06.03 11:33:40.
