data_PCOD9071185
_publ_section_title
;
Structure prediction by ZEFSAII (Michael W. Deem and Ramdas Pophale) SiO2 
 PCOD9071185
Probable space group: P -1
;
_chemical_formula_sum "Si O2"
_cell_formula_units_Z 14
_cell_length_a 4.850026
_cell_length_b 13.588043
_cell_length_c 13.111768
_cell_angle_alpha 135.632911
_cell_angle_beta 105.136557
_cell_angle_gamma 72.479426
_cell_volume 574.824187
_symmetry_space_group_name_H-M "P -1"
_symmetry_group_IT_number 2
_symmetry_cell_setting 'triclinic'
loop_
_space_group_symop_operation_xyz
x,y,z
-x,-y,-z
loop_
_atom_site_type_symbol
_atom_site_label
_atom_site_fract_x
_atom_site_fract_y
_atom_site_fract_z
Si Si1 0.103598 0.143289 0.655039
Si Si2 0.773840 0.007102 0.891859
Si Si3 0.832910 0.841877 0.094591
Si Si4 0.604164 0.359306 0.510074
Si Si5 0.504349 0.291235 0.662904
Si Si6 0.978964 0.437090 0.210926
Si Si7 0.052484 0.310494 0.339921
O O1 0.222771 0.129948 0.770859
O O2 0.327958 0.187857 0.629207
O O3 0.560972 0.255617 0.522651
O O4 0.000000 0.000000 0.500000
O O5 0.465328 0.102691 0.952288
O O6 0.923748 0.071466 0.858370
O O7 0.742936 0.843418 0.755026
O O8 0.000000 0.000000 0.000000
O O9 0.932706 0.676503 0.953332
O O10 0.822816 0.269545 0.724903
O O11 0.765059 0.476821 0.667818
O O12 0.281406 0.411334 0.473416
O O13 0.813715 0.299969 0.394539
O O14 0.300270 0.446175 0.757272
O O15 0.935826 0.347772 0.243109
#
# Coordination Sequence:
#
# PCOD9071185 Si02
#       7
#     2   2   2   2   2   2   2
#     4  12  29  53  79 109 146 198 262 320 374 442
#     4  12  27  50  75 116 154 198 249 307 380 459
#     4  12  30  48  79 111 154 204 248 315 380 445
#     4  12  26  45  73 111 150 201 243 317 367 445
#     4  12  27  50  75 109 147 197 258 315 372 442
#     4  12  28  47  76 112 159 199 254 302 388 459
#     4  12  27  43  78 110 157 198 252 305 379 450
#
# _framework density 24.355271999999999
#
# number of rings (size 3 to 8) (size 9 to 14) (size 15 to 20)
#    0.000    0.000    4.286    3.429   12.000    1.143 
#    0.000    0.000    0.000    0.000    0.000    0.000 
#    0.000    0.000    0.000    0.000    0.000    0.000 
#
# Total GULP energy -78459.512323 kJ/mol
# GULP energy per Si atom -5604.250880 kJ/mol
# Density = 2.429984 g / cm^3
# Si number density = 24.355272 Si / 1000 Ang^3
#
#
#
# Elastic Constant Matrix: (Units=GPa)
#
#
# Indices 1 2 3 4 5 6 
#
# 1 130.3347 20.2535 12.8564 -5.4568 -17.0063 -1.4330
# 2 20.2535 80.8444 29.5391 -6.8020 -9.5180 5.8939
# 3 12.8564 29.5391 104.9093 -10.7029 -3.6204 8.5925
# 4 -5.4568 -6.8020 -10.7029 28.6858 -2.9642 -9.3810
# 5 -17.0063 -9.5180 -3.6204 -2.9642 30.7158 -10.0095
# 6 -1.4330 5.8939 8.5925 -9.3810 -10.0095 56.8394
#
#
#
# Elastic Compliance Matrix: (Units=1/GPa)
#
#
# Indices 1 2 3 4 5 6 
#
# 1 0.008707 -0.001360 -0.000416 0.002264 0.005122 0.001699
# 2 -0.001360 0.014635 -0.003602 0.002233 0.003570 -0.000010
# 3 -0.000416 -0.003602 0.010957 0.002880 -0.000046 -0.000826
# 4 0.002264 0.002233 0.002880 0.040258 0.008632 0.007554
# 5 0.005122 0.003570 -0.000046 0.008632 0.040010 0.008236
# 6 0.001699 -0.000010 -0.000826 0.007554 0.008236 0.020459
#
#
# Mechanical properties :
#
#
# Convention : Reuss Voigt Hill
#
# Bulk Modulus (GPa) = 42.47400 49.04292 45.75846
# Shear Modulus (GPa) = 32.54580 40.14419 36.34499
#
# Velocity S-wave (km/s) = 3.65950 4.06430 3.86720
# Velocity P-wave (km/s) = 5.94417 6.49653 6.22648
#
# Compressibility (1/GPa) = 0.02354382
#
# Stress axis : x y z
#
# Youngs Moduli (GPa) = 114.85449 68.32826 91.26452
#
# Poissons Ratio (x) = 0.09291 0.03793
# Poissons Ratio (y) = 0.15617 0.32876
# Poissons Ratio (z) = 0.04773 0.24614
#
# Static dielectric constant tensor:
#      x y z
#    x 1.931870 0.004630 0.020560 
#    y 0.004630 1.995910 0.032830 
#    z 0.020560 0.032830 1.978530 
# 
# From -- ./inp_files/365234.got.cif
#   From: 2010.05.17/outbox.cif.g08.bks.cpg/sg2_183_cif.got.tgz:365234.got - 2010.06.03 11:33:40.
