data_PCOD9071993
_publ_section_title
;
Structure prediction by ZEFSAII (Michael W. Deem and Ramdas Pophale) SiO2 
 PCOD9071993
Probable space group: P -1
;
_chemical_formula_sum "Si O2"
_cell_formula_units_Z 16
_cell_length_a 18.000000
_cell_length_b 15.000000
_cell_length_c 12.000000
_cell_angle_alpha 150.000000
_cell_angle_beta 50.000000
_cell_angle_gamma 150.000000
_cell_volume 731.734496
_symmetry_space_group_name_H-M "P -1"
_symmetry_group_IT_number 2
_symmetry_cell_setting 'triclinic'
loop_
_space_group_symop_operation_xyz
x,y,z
-x,-y,-z
loop_
_atom_site_type_symbol
_atom_site_label
_atom_site_fract_x
_atom_site_fract_y
_atom_site_fract_z
Si Si1 0.511345 0.663523 0.760477
Si Si2 0.659466 0.304727 0.740538
Si Si3 0.025959 0.253642 0.739761
Si Si4 0.637082 0.221524 0.926089
Si Si5 0.157958 0.769749 0.469719
Si Si6 0.472160 0.301293 0.579351
Si Si7 0.133445 0.674085 0.901080
Si Si8 0.677777 0.677698 0.988353
O O1 0.500000 0.500000 0.500000
O O2 0.473027 0.488176 0.716401
O O3 0.387841 0.640149 0.827998
O O4 0.682469 0.024542 0.993300
O O5 0.602454 0.230147 0.842858
O O6 0.795768 0.352673 0.656423
O O7 0.500000 0.000000 0.500000
O O8 0.713193 0.570130 0.922755
O O9 0.088045 0.430309 0.753804
O O10 0.170234 0.524077 0.977451
O O11 0.000000 0.000000 0.500000
O O12 0.885243 0.179857 0.839931
O O13 0.540213 0.897775 0.697287
O O14 0.989043 0.513108 0.288234
O O15 0.306348 0.034660 0.524915
O O16 0.185190 0.966803 0.747015
O O17 0.633511 0.536477 0.756403
O O18 0.500000 0.500000 0.000000
#
# Coordination Sequence:
#
# PCOD9071993 Si02
#       8
#     2   2   2   2   2   2   2   2
#     4  12  27  41  64  90 130 174 210 257 321 376
#     4  11  18  34  63 100 119 155 215 266 306 362
#     4  11  24  40  66  88 122 166 216 265 316 364
#     4  11  22  40  64  95 123 164 213 265 306 382
#     4  10  21  37  65  92 125 159 208 264 308 370
#     4  10  21  39  63  91 123 164 211 253 309 376
#     4  11  25  44  59  94 130 161 212 267 314 373
#     4  10  18  32  60  94 122 155 206 261 307 367
#
# _framework density 21.865853999999999
#
# number of rings (size 3 to 8) (size 9 to 14) (size 15 to 20)
#    0.000    1.250    6.250    3.000    5.250    3.000 
#    0.000    0.625    0.000    1.500    0.000    0.000 
#    0.000    0.000    0.000    0.000    0.000    0.000 
#
# Total GULP energy -89235.082650 kJ/mol
# GULP energy per Si atom -5577.192666 kJ/mol
# Density = 2.181609 g / cm^3
# Si number density = 21.865854 Si / 1000 Ang^3
#
#
#
# Elastic Constant Matrix: (Units=GPa)
#
#
# Indices 1 2 3 4 5 6 
#
# 1 92.2382 7.5925 29.3024 18.1056 -21.7796 -3.9082
# 2 7.5925 16.7272 0.9954 10.5796 -4.7378 2.6843
# 3 29.3024 0.9954 123.4805 10.7623 -18.8810 6.0884
# 4 18.1056 10.5796 10.7623 21.3543 1.7157 0.9863
# 5 -21.7796 -4.7378 -18.8810 1.7157 58.6749 5.0721
# 6 -3.9082 2.6843 6.0884 0.9863 5.0721 12.0619
#
#
#
# Elastic Compliance Matrix: (Units=1/GPa)
#
#
# Indices 1 2 3 4 5 6 
#
# 1 0.015438 0.003036 -0.001809 -0.014310 0.005456 0.004116
# 2 0.003036 0.103139 0.007226 -0.057312 0.015841 -0.027591
# 3 -0.001809 0.007226 0.010133 -0.007093 0.004111 -0.008458
# 4 -0.014310 -0.057312 -0.007093 0.091702 -0.015842 0.010861
# 5 0.005456 0.015841 0.004111 -0.015842 0.023196 -0.012291
# 6 0.004116 -0.027591 -0.008458 0.010861 -0.012291 0.098929
#
#
# Mechanical properties :
#
#
# Convention : Reuss Voigt Hill
#
# Bulk Modulus (GPa) = 6.86742 34.24738 20.55740
# Shear Modulus (GPa) = 13.36288 31.38858 22.37573
#
# Velocity S-wave (km/s) = 2.47479 3.79292 3.20241
# Velocity P-wave (km/s) = 3.36357 5.90577 4.80582
#
# Compressibility (1/GPa) = 0.14561513
#
# Stress axis : x y z
#
# Youngs Moduli (GPa) = 64.77520 9.69570 98.68321
#
# Poissons Ratio (x) = -0.02944 0.17856
# Poissons Ratio (y) = -0.19665 -0.71309
# Poissons Ratio (z) = 0.11721 -0.07006
#
# Static dielectric constant tensor:
#      x y z
#    x 1.845020 0.027060 -0.000330 
#    y 0.027060 0.681940 1.110960 
#    z -0.000330 1.110960 0.625810 
# 
# From -- ./inp_files/346223.got.cif
#   From: 2010.05.17/outbox.ucp.g08.bks.cvg/sg2_174_cif.got.tgz:346223.got - 2010.06.11 11:32:03.
