data_PCOD9071900
_publ_section_title
;
Structure prediction by ZEFSAII (Michael W. Deem and Ramdas Pophale) SiO2 
 PCOD9071900
Probable space group: P -1
;
_chemical_formula_sum "Si O2"
_cell_formula_units_Z 16
_cell_length_a 17.092299
_cell_length_b 17.609303
_cell_length_c 16.072363
_cell_angle_alpha 163.850426
_cell_angle_beta 141.615794
_cell_angle_gamma 40.373903
_cell_volume 834.374986
_symmetry_space_group_name_H-M "P -1"
_symmetry_group_IT_number 2
_symmetry_cell_setting 'triclinic'
loop_
_space_group_symop_operation_xyz
x,y,z
-x,-y,-z
loop_
_atom_site_type_symbol
_atom_site_label
_atom_site_fract_x
_atom_site_fract_y
_atom_site_fract_z
Si Si1 0.148619 0.179659 0.271744
Si Si2 0.358736 0.669568 0.112093
Si Si3 0.792538 0.905573 0.367201
Si Si4 0.681039 0.370051 0.152104
Si Si5 0.081112 0.645080 0.839583
Si Si6 0.046939 0.578291 0.928192
Si Si7 0.571526 0.800469 0.195605
Si Si8 0.916590 0.743825 0.145669
O O1 0.119200 0.371614 0.530054
O O2 0.018420 0.175103 0.108289
O O3 0.218444 0.888167 0.038207
O O4 0.243433 0.361122 0.488580
O O5 0.380162 0.599192 0.959313
O O6 0.444287 0.909599 0.465366
O O7 0.212617 0.784689 0.112742
O O8 0.364300 0.418618 0.916908
O O9 0.661751 0.858058 0.254203
O O10 0.795797 0.805915 0.168717
O O11 0.843053 0.209944 0.736497
O O12 0.897860 0.714308 0.302067
O O13 0.565657 0.309888 0.052488
O O14 0.025408 0.577966 0.811931
O O15 0.924239 0.676281 0.983299
O O16 0.000000 0.000000 0.500000
O O17 0.000000 0.500000 0.000000
#
# Coordination Sequence:
#
# PCOD9071900 Si02
#       8
#     2   2   2   2   2   2   2   2
#     4  10  24  36  51  69  98 136 173 215 236 280
#     4  11  21  32  51  74  97 125 168 208 252 287
#     4  10  18  30  47  76 100 126 156 191 248 304
#     4  11  23  37  48  68 101 136 171 204 245 282
#     4  10  20  36  53  73  98 129 172 208 253 282
#     4  10  18  30  50  72 100 126 156 198 249 299
#     4  12  20  33  51  74  99 133 162 202 245 303
#     4   8  16  28  44  69 102 125 146 189 245 304
#
# _framework density 19.176030999999998
#
# number of rings (size 3 to 8) (size 9 to 14) (size 15 to 20)
#    0.000    1.750    2.500    3.000    0.000    6.500 
#    0.000    0.000    0.000    0.000    0.000    1.750 
#    0.000    0.000    0.000    0.000    0.000    0.000 
#
# Total GULP energy -89295.198232 kJ/mol
# GULP energy per Si atom -5580.949890 kJ/mol
# Density = 1.913239 g / cm^3
# Si number density = 19.176031 Si / 1000 Ang^3
#
#
#
# Elastic Constant Matrix: (Units=GPa)
#
#
# Indices 1 2 3 4 5 6 
#
# 1 114.1518 14.1455 -5.5483 -9.9859 6.9790 5.2634
# 2 14.1455 48.9928 6.8128 9.8106 -0.4286 -3.9334
# 3 -5.5483 6.8128 65.9943 21.1102 16.4738 -6.0521
# 4 -9.9859 9.8106 21.1102 27.3109 0.6027 0.0839
# 5 6.9790 -0.4286 16.4738 0.6027 27.1719 -2.5802
# 6 5.2634 -3.9334 -6.0521 0.0839 -2.5802 23.7881
#
#
#
# Elastic Compliance Matrix: (Units=1/GPa)
#
#
# Indices 1 2 3 4 5 6 
#
# 1 0.010094 -0.004265 0.000105 0.005221 -0.003150 -0.003272
# 2 -0.004265 0.024158 0.000624 -0.010777 0.001844 0.005335
# 3 0.000105 0.000624 0.025438 -0.019543 -0.014527 0.005045
# 4 0.005221 -0.010777 -0.019543 0.057339 0.008382 -0.007202
# 5 -0.003150 0.001844 -0.014527 0.008382 0.046483 0.002318
# 6 -0.003272 0.005335 0.005045 -0.007202 0.002318 0.045204
#
#
# Mechanical properties :
#
#
# Convention : Reuss Voigt Hill
#
# Bulk Modulus (GPa) = 19.00498 28.88431 23.94464
# Shear Modulus (GPa) = 21.42919 29.90276 25.66597
#
# Velocity S-wave (km/s) = 3.34653 3.95319 3.66244
# Velocity P-wave (km/s) = 4.98645 5.99436 5.51348
#
# Compressibility (1/GPa) = 0.05261778
#
# Stress axis : x y z
#
# Youngs Moduli (GPa) = 99.06828 41.39377 39.31197
#
# Poissons Ratio (x) = 0.17654 -0.00413
# Poissons Ratio (y) = 0.42250 -0.02452
# Poissons Ratio (z) = -0.01040 -0.02582
#
# Static dielectric constant tensor:
#      x y z
#    x 1.791960 -0.008800 0.003010 
#    y -0.008800 1.653390 0.005960 
#    z 0.003010 0.005960 1.676830 
# 
# From -- ./inp_files/83697.got.cif
#   From: 2010.05.17/outbox.cif.g08.bks.cpg/sg2_42_cif.got.tgz:83697.got - 2010.06.03 11:33:40.
