data_PCOD9071727
_publ_section_title
;
Structure prediction by ZEFSAII (Michael W. Deem and Ramdas Pophale) SiO2 
 PCOD9071727
Probable space group: P -1
;
_chemical_formula_sum "Si O2"
_cell_formula_units_Z 14
_cell_length_a 18.048206
_cell_length_b 12.316387
_cell_length_c 8.746977
_cell_angle_alpha 38.457475
_cell_angle_beta 51.735060
_cell_angle_gamma 28.440898
_cell_volume 559.945464
_symmetry_space_group_name_H-M "P -1"
_symmetry_group_IT_number 2
_symmetry_cell_setting 'triclinic'
loop_
_space_group_symop_operation_xyz
x,y,z
-x,-y,-z
loop_
_atom_site_type_symbol
_atom_site_label
_atom_site_fract_x
_atom_site_fract_y
_atom_site_fract_z
Si Si1 0.225383 0.365272 0.956601
Si Si2 0.283516 0.885328 0.801878
Si Si3 0.970728 0.336756 0.850538
Si Si4 0.179147 0.712834 0.414472
Si Si5 0.295387 0.460176 0.221618
Si Si6 0.464490 0.509557 0.294553
Si Si7 0.491724 0.189816 0.993072
O O1 0.109990 0.449455 0.136118
O O2 0.120083 0.653193 0.669032
O O3 0.354474 0.287162 0.973748
O O4 0.338291 0.094480 0.992453
O O5 0.389011 0.814970 0.612071
O O6 0.255924 0.726993 0.953496
O O7 0.383978 0.717144 0.015915
O O8 0.115725 0.208625 0.714888
O O9 0.836934 0.464882 0.766587
O O10 0.052973 0.037211 0.149071
O O11 0.274421 0.481085 0.406736
O O12 0.321343 0.607902 0.430759
O O13 0.457442 0.190934 0.214019
O O14 0.524731 0.576496 0.245713
#
# Coordination Sequence:
#
# PCOD9071727 Si02
#       7
#     2   2   2   2   2   2   2
#     4  10  20  30  45  69  97 120 149 185 226 271
#     4   8  13  25  46  69  85 112 153 188 215 261
#     4   9  16  29  47  69  94 120 147 185 229 271
#     4  10  18  29  48  75  92 110 150 200 228 254
#     4   8  15  28  48  68  88 117 153 188 223 261
#     4   8  15  28  47  67  89 116 153 188 223 261
#     4   9  18  33  46  63  92 130 154 174 221 280
#
# _framework density 25.002431999999999
#
# number of rings (size 3 to 8) (size 9 to 14) (size 15 to 20)
#    0.000    3.429    0.000    3.000    0.000    1.143 
#    0.000    2.857    0.000    0.000    0.000   25.000 
#    0.000    0.000    0.000    0.000    0.000    0.000 
#
# Total GULP energy -78081.106567 kJ/mol
# GULP energy per Si atom -5577.221898 kJ/mol
# Density = 2.494553 g / cm^3
# Si number density = 25.002432 Si / 1000 Ang^3
#
#
#
# Elastic Constant Matrix: (Units=GPa)
#
#
# Indices 1 2 3 4 5 6 
#
# 1 53.5602 40.0571 25.3935 21.1735 11.5612 1.1396
# 2 40.0571 121.3471 -14.5230 -18.0775 -14.0531 20.5218
# 3 25.3935 -14.5230 9.6872 -21.7117 -14.8810 18.1602
# 4 21.1735 -18.0775 -21.7117 17.4618 -11.2605 4.5525
# 5 11.5612 -14.0531 -14.8810 -11.2605 -0.7454 12.2749
# 6 1.1396 20.5218 18.1602 4.5525 12.2749 33.3816
#
#
#
# Elastic Compliance Matrix: (Units=1/GPa)
#
#
# Indices 1 2 3 4 5 6 
#
# 1 0.013947 -0.000782 0.003839 0.000073 0.016842 -0.008287
# 2 -0.000782 0.006748 -0.004340 -0.002003 -0.006653 0.000959
# 3 0.003839 -0.004340 0.017661 -0.007086 -0.029009 0.004563
# 4 0.000073 -0.002003 -0.007086 0.026091 -0.026739 0.011358
# 5 0.016842 -0.006653 -0.029009 -0.026739 0.057539 0.001785
# 6 -0.008287 0.000959 0.004563 0.011358 0.001785 0.024962
#
#
# Mechanical properties :
#
#
# Convention : Reuss Voigt Hill
#
# Bulk Modulus (GPa) = 27.94100 31.82775 29.88438
# Shear Modulus (GPa) = 30.97045 18.93073 24.95059
#
# Velocity S-wave (km/s) = 3.52333 2.75463 3.16242
# Velocity P-wave (km/s) = 5.26796 4.78276 5.03121
#
# Compressibility (1/GPa) = 0.03578970
#
# Stress axis : x y z
#
# Youngs Moduli (GPa) = 71.69958 148.18367 56.62331
#
# Poissons Ratio (x) = 0.11584 -0.21738
# Poissons Ratio (y) = 0.05605 0.24577
# Poissons Ratio (z) = -0.27525 0.64318
#
# Static dielectric constant tensor:
#      x y z
#    x 1.906060 0.012690 -0.010250 
#    y 0.012690 2.084110 0.002510 
#    z -0.010250 0.002510 2.075150 
# 
# From -- ./inp_files/252284.got.cif
#   From: 2010.05.17/outbox.cif.g08.bks.cpg/sg2_127_cif.got.tgz:252284.got - 2010.06.03 11:33:40.
