data_PCOD9071640
_publ_section_title
;
Structure prediction by ZEFSAII (Michael W. Deem and Ramdas Pophale) SiO2 
 PCOD9071640
Probable space group: P -1
;
_chemical_formula_sum "Si O2"
_cell_formula_units_Z 16
_cell_length_a 7.771423
_cell_length_b 9.495465
_cell_length_c 11.180720
_cell_angle_alpha 50.613090
_cell_angle_beta 97.349936
_cell_angle_gamma 112.006721
_cell_volume 584.223701
_symmetry_space_group_name_H-M "P -1"
_symmetry_group_IT_number 2
_symmetry_cell_setting 'triclinic'
loop_
_space_group_symop_operation_xyz
x,y,z
-x,-y,-z
loop_
_atom_site_type_symbol
_atom_site_label
_atom_site_fract_x
_atom_site_fract_y
_atom_site_fract_z
Si Si1 0.665863 0.408894 0.444698
Si Si2 0.227681 0.925655 0.713934
Si Si3 0.200571 0.320514 0.199126
Si Si4 0.455293 0.364727 0.886041
Si Si5 0.255883 0.918957 0.444854
Si Si6 0.716943 0.004298 0.064337
Si Si7 0.167697 0.326388 0.467974
Si Si8 0.074384 0.267024 0.844224
O O1 0.542848 0.486377 0.303676
O O2 0.618171 0.178437 0.558151
O O3 0.703742 0.499391 0.530068
O O4 0.865996 0.531477 0.330746
O O5 0.014164 0.775839 0.811144
O O6 0.269818 0.872631 0.612428
O O7 0.330906 0.941166 0.839721
O O8 0.236033 0.145654 0.577181
O O9 0.373881 0.522541 0.072647
O O10 0.164196 0.374187 0.303337
O O11 0.278935 0.143041 0.304085
O O12 0.236711 0.306457 0.941310
O O13 0.448648 0.164657 0.929988
O O14 0.047632 0.790287 0.449696
O O15 0.859782 0.185383 0.904877
O O16 0.863647 0.883349 0.150418
#
# Coordination Sequence:
#
# PCOD9071640 Si02
#       8
#     2   2   2   2   2   2   2   2
#     4   9  16  28  43  62  84 111 143 163 200 250
#     4   9  15  29  44  63  80 111 141 171 202 238
#     4   9  18  27  41  64  93 105 132 172 204 244
#     4   8  16  27  44  62  87 103 139 172 205 240
#     4   9  18  26  41  63  91 111 133 166 205 245
#     4   8  13  29  47  60  77 106 145 177 198 235
#     4   9  15  28  43  61  82 115 145 163 192 245
#     4   7  15  26  46  60  82  99 146 177 197 234
#
# _framework density 27.386771
#
# number of rings (size 3 to 8) (size 9 to 14) (size 15 to 20)
#    1.500    1.750    2.500    1.875    0.000    1.000 
#    0.000    1.250    0.000    0.000    0.000    3.500 
#    0.000    0.000    0.000    0.000    0.000    0.000 
#
# Total GULP energy -89215.675642 kJ/mol
# GULP energy per Si atom -5575.979728 kJ/mol
# Density = 2.732444 g / cm^3
# Si number density = 27.386771 Si / 1000 Ang^3
#
#
#
# Elastic Constant Matrix: (Units=GPa)
#
#
# Indices 1 2 3 4 5 6 
#
# 1 61.9985 42.3069 23.7557 -10.0131 -9.2284 17.4202
# 2 42.3069 165.1836 18.8080 -20.3687 3.9864 13.4788
# 3 23.7557 18.8080 57.1102 -14.5952 -12.5324 -3.2402
# 4 -10.0131 -20.3687 -14.5952 39.3067 0.6552 1.2123
# 5 -9.2284 3.9864 -12.5324 0.6552 41.6184 -4.7248
# 6 17.4202 13.4788 -3.2402 1.2123 -4.7248 34.1859
#
#
#
# Elastic Compliance Matrix: (Units=1/GPa)
#
#
# Indices 1 2 3 4 5 6 
#
# 1 0.027105 -0.004711 -0.009665 0.001229 0.002099 -0.012624
# 2 -0.004711 0.007787 -0.000423 0.002747 -0.002085 -0.001095
# 3 -0.009665 -0.000423 0.025116 0.006290 0.006283 0.008118
# 4 0.001229 0.002747 0.006290 0.029554 0.001212 -0.001994
# 5 0.002099 -0.002085 0.006283 0.001212 0.027025 0.004040
# 6 -0.012624 -0.001095 0.008118 -0.001994 0.004040 0.037515
#
#
# Mechanical properties :
#
#
# Convention : Reuss Voigt Hill
#
# Bulk Modulus (GPa) = 32.88212 50.44815 41.66514
# Shear Modulus (GPa) = 25.79494 36.31700 31.05597
#
# Velocity S-wave (km/s) = 3.07233 3.64549 3.37111
# Velocity P-wave (km/s) = 4.96168 6.01499 5.51354
#
# Compressibility (1/GPa) = 0.03041166
#
# Stress axis : x y z
#
# Youngs Moduli (GPa) = 36.89317 128.42050 39.81487
#
# Poissons Ratio (x) = 0.60495 0.38481
# Poissons Ratio (y) = 0.17379 0.01683
# Poissons Ratio (z) = 0.35657 0.05430
#
# Static dielectric constant tensor:
#      x y z
#    x 2.400120 0.080680 -0.020190 
#    y 0.080680 2.160480 0.026390 
#    z -0.020190 0.026390 2.244690 
# 
# From -- ./inp_files/514106.got.cif
#   From: 2010.05.17/outbox.cif.g08.bks.cpg/sg2_258_cif.got.tgz:514106.got - 2010.06.03 11:33:40.
