data_PCOD9071830
_publ_section_title
;
Structure prediction by ZEFSAII (Michael W. Deem and Ramdas Pophale) SiO2 
 PCOD9071830
Probable space group: P -1
;
_chemical_formula_sum "Si O2"
_cell_formula_units_Z 16
_cell_length_a 15.122865
_cell_length_b 8.396310
_cell_length_c 12.660616
_cell_angle_alpha 146.450580
_cell_angle_beta 122.370573
_cell_angle_gamma 50.685725
_cell_volume 687.274986
_symmetry_space_group_name_H-M "P -1"
_symmetry_group_IT_number 2
_symmetry_cell_setting 'triclinic'
loop_
_space_group_symop_operation_xyz
x,y,z
-x,-y,-z
loop_
_atom_site_type_symbol
_atom_site_label
_atom_site_fract_x
_atom_site_fract_y
_atom_site_fract_z
Si Si1 0.594825 0.185427 0.563308
Si Si2 0.424782 0.175776 0.850665
Si Si3 0.905852 0.693987 0.963884
Si Si4 0.340588 0.437106 0.607962
Si Si5 0.044135 0.012450 0.152929
Si Si6 0.344169 0.810028 0.024143
Si Si7 0.849975 0.602044 0.663817
Si Si8 0.738921 0.562045 0.926579
O O1 0.460799 0.400099 0.613439
O O2 0.672278 0.378288 0.725747
O O3 0.607482 0.008686 0.363395
O O4 0.634637 0.919409 0.533789
O O5 0.390232 0.537659 0.992039
O O6 0.561455 0.056287 0.873304
O O7 0.353163 0.193894 0.919274
O O8 0.925685 0.482081 0.751632
O O9 0.790313 0.722527 0.962742
O O10 0.000000 0.500000 0.000000
O O11 0.937119 0.997949 0.139342
O O12 0.323515 0.635061 0.812745
O O13 0.232712 0.545028 0.520070
O O14 0.155465 0.702525 0.087159
O O15 0.081389 0.304572 0.332151
O O16 0.000000 0.000000 0.000000
O O17 0.236032 0.074344 0.155628
#
# Coordination Sequence:
#
# PCOD9071830 Si02
#       8
#     2   2   2   2   2   2   2   2
#     4  10  18  29  53  86 118 146 178 213 269 335
#     4  10  18  29  53  86 118 146 178 213 269 335
#     4   9  22  38  60  80 104 146 198 231 278 326
#     4  10  18  29  53  88 117 142 178 222 266 329
#     4   9  18  34  60  80  98 140 194 235 271 312
#     4  10  18  29  53  88 117 142 178 222 266 329
#     4  11  18  36  60  84 110 146 180 232 277 314
#     4  11  18  36  56  80 112 154 172 225 286 318
#
# _framework density 23.280346000000002
#
# number of rings (size 3 to 8) (size 9 to 14) (size 15 to 20)
#    0.000    2.000    5.000    0.000    0.000    0.000 
#    0.000    2.500    0.000   30.000    0.000    0.000 
#    0.000    0.000    0.000    0.000    0.000    0.000 
#
# Total GULP energy -89332.585164 kJ/mol
# GULP energy per Si atom -5583.286573 kJ/mol
# Density = 2.322736 g / cm^3
# Si number density = 23.280346 Si / 1000 Ang^3
#
#
#
# Elastic Constant Matrix: (Units=GPa)
#
#
# Indices 1 2 3 4 5 6 
#
# 1 182.2508 14.6972 43.4700 -3.5611 24.8129 19.1925
# 2 14.6972 54.7638 14.0326 -16.2040 14.1810 6.5055
# 3 43.4700 14.0326 94.2553 -20.9248 12.6690 -4.0844
# 4 -3.5611 -16.2040 -20.9248 27.2075 -8.5696 3.1322
# 5 24.8129 14.1810 12.6690 -8.5696 36.8232 -8.7454
# 6 19.1925 6.5055 -4.0844 3.1322 -8.7454 28.3831
#
#
#
# Elastic Compliance Matrix: (Units=1/GPa)
#
#
# Indices 1 2 3 4 5 6 
#
# 1 0.008088 0.000774 -0.003861 -0.002717 -0.006963 -0.008048
# 2 0.000774 0.026013 -0.000393 0.013447 -0.009906 -0.011078
# 3 -0.003861 -0.000393 0.014818 0.010528 0.001055 0.003996
# 4 -0.002717 0.013447 0.010528 0.054476 0.004687 -0.004297
# 5 -0.006963 -0.009906 0.001055 0.004687 0.040960 0.019234
# 6 -0.008048 -0.011078 0.003996 -0.004297 0.019234 0.050189
#
#
# Mechanical properties :
#
#
# Convention : Reuss Voigt Hill
#
# Bulk Modulus (GPa) = 23.83337 52.85217 38.34277
# Shear Modulus (GPa) = 23.20297 35.75411 29.47854
#
# Velocity S-wave (km/s) = 3.16044 3.92319 3.56229
# Velocity P-wave (km/s) = 4.85568 6.57827 5.78149
#
# Compressibility (1/GPa) = 0.04195797
#
# Stress axis : x y z
#
# Youngs Moduli (GPa) = 123.64122 38.44205 67.48744
#
# Poissons Ratio (x) = -0.02976 0.26059
# Poissons Ratio (y) = -0.09571 0.02653
# Poissons Ratio (z) = 0.47741 0.01511
#
# Static dielectric constant tensor:
#      x y z
#    x 1.907800 -0.020380 0.037330 
#    y -0.020380 2.120130 -0.082770 
#    z 0.037330 -0.082770 1.879430 
# 
# From -- ./inp_files/214739.got.cif
#   From: 2010.05.17/outbox.cif.g08.bks.cpg/sg2_108_cif.got.tgz:214739.got - 2010.06.03 11:33:40.
