data_PCOD9071120
_publ_section_title
;
Structure prediction by ZEFSAII (Michael W. Deem and Ramdas Pophale) SiO2 
 PCOD9071120
Probable space group: P -1
;
_chemical_formula_sum "Si O2"
_cell_formula_units_Z 13
_cell_length_a 9.113232
_cell_length_b 8.460494
_cell_length_c 12.861622
_cell_angle_alpha 40.968342
_cell_angle_beta 93.492037
_cell_angle_gamma 114.322499
_cell_volume 538.065030
_symmetry_space_group_name_H-M "P -1"
_symmetry_group_IT_number 2
_symmetry_cell_setting 'triclinic'
loop_
_space_group_symop_operation_xyz
x,y,z
-x,-y,-z
loop_
_atom_site_type_symbol
_atom_site_label
_atom_site_fract_x
_atom_site_fract_y
_atom_site_fract_z
Si Si1 0.093427 0.797888 0.293622
Si Si2 0.772986 0.725047 0.760021
Si Si3 0.986265 0.486393 0.130113
Si Si4 0.640069 0.971871 0.457625
Si Si5 0.797028 0.836029 0.174948
Si Si6 0.500000 0.500000 0.500000
Si Si7 0.429102 0.137243 0.009777
O O1 0.000000 0.500000 0.500000
O O2 0.941158 0.758991 0.230547
O O3 0.148737 0.060821 0.244833
O O4 0.276770 0.888902 0.200486
O O5 0.725353 0.866991 0.596782
O O6 0.912637 0.660343 0.755652
O O7 0.597916 0.408705 0.938429
O O8 0.788185 0.282971 0.262061
O O9 0.000000 0.500000 0.000000
O O10 0.092293 0.817603 0.002931
O O11 0.553973 0.740086 0.476222
O O12 0.500000 0.000000 0.500000
O O13 0.680894 0.735467 0.324396
O O14 0.664734 0.733509 0.122830
O O15 0.500000 0.000000 0.000000
#
# Coordination Sequence:
#
# PCOD9071120 Si02
#       7
#     2   2   2   2   2   1   2
#     4  12  31  49  76 115 161 206 264 328 395 477
#     4  12  27  50  79 117 155 207 266 331 393 482
#     4  12  25  50  79 111 155 210 259 330 402 471
#     4  12  30  48  82 120 161 210 270 328 407 480
#     4  12  27  49  82 109 158 209 267 320 409 476
#     4  12  26  52  78 116 164 206 264 334 404 464
#     4  12  28  49  79 115 154 204 266 326 402 476
#
# _framework density 24.160647999999998
#
# number of rings (size 3 to 8) (size 9 to 14) (size 15 to 20)
#    0.000    0.000    6.154    1.385    8.615    2.462 
#    0.000    0.000    0.000    0.000    0.000    0.000 
#    0.000    0.000    0.000    0.000    0.000    0.000 
#
# Total GULP energy -72663.374492 kJ/mol
# GULP energy per Si atom -5589.490346 kJ/mol
# Density = 2.410566 g / cm^3
# Si number density = 24.160648 Si / 1000 Ang^3
#
#
#
# Elastic Constant Matrix: (Units=GPa)
#
#
# Indices 1 2 3 4 5 6 
#
# 1 135.7961 39.7149 85.8948 -3.8186 -26.6858 1.0921
# 2 39.7149 105.9001 37.2203 -8.5293 -18.2110 8.9164
# 3 85.8948 37.2203 147.9669 -14.4914 -52.0374 -7.0953
# 4 -3.8186 -8.5293 -14.4914 30.4683 3.3407 -8.7112
# 5 -26.6858 -18.2110 -52.0374 3.3407 64.1562 5.4287
# 6 1.0921 8.9164 -7.0953 -8.7112 5.4287 25.5804
#
#
#
# Elastic Compliance Matrix: (Units=1/GPa)
#
#
# Indices 1 2 3 4 5 6 
#
# 1 0.012505 -0.002274 -0.007552 -0.003310 -0.001167 -0.002715
# 2 -0.002274 0.011394 -0.001029 0.001027 0.001754 -0.004182
# 3 -0.007552 -0.001029 0.015140 0.006638 0.008041 0.005435
# 4 -0.003310 0.001027 0.006638 0.040056 0.000939 0.015066
# 5 -0.001167 0.001754 0.008041 0.000939 0.022305 -0.002745
# 6 -0.002715 -0.004182 0.005435 0.015066 -0.002745 0.047887
#
#
# Mechanical properties :
#
#
# Convention : Reuss Voigt Hill
#
# Bulk Modulus (GPa) = 57.70927 79.48034 68.59481
# Shear Modulus (GPa) = 28.28481 39.16319 33.72400
#
# Velocity S-wave (km/s) = 3.42526 4.03047 3.74013
# Velocity P-wave (km/s) = 6.29132 7.39105 6.86325
#
# Compressibility (1/GPa) = 0.01732824
#
# Stress axis : x y z
#
# Youngs Moduli (GPa) = 79.96500 87.76647 66.05081
#
# Poissons Ratio (x) = 0.19959 0.49884
# Poissons Ratio (y) = 0.18185 0.06797
# Poissons Ratio (z) = 0.60392 0.09031
#
# Static dielectric constant tensor:
#      x y z
#    x 1.981060 0.047320 0.048350 
#    y 0.047320 1.948810 0.039050 
#    z 0.048350 0.039050 1.987800 
# 
# From -- ./inp_files/380895.got.cif
#   From: 2010.05.17/outbox.cif.g08.bks.cpg/sg2_191_cif.got.tgz:380895.got - 2010.06.03 11:33:40.
