data_PCOD9071113
_publ_section_title
;
Structure prediction by ZEFSAII (Michael W. Deem and Ramdas Pophale) SiO2 
 PCOD9071113
Probable space group: P -1
;
_chemical_formula_sum "Si O2"
_cell_formula_units_Z 16
_cell_length_a 13.871205
_cell_length_b 12.295099
_cell_length_c 16.127435
_cell_angle_alpha 124.130968
_cell_angle_beta 35.773615
_cell_angle_gamma 149.713790
_cell_volume 714.353266
_symmetry_space_group_name_H-M "P -1"
_symmetry_group_IT_number 2
_symmetry_cell_setting 'triclinic'
loop_
_space_group_symop_operation_xyz
x,y,z
-x,-y,-z
loop_
_atom_site_type_symbol
_atom_site_label
_atom_site_fract_x
_atom_site_fract_y
_atom_site_fract_z
Si Si1 0.090258 0.847753 0.537202
Si Si2 0.332113 0.581843 0.604605
Si Si3 0.372718 0.923897 0.149381
Si Si4 0.734330 0.896995 0.189392
Si Si5 0.704427 0.396714 0.168962
Si Si6 0.458309 0.486647 0.324293
Si Si7 0.181992 0.361602 0.183166
Si Si8 0.363003 0.769757 0.242441
O O1 0.152403 0.746316 0.412097
O O2 0.878543 0.779909 0.588804
O O3 0.893176 0.706650 0.697430
O O4 0.414066 0.132267 0.456586
O O5 0.309443 0.555135 0.708177
O O6 0.442899 0.538292 0.449270
O O7 0.978726 0.361985 0.728984
O O8 0.534964 0.945659 0.117244
O O9 0.425103 0.109108 0.220675
O O10 0.500000 0.000000 0.000000
O O11 0.566091 0.677584 0.271023
O O12 0.545882 0.844349 0.227381
O O13 0.901056 0.112611 0.223309
O O14 0.000000 0.000000 0.000000
O O15 0.674789 0.504414 0.177827
O O16 0.000000 0.500000 0.000000
O O17 0.205353 0.530741 0.220166
O O18 0.500000 0.500000 0.000000
#
# Coordination Sequence:
#
# PCOD9071113 Si02
#       8
#     2   2   2   2   2   2   2   2
#     4  12  26  48  77 114 154 201 257 317 383 458
#     4  12  25  50  78 113 150 208 251 319 389 442
#     4  12  28  50  77 115 151 199 262 316 380 452
#     4  12  27  46  76 113 153 204 251 318 385 453
#     4  12  28  50  80 112 154 206 258 316 383 458
#     4  12  27  49  77 112 159 197 258 320 381 458
#     4  12  26  48  74 113 155 206 251 313 387 452
#     4  12  27  47  80 109 157 196 261 310 384 463
#
# _framework density 22.397881999999999
#
# number of rings (size 3 to 8) (size 9 to 14) (size 15 to 20)
#    0.000    0.000    7.500    0.750    3.500    5.500 
#    0.000    0.000    0.000    0.000    0.000    0.000 
#    0.000    0.000    0.000    0.000    0.000    0.000 
#
# Total GULP energy -89402.476578 kJ/mol
# GULP energy per Si atom -5587.654786 kJ/mol
# Density = 2.234690 g / cm^3
# Si number density = 22.397882 Si / 1000 Ang^3
#
#
#
# Elastic Constant Matrix: (Units=GPa)
#
#
# Indices 1 2 3 4 5 6 
#
# 1 157.6017 71.8718 62.1374 13.6642 5.2685 -6.2044
# 2 71.8718 151.1476 36.2126 1.6617 -11.5201 10.5603
# 3 62.1374 36.2126 124.9753 0.4905 2.0251 -11.0492
# 4 13.6642 1.6617 0.4905 32.2747 2.8915 3.4686
# 5 5.2685 -11.5201 2.0251 2.8915 41.8395 9.0352
# 6 -6.2044 10.5603 -11.0492 3.4686 9.0352 34.0177
#
#
#
# Elastic Compliance Matrix: (Units=1/GPa)
#
#
# Indices 1 2 3 4 5 6 
#
# 1 0.010358 -0.004487 -0.003495 -0.004207 -0.002796 0.003319
# 2 -0.004487 0.009730 -0.001156 0.001619 0.004386 -0.005544
# 3 -0.003495 -0.001156 0.010379 0.001133 -0.001169 0.003288
# 4 -0.004207 0.001619 0.001133 0.033154 -0.000473 -0.004157
# 5 -0.002796 0.004386 -0.001169 -0.000473 0.027609 -0.009536
# 6 0.003319 -0.005544 0.003288 -0.004157 -0.009536 0.035748
#
#
# Mechanical properties :
#
#
# Convention : Reuss Voigt Hill
#
# Bulk Modulus (GPa) = 82.01873 86.01867 84.01870
# Shear Modulus (GPa) = 33.48570 39.19324 36.33947
#
# Velocity S-wave (km/s) = 3.87077 4.18768 4.03234
# Velocity P-wave (km/s) = 7.52832 7.86577 7.69889
#
# Compressibility (1/GPa) = 0.01219234
#
# Stress axis : x y z
#
# Youngs Moduli (GPa) = 96.54406 102.77073 96.34545
#
# Poissons Ratio (x) = 0.46111 0.33669
# Poissons Ratio (y) = 0.43317 0.11140
# Poissons Ratio (z) = 0.33739 0.11883
#
# Static dielectric constant tensor:
#      x y z
#    x 1.861310 0.008910 -0.010330 
#    y 0.008910 1.857830 -0.045590 
#    z -0.010330 -0.045590 1.829780 
# 
# From -- ./inp_files/573618.got.cif
#   From: 2010.05.17/outbox.cif.g08.bks.cpg/sg2_287_cif.got.tgz:573618.got - 2010.06.03 11:33:40.
