data_PCOD9071719
_publ_section_title
;
Structure prediction by ZEFSAII (Michael W. Deem and Ramdas Pophale) SiO2 
 PCOD9071719
Probable space group: P -1
;
_chemical_formula_sum "Si O2"
_cell_formula_units_Z 12
_cell_length_a 8.475782
_cell_length_b 6.603266
_cell_length_c 10.982514
_cell_angle_alpha 69.399358
_cell_angle_beta 98.062172
_cell_angle_gamma 51.848123
_cell_volume 395.470975
_symmetry_space_group_name_H-M "P -1"
_symmetry_group_IT_number 2
_symmetry_cell_setting 'triclinic'
loop_
_space_group_symop_operation_xyz
x,y,z
-x,-y,-z
loop_
_atom_site_type_symbol
_atom_site_label
_atom_site_fract_x
_atom_site_fract_y
_atom_site_fract_z
Si Si1 0.175190 0.519728 0.130465
Si Si2 0.233537 0.598323 0.522556
Si Si3 0.892630 0.626303 0.608158
Si Si4 0.045203 0.028595 0.196680
Si Si5 0.587051 0.583248 0.169830
Si Si6 0.347789 0.981035 0.849368
O O1 0.432331 0.271972 0.157497
O O2 0.157784 0.334754 0.261785
O O3 0.130287 0.763259 0.165772
O O4 0.000292 0.726505 0.954564
O O5 0.006382 0.733864 0.545420
O O6 0.405962 0.493149 0.672886
O O7 0.290276 0.324562 0.505966
O O8 0.200481 0.821903 0.375613
O O9 0.105504 0.245833 0.702307
O O10 0.792419 0.272541 0.183320
O O11 0.639424 0.786071 0.147912
O O12 0.373916 0.803667 0.008044
#
# Coordination Sequence:
#
# PCOD9071719 Si02
#       6
#     2   2   2   2   2   2
#     4   9  18  34  56  77 100 136 178 211 246 304
#     4   9  17  32  54  76 104 138 167 208 263 304
#     4   9  18  34  56  77 100 136 178 211 246 304
#     4   9  17  32  54  76 104 138 167 208 263 304
#     4   9  17  32  54  76 104 138 167 208 263 304
#     4   9  18  34  56  77 100 136 178 211 246 304
#
# _framework density 30.343568000000001
#
# number of rings (size 3 to 8) (size 9 to 14) (size 15 to 20)
#    0.000    3.000    0.000    0.500    0.000    0.000 
#    0.000   62.500    0.000    3.000    0.000    0.000 
#    0.000    0.000    0.000    0.000    0.000    0.000 
#
# Total GULP energy -67012.258190 kJ/mol
# GULP energy per Si atom -5584.354849 kJ/mol
# Density = 3.027450 g / cm^3
# Si number density = 30.343568 Si / 1000 Ang^3
#
#
#
# Elastic Constant Matrix: (Units=GPa)
#
#
# Indices 1 2 3 4 5 6 
#
# 1 92.7839 51.9165 65.3529 12.9426 -37.2230 -14.3023
# 2 51.9165 152.2713 46.5915 6.4328 -0.0158 -8.9100
# 3 65.3529 46.5915 317.0539 29.5874 -17.3388 -1.5392
# 4 12.9426 6.4328 29.5874 67.0247 11.5934 -8.5888
# 5 -37.2230 -0.0158 -17.3388 11.5934 63.8572 11.4388
# 6 -14.3023 -8.9100 -1.5392 -8.5888 11.4388 59.2266
#
#
#
# Elastic Compliance Matrix: (Units=1/GPa)
#
#
# Indices 1 2 3 4 5 6 
#
# 1 0.022169 -0.006540 -0.002464 -0.004649 0.012891 0.001142
# 2 -0.006540 0.008880 -0.000318 0.001392 -0.004288 0.000779
# 3 -0.002464 -0.000318 0.003821 -0.001266 -0.000040 -0.000719
# 4 -0.004649 0.001392 -0.001266 0.017799 -0.006813 0.002951
# 5 0.012891 -0.004288 -0.000040 -0.006813 0.024999 -0.003350
# 6 0.001142 0.000779 -0.000719 0.002951 -0.003350 0.018333
#
#
# Mechanical properties :
#
#
# Convention : Reuss Voigt Hill
#
# Bulk Modulus (GPa) = 61.62556 98.87008 80.24782
# Shear Modulus (GPa) = 41.64761 64.57159 53.10960
#
# Velocity S-wave (km/s) = 3.70879 4.61805 4.18817
# Velocity P-wave (km/s) = 6.22041 7.81597 7.06339
#
# Compressibility (1/GPa) = 0.01622703
#
# Stress axis : x y z
#
# Youngs Moduli (GPa) = 45.10819 112.60656 261.70797
#
# Poissons Ratio (x) = 0.73644 0.64489
# Poissons Ratio (y) = 0.29500 0.08313
# Poissons Ratio (z) = 0.11115 0.03577
#
# Static dielectric constant tensor:
#      x y z
#    x 2.600480 0.063900 -0.018720 
#    y 0.063900 2.292600 0.021170 
#    z -0.018720 0.021170 2.383810 
# 
# From -- ./inp_files/235040.got.cif
#   From: 2010.05.17/outbox.cif.g08.bks.cpg/sg2_118_cif.got.tgz:235040.got - 2010.06.03 11:33:40.
