data_PCOD9071709
_publ_section_title
;
Structure prediction by ZEFSAII (Michael W. Deem and Ramdas Pophale) SiO2 
 PCOD9071709
Probable space group: P -1
;
_chemical_formula_sum "Si O2"
_cell_formula_units_Z 16
_cell_length_a 6.570216
_cell_length_b 13.353492
_cell_length_c 8.014172
_cell_angle_alpha 120.999905
_cell_angle_beta 82.538654
_cell_angle_gamma 106.530544
_cell_volume 577.667546
_symmetry_space_group_name_H-M "P -1"
_symmetry_group_IT_number 2
_symmetry_cell_setting 'triclinic'
loop_
_space_group_symop_operation_xyz
x,y,z
-x,-y,-z
loop_
_atom_site_type_symbol
_atom_site_label
_atom_site_fract_x
_atom_site_fract_y
_atom_site_fract_z
Si Si1 0.556737 0.240548 0.974546
Si Si2 0.282343 0.596889 0.193633
Si Si3 0.821992 0.605933 0.479357
Si Si4 0.790048 0.645314 0.152943
Si Si5 0.727026 0.907300 0.375660
Si Si6 0.641246 0.338262 0.395401
Si Si7 0.897889 0.795722 0.880787
Si Si8 0.124289 0.016457 0.237905
O O1 0.724940 0.334395 0.923261
O O2 0.475322 0.130873 0.757356
O O3 0.626578 0.244831 0.163242
O O4 0.320840 0.265988 0.050780
O O5 0.536729 0.604311 0.170819
O O6 0.280780 0.667574 0.428380
O O7 0.171645 0.453548 0.068990
O O8 0.896434 0.617137 0.290210
O O9 0.766072 0.468949 0.424386
O O10 0.602013 0.648313 0.545758
O O11 0.959642 0.694346 0.678026
O O12 0.828737 0.790783 0.277722
O O13 0.704481 0.942857 0.599759
O O14 0.900932 0.010850 0.350682
O O15 0.842379 0.891920 0.839741
O O16 0.075238 0.881788 0.051909
#
# Coordination Sequence:
#
# PCOD9071709 Si02
#       8
#     2   2   2   2   2   2   2   2
#     4   9  16  23  28  36  40  45  48  55  64  72
#     4   9  16  20  27  36  43  45  47  52  63  76
#     4   9  14  20  26  34  42  45  48  56  63  70
#     4   9  14  20  26  34  42  45  48  56  63  70
#     4   9  16  22  27  32  37  46  54  58  63  64
#     4   9  16  20  27  36  43  45  47  52  63  76
#     4   9  16  22  27  32  37  46  54  58  63  64
#     4   9  16  23  26  30  38  45  56  63  58  62
#
# _framework density 27.697593000000001
#
# number of rings (size 3 to 8) (size 9 to 14) (size 15 to 20)
#    0.000    3.000    2.500    0.000   14.000    0.000 
#    0.000    0.000    0.000    0.000    0.000    0.000 
#    0.000    0.000    0.000    0.000    0.000    0.000 
#
# Total GULP energy -89243.409529 kJ/mol
# GULP energy per Si atom -5577.713096 kJ/mol
# Density = 2.763455 g / cm^3
# Si number density = 27.697593 Si / 1000 Ang^3
#
#
#
# Elastic Constant Matrix: (Units=GPa)
#
#
# Indices 1 2 3 4 5 6 
#
# 1 58.9459 20.6811 47.4489 8.0811 6.8642 -0.7309
# 2 20.6811 93.4807 52.1106 -2.4278 -9.5700 20.0484
# 3 47.4489 52.1106 234.8058 -15.8632 23.9502 14.1014
# 4 8.0811 -2.4278 -15.8632 49.9410 7.9770 2.1240
# 5 6.8642 -9.5700 23.9502 7.9770 50.1573 8.8076
# 6 -0.7309 20.0484 14.1014 2.1240 8.8076 20.9718
#
#
#
# Elastic Compliance Matrix: (Units=1/GPa)
#
#
# Indices 1 2 3 4 5 6 
#
# 1 0.023624 -0.005787 -0.004169 -0.005351 -0.003454 0.011151
# 2 -0.005787 0.018751 -0.002684 0.000395 0.009136 -0.020199
# 3 -0.004169 -0.002684 0.006288 0.003101 -0.003309 -0.000732
# 4 -0.005351 0.000395 0.003101 0.022625 -0.003675 -0.003398
# 5 -0.003454 0.009136 -0.003309 -0.003675 0.027440 -0.017781
# 6 0.011151 -0.020199 -0.000732 -0.003398 -0.017781 0.075685
#
#
# Mechanical properties :
#
#
# Convention : Reuss Voigt Hill
#
# Bulk Modulus (GPa) = 42.76283 69.74596 56.25440
# Shear Modulus (GPa) = 24.09785 42.01348 33.05567
#
# Velocity S-wave (km/s) = 2.95283 3.89892 3.45838
# Velocity P-wave (km/s) = 5.20561 6.74571 6.02507
#
# Compressibility (1/GPa) = 0.02338480
#
# Stress axis : x y z
#
# Youngs Moduli (GPa) = 42.32902 53.32912 159.03671
#
# Poissons Ratio (x) = 0.30860 0.66296
# Poissons Ratio (y) = 0.24495 0.42689
# Poissons Ratio (z) = 0.17645 0.14315
#
# Static dielectric constant tensor:
#      x y z
#    x 2.370810 -0.051180 0.004500 
#    y -0.051180 2.181620 -0.042710 
#    z 0.004500 -0.042710 2.211090 
# 
# From -- ./inp_files/275786.got.cif
#   From: 2010.05.17/outbox.cif.g08.bks.cpg/sg2_138_cif.got.tgz:275786.got - 2010.06.03 11:33:40.
