data_PCOD9071123
_publ_section_title
;
Structure prediction by ZEFSAII (Michael W. Deem and Ramdas Pophale) SiO2 
 PCOD9071123
Probable space group: P -1
;
_chemical_formula_sum "Si O2"
_cell_formula_units_Z 14
_cell_length_a 11.159315
_cell_length_b 5.143910
_cell_length_c 11.924405
_cell_angle_alpha 100.776022
_cell_angle_beta 64.850463
_cell_angle_gamma 116.520088
_cell_volume 554.403085
_symmetry_space_group_name_H-M "P -1"
_symmetry_group_IT_number 2
_symmetry_cell_setting 'triclinic'
loop_
_space_group_symop_operation_xyz
x,y,z
-x,-y,-z
loop_
_atom_site_type_symbol
_atom_site_label
_atom_site_fract_x
_atom_site_fract_y
_atom_site_fract_z
Si Si1 0.345421 0.764602 0.499088
Si Si2 0.147786 0.093507 0.236621
Si Si3 0.303649 0.603240 0.827569
Si Si4 0.383591 0.002497 0.267785
Si Si5 0.900579 0.159491 0.008273
Si Si6 0.188855 0.170894 0.640074
Si Si7 0.367667 0.598367 0.058714
O O1 0.352123 0.778992 0.363374
O O2 0.287050 0.438418 0.542313
O O3 0.500000 0.000000 0.500000
O O4 0.238312 0.909679 0.593507
O O5 0.232139 0.415974 0.179842
O O6 0.244748 0.057822 0.294471
O O7 0.147110 0.921551 0.107837
O O8 0.981926 0.973121 0.329203
O O9 0.213503 0.333090 0.763290
O O10 0.471039 0.722468 0.732959
O O11 0.239482 0.850053 0.866775
O O12 0.305251 0.540721 0.953800
O O13 0.426597 0.904134 0.124300
O O14 0.000000 0.500000 0.000000
O O15 0.000000 0.000000 0.000000
O O16 0.500000 0.500000 0.000000
#
# Coordination Sequence:
#
# PCOD9071123 Si02
#       7
#     2   2   2   2   2   2   2
#     4  12  30  54  83 112 153 208 278 322 389 463
#     4  12  28  47  75 117 161 201 260 321 405 460
#     4  12  25  50  79 119 155 206 266 324 399 480
#     4  12  28  49  78 110 159 206 263 329 388 473
#     4  12  26  44  73 114 159 201 247 315 392 472
#     4  12  31  50  83 116 152 208 268 331 387 459
#     4  12  26  45  79 118 163 207 255 320 405 483
#
# _framework density 25.252383999999999
#
# number of rings (size 3 to 8) (size 9 to 14) (size 15 to 20)
#    0.000    0.000    5.714    2.571    8.000    1.143 
#    0.000    0.000    0.000    0.000    0.000    0.000 
#    0.000    0.000    0.000    0.000    0.000    0.000 
#
# Total GULP energy -78426.376681 kJ/mol
# GULP energy per Si atom -5601.884049 kJ/mol
# Density = 2.519491 g / cm^3
# Si number density = 25.252384 Si / 1000 Ang^3
#
#
#
# Elastic Constant Matrix: (Units=GPa)
#
#
# Indices 1 2 3 4 5 6 
#
# 1 171.4458 23.8811 31.0979 -2.6969 -12.5977 14.8664
# 2 23.8811 62.0554 -3.1085 -0.7530 3.2566 10.9950
# 3 31.0979 -3.1085 99.0737 -4.6671 24.9596 8.7305
# 4 -2.6969 -0.7530 -4.6671 51.5114 -4.6747 -7.4547
# 5 -12.5977 3.2566 24.9596 -4.6747 58.8540 -9.4394
# 6 14.8664 10.9950 8.7305 -7.4547 -9.4394 41.2184
#
#
#
# Elastic Compliance Matrix: (Units=1/GPa)
#
#
# Indices 1 2 3 4 5 6 
#
# 1 0.007033 -0.002930 -0.002977 0.000257 0.002883 -0.000418
# 2 -0.002930 0.018561 0.002921 -0.000766 -0.003841 -0.005531
# 3 -0.002977 0.002921 0.013271 -0.000160 -0.007109 -0.004173
# 4 0.000257 -0.000766 -0.000160 0.020259 0.002476 0.004377
# 5 0.002883 -0.003841 -0.007109 0.002476 0.022157 0.007012
# 6 -0.000418 -0.005531 -0.004173 0.004377 0.007012 0.029169
#
#
# Mechanical properties :
#
#
# Convention : Reuss Voigt Hill
#
# Bulk Modulus (GPa) = 30.40189 48.47956 39.44073
# Shear Modulus (GPa) = 39.25100 49.03039 44.14070
#
# Velocity S-wave (km/s) = 3.94680 4.41116 4.18542
# Velocity P-wave (km/s) = 5.73018 6.72191 6.24576
#
# Compressibility (1/GPa) = 0.03289269
#
# Stress axis : x y z
#
# Youngs Moduli (GPa) = 142.18730 53.87713 75.35368
#
# Poissons Ratio (x) = 0.15785 0.22433
# Poissons Ratio (y) = 0.41659 -0.22010
# Poissons Ratio (z) = 0.42329 -0.15737
#
# Static dielectric constant tensor:
#      x y z
#    x 2.002320 -0.007210 -0.049720 
#    y -0.007210 2.093870 -0.064330 
#    z -0.049720 -0.064330 2.048700 
# 
# From -- ./inp_files/410742.got.cif
#   From: 2010.05.17/outbox.cif.g08.bks.cpg/sg2_206_cif.got.tgz:410742.got - 2010.06.03 11:33:40.
