data_PCOD9071595
_publ_section_title
;
Structure prediction by ZEFSAII (Michael W. Deem and Ramdas Pophale) SiO2 
 PCOD9071595
Probable space group: P -1
;
_chemical_formula_sum "Si O2"
_cell_formula_units_Z 10
_cell_length_a 7.529075
_cell_length_b 14.136851
_cell_length_c 5.358746
_cell_angle_alpha 129.368114
_cell_angle_beta 86.187226
_cell_angle_gamma 93.501171
_cell_volume 439.838361
_symmetry_space_group_name_H-M "P -1"
_symmetry_group_IT_number 2
_symmetry_cell_setting 'triclinic'
loop_
_space_group_symop_operation_xyz
x,y,z
-x,-y,-z
loop_
_atom_site_type_symbol
_atom_site_label
_atom_site_fract_x
_atom_site_fract_y
_atom_site_fract_z
Si Si1 0.065994 0.634789 0.637253
Si Si2 0.961838 0.132100 0.605115
Si Si3 0.766421 0.771812 0.639979
Si Si4 0.622149 0.001971 0.244609
Si Si5 0.460367 0.577043 0.377614
O O1 0.500000 0.500000 0.500000
O O2 0.258630 0.617043 0.476611
O O3 0.073116 0.748065 0.022348
O O4 0.000000 0.500000 0.500000
O O5 0.144304 0.161220 0.489482
O O6 0.083457 0.323093 0.467026
O O7 0.000000 0.000000 0.500000
O O8 0.778867 0.106791 0.419787
O O9 0.584362 0.696195 0.526055
O O10 0.730370 0.876967 0.016978
O O11 0.500000 0.000000 0.500000
O O12 0.500000 0.000000 0.000000
O O13 0.500000 0.500000 0.000000
#
# Coordination Sequence:
#
# PCOD9071595 Si02
#       5
#     2   2   2   2   2
#     4  12  27  51  83 116 162 216 268 332 408 484
#     4  12  27  51  81 116 164 213 273 336 406 485
#     4  12  28  48  82 115 163 208 276 331 404 485
#     4  12  28  49  79 118 159 212 269 334 403 479
#     4  12  29  50  77 116 164 212 268 332 404 482
#
# _framework density 22.735623
#
# number of rings (size 3 to 8) (size 9 to 14) (size 15 to 20)
#    0.000    0.000    4.000    4.200    8.400    1.600 
#    0.000    0.000    0.000    0.000    0.000    0.000 
#    0.000    0.000    0.000    0.000    0.000    0.000 
#
# Total GULP energy -55897.396612 kJ/mol
# GULP energy per Si atom -5589.739661 kJ/mol
# Density = 2.268388 g / cm^3
# Si number density = 22.735623 Si / 1000 Ang^3
#
#
#
# Elastic Constant Matrix: (Units=GPa)
#
#
# Indices 1 2 3 4 5 6 
#
# 1 190.3698 75.2796 51.4795 1.5485 -22.7783 30.4850
# 2 75.2796 183.3178 69.3527 15.5720 -7.7370 20.8453
# 3 51.4795 69.3527 149.1547 16.5767 -22.3365 23.3346
# 4 1.5485 15.5720 16.5767 50.6171 6.9103 4.7581
# 5 -22.7783 -7.7370 -22.3365 6.9103 61.5237 2.1106
# 6 30.4850 20.8453 23.3346 4.7581 2.1106 62.1518
#
#
#
# Elastic Compliance Matrix: (Units=1/GPa)
#
#
# Indices 1 2 3 4 5 6 
#
# 1 0.006995 -0.002282 -0.000729 0.000684 0.002047 -0.002513
# 2 -0.002282 0.007492 -0.002616 -0.001255 -0.000702 -0.000291
# 3 -0.000729 -0.002616 0.009243 -0.002421 0.003103 -0.002155
# 4 0.000684 -0.001255 -0.002421 0.021397 -0.003169 -0.000536
# 5 0.002047 -0.000702 0.003103 -0.003169 0.018486 -0.002319
# 6 -0.002513 -0.000291 -0.002155 -0.000536 -0.002319 0.018349
#
#
# Mechanical properties :
#
#
# Convention : Reuss Voigt Hill
#
# Bulk Modulus (GPa) = 80.15792 101.67399 90.91595
# Shear Modulus (GPa) = 51.34802 56.64056 53.99429
#
# Velocity S-wave (km/s) = 4.75751 4.99668 4.87856
# Velocity P-wave (km/s) = 8.09392 8.83777 8.47401
#
# Compressibility (1/GPa) = 0.01247537
#
# Stress axis : x y z
#
# Youngs Moduli (GPa) = 142.96930 133.47542 108.18651
#
# Poissons Ratio (x) = 0.30464 0.07887
# Poissons Ratio (y) = 0.32631 0.28300
# Poissons Ratio (z) = 0.10423 0.34915
#
# Static dielectric constant tensor:
#      x y z
#    x 1.817250 -0.050060 0.061090 
#    y -0.050060 2.008520 0.105290 
#    z 0.061090 0.105290 2.022030 
# 
# From -- ./inp_files/5570.got.cif
#   From: 2010.05.17/outbox.cif.g08.bks.cpg/sg2_3_cif.got.tgz:5570.got - 2010.06.03 11:33:40.
