data_PCOD9071261
_publ_section_title
;
Structure prediction by ZEFSAII (Michael W. Deem and Ramdas Pophale) SiO2 
 PCOD9071261
Probable space group: P -1
;
_chemical_formula_sum "Si O2"
_cell_formula_units_Z 10
_cell_length_a 10.125939
_cell_length_b 4.953568
_cell_length_c 20.549559
_cell_angle_alpha 94.792785
_cell_angle_beta 154.591066
_cell_angle_gamma 89.272467
_cell_volume 435.950815
_symmetry_space_group_name_H-M "P -1"
_symmetry_group_IT_number 2
_symmetry_cell_setting 'triclinic'
loop_
_space_group_symop_operation_xyz
x,y,z
-x,-y,-z
loop_
_atom_site_type_symbol
_atom_site_label
_atom_site_fract_x
_atom_site_fract_y
_atom_site_fract_z
Si Si1 0.321630 0.319746 0.749139
Si Si2 0.703987 0.781224 0.112385
Si Si3 0.598568 0.162401 0.613127
Si Si4 0.366814 0.658793 0.582846
Si Si5 0.344108 0.174093 0.153567
O O1 0.247740 0.223012 0.788453
O O2 0.579743 0.592447 0.863530
O O3 0.005059 0.395730 0.578711
O O4 0.435524 0.059155 0.761006
O O5 0.030953 0.803706 0.222080
O O6 0.500000 0.500000 0.000000
O O7 0.500000 0.000000 0.000000
O O8 0.523783 0.550343 0.425045
O O9 0.500000 0.000000 0.500000
O O10 0.455793 0.966698 0.603130
O O11 0.558478 0.652745 0.734348
O O12 0.000000 0.000000 0.000000
#
# Coordination Sequence:
#
# PCOD9071261 Si02
#       5
#     2   2   2   2   2
#     4  12  26  49  74 103 147 191 240 292 359 426
#     4  12  28  45  73 107 148 187 234 296 360 426
#     4  12  26  47  74 108 143 187 238 292 360 427
#     4  12  26  47  77 104 146 187 240 294 353 433
#     4  12  28  47  74 107 144 189 243 299 356 417
#
# _framework density 22.938369999999999
#
# number of rings (size 3 to 8) (size 9 to 14) (size 15 to 20)
#    0.000    0.000    2.000    7.200   11.200    0.000 
#    0.000    0.000    0.000    0.000    0.000    0.000 
#    0.000    0.000    0.000    0.000    0.000    0.000 
#
# Total GULP energy -56005.575133 kJ/mol
# GULP energy per Si atom -5600.557513 kJ/mol
# Density = 2.288616 g / cm^3
# Si number density = 22.938370 Si / 1000 Ang^3
#
#
#
# Elastic Constant Matrix: (Units=GPa)
#
#
# Indices 1 2 3 4 5 6 
#
# 1 73.5987 12.4474 35.4746 2.7852 4.7390 -10.1370
# 2 12.4474 130.4248 24.7685 6.9449 15.7187 -9.5493
# 3 35.4746 24.7685 113.1056 10.7451 18.4649 -12.0090
# 4 2.7852 6.9449 10.7451 37.0634 7.2506 4.7623
# 5 4.7390 15.7187 18.4649 7.2506 44.8099 2.0595
# 6 -10.1370 -9.5493 -12.0090 4.7623 2.0595 60.9304
#
#
#
# Elastic Compliance Matrix: (Units=1/GPa)
#
#
# Indices 1 2 3 4 5 6 
#
# 1 0.016223 -0.000554 -0.004859 0.000003 0.000405 0.001640
# 2 -0.000554 0.008336 -0.001062 -0.000904 -0.002335 0.001154
# 3 -0.004859 -0.001062 0.011572 -0.002296 -0.003584 0.001606
# 4 0.000003 -0.000904 -0.002296 0.028807 -0.003273 -0.002735
# 5 0.000405 -0.002335 -0.003584 -0.003273 0.025173 -0.001600
# 6 0.001640 0.001154 0.001606 -0.002735 -0.001600 0.017450
#
#
# Mechanical properties :
#
#
# Convention : Reuss Voigt Hill
#
# Bulk Modulus (GPa) = 43.14144 51.39001 47.26572
# Shear Modulus (GPa) = 38.99007 44.85665 41.92336
#
# Velocity S-wave (km/s) = 4.12731 4.42693 4.27974
# Velocity P-wave (km/s) = 6.44680 6.97011 6.71356
#
# Compressibility (1/GPa) = 0.02317957
#
# Stress axis : x y z
#
# Youngs Moduli (GPa) = 61.64195 119.96346 86.41810
#
# Poissons Ratio (x) = 0.06651 0.41990
# Poissons Ratio (y) = 0.03417 0.09177
# Poissons Ratio (z) = 0.29952 0.12740
#
# Static dielectric constant tensor:
#      x y z
#    x -2.233290 -1.321220 -2.235740 
#    y -1.321220 1.337980 -0.737820 
#    z -2.235740 -0.737820 0.732750 
# 
# From -- ./inp_files/16403.got.cif
#   From: 2010.05.17/outbox.cif.g08.bks.cpg/sg2_9_cif.got.tgz:16403.got - 2010.06.03 11:33:40.
