data_PCOD9071872
_publ_section_title
;
Structure prediction by ZEFSAII (Michael W. Deem and Ramdas Pophale) SiO2 
 PCOD9071872
Probable space group: P -1
;
_chemical_formula_sum "Si O2"
_cell_formula_units_Z 14
_cell_length_a 15.000000
_cell_length_b 15.000000
_cell_length_c 15.000000
_cell_angle_alpha 40.000000
_cell_angle_beta 20.000000
_cell_angle_gamma 40.000000
_cell_volume 725.414092
_symmetry_space_group_name_H-M "P -1"
_symmetry_group_IT_number 2
_symmetry_cell_setting 'triclinic'
loop_
_space_group_symop_operation_xyz
x,y,z
-x,-y,-z
loop_
_atom_site_type_symbol
_atom_site_label
_atom_site_fract_x
_atom_site_fract_y
_atom_site_fract_z
Si Si1 0.969336 0.834395 0.647199
Si Si2 0.425477 0.213687 0.221839
Si Si3 0.010219 0.490723 0.390400
Si Si4 0.568076 0.125037 0.527512
Si Si5 0.875601 0.850787 0.924396
Si Si6 0.444133 0.674122 0.788613
Si Si7 0.395712 0.825372 0.108999
O O1 0.946061 0.779509 0.813737
O O2 0.214869 0.771088 0.396881
O O3 0.695885 0.817490 0.869142
O O4 0.000000 0.000000 0.500000
O O5 0.151793 0.326302 0.368996
O O6 0.517702 0.263759 0.194166
O O7 0.417477 0.045939 0.365340
O O8 0.596533 0.228559 0.959932
O O9 0.000000 0.500000 0.500000
O O10 0.703771 0.556094 0.605327
O O11 0.197555 0.592997 0.094516
O O12 0.566817 0.204751 0.371045
O O13 0.841579 0.144020 0.301729
O O14 0.322278 0.185475 0.782431
O O15 0.725468 0.008002 0.917235
#
# Coordination Sequence:
#
# PCOD9071872 Si02
#       7
#     2   2   2   2   2   2   2
#     4  10  17  30  48  75 111 143 172 221 280 328
#     4  10  21  37  57  84 114 142 183 235 269 319
#     4  10  22  39  58  77 108 152 190 224 269 321
#     4  11  22  35  56  85 113 147 183 223 275 322
#     4  10  19  33  51  78 114 146 178 223 274 331
#     4  11  23  39  56  81 114 152 184 218 272 334
#     4  10  19  29  50  80 108 140 177 224 280 317
#
# _framework density 19.299322
#
# number of rings (size 3 to 8) (size 9 to 14) (size 15 to 20)
#    0.000    1.714    0.000    9.000    0.000   10.286 
#    0.000    7.143    0.000    0.000    0.000   20.000 
#    0.000    0.000    0.000    0.000    0.000    0.000 
#
# Total GULP energy -77954.558020 kJ/mol
# GULP energy per Si atom -5568.182716 kJ/mol
# Density = 1.925540 g / cm^3
# Si number density = 19.299322 Si / 1000 Ang^3
#
#
#
# Elastic Constant Matrix: (Units=GPa)
#
#
# Indices 1 2 3 4 5 6 
#
# 1 129.4887 19.4100 57.8358 2.3168 22.4439 1.2104
# 2 19.4100 64.0629 26.7429 1.1904 15.0256 -7.1440
# 3 57.8358 26.7429 184.5183 14.0715 18.5331 -0.1935
# 4 2.3168 1.1904 14.0715 26.8921 -0.4134 9.9734
# 5 22.4439 15.0256 18.5331 -0.4134 49.2585 8.1975
# 6 1.2104 -7.1440 -0.1935 9.9734 8.1975 15.9569
#
#
#
# Elastic Compliance Matrix: (Units=1/GPa)
#
#
# Indices 1 2 3 4 5 6 
#
# 1 0.009555 -0.001126 -0.002568 0.000538 -0.003033 -0.000038
# 2 -0.001126 0.020540 -0.001243 -0.006913 -0.008315 0.017858
# 3 -0.002568 -0.001243 0.006934 -0.004681 -0.001684 0.003513
# 4 0.000538 -0.006913 -0.004681 0.056555 0.011496 -0.044446
# 5 -0.003033 -0.008315 -0.001684 0.011496 0.029228 -0.025714
# 6 -0.000038 0.017858 0.003513 -0.044446 -0.025714 0.111699
#
#
# Mechanical properties :
#
#
# Convention : Reuss Voigt Hill
#
# Bulk Modulus (GPa) = 36.82542 65.11637 50.97090
# Shear Modulus (GPa) = 19.72880 36.69358 28.21119
#
# Velocity S-wave (km/s) = 3.20074 4.36511 3.82746
# Velocity P-wave (km/s) = 5.72558 7.69539 6.78238
#
# Compressibility (1/GPa) = 0.02715515
#
# Stress axis : x y z
#
# Youngs Moduli (GPa) = 104.65780 48.68618 144.20854
#
# Poissons Ratio (x) = 0.05481 0.37035
# Poissons Ratio (y) = 0.11782 0.17925
# Poissons Ratio (z) = 0.26878 0.06052
#
# Static dielectric constant tensor:
#      x y z
#    x 1.713700 0.017810 0.011470 
#    y 0.017810 1.700810 0.032890 
#    z 0.011470 0.032890 1.713840 
# 
# From -- ./inp_files/47173.got.cif
#   From: 2010.05.17/outbox.ucp.g08.bks.cvg/sg2_24_cif.got.tgz:47173.got - 2010.06.11 11:32:03.
