data_PCOD9071207
_publ_section_title
;
Structure prediction by ZEFSAII (Michael W. Deem and Ramdas Pophale) SiO2 
 PCOD9071207
Probable space group: P -1
;
_chemical_formula_sum "Si O2"
_cell_formula_units_Z 11
_cell_length_a 8.935442
_cell_length_b 8.493065
_cell_length_c 10.118201
_cell_angle_alpha 123.328579
_cell_angle_beta 108.733291
_cell_angle_gamma 111.593798
_cell_volume 440.866920
_symmetry_space_group_name_H-M "P -1"
_symmetry_group_IT_number 2
_symmetry_cell_setting 'triclinic'
loop_
_space_group_symop_operation_xyz
x,y,z
-x,-y,-z
loop_
_atom_site_type_symbol
_atom_site_label
_atom_site_fract_x
_atom_site_fract_y
_atom_site_fract_z
Si Si1 0.126532 0.097807 0.285116
Si Si2 0.500000 0.000000 0.000000
Si Si3 0.651043 0.791869 0.123541
Si Si4 0.807755 0.415105 0.501922
Si Si5 0.447247 0.166364 0.610012
Si Si6 0.073468 0.420073 0.101850
O O1 0.894572 0.941471 0.218545
O O2 0.206376 0.368306 0.389848
O O3 0.296288 0.150653 0.459401
O O4 0.081895 0.889747 0.074167
O O5 0.462863 0.180918 0.010649
O O6 0.403252 0.829102 0.751136
O O7 0.663594 0.925150 0.322162
O O8 0.500000 0.500000 0.000000
O O9 0.902709 0.453499 0.694397
O O10 0.000000 0.500000 0.500000
O O11 0.686520 0.453226 0.810579
O O12 0.500000 0.000000 0.500000
O O13 0.000000 0.500000 0.000000
#
# Coordination Sequence:
#
# PCOD9071207 Si02
#       6
#     2   1   2   2   2   2
#     4  12  27  51  81 121 163 215 277 339 420 499
#     4  12  28  50  80 118 162 212 282 328 418 486
#     4  12  26  50  81 116 163 218 273 344 411 495
#     4  12  29  51  82 117 164 219 269 345 413 494
#     4  12  26  45  78 117 161 216 269 338 416 490
#     4  12  28  50  80 120 165 212 273 344 415 494
#
# _framework density 24.950841
#
# number of rings (size 3 to 8) (size 9 to 14) (size 15 to 20)
#    0.000    0.000    5.455    3.273    2.545    3.636 
#    3.273    0.000    0.000    0.000    0.000    0.000 
#    0.000    0.000    0.000    0.000    0.000    0.000 
#
# Total GULP energy -61279.582520 kJ/mol
# GULP energy per Si atom -5570.871138 kJ/mol
# Density = 2.489405 g / cm^3
# Si number density = 24.950841 Si / 1000 Ang^3
#
#
#
# Elastic Constant Matrix: (Units=GPa)
#
#
# Indices 1 2 3 4 5 6 
#
# 1 76.5583 35.0987 38.0754 -21.9256 0.5001 -6.8495
# 2 35.0987 92.4954 68.0691 -15.9707 15.6477 -43.1925
# 3 38.0754 68.0691 211.2426 -23.7606 -18.0983 -22.5521
# 4 -21.9256 -15.9707 -23.7606 55.5532 -9.7241 -3.2504
# 5 0.5001 15.6477 -18.0983 -9.7241 52.0159 -12.1004
# 6 -6.8495 -43.1925 -22.5521 -3.2504 -12.1004 54.7920
#
#
#
# Elastic Compliance Matrix: (Units=1/GPa)
#
#
# Indices 1 2 3 4 5 6 
#
# 1 0.017758 -0.007319 -0.000425 0.004919 0.002113 -0.002966
# 2 -0.007319 0.027243 -0.005862 0.002425 -0.005752 0.017022
# 3 -0.000425 -0.005862 0.007253 0.002010 0.004535 -0.000568
# 4 0.004919 0.002425 0.002010 0.022822 0.005570 0.005938
# 5 0.002113 -0.005752 0.004535 0.005570 0.024321 0.003298
# 6 -0.002966 0.017022 -0.000568 0.005938 0.003298 0.032145
#
#
# Mechanical properties :
#
#
# Convention : Reuss Voigt Hill
#
# Bulk Modulus (GPa) = 39.93186 73.64254 56.78720
# Shear Modulus (GPa) = 29.92171 48.40910 39.16541
#
# Velocity S-wave (km/s) = 3.46674 4.40953 3.96625
# Velocity P-wave (km/s) = 5.66245 7.45012 6.61694
#
# Compressibility (1/GPa) = 0.02504266
#
# Stress axis : x y z
#
# Youngs Moduli (GPa) = 56.31134 36.70650 137.86680
#
# Poissons Ratio (x) = 0.26867 0.05854
# Poissons Ratio (y) = 0.41216 0.80819
# Poissons Ratio (z) = 0.02391 0.21518
#
# Static dielectric constant tensor:
#      x y z
#    x 2.001740 0.049920 -0.080780 
#    y 0.049920 2.183260 0.108990 
#    z -0.080780 0.108990 2.051960 
# 
# From -- ./inp_files/156280.got.cif
#   From: 2010.05.17/outbox.cif.g08.bks.cpg/sg2_79_cif.got.tgz:156280.got - 2010.06.03 11:33:40.
