data_PCOD9071213
_publ_section_title
;
Structure prediction by ZEFSAII (Michael W. Deem and Ramdas Pophale) SiO2 
 PCOD9071213
Probable space group: P -1
;
_chemical_formula_sum "Si O2"
_cell_formula_units_Z 11
_cell_length_a 10.194928
_cell_length_b 8.629683
_cell_length_c 8.745731
_cell_angle_alpha 108.114127
_cell_angle_beta 137.725315
_cell_angle_gamma 64.653215
_cell_volume 467.743178
_symmetry_space_group_name_H-M "P -1"
_symmetry_group_IT_number 2
_symmetry_cell_setting 'triclinic'
loop_
_space_group_symop_operation_xyz
x,y,z
-x,-y,-z
loop_
_atom_site_type_symbol
_atom_site_label
_atom_site_fract_x
_atom_site_fract_y
_atom_site_fract_z
Si Si1 0.853512 0.058262 0.035210
Si Si2 0.452257 0.005518 0.779493
Si Si3 0.891215 0.662228 0.355467
Si Si4 0.365591 0.542234 0.052504
Si Si5 0.169018 0.784568 0.418404
Si Si6 0.500000 0.500000 0.500000
O O1 0.778377 0.263128 0.036368
O O2 0.647740 0.002506 0.846913
O O3 0.991323 0.949625 0.255343
O O4 0.000000 0.000000 0.000000
O O5 0.274626 0.184220 0.653631
O O6 0.367005 0.848807 0.625850
O O7 0.500000 0.000000 0.000000
O O8 0.765445 0.591459 0.098274
O O9 0.000000 0.500000 0.500000
O O10 0.065761 0.730772 0.458146
O O11 0.500000 0.500000 0.000000
O O12 0.497769 0.522678 0.315167
O O13 0.256628 0.623064 0.333124
#
# Coordination Sequence:
#
# PCOD9071213 Si02
#       6
#     2   2   2   2   2   1
#     4  12  27  51  76 116 158 213 264 327 405 483
#     4  12  26  48  78 111 158 209 267 334 396 485
#     4  12  26  45  81 117 157 213 271 335 402 484
#     4  12  26  51  79 116 161 208 269 330 404 477
#     4  12  28  48  74 114 160 210 267 328 411 476
#     4  12  28  48  78 118 162 204 270 344 392 476
#
# _framework density 23.517178999999999
#
# number of rings (size 3 to 8) (size 9 to 14) (size 15 to 20)
#    0.000    0.000    5.455    3.818    2.545    2.909 
#    0.000    0.000    0.000    0.000    0.000    0.000 
#    0.000    0.000    0.000    0.000    0.000    0.000 
#
# Total GULP energy -61338.274833 kJ/mol
# GULP energy per Si atom -5576.206803 kJ/mol
# Density = 2.346365 g / cm^3
# Si number density = 23.517179 Si / 1000 Ang^3
#
#
#
# Elastic Constant Matrix: (Units=GPa)
#
#
# Indices 1 2 3 4 5 6 
#
# 1 199.3131 63.1398 41.4486 0.0389 19.3408 -9.6019
# 2 63.1398 121.0502 15.5105 -41.7659 6.6735 -4.0980
# 3 41.4486 15.5105 56.9145 -23.6586 -0.8713 7.9465
# 4 0.0389 -41.7659 -23.6586 41.4002 11.6730 11.2909
# 5 19.3408 6.6735 -0.8713 11.6730 52.5908 -4.3444
# 6 -9.6019 -4.0980 7.9465 11.2909 -4.3444 46.9723
#
#
#
# Elastic Compliance Matrix: (Units=1/GPa)
#
#
# Indices 1 2 3 4 5 6 
#
# 1 0.016491 -0.018816 -0.025553 -0.039713 0.006049 0.016158
# 2 -0.018816 0.037033 0.035066 0.068058 -0.014306 -0.024230
# 3 -0.025553 0.035066 0.068687 0.089437 -0.016808 -0.036838
# 4 -0.039713 0.068058 0.089437 0.170801 -0.035553 -0.061655
# 5 0.006049 -0.014306 -0.016808 -0.035553 0.027368 0.013909
# 6 0.016158 -0.024230 -0.036838 -0.061655 0.013909 0.044817
#
#
# Mechanical properties :
#
#
# Convention : Reuss Voigt Hill
#
# Bulk Modulus (GPa) = 9.65215 68.60839 39.13027
# Shear Modulus (GPa) = 11.95203 45.33792 28.64498
#
# Velocity S-wave (km/s) = 2.25683 4.39551 3.49384
# Velocity P-wave (km/s) = 3.30216 7.41604 5.74030
#
# Compressibility (1/GPa) = 0.10360389
#
# Stress axis : x y z
#
# Youngs Moduli (GPa) = 60.63873 27.00293 14.55871
#
# Poissons Ratio (x) = 0.50809 0.37202
# Poissons Ratio (y) = 1.14098 -0.51051
# Poissons Ratio (z) = 1.54953 -0.94688
#
# Static dielectric constant tensor:
#      x y z
#    x 2.031500 -0.004040 -0.083070 
#    y -0.004040 1.958010 0.017360 
#    z -0.083070 0.017360 2.002760 
# 
# From -- ./inp_files/151794.got.cif
#   From: 2010.05.17/outbox.cif.g08.bks.cpg/sg2_76_cif.got.tgz:151794.got - 2010.06.03 11:33:40.
