data_PCOD9071407
_publ_section_title
;
Structure prediction by ZEFSAII (Michael W. Deem and Ramdas Pophale) SiO2 
 PCOD9071407
Probable space group: P -1
;
_chemical_formula_sum "Si O2"
_cell_formula_units_Z 12
_cell_length_a 12.078911
_cell_length_b 14.796342
_cell_length_c 5.290376
_cell_angle_alpha 123.141719
_cell_angle_beta 69.433401
_cell_angle_gamma 146.043302
_cell_volume 431.534164
_symmetry_space_group_name_H-M "P -1"
_symmetry_group_IT_number 2
_symmetry_cell_setting 'triclinic'
loop_
_space_group_symop_operation_xyz
x,y,z
-x,-y,-z
loop_
_atom_site_type_symbol
_atom_site_label
_atom_site_fract_x
_atom_site_fract_y
_atom_site_fract_z
Si Si1 0.633130 0.361385 0.939293
Si Si2 0.390849 0.379566 0.150068
Si Si3 0.769830 0.221002 0.600195
Si Si4 0.219534 0.555796 0.555578
Si Si5 0.340746 0.998732 0.138998
Si Si6 0.974027 0.053830 0.851295
O O1 0.790207 0.499297 0.799440
O O2 0.423584 0.271724 0.936814
O O3 0.652989 0.246731 0.785830
O O4 0.712810 0.465667 0.297927
O O5 0.500000 0.500000 0.500000
O O6 0.500000 0.500000 0.000000
O O7 0.172460 0.266230 0.090326
O O8 0.997898 0.426436 0.639380
O O9 0.742440 0.122528 0.720570
O O10 0.687116 0.100883 0.231128
O O11 0.426805 0.783347 0.692960
O O12 0.209421 0.004494 0.163263
O O13 0.000000 0.000000 0.500000
O O14 0.000000 0.000000 0.000000
#
# Coordination Sequence:
#
# PCOD9071407 Si02
#       6
#     2   2   2   2   2   2
#     4  12  26  49  78 115 163 209 267 339 409 482
#     4  12  28  48  82 117 151 213 273 329 404 490
#     4  12  28  49  81 119 164 212 268 338 413 489
#     4  12  26  49  77 118 167 206 265 338 404 485
#     4  12  28  49  83 121 158 217 274 328 417 494
#     4  12  26  52  77 114 162 208 269 337 403 480
#
# _framework density 27.807760999999999
#
# number of rings (size 3 to 8) (size 9 to 14) (size 15 to 20)
#    0.000    0.000    0.000    9.000    7.000    4.000 
#    0.000    0.000    0.000    0.000    0.000    0.000 
#    0.000    0.000    0.000    0.000    0.000    0.000 
#
# Total GULP energy -66916.390854 kJ/mol
# GULP energy per Si atom -5576.365904 kJ/mol
# Density = 2.774447 g / cm^3
# Si number density = 27.807761 Si / 1000 Ang^3
#
#
#
# Elastic Constant Matrix: (Units=GPa)
#
#
# Indices 1 2 3 4 5 6 
#
# 1 218.3757 93.8499 41.6403 12.3916 -3.4058 -18.4468
# 2 93.8499 225.0437 96.8306 -32.0429 23.5778 -21.2416
# 3 41.6403 96.8306 175.4365 -20.3717 20.1718 -13.0836
# 4 12.3916 -32.0429 -20.3717 70.7220 -2.3635 27.2754
# 5 -3.4058 23.5778 20.1718 -2.3635 46.0893 2.6200
# 6 -18.4468 -21.2416 -13.0836 27.2754 2.6200 41.0626
#
#
#
# Elastic Compliance Matrix: (Units=1/GPa)
#
#
# Indices 1 2 3 4 5 6 
#
# 1 0.006482 -0.002970 -0.000271 -0.003977 0.001696 0.003823
# 2 -0.002970 0.007613 -0.002838 0.003146 -0.002698 -0.000218
# 3 -0.000271 -0.002838 0.007672 0.000713 -0.001918 0.000503
# 4 -0.003977 0.003146 0.000713 0.022084 -0.000254 -0.014585
# 5 0.001696 -0.002698 -0.001918 -0.000254 0.024178 -0.002619
# 6 0.003823 -0.000218 0.000503 -0.014585 -0.002619 0.035973
#
#
# Mechanical properties :
#
#
# Convention : Reuss Voigt Hill
#
# Bulk Modulus (GPa) = 104.06106 120.38861 112.22483
# Shear Modulus (GPa) = 41.88893 57.34380 49.61637
#
# Velocity S-wave (km/s) = 3.88542 4.54602 4.22864
# Velocity P-wave (km/s) = 7.59154 8.42272 8.01791
#
# Compressibility (1/GPa) = 0.00960974
#
# Stress axis : x y z
#
# Youngs Moduli (GPa) = 154.26540 131.35044 130.35049
#
# Poissons Ratio (x) = 0.39008 0.03535
# Poissons Ratio (y) = 0.45813 0.36991
# Poissons Ratio (z) = 0.04183 0.37275
#
# Static dielectric constant tensor:
#      x y z
#    x 2.208650 0.023490 0.018640 
#    y 0.023490 2.528220 0.241530 
#    z 0.018640 0.241530 2.447110 
# 
# From -- ./inp_files/111499.got.cif
#   From: 2010.05.17/outbox.cif.g08.bks.cpg/sg2_56_cif.got.tgz:111499.got - 2010.06.03 11:33:40.
