data_PCOD9071841
_publ_section_title
;
Structure prediction by ZEFSAII (Michael W. Deem and Ramdas Pophale) SiO2 
 PCOD9071841
Probable space group: P -1
;
_chemical_formula_sum "Si O2"
_cell_formula_units_Z 14
_cell_length_a 17.859125
_cell_length_b 9.799886
_cell_length_c 9.999940
_cell_angle_alpha 107.194582
_cell_angle_beta 51.066725
_cell_angle_gamma 146.112868
_cell_volume 647.813003
_symmetry_space_group_name_H-M "P -1"
_symmetry_group_IT_number 2
_symmetry_cell_setting 'triclinic'
loop_
_space_group_symop_operation_xyz
x,y,z
-x,-y,-z
loop_
_atom_site_type_symbol
_atom_site_label
_atom_site_fract_x
_atom_site_fract_y
_atom_site_fract_z
Si Si1 0.719791 0.075737 0.102026
Si Si2 0.696184 0.264164 0.938066
Si Si3 0.540144 0.334489 0.270541
Si Si4 0.869428 0.473272 0.284792
Si Si5 0.162352 0.101247 0.792522
Si Si6 0.632719 0.448095 0.501023
Si Si7 0.883680 0.239453 0.398619
O O1 0.690957 0.137332 0.022418
O O2 0.773350 0.256441 0.211747
O O3 0.532391 0.748244 0.261564
O O4 0.906494 0.218227 0.913541
O O5 0.675861 0.395872 0.062564
O O6 0.904046 0.509558 0.703845
O O7 0.500000 0.000000 0.000000
O O8 0.650348 0.627345 0.246087
O O9 0.535848 0.283055 0.417676
O O10 0.320620 0.051512 0.383597
O O11 0.759886 0.479915 0.416886
O O12 0.866502 0.372718 0.391005
O O13 0.229597 0.246449 0.613213
O O14 0.111087 0.871405 0.761332
O O15 0.000000 0.000000 0.000000
#
# Coordination Sequence:
#
# PCOD9071841 Si02
#       7
#     2   2   2   2   2   2   2
#     4  10  18  30  51  79 107 136 177 225 278 319
#     4  11  23  37  53  79 118 156 186 223 266 329
#     4  10  20  33  56  81 115 139 181 224 285 329
#     4  10  18  29  54  81 109 137 171 230 287 318
#     4  10  20  34  54  87 119 143 170 228 302 332
#     4  10  19  32  53  83 116 134 173 227 288 333
#     4  11  20  36  56  87 113 140 183 233 282 331
#
# _framework density 21.611173999999998
#
# number of rings (size 3 to 8) (size 9 to 14) (size 15 to 20)
#    0.857    0.857    4.286    1.714    4.000    0.571 
#    0.000    0.000    0.000    0.857    0.000   10.000 
#    0.000    0.000    0.000    0.000    0.000    0.000 
#
# Total GULP energy -78100.445006 kJ/mol
# GULP energy per Si atom -5578.603215 kJ/mol
# Density = 2.156199 g / cm^3
# Si number density = 21.611174 Si / 1000 Ang^3
#
#
#
# Elastic Constant Matrix: (Units=GPa)
#
#
# Indices 1 2 3 4 5 6 
#
# 1 84.5707 31.3393 33.3484 -10.6724 -21.6714 -3.3492
# 2 31.3393 45.7539 6.6249 -15.6820 -3.0091 7.9544
# 3 33.3484 6.6249 84.3215 -26.9099 -15.3367 -1.7348
# 4 -10.6724 -15.6820 -26.9099 27.3429 4.7109 -7.5705
# 5 -21.6714 -3.0091 -15.3367 4.7109 29.1541 -5.9078
# 6 -3.3492 7.9544 -1.7348 -7.5705 -5.9078 31.4713
#
#
#
# Elastic Compliance Matrix: (Units=1/GPa)
#
#
# Indices 1 2 3 4 5 6 
#
# 1 0.026090 -0.020759 -0.009327 -0.011484 0.015762 0.007705
# 2 -0.020759 0.044959 0.011757 0.028912 -0.010902 -0.008016
# 3 -0.009327 0.011757 0.024144 0.027553 0.003471 0.004646
# 4 -0.011484 0.028912 0.027553 0.079309 -0.001485 0.011788
# 5 0.015762 -0.010902 0.003471 -0.001485 0.049713 0.013599
# 6 0.007705 -0.008016 0.004646 0.011788 0.013599 0.040266
#
#
# Mechanical properties :
#
#
# Convention : Reuss Voigt Hill
#
# Bulk Modulus (GPa) = 17.08388 39.69684 28.39036
# Shear Modulus (GPa) = 15.59330 27.14922 21.37126
#
# Velocity S-wave (km/s) = 2.68906 3.54822 3.14809
# Velocity P-wave (km/s) = 4.19090 5.93254 5.13608
#
# Compressibility (1/GPa) = 0.05853472
#
# Stress axis : x y z
#
# Youngs Moduli (GPa) = 38.32919 22.24251 41.41753
#
# Poissons Ratio (x) = 0.46173 0.38630
# Poissons Ratio (y) = 0.79567 -0.48694
# Poissons Ratio (z) = 0.35749 -0.26150
#
# Static dielectric constant tensor:
#      x y z
#    x 1.766170 0.005410 -0.006940 
#    y 0.005410 1.851050 -0.033790 
#    z -0.006940 -0.033790 1.834920 
# 
# From -- ./inp_files/457219.got.cif
#   From: 2010.05.17/outbox.cif.g08.bks.cpg/sg2_229_cif.got.tgz:457219.got - 2010.06.03 11:33:40.
