data_PCOD9071964
_publ_section_title
;
Structure prediction by ZEFSAII (Michael W. Deem and Ramdas Pophale) SiO2 
 PCOD9071964
Probable space group: P -1
;
_chemical_formula_sum "Si O2"
_cell_formula_units_Z 16
_cell_length_a 7.589647
_cell_length_b 8.366838
_cell_length_c 13.228755
_cell_angle_alpha 89.226641
_cell_angle_beta 126.506478
_cell_angle_gamma 109.270951
_cell_volume 618.600873
_symmetry_space_group_name_H-M "P -1"
_symmetry_group_IT_number 2
_symmetry_cell_setting 'triclinic'
loop_
_space_group_symop_operation_xyz
x,y,z
-x,-y,-z
loop_
_atom_site_type_symbol
_atom_site_label
_atom_site_fract_x
_atom_site_fract_y
_atom_site_fract_z
Si Si1 0.462436 0.333090 0.909957
Si Si2 0.997797 0.518530 0.118573
Si Si3 0.767770 0.332721 0.509581
Si Si4 0.640773 0.826260 0.473157
Si Si5 0.393996 0.875664 0.217754
Si Si6 0.987847 0.702322 0.701831
Si Si7 0.713125 0.573894 0.343463
Si Si8 0.544413 0.886955 0.925325
O O1 0.509197 0.208542 0.840482
O O2 0.366826 0.434723 0.798362
O O3 0.717268 0.459307 0.041719
O O4 0.337676 0.218676 0.966156
O O5 0.069436 0.376408 0.202826
O O6 0.173057 0.718265 0.196742
O O7 0.000000 0.500000 0.000000
O O8 0.564461 0.210316 0.513786
O O9 0.668329 0.386576 0.374993
O O10 0.880693 0.522188 0.603757
O O11 0.003544 0.301372 0.565660
O O12 0.599922 0.952503 0.373483
O O13 0.599032 0.663015 0.384156
O O14 0.869141 0.830230 0.616079
O O15 0.318092 0.008016 0.126682
O O16 0.272577 0.787854 0.793713
O O17 0.500000 0.000000 0.000000
#
# Coordination Sequence:
#
# PCOD9071964 Si02
#       8
#     2   2   2   2   2   2   2   2
#     4   8  16  29  48  72 100 139 176 212 259 317
#     4   9  16  25  45  73 100 133 173 219 257 303
#     4  10  19  31  53  85 111 130 172 230 261 315
#     4  10  19  31  55  81 111 133 174 223 264 317
#     4   9  16  28  47  73 107 135 171 218 262 302
#     4  10  18  30  49  77 107 137 176 219 264 311
#     4   9  18  32  51  82 111 138 165 218 284 303
#     4   9  18  32  46  74 109 141 180 218 255 316
#
# _framework density 25.864820999999999
#
# number of rings (size 3 to 8) (size 9 to 14) (size 15 to 20)
#    0.000    2.750    1.250    2.250    3.500    0.500 
#    0.000    2.500    0.000    0.750    0.000   17.500 
#    0.000    0.000    0.000    0.000    0.000    0.000 
#
# Total GULP energy -89186.706113 kJ/mol
# GULP energy per Si atom -5574.169132 kJ/mol
# Density = 2.580595 g / cm^3
# Si number density = 25.864821 Si / 1000 Ang^3
#
#
#
# Elastic Constant Matrix: (Units=GPa)
#
#
# Indices 1 2 3 4 5 6 
#
# 1 78.3423 20.1198 25.7581 -8.7884 -12.4744 9.0982
# 2 20.1198 65.8187 68.3651 -36.4417 -6.5228 22.5828
# 3 25.7581 68.3651 184.3689 -61.3689 -7.1543 11.2956
# 4 -8.7884 -36.4417 -61.3689 62.2897 6.3741 -13.8071
# 5 -12.4744 -6.5228 -7.1543 6.3741 34.9115 2.0059
# 6 9.0982 22.5828 11.2956 -13.8071 2.0059 27.1222
#
#
#
# Elastic Compliance Matrix: (Units=1/GPa)
#
#
# Indices 1 2 3 4 5 6 
#
# 1 0.014893 -0.002339 -0.001478 -0.002118 0.005192 -0.003895
# 2 -0.002339 0.039076 -0.010339 0.006445 0.004578 -0.024503
# 3 -0.001478 -0.010339 0.011119 0.006661 -0.001857 0.008002
# 4 -0.002118 0.006445 0.006661 0.028048 -0.003718 0.007123
# 5 0.005192 0.004578 -0.001857 -0.003718 0.032173 -0.009052
# 6 -0.003895 -0.024503 0.008002 0.007123 -0.009052 0.059542
#
#
# Mechanical properties :
#
#
# Convention : Reuss Voigt Hill
#
# Bulk Modulus (GPa) = 27.19131 61.89067 44.54099
# Shear Modulus (GPa) = 22.18066 39.15047 30.66557
#
# Velocity S-wave (km/s) = 2.93159 3.89480 3.44700
# Velocity P-wave (km/s) = 4.68985 6.64879 5.75330
#
# Compressibility (1/GPa) = 0.03677645
#
# Stress axis : x y z
#
# Youngs Moduli (GPa) = 67.14722 25.59093 89.93522
#
# Poissons Ratio (x) = 0.05985 0.13296
# Poissons Ratio (y) = 0.15703 0.92982
# Poissons Ratio (z) = 0.09927 0.26458
#
# Static dielectric constant tensor:
#      x y z
#    x 2.097380 -0.072470 0.045050 
#    y -0.072470 2.198760 -0.040110 
#    z 0.045050 -0.040110 2.106640 
# 
# From -- ./inp_files/499078.got.cif
#   From: 2010.05.17/outbox.cif.g08.bks.cpg/sg2_250_cif.got.tgz:499078.got - 2010.06.03 11:33:40.
