data_PCOD9071799
_publ_section_title
;
Structure prediction by ZEFSAII (Michael W. Deem and Ramdas Pophale) SiO2 
 PCOD9071799
Probable space group: P -1
;
_chemical_formula_sum "Si O2"
_cell_formula_units_Z 14
_cell_length_a 7.142363
_cell_length_b 13.421727
_cell_length_c 12.514717
_cell_angle_alpha 46.793141
_cell_angle_beta 66.877992
_cell_angle_gamma 43.960635
_cell_volume 595.003780
_symmetry_space_group_name_H-M "P -1"
_symmetry_group_IT_number 2
_symmetry_cell_setting 'triclinic'
loop_
_space_group_symop_operation_xyz
x,y,z
-x,-y,-z
loop_
_atom_site_type_symbol
_atom_site_label
_atom_site_fract_x
_atom_site_fract_y
_atom_site_fract_z
Si Si1 0.664670 0.200556 0.800856
Si Si2 0.524666 0.076703 0.757852
Si Si3 0.995772 0.346586 0.990297
Si Si4 0.039379 0.645221 0.762116
Si Si5 0.592667 0.062201 0.284233
Si Si6 0.156644 0.805590 0.449259
Si Si7 0.239283 0.769300 0.009025
O O1 0.444359 0.199982 0.790833
O O2 0.642125 0.276805 0.865040
O O3 0.731811 0.276821 0.634940
O O4 0.937725 0.980438 0.915197
O O5 0.702880 0.109509 0.628318
O O6 0.325173 0.090158 0.711045
O O7 0.718209 0.866498 0.909224
O O8 0.045587 0.481718 0.855379
O O9 0.806344 0.356952 0.939201
O O10 0.882821 0.377449 0.113984
O O11 0.714627 0.830086 0.690105
O O12 0.197902 0.674315 0.625876
O O13 0.830255 0.969356 0.385286
O O14 0.579779 0.213784 0.117291
#
# Coordination Sequence:
#
# PCOD9071799 Si02
#       7
#     2   2   2   2   2   2   2
#     4   7  15  30  51  70  97 126 157 207 243 277
#     4   8  17  33  51  75  96 125 167 192 253 279
#     4   9  18  33  49  72  97 138 161 195 242 294
#     4  10  20  32  49  72 106 127 167 194 245 295
#     4  10  18  29  51  77  98 129 162 199 243 289
#     4   9  18  35  49  75 101 125 161 208 240 287
#     4   9  15  31  49  73 100 121 168 202 237 288
#
# _framework density 23.529261999999999
#
# number of rings (size 3 to 8) (size 9 to 14) (size 15 to 20)
#    0.857    2.286    1.429    0.429    0.000    3.429 
#    2.571    2.143    0.000    0.000    0.000   10.000 
#    0.000    0.000    0.000    0.000    0.000    0.000 
#
# Total GULP energy -78076.784769 kJ/mol
# GULP energy per Si atom -5576.913198 kJ/mol
# Density = 2.347571 g / cm^3
# Si number density = 23.529262 Si / 1000 Ang^3
#
#
#
# Elastic Constant Matrix: (Units=GPa)
#
#
# Indices 1 2 3 4 5 6 
#
# 1 56.6638 25.8305 0.2240 -23.0714 -22.9511 10.2873
# 2 25.8305 68.5709 46.5963 -2.6212 2.0533 27.1083
# 3 0.2240 46.5963 115.6627 -11.6463 -4.9128 11.7930
# 4 -23.0714 -2.6212 -11.6463 14.7276 -1.3425 -5.6762
# 5 -22.9511 2.0533 -4.9128 -1.3425 19.9845 -16.0857
# 6 10.2873 27.1083 11.7930 -5.6762 -16.0857 33.8673
#
#
#
# Elastic Compliance Matrix: (Units=1/GPa)
#
#
# Indices 1 2 3 4 5 6 
#
# 1 -0.001977 0.014579 -0.006232 -0.017018 -0.025744 -0.023979
# 2 0.014579 0.008640 -0.000219 0.027019 0.019738 0.002635
# 3 -0.006232 -0.000219 0.008295 -0.007228 -0.011682 -0.007581
# 4 -0.017018 0.027019 -0.007228 0.022800 -0.049717 -0.033733
# 5 -0.025744 0.019738 -0.011682 -0.049717 0.003850 -0.010415
# 6 -0.023979 0.002635 -0.007581 -0.033733 -0.010415 0.026741
#
#
# Mechanical properties :
#
#
# Convention : Reuss Voigt Hill
#
# Bulk Modulus (GPa) = 32.03484 42.91100 37.47292
# Shear Modulus (GPa) = 80.00248 24.93233 52.46741
#
# Velocity S-wave (km/s) = 5.83739 3.25873 4.72728
# Velocity P-wave (km/s) = 7.68621 5.69526 6.76439
#
# Compressibility (1/GPa) = 0.03121602
#
# Stress axis : x y z
#
# Youngs Moduli (GPa) = -505.91305 115.73780 120.55594
#
# Poissons Ratio (x) = -1.68739 0.75129
# Poissons Ratio (y) = 7.37591 0.02638
# Poissons Ratio (z) = -3.15277 0.02532
#
# Static dielectric constant tensor:
#      x y z
#    x 1.899830 -0.041580 0.009380 
#    y -0.041580 2.003800 0.048460 
#    z 0.009380 0.048460 1.862270 
# 
# From -- ./inp_files/502613.got.cif
#   From: 2010.05.17/outbox.cif.g08.bks.cpg/sg2_252_cif.got.tgz:502613.got - 2010.06.03 11:33:40.
