data_PCOD9071200
_publ_section_title
;
Structure prediction by ZEFSAII (Michael W. Deem and Ramdas Pophale) SiO2 
 PCOD9071200
Probable space group: P -1
;
_chemical_formula_sum "Si O2"
_cell_formula_units_Z 14
_cell_length_a 9.504963
_cell_length_b 8.873895
_cell_length_c 16.491344
_cell_angle_alpha 119.669207
_cell_angle_beta 63.727374
_cell_angle_gamma 149.514400
_cell_volume 612.750628
_symmetry_space_group_name_H-M "P -1"
_symmetry_group_IT_number 2
_symmetry_cell_setting 'triclinic'
loop_
_space_group_symop_operation_xyz
x,y,z
-x,-y,-z
loop_
_atom_site_type_symbol
_atom_site_label
_atom_site_fract_x
_atom_site_fract_y
_atom_site_fract_z
Si Si1 0.838556 0.242256 0.632030
Si Si2 0.693667 0.658435 0.682669
Si Si3 0.636657 0.277720 0.485193
Si Si4 0.528570 0.300783 0.785506
Si Si5 0.841771 0.639803 0.269326
Si Si6 0.241370 0.737750 0.937927
Si Si7 0.968759 0.152397 0.094247
O O1 0.636804 0.217476 0.700112
O O2 0.090668 0.525730 0.583349
O O3 0.988679 0.306290 0.690309
O O4 0.625686 0.914564 0.556599
O O5 0.731375 0.522964 0.582285
O O6 0.587944 0.497789 0.754537
O O7 0.445881 0.543178 0.675720
O O8 0.962105 0.023364 0.718623
O O9 0.500000 0.000000 0.500000
O O10 0.724671 0.511297 0.868775
O O11 0.215767 0.020534 0.822844
O O12 0.759303 0.431619 0.163982
O O13 0.179315 0.843649 0.924304
O O14 0.000000 0.500000 0.000000
O O15 0.500000 0.000000 0.000000
O O16 0.000000 0.000000 0.000000
#
# Coordination Sequence:
#
# PCOD9071200 Si02
#       7
#     2   2   2   2   2   2   2
#     4  12  26  47  78 102 150 197 240 299 363 434
#     4  12  28  45  75 108 148 192 244 300 358 431
#     4  12  26  45  76 111 145 190 252 301 357 420
#     4  12  26  48  75 104 147 193 241 293 363 431
#     4  12  28  48  71 109 148 193 239 296 374 432
#     4  12  28  48  76 105 146 190 237 302 366 432
#     4  12  28  48  75 109 141 187 245 300 360 433
#
# _framework density 22.847791999999998
#
# number of rings (size 3 to 8) (size 9 to 14) (size 15 to 20)
#    0.000    0.000    2.857    6.000   10.000    3.429 
#    0.000    0.000    0.000    0.000    0.000    0.000 
#    0.000    0.000    0.000    0.000    0.000    0.000 
#
# Total GULP energy -78435.062619 kJ/mol
# GULP energy per Si atom -5602.504473 kJ/mol
# Density = 2.279579 g / cm^3
# Si number density = 22.847792 Si / 1000 Ang^3
#
#
#
# Elastic Constant Matrix: (Units=GPa)
#
#
# Indices 1 2 3 4 5 6 
#
# 1 78.6543 33.1579 43.6205 16.2431 3.7668 -0.6162
# 2 33.1579 132.0016 40.3040 0.4925 -6.2699 1.0169
# 3 43.6205 40.3040 117.4717 6.6259 -15.9010 -20.1634
# 4 16.2431 0.4925 6.6259 52.7742 5.0736 3.0645
# 5 3.7668 -6.2699 -15.9010 5.0736 43.8319 3.3698
# 6 -0.6162 1.0169 -20.1634 3.0645 3.3698 41.8639
#
#
#
# Elastic Compliance Matrix: (Units=1/GPa)
#
#
# Indices 1 2 3 4 5 6 
#
# 1 0.018616 -0.002809 -0.006582 -0.004392 -0.003711 -0.002208
# 2 -0.002809 0.009016 -0.002273 0.001086 0.000695 -0.001491
# 3 -0.006582 -0.002273 0.013443 -0.000446 0.004701 0.006087
# 4 -0.004392 0.001086 -0.000446 0.020624 -0.001889 -0.001664
# 5 -0.003711 0.000695 0.004701 -0.001889 0.025133 0.000308
# 6 -0.002208 -0.001491 0.006087 -0.001664 0.000308 0.026920
#
#
# Mechanical properties :
#
#
# Convention : Reuss Voigt Hill
#
# Bulk Modulus (GPa) = 56.35238 62.47694 59.41466
# Shear Modulus (GPa) = 34.96567 41.76368 38.36468
#
# Velocity S-wave (km/s) = 3.91624 4.28004 4.10218
# Velocity P-wave (km/s) = 6.72065 7.19925 6.96406
#
# Compressibility (1/GPa) = 0.01774548
#
# Stress axis : x y z
#
# Youngs Moduli (GPa) = 53.71666 110.91580 74.38714
#
# Poissons Ratio (x) = 0.31160 0.48965
# Poissons Ratio (y) = 0.15091 0.16909
# Poissons Ratio (z) = 0.35359 0.25212
#
# Static dielectric constant tensor:
#      x y z
#    x 1.851400 -0.006620 0.019820 
#    y -0.006620 1.792210 0.009490 
#    z 0.019820 0.009490 1.857640 
# 
# From -- ./inp_files/312868.got.cif
#   From: 2010.05.17/outbox.cif.g08.bks.cpg/sg2_157_cif.got.tgz:312868.got - 2010.06.03 11:33:40.
