data_PCOD9071936
_publ_section_title
;
Structure prediction by ZEFSAII (Michael W. Deem and Ramdas Pophale) SiO2 
 PCOD9071936
Probable space group: P -1
;
_chemical_formula_sum "Si O2"
_cell_formula_units_Z 16
_cell_length_a 13.862143
_cell_length_b 7.847662
_cell_length_c 9.713413
_cell_angle_alpha 102.178070
_cell_angle_beta 72.047701
_cell_angle_gamma 62.967388
_cell_volume 814.962198
_symmetry_space_group_name_H-M "P -1"
_symmetry_group_IT_number 2
_symmetry_cell_setting 'triclinic'
loop_
_space_group_symop_operation_xyz
x,y,z
-x,-y,-z
loop_
_atom_site_type_symbol
_atom_site_label
_atom_site_fract_x
_atom_site_fract_y
_atom_site_fract_z
Si Si1 0.480266 0.790966 0.621658
Si Si2 0.992577 0.250498 0.414616
Si Si3 0.852143 0.478265 0.011926
Si Si4 0.741281 0.540993 0.469768
Si Si5 0.378502 0.259914 0.696437
Si Si6 0.922697 0.779272 0.928794
Si Si7 0.958599 0.867028 0.332592
Si Si8 0.226670 0.860248 0.757474
O O1 0.609334 0.637460 0.615124
O O2 0.519717 0.729963 0.431808
O O3 0.364858 0.786602 0.707620
O O4 0.439474 0.030875 0.692864
O O5 0.856845 0.463229 0.500169
O O6 0.051757 0.219748 0.532133
O O7 0.062767 0.239167 0.244246
O O8 0.974637 0.058524 0.379138
O O9 0.849662 0.683668 0.003656
O O10 0.921383 0.314315 0.830790
O O11 0.714528 0.559947 0.127362
O O12 0.945044 0.365150 0.080620
O O13 0.707976 0.709734 0.392181
O O14 0.771156 0.336084 0.336026
O O15 0.856361 0.018252 0.052321
O O16 0.842277 0.960682 0.299864
#
# Coordination Sequence:
#
# PCOD9071936 Si02
#       8
#     2   2   2   2   2   2   2   2
#     4   9  17  30  47  74  98 124 157 204 240 277
#     4  10  19  36  47  74  97 135 159 194 243 290
#     4  10  18  32  46  77  95 127 161 201 245 281
#     4   9  18  28  51  70  97 127 159 197 234 286
#     4   9  17  29  48  72  96 125 155 200 240 281
#     4  10  19  28  52  70 103 123 159 205 240 286
#     4   9  22  32  51  69 105 127 161 196 241 297
#     4  10  18  30  48  80  97 122 159 204 239 283
#
# _framework density 19.632812000000001
#
# number of rings (size 3 to 8) (size 9 to 14) (size 15 to 20)
#    0.750    1.750    2.500    0.375    1.750    2.000 
#    0.000    0.000    0.000    2.250    0.000    6.125 
#    0.000    0.000    0.000    0.000    0.000    0.000 
#
# Total GULP energy -89067.902075 kJ/mol
# GULP energy per Si atom -5566.743880 kJ/mol
# Density = 1.958813 g / cm^3
# Si number density = 19.632812 Si / 1000 Ang^3
#
#
#
# Elastic Constant Matrix: (Units=GPa)
#
#
# Indices 1 2 3 4 5 6 
#
# 1 24.0273 9.2299 14.0786 2.4250 -12.0531 -6.8088
# 2 9.2299 72.4061 31.4250 10.0085 -1.2881 -13.2087
# 3 14.0786 31.4250 97.3435 -3.2602 -13.6040 -22.1511
# 4 2.4250 10.0085 -3.2602 32.0364 -8.2236 -5.0360
# 5 -12.0531 -1.2881 -13.6040 -8.2236 24.6736 1.1752
# 6 -6.8088 -13.2087 -22.1511 -5.0360 1.1752 20.8125
#
#
#
# Elastic Compliance Matrix: (Units=1/GPa)
#
#
# Indices 1 2 3 4 5 6 
#
# 1 0.064876 -0.006341 0.002429 0.009432 0.034887 0.020097
# 2 -0.006341 0.018490 -0.006023 -0.007701 -0.008108 0.001844
# 3 0.002429 -0.006023 0.018108 0.009750 0.013256 0.017856
# 4 0.009432 -0.007701 0.009750 0.042546 0.022925 0.017576
# 5 0.034887 -0.008108 0.013256 0.022925 0.071054 0.021911
# 6 0.020097 0.001844 0.017856 0.017576 0.021911 0.077813
#
#
# Mechanical properties :
#
#
# Convention : Reuss Voigt Hill
#
# Bulk Modulus (GPa) = 12.25442 33.69377 22.97409
# Shear Modulus (GPa) = 14.70759 24.77404 19.74082
#
# Velocity S-wave (km/s) = 2.74000 3.55613 3.17440
# Velocity P-wave (km/s) = 4.03305 5.83615 5.01628
#
# Compressibility (1/GPa) = 0.08160322
#
# Stress axis : x y z
#
# Youngs Moduli (GPa) = 15.41402 54.08288 55.22307
#
# Poissons Ratio (x) = 0.34294 -0.13413
# Poissons Ratio (y) = 0.09774 0.33263
# Poissons Ratio (z) = -0.03744 0.32576
#
# Static dielectric constant tensor:
#      x y z
#    x 1.692040 0.014320 -0.019630 
#    y 0.014320 1.758550 0.002970 
#    z -0.019630 0.002970 1.712210 
# 
# From -- ./inp_files/252807.got.cif
#   From: 2010.05.17/outbox.cif.g08.bks.cpg/sg2_127_cif.got.tgz:252807.got - 2010.06.03 11:33:40.
