data_PCOD9071035
_publ_section_title
;
Structure prediction by ZEFSAII (Michael W. Deem and Ramdas Pophale) SiO2 
 PCOD9071035
Probable space group: P -1
;
_chemical_formula_sum "Si O2"
_cell_formula_units_Z 13
_cell_length_a 13.250797
_cell_length_b 9.831553
_cell_length_c 8.332989
_cell_angle_alpha 78.353350
_cell_angle_beta 142.818514
_cell_angle_gamma 119.432929
_cell_volume 533.012708
_symmetry_space_group_name_H-M "P -1"
_symmetry_group_IT_number 2
_symmetry_cell_setting 'triclinic'
loop_
_space_group_symop_operation_xyz
x,y,z
-x,-y,-z
loop_
_atom_site_type_symbol
_atom_site_label
_atom_site_fract_x
_atom_site_fract_y
_atom_site_fract_z
Si Si1 0.802769 0.407911 0.379322
Si Si2 0.389078 0.264457 0.790893
Si Si3 0.500000 0.500000 0.500000
Si Si4 0.150605 0.392136 0.285676
Si Si5 0.203045 0.913637 0.506119
Si Si6 0.732172 0.059545 0.778435
Si Si7 0.249769 0.223321 0.978412
O O1 0.824294 0.497211 0.554746
O O2 0.740458 0.220788 0.383241
O O3 0.000000 0.500000 0.500000
O O4 0.626740 0.389555 0.050525
O O5 0.268327 0.302671 0.503306
O O6 0.328850 0.077556 0.733274
O O7 0.335964 0.285629 0.896770
O O8 0.280707 0.485787 0.270742
O O9 0.383653 0.352005 0.255521
O O10 0.913945 0.253339 0.992066
O O11 0.226404 0.976228 0.339185
O O12 0.973342 0.821151 0.288439
O O13 0.500000 0.000000 0.500000
O O14 0.760013 0.946518 0.963272
#
# Coordination Sequence:
#
# PCOD9071035 Si02
#       7
#     2   2   1   2   2   2   2
#     4  12  29  44  73 118 150 187 245 312 375 432
#     4  12  26  49  78 104 149 199 251 296 368 450
#     4  12  26  46  80 104 152 190 256 302 370 434
#     4  12  27  51  77 109 148 202 248 306 371 442
#     4  12  26  48  73 105 150 194 245 302 373 443
#     4  12  28  47  74 106 149 193 250 305 371 441
#     4  12  25  49  75 109 141 201 249 308 367 442
#
# _framework density 24.389662000000001
#
# number of rings (size 3 to 8) (size 9 to 14) (size 15 to 20)
#    0.000    0.000    4.615    4.615    6.462    1.846 
#    0.000    0.000    0.000    0.000    0.000    0.000 
#    0.000    0.000    0.000    0.000    0.000    0.000 
#
# Total GULP energy -72635.849384 kJ/mol
# GULP energy per Si atom -5587.373030 kJ/mol
# Density = 2.433415 g / cm^3
# Si number density = 24.389662 Si / 1000 Ang^3
#
#
#
# Elastic Constant Matrix: (Units=GPa)
#
#
# Indices 1 2 3 4 5 6 
#
# 1 94.7285 -3.7845 40.1058 13.6597 13.4458 -16.7365
# 2 -3.7845 74.0080 25.6028 2.6329 -4.2999 -28.4002
# 3 40.1058 25.6028 157.9537 35.8757 26.5019 -16.3373
# 4 13.6597 2.6329 35.8757 49.3673 -1.6864 -15.3251
# 5 13.4458 -4.2999 26.5019 -1.6864 45.1358 8.7283
# 6 -16.7365 -28.4002 -16.3373 -15.3251 8.7283 41.2251
#
#
#
# Elastic Compliance Matrix: (Units=1/GPa)
#
#
# Indices 1 2 3 4 5 6 
#
# 1 0.014014 0.004938 -0.002971 0.000667 -0.003663 0.008937
# 2 0.004938 0.021789 -0.004350 0.006082 -0.000009 0.017554
# 3 -0.002971 -0.004350 0.010117 -0.006994 -0.005412 -0.001648
# 4 0.000667 0.006082 -0.006994 0.028544 0.003311 0.011599
# 5 -0.003663 -0.000009 -0.005412 0.003311 0.028166 -0.008370
# 6 0.008937 0.017554 -0.001648 0.011599 -0.008370 0.045409
#
#
# Mechanical properties :
#
#
# Convention : Reuss Voigt Hill
#
# Bulk Modulus (GPa) = 24.29960 50.05981 37.17971
# Shear Modulus (GPa) = 30.02590 44.79671 37.41130
#
# Velocity S-wave (km/s) = 3.51250 4.29033 3.92075
# Velocity P-wave (km/s) = 5.14149 6.71656 5.98110
#
# Compressibility (1/GPa) = 0.04115294
#
# Stress axis : x y z
#
# Youngs Moduli (GPa) = 71.35470 45.89554 98.84716
#
# Poissons Ratio (x) = -0.22662 0.29371
# Poissons Ratio (y) = -0.35233 0.42996
# Poissons Ratio (z) = 0.21202 0.19963
#
# Static dielectric constant tensor:
#      x y z
#    x 2.131340 0.212100 0.051310 
#    y 0.212100 2.137940 0.006050 
#    z 0.051310 0.006050 1.973720 
# 
# From -- ./inp_files/183267.got.cif
#   From: 2010.05.17/outbox.cif.g08.bks.cpg/sg2_92_cif.got.tgz:183267.got - 2010.06.03 11:33:40.
