data_PCOD9071862
_publ_section_title
;
Structure prediction by ZEFSAII (Michael W. Deem and Ramdas Pophale) SiO2 
 PCOD9071862
Probable space group: P -1
;
_chemical_formula_sum "Si O2"
_cell_formula_units_Z 15
_cell_length_a 8.863018
_cell_length_b 15.295940
_cell_length_c 7.700486
_cell_angle_alpha 130.024450
_cell_angle_beta 47.557492
_cell_angle_gamma 101.311373
_cell_volume 535.127923
_symmetry_space_group_name_H-M "P -1"
_symmetry_group_IT_number 2
_symmetry_cell_setting 'triclinic'
loop_
_space_group_symop_operation_xyz
x,y,z
-x,-y,-z
loop_
_atom_site_type_symbol
_atom_site_label
_atom_site_fract_x
_atom_site_fract_y
_atom_site_fract_z
Si Si1 0.893347 0.256217 0.713021
Si Si2 0.086660 0.853209 0.881344
Si Si3 0.657830 0.972579 0.171768
Si Si4 0.223792 0.079567 0.475341
Si Si5 0.482360 0.404228 0.035783
Si Si6 0.000000 0.500000 0.000000
Si Si7 0.400309 0.633453 0.585763
Si Si8 0.785532 0.652878 0.099753
O O1 0.710764 0.280712 0.734732
O O2 0.726831 0.287269 0.050227
O O3 0.973767 0.368728 0.783677
O O4 0.096814 0.125275 0.448255
O O5 0.250707 0.919704 0.790472
O O6 0.238144 0.716577 0.664360
O O7 0.939502 0.932254 0.264573
O O8 0.894048 0.859072 0.901320
O O9 0.476931 0.972962 0.167035
O O10 0.500000 0.000000 0.500000
O O11 0.241204 0.207848 0.684277
O O12 0.442858 0.489833 0.345958
O O13 0.500000 0.500000 0.000000
O O14 0.298495 0.366751 0.045432
O O15 0.017501 0.544910 0.840967
O O16 0.647628 0.628334 0.342243
#
# Coordination Sequence:
#
# PCOD9071862 Si02
#       8
#     2   2   2   2   2   1   2   2
#     4  10  19  31  50  70 101 138 180 212 255 303
#     4   9  17  29  48  78 104 130 170 214 258 310
#     4   9  16  29  50  78 106 125 164 220 265 303
#     4   9  18  31  50  76 104 136 169 215 259 304
#     4  10  19  32  50  73 104 142 178 208 254 304
#     4  10  18  30  44  68 100 138 176 212 256 298
#     4  10  18  31  51  72 101 140 176 209 251 303
#     4  10  19  32  52  70 108 139 175 212 256 303
#
# _framework density 28.030681000000001
#
# number of rings (size 3 to 8) (size 9 to 14) (size 15 to 20)
#    0.000    2.400    4.000    0.400    0.000    0.000 
#    0.000    6.000    0.000    0.000    0.000   18.667 
#    0.000    1.733    0.000    0.000    0.000    0.000 
#
# Total GULP energy -83613.450437 kJ/mol
# GULP energy per Si atom -5574.230029 kJ/mol
# Density = 2.796688 g / cm^3
# Si number density = 28.030681 Si / 1000 Ang^3
#
#
#
# Elastic Constant Matrix: (Units=GPa)
#
#
# Indices 1 2 3 4 5 6 
#
# 1 129.7667 36.5996 -16.8335 5.7408 -0.6960 -17.1381
# 2 36.5996 78.7826 24.9423 14.5935 -23.4218 -10.0114
# 3 -16.8335 24.9423 110.6381 -12.5984 -33.3244 11.1541
# 4 5.7408 14.5935 -12.5984 31.4853 5.9066 -0.6065
# 5 -0.6960 -23.4218 -33.3244 5.9066 36.5709 4.5586
# 6 -17.1381 -10.0114 11.1541 -0.6065 4.5586 71.0711
#
#
#
# Elastic Compliance Matrix: (Units=1/GPa)
#
#
# Indices 1 2 3 4 5 6 
#
# 1 0.009840 -0.006302 0.002409 0.002532 -0.002221 0.001271
# 2 -0.006302 0.023636 -0.003956 -0.013890 0.013476 0.001448
# 3 0.002409 -0.003956 0.014154 0.005142 0.009927 -0.002790
# 4 0.002532 -0.013890 0.005142 0.041794 -0.010775 -0.001105
# 5 -0.002221 0.013476 0.009927 -0.010775 0.047131 -0.003310
# 6 0.001271 0.001448 -0.002790 -0.001105 -0.003310 0.015222
#
#
# Mechanical properties :
#
#
# Convention : Reuss Voigt Hill
#
# Bulk Modulus (GPa) = 31.31587 45.40045 38.35816
# Shear Modulus (GPa) = 28.07122 46.12406 37.09764
#
# Velocity S-wave (km/s) = 3.16800 4.06086 3.64189
# Velocity P-wave (km/s) = 4.95761 6.18217 5.60344
#
# Compressibility (1/GPa) = 0.03193269
#
# Stress axis : x y z
#
# Youngs Moduli (GPa) = 101.62681 42.30775 70.65313
#
# Poissons Ratio (x) = 0.26661 -0.17021
# Poissons Ratio (y) = 0.64041 0.27950
# Poissons Ratio (z) = -0.24482 0.16737
#
# Static dielectric constant tensor:
#      x y z
#    x 2.051950 -0.020610 0.253570 
#    y -0.020610 2.108270 -0.172760 
#    z 0.253570 -0.172760 2.035390 
# 
# From -- ./inp_files/202878.got.cif
#   From: 2010.05.17/outbox.cif.g08.bks.cpg/sg2_102_cif.got.tgz:202878.got - 2010.06.03 11:33:40.
