data_PCOD9071021
_publ_section_title
;
Structure prediction by ZEFSAII (Michael W. Deem and Ramdas Pophale) SiO2 
 PCOD9071021
Probable space group: P -1
;
_chemical_formula_sum "Si O2"
_cell_formula_units_Z 16
_cell_length_a 9.536075
_cell_length_b 8.023688
_cell_length_c 13.155397
_cell_angle_alpha 44.423075
_cell_angle_beta 75.616395
_cell_angle_gamma 85.411524
_cell_volume 675.389804
_symmetry_space_group_name_H-M "P -1"
_symmetry_group_IT_number 2
_symmetry_cell_setting 'triclinic'
loop_
_space_group_symop_operation_xyz
x,y,z
-x,-y,-z
loop_
_atom_site_type_symbol
_atom_site_label
_atom_site_fract_x
_atom_site_fract_y
_atom_site_fract_z
Si Si1 0.166987 0.974206 0.958003
Si Si2 0.488986 0.885140 0.440325
Si Si3 0.930063 0.723997 0.651562
Si Si4 0.746745 0.579697 0.541495
Si Si5 0.540136 0.410788 0.140219
Si Si6 0.795504 0.512630 0.344251
Si Si7 0.846186 0.474201 0.982696
Si Si8 0.613377 0.231978 0.853837
O O1 0.243489 0.243049 0.804187
O O2 0.179602 0.795397 0.940308
O O3 0.239238 0.840483 0.092995
O O4 0.000000 0.000000 0.000000
O O5 0.630343 0.754747 0.458179
O O6 0.343023 0.694701 0.542220
O O7 0.500000 0.000000 0.500000
O O8 0.495929 0.124979 0.269320
O O9 0.831744 0.655994 0.597862
O O10 0.850771 0.655812 0.804729
O O11 0.066080 0.574211 0.695979
O O12 0.000000 0.000000 0.500000
O O13 0.841496 0.566210 0.430046
O O14 0.652598 0.319678 0.695399
O O15 0.452928 0.545651 0.179198
O O16 0.500000 0.500000 0.000000
O O17 0.715232 0.488673 0.079487
O O18 0.000000 0.500000 0.000000
O O19 0.500000 0.000000 0.000000
#
# Coordination Sequence:
#
# PCOD9071021 Si02
#       8
#     2   2   2   2   2   2   2   2
#     4  12  25  50  73 107 154 195 249 307 374 447
#     4  12  27  47  77 108 152 196 246 309 377 444
#     4  12  28  50  74 108 151 196 251 311 373 441
#     4  12  25  49  72 111 148 196 247 305 377 444
#     4  12  27  50  74 108 150 195 255 308 370 448
#     4  12  28  47  77 109 149 198 248 309 377 449
#     4  12  29  49  78 110 146 203 252 307 376 449
#     4  12  27  45  74 107 149 194 244 310 374 441
#
# _framework density 23.690021999999999
#
# number of rings (size 3 to 8) (size 9 to 14) (size 15 to 20)
#    0.000    0.000    5.000    3.000   10.500    0.000 
#    0.000    0.000    0.000    0.000    0.000    0.000 
#    0.000    0.000    0.000    0.000    0.000    0.000 
#
# Total GULP energy -89593.541535 kJ/mol
# GULP energy per Si atom -5599.596346 kJ/mol
# Density = 2.363610 g / cm^3
# Si number density = 23.690022 Si / 1000 Ang^3
#
#
#
# Elastic Constant Matrix: (Units=GPa)
#
#
# Indices 1 2 3 4 5 6 
#
# 1 107.7702 14.6678 30.3796 -14.7448 -1.9469 -14.1430
# 2 14.6678 58.1759 43.4041 -8.7107 -0.2167 -11.1953
# 3 30.3796 43.4041 170.9176 -37.0785 3.9053 -3.2721
# 4 -14.7448 -8.7107 -37.0785 47.2976 -4.5397 -3.9100
# 5 -1.9469 -0.2167 3.9053 -4.5397 38.2494 -3.0555
# 6 -14.1430 -11.1953 -3.2721 -3.9100 -3.0555 39.9420
#
#
#
# Elastic Compliance Matrix: (Units=1/GPa)
#
#
# Indices 1 2 3 4 5 6 
#
# 1 0.010579 -0.000728 -0.001048 0.002781 0.001277 0.003826
# 2 -0.000728 0.022601 -0.005478 0.000225 0.001135 0.005737
# 3 -0.001048 -0.005478 0.008570 0.005286 -0.000389 -0.000717
# 4 0.002781 0.000225 0.005286 0.026856 0.003138 0.004350
# 5 0.001277 0.001135 -0.000389 0.003138 0.026876 0.003102
# 6 0.003826 0.005737 -0.000717 0.004350 0.003102 0.028604
#
#
# Mechanical properties :
#
#
# Convention : Reuss Voigt Hill
#
# Bulk Modulus (GPa) = 36.70594 57.08518 46.89556
# Shear Modulus (GPa) = 33.85835 41.65862 37.75848
#
# Velocity S-wave (km/s) = 3.78461 4.19798 3.99664
# Velocity P-wave (km/s) = 5.88435 6.90264 6.41374
#
# Compressibility (1/GPa) = 0.02724354
#
# Stress axis : x y z
#
# Youngs Moduli (GPa) = 94.52504 44.24501 116.68549
#
# Poissons Ratio (x) = 0.03220 0.12230
# Poissons Ratio (y) = 0.06880 0.63915
# Poissons Ratio (z) = 0.09908 0.24235
#
# Static dielectric constant tensor:
#      x y z
#    x 2.016630 -0.035380 -0.092550 
#    y -0.035380 1.946770 0.091110 
#    z -0.092550 0.091110 1.956020 
# 
# From -- ./inp_files/190671.got.cif
#   From: 2010.05.17/outbox.cif.g08.bks.cpg/sg2_96_cif.got.tgz:190671.got - 2010.06.03 11:33:40.
