data_PCOD9071431
_publ_section_title
;
Structure prediction by ZEFSAII (Michael W. Deem and Ramdas Pophale) SiO2 
 PCOD9071431
Probable space group: P -1
;
_chemical_formula_sum "Si O2"
_cell_formula_units_Z 16
_cell_length_a 12.573644
_cell_length_b 8.922072
_cell_length_c 11.149170
_cell_angle_alpha 92.037754
_cell_angle_beta 136.819298
_cell_angle_gamma 60.590164
_cell_volume 627.041947
_symmetry_space_group_name_H-M "P -1"
_symmetry_group_IT_number 2
_symmetry_cell_setting 'triclinic'
loop_
_space_group_symop_operation_xyz
x,y,z
-x,-y,-z
loop_
_atom_site_type_symbol
_atom_site_label
_atom_site_fract_x
_atom_site_fract_y
_atom_site_fract_z
Si Si1 0.584794 0.586100 0.355722
Si Si2 0.428769 0.290398 0.238046
Si Si3 0.696376 0.946081 0.811209
Si Si4 0.838868 0.369516 0.795879
Si Si5 0.176957 0.938143 0.293079
Si Si6 0.611369 0.081020 0.137864
Si Si7 0.253617 0.723969 0.910093
Si Si8 0.056016 0.640340 0.548350
O O1 0.663811 0.521567 0.555739
O O2 0.428052 0.578304 0.152928
O O3 0.798742 0.440231 0.451392
O O4 0.452726 0.828440 0.249770
O O5 0.427265 0.125555 0.290628
O O6 0.221094 0.500882 0.131163
O O7 0.641423 0.220267 0.466601
O O8 0.461418 0.239013 0.124634
O O9 0.770319 0.954522 0.742098
O O10 0.921384 0.765339 0.056270
O O11 0.825975 0.200921 0.803000
O O12 0.960768 0.092821 0.191718
O O13 0.659967 0.188717 0.091862
O O14 0.189911 0.629870 0.766117
O O15 0.839805 0.876978 0.368871
O O16 0.500000 0.000000 0.000000
O O17 0.000000 0.500000 0.500000
#
# Coordination Sequence:
#
# PCOD9071431 Si02
#       8
#     2   2   2   2   2   2   2   2
#     4  12  28  48  83 111 165 206 271 331 401 486
#     4  12  27  49  82 117 161 212 267 333 405 477
#     4  12  27  52  76 118 164 205 262 338 404 474
#     4  12  28  50  80 121 152 213 268 328 406 482
#     4  12  26  49  81 113 164 206 265 331 409 480
#     4  12  28  53  82 117 167 214 274 332 398 485
#     4  12  27  52  79 115 162 219 265 337 407 473
#     4  12  27  49  78 120 155 214 274 331 404 484
#
# _framework density 25.516632000000001
#
# number of rings (size 3 to 8) (size 9 to 14) (size 15 to 20)
#    0.000    0.000    3.750    5.250    3.500    0.000 
#    4.500    0.000    0.000    0.000    0.000    0.000 
#    0.000    0.000    0.000    0.000    0.000    0.000 
#
# Total GULP energy -89672.750838 kJ/mol
# GULP energy per Si atom -5604.546927 kJ/mol
# Density = 2.545856 g / cm^3
# Si number density = 25.516632 Si / 1000 Ang^3
#
#
#
# Elastic Constant Matrix: (Units=GPa)
#
#
# Indices 1 2 3 4 5 6 
#
# 1 113.5176 55.6349 13.9560 -0.4404 -4.2295 -26.5858
# 2 55.6349 166.0942 40.1080 1.7475 -5.5736 -24.3112
# 3 13.9560 40.1080 162.8903 -3.6689 -2.3012 -7.9669
# 4 -0.4404 1.7475 -3.6689 41.6208 -4.4858 12.7810
# 5 -4.2295 -5.5736 -2.3012 -4.4858 33.4449 -3.3745
# 6 -26.5858 -24.3112 -7.9669 12.7810 -3.3745 40.4184
#
#
#
# Elastic Compliance Matrix: (Units=1/GPa)
#
#
# Indices 1 2 3 4 5 6 
#
# 1 0.011857 -0.002931 0.000016 -0.001644 0.001466 0.006681
# 2 -0.002931 0.007861 -0.001554 -0.001313 0.000958 0.002989
# 3 0.000016 -0.001554 0.006548 0.000614 0.000296 0.000197
# 4 -0.001644 -0.001313 0.000614 0.027514 0.002271 -0.010261
# 5 0.001466 0.000958 0.000296 0.002271 0.030919 0.003462
# 6 0.006681 0.002989 0.000197 -0.010261 0.003462 0.034506
#
#
# Mechanical properties :
#
#
# Convention : Reuss Voigt Hill
#
# Bulk Modulus (GPa) = 57.71049 73.54442 65.62745
# Shear Modulus (GPa) = 37.33585 45.28370 41.30977
#
# Velocity S-wave (km/s) = 3.82933 4.21726 4.02796
# Velocity P-wave (km/s) = 6.49750 7.25248 6.88535
#
# Compressibility (1/GPa) = 0.01732787
#
# Stress axis : x y z
#
# Youngs Moduli (GPa) = 84.34063 127.20535 152.71657
#
# Poissons Ratio (x) = 0.37284 -0.00249
# Poissons Ratio (y) = 0.24721 0.23738
# Poissons Ratio (z) = -0.00138 0.19772
#
# Static dielectric constant tensor:
#      x y z
#    x 2.006550 0.068760 -0.028190 
#    y 0.068760 2.031600 0.021650 
#    z -0.028190 0.021650 2.050430 
# 
# From -- ./inp_files/294019.got.cif
#   From: 2010.05.17/outbox.cif.g08.bks.cpg/sg2_148_cif.got.tgz:294019.got - 2010.06.03 11:33:40.
