data_PCOD9071886
_publ_section_title
;
Structure prediction by ZEFSAII (Michael W. Deem and Ramdas Pophale) SiO2 
 PCOD9071886
Probable space group: P -1
;
_chemical_formula_sum "Si O2"
_cell_formula_units_Z 16
_cell_length_a 6.327523
_cell_length_b 17.623485
_cell_length_c 15.374685
_cell_angle_alpha 139.418224
_cell_angle_beta 124.738485
_cell_angle_gamma 58.308734
_cell_volume 902.684897
_symmetry_space_group_name_H-M "P -1"
_symmetry_group_IT_number 2
_symmetry_cell_setting 'triclinic'
loop_
_space_group_symop_operation_xyz
x,y,z
-x,-y,-z
loop_
_atom_site_type_symbol
_atom_site_label
_atom_site_fract_x
_atom_site_fract_y
_atom_site_fract_z
Si Si1 0.293185 0.928458 0.008186
Si Si2 0.751388 0.676308 0.591477
Si Si3 0.072077 0.056890 0.476490
Si Si4 0.494931 0.914384 0.676853
Si Si5 0.781992 0.263373 0.032172
Si Si6 0.331066 0.571641 0.703832
Si Si7 0.427602 0.893327 0.286581
Si Si8 0.613292 0.740479 0.809508
O O1 0.473176 0.014817 0.165478
O O2 0.285062 0.825273 0.986249
O O3 0.412861 0.859234 0.891063
O O4 0.000000 0.000000 0.000000
O O5 0.702670 0.793762 0.623991
O O6 0.646243 0.567226 0.427824
O O7 0.614320 0.710877 0.682245
O O8 0.053638 0.632440 0.648977
O O9 0.298860 0.130873 0.618069
O O10 0.793874 0.116713 0.425728
O O11 0.205153 0.953869 0.353098
O O12 0.000000 0.000000 0.500000
O O13 0.545424 0.004360 0.689986
O O14 0.683025 0.390029 0.164706
O O15 0.094742 0.244109 0.081541
O O16 0.649728 0.220064 0.878047
O O17 0.541398 0.631065 0.752554
#
# Coordination Sequence:
#
# PCOD9071886 Si02
#       8
#     2   2   2   2   2   2   2   2
#     4  10  19  29  42  69 103 128 155 192 234 283
#     4  10  20  32  48  69  98 132 166 201 230 271
#     4   9  18  32  50  72  96 120 151 191 240 297
#     4  10  19  30  47  72  97 126 158 192 236 285
#     4   9  18  30  48  68  91 125 160 195 234 283
#     4   9  19  34  47  68  98 130 169 201 229 268
#     4   9  18  33  50  72  97 120 149 194 248 290
#     4  10  18  30  47  67  95 133 166 194 232 274
#
# _framework density 17.724900000000002
#
# number of rings (size 3 to 8) (size 9 to 14) (size 15 to 20)
#    0.000    2.500    0.000    3.375    0.000    6.000 
#    0.000    0.000    0.000    0.750    0.000    8.750 
#    0.000    0.000    0.000    0.000    0.000    0.000 
#
# Total GULP energy -89152.935403 kJ/mol
# GULP energy per Si atom -5572.058463 kJ/mol
# Density = 1.768456 g / cm^3
# Si number density = 17.724900 Si / 1000 Ang^3
#
#
#
# Elastic Constant Matrix: (Units=GPa)
#
#
# Indices 1 2 3 4 5 6 
#
# 1 70.7033 7.1118 36.8007 -0.4499 -7.6007 -5.4399
# 2 7.1118 27.3327 28.6200 6.6096 2.1827 -6.6427
# 3 36.8007 28.6200 151.9033 1.9923 -1.8713 -9.3875
# 4 -0.4499 6.6096 1.9923 23.1021 1.5973 2.4111
# 5 -7.6007 2.1827 -1.8713 1.5973 22.3559 1.4679
# 6 -5.4399 -6.6427 -9.3875 2.4111 1.4679 15.2689
#
#
#
# Elastic Compliance Matrix: (Units=1/GPa)
#
#
# Indices 1 2 3 4 5 6 
#
# 1 0.016952 -0.000034 -0.003840 -0.000021 0.005239 0.003163
# 2 -0.000034 0.056123 -0.009051 -0.017143 -0.006479 0.022169
# 3 -0.003840 -0.009051 0.009203 0.001699 0.000223 0.000063
# 4 -0.000021 -0.017143 0.001699 0.049578 -0.000803 -0.014173
# 5 0.005239 -0.006479 0.000223 -0.000803 0.047566 -0.005261
# 6 0.003163 0.022169 0.000063 -0.014173 -0.005261 0.079047
#
#
# Mechanical properties :
#
#
# Convention : Reuss Voigt Hill
#
# Bulk Modulus (GPa) = 17.72170 43.88936 30.80553
# Shear Modulus (GPa) = 16.49460 23.97251 20.23356
#
# Velocity S-wave (km/s) = 3.05387 3.68159 3.38232
# Velocity P-wave (km/s) = 4.73864 6.54884 5.71586
#
# Compressibility (1/GPa) = 0.05642800
#
# Stress axis : x y z
#
# Youngs Moduli (GPa) = 58.98892 17.81807 108.65978
#
# Poissons Ratio (x) = 0.00061 0.41727
# Poissons Ratio (y) = 0.00202 0.98344
# Poissons Ratio (z) = 0.22653 0.16127
#
# Static dielectric constant tensor:
#      x y z
#    x 1.623760 -0.007310 0.001030 
#    y -0.007310 1.597890 -0.010190 
#    z 0.001030 -0.010190 1.652310 
# 
# From -- ./inp_files/66876.got.cif
#   From: 2010.05.17/outbox.cif.g08.bks.cpg/sg2_34_cif.got.tgz:66876.got - 2010.06.03 11:33:40.
