data_PCOD9071704
_publ_section_title
;
Structure prediction by ZEFSAII (Michael W. Deem and Ramdas Pophale) SiO2 
 PCOD9071704
Probable space group: P -1
;
_chemical_formula_sum "Si O2"
_cell_formula_units_Z 12
_cell_length_a 16.246096
_cell_length_b 8.960427
_cell_length_c 8.331333
_cell_angle_alpha 115.091972
_cell_angle_beta 99.406272
_cell_angle_gamma 27.673176
_cell_volume 440.475480
_symmetry_space_group_name_H-M "P -1"
_symmetry_group_IT_number 2
_symmetry_cell_setting 'triclinic'
loop_
_space_group_symop_operation_xyz
x,y,z
-x,-y,-z
loop_
_atom_site_type_symbol
_atom_site_label
_atom_site_fract_x
_atom_site_fract_y
_atom_site_fract_z
Si Si1 0.808296 0.501895 0.982980
Si Si2 0.367669 0.528820 0.085192
Si Si3 0.982976 0.652539 0.808292
Si Si4 0.215636 0.664279 0.587161
Si Si5 0.587162 0.421232 0.215638
Si Si6 0.085189 0.593776 0.367662
O O1 0.655520 0.624503 0.988830
O O2 0.796125 0.616312 0.861599
O O3 0.115899 0.929981 0.518123
O O4 0.818784 0.612428 0.181224
O O5 0.462114 0.479747 0.226340
O O6 0.138411 0.014620 0.203879
O O7 0.481879 0.374463 0.884100
O O8 0.988831 0.457884 0.655522
O O9 0.822118 0.939447 0.038438
O O10 0.398667 0.452662 0.601330
O O11 0.226338 0.451296 0.462106
O O12 0.038435 0.006804 0.822119
#
# Coordination Sequence:
#
# PCOD9071704 Si02
#       6
#     2   2   2   2   2   2
#     4   9  16  27  50  67  85 112 149 179 213 252
#     4   9  16  30  47  67  86 115 146 179 215 255
#     4   9  16  27  50  67  85 112 149 179 213 252
#     4   8  17  29  49  60  90 119 142 172 224 259
#     4   8  17  29  49  60  90 119 142 172 224 259
#     4   9  16  30  47  67  86 115 146 179 215 255
#
# _framework density 27.243288
#
# number of rings (size 3 to 8) (size 9 to 14) (size 15 to 20)
#    2.000    1.333    0.000    1.000    0.000    0.000 
#    0.000    3.333    0.000    0.000    0.000    0.000 
#    0.000    0.000    0.000    0.000    0.000    0.000 
#
# Total GULP energy -66927.549765 kJ/mol
# GULP energy per Si atom -5577.295814 kJ/mol
# Density = 2.718128 g / cm^3
# Si number density = 27.243288 Si / 1000 Ang^3
#
#
#
# Elastic Constant Matrix: (Units=GPa)
#
#
# Indices 1 2 3 4 5 6 
#
# 1 182.1528 41.2125 86.7824 -19.0350 76.3466 -11.8591
# 2 41.2125 57.5390 43.5918 -11.8513 25.9807 -5.8011
# 3 86.7824 43.5918 146.2769 -19.6614 71.4153 -20.1198
# 4 -19.0350 -11.8513 -19.6614 41.4822 -21.4483 11.6785
# 5 76.3466 25.9807 71.4153 -21.4483 82.3479 -6.2605
# 6 -11.8591 -5.8011 -20.1198 11.6785 -6.2605 38.2539
#
#
#
# Elastic Compliance Matrix: (Units=1/GPa)
#
#
# Indices 1 2 3 4 5 6 
#
# 1 0.009744 -0.002748 -0.001540 -0.000926 -0.007002 0.000931
# 2 -0.002748 0.023819 -0.005422 0.003584 0.000585 -0.001090
# 3 -0.001540 -0.005422 0.014489 -0.001791 -0.009490 0.005315
# 4 -0.000926 0.003584 -0.001791 0.030760 0.008634 -0.008663
# 5 -0.007002 0.000585 -0.009490 0.008634 0.028546 -0.005037
# 6 0.000931 -0.001090 0.005315 -0.008663 -0.005037 0.030880
#
#
# Mechanical properties :
#
#
# Convention : Reuss Voigt Hill
#
# Bulk Modulus (GPa) = 34.92548 81.01577 57.97063
# Shear Modulus (GPa) = 29.90387 46.70893 38.30640
#
# Velocity S-wave (km/s) = 3.31669 4.14516 3.75385
# Velocity P-wave (km/s) = 5.24547 7.26032 6.33353
#
# Compressibility (1/GPa) = 0.02863239
#
# Stress axis : x y z
#
# Youngs Moduli (GPa) = 102.63029 41.98248 69.01748
#
# Poissons Ratio (x) = 0.11536 0.10628
# Poissons Ratio (y) = 0.28200 0.37423
# Poissons Ratio (z) = 0.15805 0.22764
#
# Static dielectric constant tensor:
#      x y z
#    x 2.134390 -0.016610 -0.073860 
#    y -0.016610 2.226280 0.006770 
#    z -0.073860 0.006770 2.192620 
# 
# From -- ./inp_files/164933.got.cif
#   From: 2010.05.17/outbox.cif.g08.bks.cpg/sg2_83_cif.got.tgz:164933.got - 2010.06.03 11:33:40.
