data_PCOD9071373
_publ_section_title
;
Structure prediction by ZEFSAII (Michael W. Deem and Ramdas Pophale) SiO2 
 PCOD9071373
Probable space group: P -1
;
_chemical_formula_sum "Si O2"
_cell_formula_units_Z 13
_cell_length_a 11.054304
_cell_length_b 16.411467
_cell_length_c 11.402295
_cell_angle_alpha 151.063209
_cell_angle_beta 129.895608
_cell_angle_gamma 33.513073
_cell_volume 521.563136
_symmetry_space_group_name_H-M "P -1"
_symmetry_group_IT_number 2
_symmetry_cell_setting 'triclinic'
loop_
_space_group_symop_operation_xyz
x,y,z
-x,-y,-z
loop_
_atom_site_type_symbol
_atom_site_label
_atom_site_fract_x
_atom_site_fract_y
_atom_site_fract_z
Si Si1 0.561631 0.454289 0.620556
Si Si2 0.163418 0.911434 0.100776
Si Si3 0.629057 0.760365 0.704112
Si Si4 0.918571 0.628141 0.359714
Si Si5 0.000000 0.500000 0.000000
Si Si6 0.538503 0.072259 0.439917
Si Si7 0.943752 0.001269 0.603119
O O1 0.500000 0.500000 0.500000
O O2 0.510383 0.303817 0.439689
O O3 0.410667 0.677505 0.900897
O O4 0.832042 0.293658 0.600872
O O5 0.085068 0.882768 0.139680
O O6 0.136514 0.130227 0.384990
O O7 0.000000 0.000000 0.000000
O O8 0.599924 0.844694 0.660879
O O9 0.893729 0.529836 0.618064
O O10 0.500000 0.000000 0.000000
O O11 0.670940 0.737904 0.363011
O O12 0.046711 0.444348 0.098773
O O13 0.732571 0.779813 0.214477
O O14 0.693330 0.116426 0.583234
O O15 0.000000 0.000000 0.500000
#
# Coordination Sequence:
#
# PCOD9071373 Si02
#       7
#     2   2   2   2   1   2   2
#     4  12  27  50  79 111 159 212 263 324 403 485
#     4  12  26  48  80 117 153 211 272 318 400 487
#     4  12  26  51  77 113 153 204 263 329 395 468
#     4  12  27  50  81 116 155 209 267 325 397 480
#     4  12  26  50  76 112 164 200 258 326 398 474
#     4  12  28  48  76 118 152 204 261 330 397 464
#     4  12  27  51  73 111 160 207 262 330 398 470
#
# _framework density 24.925073000000001
#
# number of rings (size 3 to 8) (size 9 to 14) (size 15 to 20)
#    0.000    0.000    7.692    0.923    4.308    0.615 
#    5.538    0.000    0.000    0.000    0.000    0.000 
#    0.000    0.000    0.000    0.000    0.000    0.000 
#
# Total GULP energy -72389.251229 kJ/mol
# GULP energy per Si atom -5568.403941 kJ/mol
# Density = 2.486834 g / cm^3
# Si number density = 24.925073 Si / 1000 Ang^3
#
#
#
# Elastic Constant Matrix: (Units=GPa)
#
#
# Indices 1 2 3 4 5 6 
#
# 1 115.4851 44.9620 49.2293 -7.6002 -49.7574 -1.6618
# 2 44.9620 135.6643 31.6107 -4.7697 -28.5807 16.1130
# 3 49.2293 31.6107 121.5557 -0.1724 -52.1471 -0.0411
# 4 -7.6002 -4.7697 -0.1724 40.3250 13.5570 -14.2165
# 5 -49.7574 -28.5807 -52.1471 13.5570 55.1393 -8.8703
# 6 -1.6618 16.1130 -0.0411 -14.2165 -8.8703 58.8829
#
#
#
# Elastic Compliance Matrix: (Units=1/GPa)
#
#
# Indices 1 2 3 4 5 6 
#
# 1 0.015362 -0.002713 0.000208 -0.000861 0.013345 0.002978
# 2 -0.002713 0.008985 -0.000641 -0.000810 0.001397 -0.002521
# 3 0.000208 -0.000641 0.014846 -0.004616 0.015253 0.001375
# 4 -0.000861 -0.000810 -0.004616 0.030642 -0.012170 0.005759
# 5 0.013345 0.001397 0.015253 -0.012170 0.049036 0.004454
# 6 0.002978 -0.002521 0.001375 0.005759 0.004454 0.019819
#
#
# Mechanical properties :
#
#
# Convention : Reuss Voigt Hill
#
# Bulk Modulus (GPa) = 30.39202 69.36768 49.87985
# Shear Modulus (GPa) = 32.06214 47.32965 39.69589
#
# Velocity S-wave (km/s) = 3.59045 4.36234 3.99508
# Velocity P-wave (km/s) = 5.42294 7.29823 6.42933
#
# Compressibility (1/GPa) = 0.03290337
#
# Stress axis : x y z
#
# Youngs Moduli (GPa) = 65.09500 111.30131 67.35776
#
# Poissons Ratio (x) = 0.30191 -0.01404
# Poissons Ratio (y) = 0.17658 0.04315
# Poissons Ratio (z) = -0.01357 0.07130
#
# Static dielectric constant tensor:
#      x y z
#    x 1.939940 0.023270 -0.044420 
#    y 0.023270 2.063790 -0.026510 
#    z -0.044420 -0.026510 1.930810 
# 
# From -- ./inp_files/437135.got.cif
#   From: 2010.05.17/outbox.cif.g08.bks.cpg/sg2_219_cif.got.tgz:437135.got - 2010.06.03 11:33:40.
