data_PCOD9071187
_publ_section_title
;
Structure prediction by ZEFSAII (Michael W. Deem and Ramdas Pophale) SiO2 
 PCOD9071187
Probable space group: P -1
;
_chemical_formula_sum "Si O2"
_cell_formula_units_Z 16
_cell_length_a 8.783597
_cell_length_b 27.283365
_cell_length_c 27.761559
_cell_angle_alpha 10.203115
_cell_angle_beta 37.956018
_cell_angle_gamma 36.868420
_cell_volume 707.031508
_symmetry_space_group_name_H-M "P -1"
_symmetry_group_IT_number 2
_symmetry_cell_setting 'triclinic'
loop_
_space_group_symop_operation_xyz
x,y,z
-x,-y,-z
loop_
_atom_site_type_symbol
_atom_site_label
_atom_site_fract_x
_atom_site_fract_y
_atom_site_fract_z
Si Si1 0.968889 0.227159 0.882567
Si Si2 0.007361 0.795997 0.987366
Si Si3 0.660625 0.048328 0.459577
Si Si4 0.401826 0.588790 0.666838
Si Si5 0.558274 0.642130 0.958461
Si Si6 0.203231 0.181090 0.178304
Si Si7 0.721529 0.330504 0.490186
Si Si8 0.167444 0.604498 0.398673
O O1 0.133312 0.441367 0.614381
O O2 0.679787 0.387080 0.790006
O O3 0.990902 0.160000 0.998484
O O4 0.058436 0.935981 0.113126
O O5 0.276680 0.798539 0.893729
O O6 0.791181 0.028168 0.790858
O O7 0.943394 0.491465 0.290137
O O8 0.500000 0.000000 0.500000
O O9 0.665787 0.788208 0.745624
O O10 0.546436 0.328615 0.247952
O O11 0.934900 0.093522 0.331774
O O12 0.400665 0.876914 0.417844
O O13 0.306273 0.692434 0.537758
O O14 0.230253 0.395854 0.921080
O O15 0.736020 0.663050 0.939436
O O16 0.458611 0.518992 0.393181
O O17 0.000000 0.500000 0.500000
#
# Coordination Sequence:
#
# PCOD9071187 Si02
#       8
#     2   2   2   2   2   2   2   2
#     4  12  26  47  75 103 143 189 245 294 355 434
#     4  12  28  46  73 107 145 187 239 300 363 421
#     4  12  28  47  73 112 148 188 236 299 365 426
#     4  12  26  45  77 108 142 191 252 296 352 431
#     4  12  26  49  75 102 151 192 238 293 361 437
#     4  12  26  47  78 107 144 195 245 294 357 434
#     4  12  28  45  71 108 146 188 239 303 367 418
#     4  12  26  45  74 103 144 189 241 300 359 426
#
# _framework density 22.629825
#
# number of rings (size 3 to 8) (size 9 to 14) (size 15 to 20)
#    0.000    0.000    2.500    6.750    8.750    3.000 
#    0.000    0.000    0.000    0.000    0.000    0.000 
#    0.000    0.000    0.000    0.000    0.000    0.000 
#
# Total GULP energy -89695.980801 kJ/mol
# GULP energy per Si atom -5605.998800 kJ/mol
# Density = 2.257832 g / cm^3
# Si number density = 22.629825 Si / 1000 Ang^3
#
#
#
# Elastic Constant Matrix: (Units=GPa)
#
#
# Indices 1 2 3 4 5 6 
#
# 1 264.3831 73.9609 108.8561 -42.3341 19.2302 87.1474
# 2 73.9609 96.8320 46.8596 -10.5003 3.1447 15.0911
# 3 108.8561 46.8596 156.4575 -33.9044 15.7411 52.3560
# 4 -42.3341 -10.5003 -33.9044 63.0107 -0.7300 -23.8355
# 5 19.2302 3.1447 15.7411 -0.7300 44.2030 14.6644
# 6 87.1474 15.0911 52.3560 -23.8355 14.6644 65.3588
#
#
#
# Elastic Compliance Matrix: (Units=1/GPa)
#
#
# Indices 1 2 3 4 5 6 
#
# 1 0.008846 -0.004479 -0.001546 0.000877 0.000095 -0.009224
# 2 -0.004479 0.014354 -0.002892 -0.000370 0.000373 0.004756
# 3 -0.001546 -0.002892 0.010495 0.002408 -0.001326 -0.004502
# 4 0.000877 -0.000370 0.002408 0.019409 -0.002421 0.004609
# 5 0.000095 0.000373 -0.001326 -0.002421 0.024848 -0.005609
# 6 -0.009224 0.004756 -0.004502 0.004609 -0.005609 0.033047
#
#
# Mechanical properties :
#
#
# Convention : Reuss Voigt Hill
#
# Bulk Modulus (GPa) = 63.04682 108.55842 85.80262
# Shear Modulus (GPa) = 37.28020 53.71421 45.49721
#
# Velocity S-wave (km/s) = 4.06321 4.87725 4.48872
# Velocity P-wave (km/s) = 7.06636 8.93265 8.05375
#
# Compressibility (1/GPa) = 0.01586123
#
# Stress axis : x y z
#
# Youngs Moduli (GPa) = 113.04958 69.66580 95.28095
#
# Poissons Ratio (x) = 0.31201 0.14731
# Poissons Ratio (y) = 0.50632 0.27557
# Poissons Ratio (z) = 0.17479 0.20148
#
# Static dielectric constant tensor:
#      x y z
#    x 1.809590 -0.013510 0.004500 
#    y -0.013510 1.935760 -0.061390 
#    z 0.004500 -0.061390 1.815540 
# 
# From -- ./inp_files/617665.got.cif
#   From: 2010.05.17/outbox.cif.g08.bks.cpg/sg2_309_cif.got.tgz:617665.got - 2010.06.03 11:33:40.
