data_PCOD9071091
_publ_section_title
;
Structure prediction by ZEFSAII (Michael W. Deem and Ramdas Pophale) SiO2 
 PCOD9071091
Probable space group: P -1
;
_chemical_formula_sum "Si O2"
_cell_formula_units_Z 16
_cell_length_a 20.894860
_cell_length_b 17.695458
_cell_length_c 8.520917
_cell_angle_alpha 133.690735
_cell_angle_beta 32.600114
_cell_angle_gamma 154.362950
_cell_volume 701.760914
_symmetry_space_group_name_H-M "P -1"
_symmetry_group_IT_number 2
_symmetry_cell_setting 'triclinic'
loop_
_space_group_symop_operation_xyz
x,y,z
-x,-y,-z
loop_
_atom_site_type_symbol
_atom_site_label
_atom_site_fract_x
_atom_site_fract_y
_atom_site_fract_z
Si Si1 0.538946 0.525915 0.767297
Si Si2 0.878088 0.612058 0.061642
Si Si3 0.683469 0.318549 0.792727
Si Si4 0.149538 0.671941 0.827753
Si Si5 0.120898 0.140228 0.091838
Si Si6 0.498608 0.020547 0.216400
Si Si7 0.724940 0.875688 0.744355
Si Si8 0.236837 0.018353 0.840881
O O1 0.679325 0.528393 0.427368
O O2 0.656500 0.710830 0.712447
O O3 0.500000 0.500000 0.000000
O O4 0.297166 0.344436 0.953488
O O5 0.819403 0.483066 0.868192
O O6 0.015364 0.654960 0.974493
O O7 0.019366 0.801788 0.957450
O O8 0.754012 0.350055 0.513825
O O9 0.663015 0.183606 0.689990
O O10 0.459343 0.212123 0.106024
O O11 0.312237 0.848048 0.860379
O O12 0.000000 0.500000 0.000000
O O13 0.944062 0.045437 0.445670
O O14 0.240396 0.133176 0.921407
O O15 0.000000 0.000000 0.000000
O O16 0.416590 0.077657 0.486599
O O17 0.500000 0.000000 0.000000
O O18 0.738087 0.952395 0.984018
#
# Coordination Sequence:
#
# PCOD9071091 Si02
#       8
#     2   2   2   2   2   2   2   2
#     4  12  27  48  77 109 149 197 256 304 374 448
#     4  12  27  47  76 107 152 198 245 313 371 444
#     4  12  27  49  74 108 153 193 248 306 374 443
#     4  12  27  48  74 109 147 195 250 303 374 444
#     4  12  28  47  75 112 147 195 250 309 376 442
#     4  12  28  49  75 108 147 197 249 307 369 447
#     4  12  26  51  76 108 150 203 246 311 373 443
#     4  12  25  50  73 102 152 194 250 306 376 439
#
# _framework density 22.799787999999999
#
# number of rings (size 3 to 8) (size 9 to 14) (size 15 to 20)
#    0.000    0.000    5.000    4.125   10.500    1.000 
#    0.000    0.000    0.000    0.000    0.000    0.000 
#    0.000    0.000    0.000    0.000    0.000    0.000 
#
# Total GULP energy -89421.459594 kJ/mol
# GULP energy per Si atom -5588.841225 kJ/mol
# Density = 2.274790 g / cm^3
# Si number density = 22.799788 Si / 1000 Ang^3
#
#
#
# Elastic Constant Matrix: (Units=GPa)
#
#
# Indices 1 2 3 4 5 6 
#
# 1 51.5630 8.4501 35.5795 2.7727 -0.9231 19.6859
# 2 8.4501 126.4702 35.4625 -3.0990 12.1643 26.3534
# 3 35.5795 35.4625 135.6603 6.8968 1.3594 11.0432
# 4 2.7727 -3.0990 6.8968 32.3611 7.5605 12.7456
# 5 -0.9231 12.1643 1.3594 7.5605 33.5290 4.6852
# 6 19.6859 26.3534 11.0432 12.7456 4.6852 46.6871
#
#
#
# Elastic Compliance Matrix: (Units=1/GPa)
#
#
# Indices 1 2 3 4 5 6 
#
# 1 0.029018 0.003007 -0.007538 0.004508 0.000879 -0.013469
# 2 0.003007 0.010686 -0.003195 0.005336 -0.003803 -0.007619
# 3 -0.007538 -0.003195 0.010066 -0.003349 0.000819 0.003433
# 4 0.004508 0.005336 -0.003349 0.039247 -0.008573 -0.013975
# 5 0.000879 -0.003803 0.000819 -0.008573 0.033044 0.000607
# 6 -0.013469 -0.007619 0.003433 -0.013975 0.000607 0.034342
#
#
# Mechanical properties :
#
#
# Convention : Reuss Voigt Hill
#
# Bulk Modulus (GPa) = 29.13880 52.51977 40.82929
# Shear Modulus (GPa) = 27.27855 38.12887 32.70371
#
# Velocity S-wave (km/s) = 3.46271 4.09385 3.79144
# Velocity P-wave (km/s) = 5.36611 6.74028 6.09207
#
# Compressibility (1/GPa) = 0.03431850
#
# Stress axis : x y z
#
# Youngs Moduli (GPa) = 34.46140 93.57813 99.34221
#
# Poissons Ratio (x) = -0.28143 0.74887
# Poissons Ratio (y) = -0.10364 0.31741
# Poissons Ratio (z) = 0.25978 0.29899
#
# Static dielectric constant tensor:
#      x y z
#    x 1.762330 -0.037580 -0.104360 
#    y -0.037580 1.915380 -0.125570 
#    z -0.104360 -0.125570 1.857940 
# 
# From -- ./inp_files/307405.got.cif
#   From: 2010.05.17/outbox.cif.g08.bks.cpg/sg2_154_cif.got.tgz:307405.got - 2010.06.03 11:33:40.
