data_PCOD9071971
_publ_section_title
;
Structure prediction by ZEFSAII (Michael W. Deem and Ramdas Pophale) SiO2 
 PCOD9071971
Probable space group: P -1
;
_chemical_formula_sum "Si O2"
_cell_formula_units_Z 12
_cell_length_a 21.000000
_cell_length_b 24.000000
_cell_length_c 24.000000
_cell_angle_alpha 160.000000
_cell_angle_beta 170.000000
_cell_angle_gamma 20.000000
_cell_volume 697.332694
_symmetry_space_group_name_H-M "P -1"
_symmetry_group_IT_number 2
_symmetry_cell_setting 'triclinic'
loop_
_space_group_symop_operation_xyz
x,y,z
-x,-y,-z
loop_
_atom_site_type_symbol
_atom_site_label
_atom_site_fract_x
_atom_site_fract_y
_atom_site_fract_z
Si Si1 0.891624 0.146944 0.591207
Si Si2 0.914583 0.386340 0.745199
Si Si3 0.086321 0.257130 0.061905
Si Si4 0.463781 0.498906 0.681029
Si Si5 0.102092 0.895247 0.625476
Si Si6 0.708286 0.116221 0.097774
O O1 0.010396 0.297969 0.804596
O O2 0.456137 0.207387 0.292741
O O3 0.000000 0.000000 0.500000
O O4 0.108281 0.063173 0.754472
O O5 0.500000 0.500000 0.500000
O O6 0.853983 0.253958 0.521016
O O7 0.234577 0.472832 0.079400
O O8 0.193752 0.388241 0.320814
O O9 0.723644 0.372402 0.828727
O O10 0.029288 0.074515 0.861313
O O11 0.264674 0.691092 0.710312
O O12 0.336088 0.872021 0.861672
O O13 0.666833 0.906875 0.278389
#
# Coordination Sequence:
#
# PCOD9071971 Si02
#       6
#     2   2   2   2   2   2
#     4   9  18  32  42  53  63  76  86  97 107 119
#     4  10  18  32  42  56  64  74  86 101 104 120
#     4  11  21  35  46  57  67  81  87 101 113 119
#     4  11  22  34  47  58  66  79  93  96 112 125
#     4   9  19  34  44  53  65  80  84  99 113 116
#     4  10  20  36  48  57  71  76  90 103 108 121
#
# _framework density 17.208428999999999
#
# number of rings (size 3 to 8) (size 9 to 14) (size 15 to 20)
#    0.000    2.000    1.667    5.000    0.000    0.667 
#    9.000   17.500    0.000    0.000    0.000    0.000 
#    0.000    0.000    0.000    0.000    0.000    0.000 
#
# Total GULP energy -66846.004968 kJ/mol
# GULP energy per Si atom -5570.500414 kJ/mol
# Density = 1.716926 g / cm^3
# Si number density = 17.208429 Si / 1000 Ang^3
#
#
#
# Elastic Constant Matrix: (Units=GPa)
#
#
# Indices 1 2 3 4 5 6 
#
# 1 4.3817 7.6876 13.8552 -0.9200 -8.3997 1.3273
# 2 7.6876 138.8489 19.9848 20.9052 -8.6025 13.1939
# 3 13.8552 19.9848 40.5141 9.0755 -22.9842 -0.4191
# 4 -0.9200 20.9052 9.0755 19.4870 -1.1462 -7.2838
# 5 -8.3997 -8.6025 -22.9842 -1.1462 13.5942 -0.0913
# 6 1.3273 13.1939 -0.4191 -7.2838 -0.0913 8.1914
#
#
#
# Elastic Compliance Matrix: (Units=1/GPa)
#
#
# Indices 1 2 3 4 5 6 
#
# 1 -0.950267 0.016698 -0.092211 -0.030490 -0.734482 0.087061
# 2 0.016698 0.010869 -0.060802 0.005024 -0.085315 -0.019807
# 3 -0.092211 -0.060802 -0.218246 0.258812 -0.440431 0.326934
# 4 -0.030490 0.005024 0.258812 -0.069030 0.415789 -0.046656
# 5 -0.734482 -0.085315 -0.440431 0.415789 -1.139882 0.590903
# 6 0.087061 -0.019807 0.326934 -0.046656 0.590903 0.121703
#
#
# Mechanical properties :
#
#
# Convention : Reuss Voigt Hill
#
# Bulk Modulus (GPa) = -0.69917 29.64443 14.47263
# Shear Modulus (GPa) = -2.04167 17.73565 7.84699
#
# Velocity S-wave (km/s) = -1.09042 3.21384 2.13773
# Velocity P-wave (km/s) = 1.41157 5.57097 3.81072
#
# Compressibility (1/GPa) = -1.43027501
#
# Stress axis : x y z
#
# Youngs Moduli (GPa) = -1.05234 92.00502 -4.58198
#
# Poissons Ratio (x) = -1.53627 -0.42251
# Poissons Ratio (y) = 0.01757 -0.27860
# Poissons Ratio (z) = -0.09704 5.59413
#
# Static dielectric constant tensor:
#      x y z
#    x 1.563880 0.020210 -0.086460 
#    y 0.020210 1.727570 0.010900 
#    z -0.086460 0.010900 1.654210 
# 
# From -- ./inp_files/97693.got.cif
#   From: 2010.05.17/outbox.ucp.g08.bks.cvg/sg2_49_cif.got.tgz:97693.got - 2010.06.11 11:32:03.
