data_PCOD9071987
_publ_section_title
;
Structure prediction by ZEFSAII (Michael W. Deem and Ramdas Pophale) SiO2 
 PCOD9071987
Probable space group: P -1
;
_chemical_formula_sum "Si O2"
_cell_formula_units_Z 14
_cell_length_a 9.148240
_cell_length_b 12.951481
_cell_length_c 10.980860
_cell_angle_alpha 51.313916
_cell_angle_beta 135.015872
_cell_angle_gamma 115.789342
_cell_volume 717.862615
_symmetry_space_group_name_H-M "P -1"
_symmetry_group_IT_number 2
_symmetry_cell_setting 'triclinic'
loop_
_space_group_symop_operation_xyz
x,y,z
-x,-y,-z
loop_
_atom_site_type_symbol
_atom_site_label
_atom_site_fract_x
_atom_site_fract_y
_atom_site_fract_z
Si Si1 0.810606 0.809242 0.562863
Si Si2 0.840301 0.969193 0.035214
Si Si3 0.788604 0.616494 0.901889
Si Si4 0.540095 0.143023 0.861568
Si Si5 0.802141 0.040721 0.572842
Si Si6 0.803677 0.333829 0.030419
Si Si7 0.388635 0.173713 0.190918
O O1 0.708642 0.709865 0.675132
O O2 0.665454 0.810335 0.361229
O O3 0.822816 0.951931 0.529308
O O4 0.042450 0.751973 0.729775
O O5 0.977592 0.923342 0.265493
O O6 0.682334 0.867244 0.955951
O O7 0.719317 0.104079 0.898974
O O8 0.000000 0.000000 0.000000
O O9 0.729638 0.465882 0.956533
O O10 0.708082 0.688064 0.922463
O O11 0.037028 0.624332 0.016692
O O12 0.629809 0.245255 0.934645
O O13 0.500000 0.000000 0.000000
O O14 0.633978 0.155623 0.366894
O O15 0.706877 0.937514 0.692019
#
# Coordination Sequence:
#
# PCOD9071987 Si02
#       7
#     2   2   2   2   2   2   2
#     4   9  17  33  50  75 106 140 172 219 264 309
#     4  10  18  30  50  74 102 133 170 222 258 299
#     4   8  17  34  53  77 107 136 173 226 260 304
#     4  12  23  33  51  81 112 142 173 214 268 321
#     4   9  15  26  46  73 103 127 160 215 266 303
#     4   9  18  36  49  74 111 136 179 212 265 313
#     4   9  15  26  46  76 100 121 165 214 269 301
#
# _framework density 19.502338000000002
#
# number of rings (size 3 to 8) (size 9 to 14) (size 15 to 20)
#    0.857    1.714    2.857    0.857    2.000    1.143 
#    0.000    0.000    0.000    0.857    0.000    2.000 
#    0.000    0.000    0.000    0.000    0.000    0.000 
#
# Total GULP energy -77990.475410 kJ/mol
# GULP energy per Si atom -5570.748244 kJ/mol
# Density = 1.945795 g / cm^3
# Si number density = 19.502338 Si / 1000 Ang^3
#
#
#
# Elastic Constant Matrix: (Units=GPa)
#
#
# Indices 1 2 3 4 5 6 
#
# 1 47.4356 17.8863 7.2318 0.1890 9.3456 -5.1521
# 2 17.8863 151.0636 64.5687 18.0001 19.6561 -16.0959
# 3 7.2318 64.5687 116.8339 37.2221 28.7854 0.7035
# 4 0.1890 18.0001 37.2221 30.5307 7.6203 12.5680
# 5 9.3456 19.6561 28.7854 7.6203 0.2889 -19.5460
# 6 -5.1521 -16.0959 0.7035 12.5680 -19.5460 14.2422
#
#
#
# Elastic Compliance Matrix: (Units=1/GPa)
#
#
# Indices 1 2 3 4 5 6 
#
# 1 0.022634 -0.001523 0.000642 -0.003539 -0.000517 0.008849
# 2 -0.001523 0.009504 -0.003154 -0.001651 -0.006085 0.003452
# 3 0.000642 -0.003154 0.019958 -0.028001 -0.003522 0.015558
# 4 -0.003539 -0.001651 -0.028001 0.067358 0.031580 -0.017863
# 5 -0.000517 -0.006085 -0.003522 0.031580 -0.011524 -0.050574
# 6 0.008849 0.003452 0.015558 -0.017863 -0.050574 0.022903
#
#
# Mechanical properties :
#
#
# Convention : Reuss Voigt Hill
#
# Bulk Modulus (GPa) = 22.71313 54.96743 38.84028
# Shear Modulus (GPa) = 32.55655 24.05544 28.30600
#
# Velocity S-wave (km/s) = 4.09022 3.51588 3.81388
# Velocity P-wave (km/s) = 5.82908 6.68791 6.27321
#
# Compressibility (1/GPa) = 0.04402740
#
# Stress axis : x y z
#
# Youngs Moduli (GPa) = 44.18036 105.21477 50.10634
#
# Poissons Ratio (x) = 0.16019 -0.03216
# Poissons Ratio (y) = 0.06727 0.15803
# Poissons Ratio (z) = -0.02836 0.33183
#
# Static dielectric constant tensor:
#      x y z
#    x 1.798520 -0.001470 -0.003100 
#    y -0.001470 1.665760 0.009940 
#    z -0.003100 0.009940 1.687410 
# 
# From -- ./inp_files/423350.got.cif
#   From: 2010.05.17/outbox.cif.g08.bks.cpg/sg2_212_cif.got.tgz:423350.got - 2010.06.03 11:33:40.
