data_PCOD9071792
_publ_section_title
;
Structure prediction by ZEFSAII (Michael W. Deem and Ramdas Pophale) SiO2 
 PCOD9071792
Probable space group: P -1
;
_chemical_formula_sum "Si O2"
_cell_formula_units_Z 16
_cell_length_a 8.579691
_cell_length_b 5.320356
_cell_length_c 15.831858
_cell_angle_alpha 69.168474
_cell_angle_beta 68.095935
_cell_angle_gamma 86.936820
_cell_volume 624.054715
_symmetry_space_group_name_H-M "P -1"
_symmetry_group_IT_number 2
_symmetry_cell_setting 'triclinic'
loop_
_space_group_symop_operation_xyz
x,y,z
-x,-y,-z
loop_
_atom_site_type_symbol
_atom_site_label
_atom_site_fract_x
_atom_site_fract_y
_atom_site_fract_z
Si Si1 0.339181 0.969205 0.357274
Si Si2 0.211065 0.789969 0.590388
Si Si3 0.184475 0.018300 0.213727
Si Si4 0.365109 0.618887 0.117160
Si Si5 0.110186 0.342491 0.563619
Si Si6 0.286059 0.598049 0.949340
Si Si7 0.990116 0.117564 0.083440
Si Si8 0.541301 0.561166 0.622813
O O1 0.257250 0.897511 0.473544
O O2 0.201578 0.910969 0.319044
O O3 0.479802 0.763419 0.333988
O O4 0.400156 0.283300 0.321749
O O5 0.095394 0.515178 0.630601
O O6 0.619305 0.290646 0.391435
O O7 0.113505 0.024855 0.621067
O O8 0.325629 0.852599 0.160127
O O9 0.243066 0.337502 0.176138
O O10 0.040405 0.972916 0.176373
O O11 0.553105 0.536505 0.099279
O O12 0.340406 0.724946 0.013725
O O13 0.304847 0.389052 0.481875
O O14 0.000000 0.500000 0.500000
O O15 0.200119 0.800298 0.881504
O O16 0.133372 0.368614 0.023102
O O17 0.000000 0.000000 0.000000
#
# Coordination Sequence:
#
# PCOD9071792 Si02
#       8
#     2   2   2   2   2   2   2   2
#     4  10  19  33  54  80 104 138 178 224 262 316
#     4  10  19  34  56  79 103 139 184 220 261 311
#     4  11  22  35  55  79 111 142 179 220 273 322
#     4  10  21  35  55  82 109 139 176 225 273 310
#     4  10  18  29  50  83 109 131 166 226 270 306
#     4   9  20  34  55  82 107 137 182 226 260 315
#     4  10  19  34  56  81 105 141 184 217 260 317
#     4  10  19  35  58  77 102 137 187 221 261 310
#
# _framework density 25.638777000000001
#
# number of rings (size 3 to 8) (size 9 to 14) (size 15 to 20)
#    0.000    2.000    1.250    4.875    1.750    1.500 
#    0.000    0.000    0.000   24.000    0.000    0.000 
#    0.000    0.000    0.000    0.000    0.000    0.000 
#
# Total GULP energy -89276.136818 kJ/mol
# GULP energy per Si atom -5579.758551 kJ/mol
# Density = 2.558042 g / cm^3
# Si number density = 25.638777 Si / 1000 Ang^3
#
#
#
# Elastic Constant Matrix: (Units=GPa)
#
#
# Indices 1 2 3 4 5 6 
#
# 1 94.8100 -5.4967 22.4098 -3.3213 31.7620 -28.1014
# 2 -5.4967 132.6329 5.8809 11.1932 0.8382 7.5936
# 3 22.4098 5.8809 101.9924 0.0779 29.1515 -2.6833
# 4 -3.3213 11.1932 0.0779 30.5904 6.2685 9.7572
# 5 31.7620 0.8382 29.1515 6.2685 28.1152 -4.3410
# 6 -28.1014 7.5936 -2.6833 9.7572 -4.3410 32.7383
#
#
#
# Elastic Compliance Matrix: (Units=1/GPa)
#
#
# Indices 1 2 3 4 5 6 
#
# 1 0.024721 -0.000193 0.003541 0.003589 -0.029841 0.016528
# 2 -0.000193 0.007857 -0.000803 -0.002825 0.001286 -0.001041
# 3 0.003541 -0.000803 0.014924 0.004727 -0.020453 0.000328
# 4 0.003589 -0.002825 0.004727 0.041651 -0.019844 -0.010922
# 5 -0.029841 0.001286 -0.020453 -0.019844 0.093439 -0.009285
# 6 0.016528 -0.001041 0.000328 -0.010922 -0.009285 0.047025
#
#
# Mechanical properties :
#
#
# Convention : Reuss Voigt Hill
#
# Bulk Modulus (GPa) = 19.01488 41.66924 30.34206
# Shear Modulus (GPa) = 20.65616 38.73154 29.69385
#
# Velocity S-wave (km/s) = 2.84150 3.89094 3.40687
# Velocity P-wave (km/s) = 4.26591 6.03934 5.22837
#
# Compressibility (1/GPa) = 0.05259039
#
# Stress axis : x y z
#
# Youngs Moduli (GPa) = 40.45176 127.27248 67.00620
#
# Poissons Ratio (x) = 0.02457 -0.23725
# Poissons Ratio (y) = 0.00781 0.05383
# Poissons Ratio (z) = -0.14323 0.10225
#
# Static dielectric constant tensor:
#      x y z
#    x 2.139010 0.136530 -0.168960 
#    y 0.136530 2.183610 -0.165000 
#    z -0.168960 -0.165000 2.297860 
# 
# From -- ./inp_files/552580.got.cif
#   From: 2010.05.17/outbox.cif.g08.bks.cpg/sg2_277_cif.got.tgz:552580.got - 2010.06.03 11:33:40.
