data_PCOD9071479
_publ_section_title
;
Structure prediction by ZEFSAII (Michael W. Deem and Ramdas Pophale) SiO2 
 PCOD9071479
Probable space group: P -1
;
_chemical_formula_sum "Si O2"
_cell_formula_units_Z 14
_cell_length_a 24.111467
_cell_length_b 8.387950
_cell_length_c 5.210236
_cell_angle_alpha 116.411422
_cell_angle_beta 115.675150
_cell_angle_gamma 36.775423
_cell_volume 559.158159
_symmetry_space_group_name_H-M "P -1"
_symmetry_group_IT_number 2
_symmetry_cell_setting 'triclinic'
loop_
_space_group_symop_operation_xyz
x,y,z
-x,-y,-z
loop_
_atom_site_type_symbol
_atom_site_label
_atom_site_fract_x
_atom_site_fract_y
_atom_site_fract_z
Si Si1 0.494120 0.197536 0.474813
Si Si2 0.868522 0.012110 0.489100
Si Si3 0.837877 0.771978 0.902392
Si Si4 0.303241 0.797488 0.432664
Si Si5 0.602216 0.053422 0.064540
Si Si6 0.944464 0.261976 0.397929
Si Si7 0.793888 0.508621 0.897571
O O1 0.388183 0.476646 0.392324
O O2 0.500000 0.000000 0.500000
O O3 0.549641 0.094545 0.242937
O O4 0.539208 0.222390 0.806312
O O5 0.972024 0.832521 0.671189
O O6 0.792426 0.069632 0.542510
O O7 0.816732 0.316442 0.585251
O O8 0.884631 0.847826 0.161181
O O9 0.894033 0.538680 0.632730
O O10 0.821134 0.649325 0.978822
O O11 0.734405 0.061057 0.817589
O O12 0.346219 0.879169 0.702360
O O13 0.686992 0.738808 0.929314
O O14 0.866275 0.319278 0.135685
O O15 0.000000 0.000000 0.500000
#
# Coordination Sequence:
#
# PCOD9071479 Si02
#       7
#     2   2   2   2   2   2   2
#     4  12  29  52  84 123 161 214 278 338 416 498
#     4  12  28  47  80 114 159 213 280 331 415 490
#     4  12  26  51  76 114 168 208 278 333 420 477
#     4  12  28  48  80 119 159 216 270 340 414 493
#     4  12  26  53  84 116 167 215 270 345 415 492
#     4  12  27  49  80 114 161 217 276 344 413 488
#     4  12  27  51  79 117 164 214 276 343 412 490
#
# _framework density 25.03764
#
# number of rings (size 3 to 8) (size 9 to 14) (size 15 to 20)
#    0.000    0.000    4.286    3.857    4.000    3.429 
#    5.143    0.000    0.000    0.000    0.000    0.000 
#    0.000    0.000    0.000    0.000    0.000    0.000 
#
# Total GULP energy -78276.934995 kJ/mol
# GULP energy per Si atom -5591.209643 kJ/mol
# Density = 2.498065 g / cm^3
# Si number density = 25.037640 Si / 1000 Ang^3
#
#
#
# Elastic Constant Matrix: (Units=GPa)
#
#
# Indices 1 2 3 4 5 6 
#
# 1 97.1310 54.9618 22.3425 20.3042 -9.3062 -26.2119
# 2 54.9618 162.9351 40.8407 6.2921 -11.3030 5.9839
# 3 22.3425 40.8407 82.4472 18.9580 -2.4894 9.4008
# 4 20.3042 6.2921 18.9580 55.9899 3.0899 -0.9591
# 5 -9.3062 -11.3030 -2.4894 3.0899 48.0458 13.2691
# 6 -26.2119 5.9839 9.4008 -0.9591 13.2691 37.9489
#
#
#
# Elastic Compliance Matrix: (Units=1/GPa)
#
#
# Indices 1 2 3 4 5 6 
#
# 1 0.019817 -0.006490 -0.002858 -0.005110 -0.001916 0.015960
# 2 -0.006490 0.009268 -0.002509 0.001927 0.002353 -0.006097
# 3 -0.002858 -0.002509 0.015883 -0.004258 0.001666 -0.006203
# 4 -0.005110 0.001927 -0.004258 0.021001 -0.001646 -0.001673
# 5 -0.001916 0.002353 0.001666 -0.001646 0.024110 -0.010579
# 6 0.015960 -0.006097 -0.006203 -0.001673 -0.010579 0.043529
#
#
# Mechanical properties :
#
#
# Convention : Reuss Voigt Hill
#
# Bulk Modulus (GPa) = 47.05048 64.31150 55.68099
# Shear Modulus (GPa) = 30.41232 43.35481 36.88356
#
# Velocity S-wave (km/s) = 3.48898 4.16575 3.84229
# Velocity P-wave (km/s) = 5.92143 6.99140 6.47854
#
# Compressibility (1/GPa) = 0.02125377
#
# Stress axis : x y z
#
# Youngs Moduli (GPa) = 50.46240 107.89428 62.96008
#
# Poissons Ratio (x) = 0.70023 0.17993
# Poissons Ratio (y) = 0.32750 0.15799
# Poissons Ratio (z) = 0.14421 0.27075
#
# Static dielectric constant tensor:
#      x y z
#    x 2.031700 0.020790 -0.024310 
#    y 0.020790 1.948650 0.013210 
#    z -0.024310 0.013210 2.032920 
# 
# From -- ./inp_files/126533.got.cif
#   From: 2010.05.17/outbox.cif.g08.bks.cpg/sg2_64_cif.got.tgz:126533.got - 2010.06.03 11:33:40.
