data_PCOD9071529
_publ_section_title
;
Structure prediction by ZEFSAII (Michael W. Deem and Ramdas Pophale) SiO2 
 PCOD9071529
Probable space group: P -1
;
_chemical_formula_sum "Si O2"
_cell_formula_units_Z 12
_cell_length_a 15.659026
_cell_length_b 8.285575
_cell_length_c 15.626342
_cell_angle_alpha 48.362050
_cell_angle_beta 18.731571
_cell_angle_gamma 49.992191
_cell_volume 485.798446
_symmetry_space_group_name_H-M "P -1"
_symmetry_group_IT_number 2
_symmetry_cell_setting 'triclinic'
loop_
_space_group_symop_operation_xyz
x,y,z
-x,-y,-z
loop_
_atom_site_type_symbol
_atom_site_label
_atom_site_fract_x
_atom_site_fract_y
_atom_site_fract_z
Si Si1 0.762169 0.128259 0.730543
Si Si2 0.386227 0.921409 0.430701
Si Si3 0.512114 0.570628 0.863170
Si Si4 0.155918 0.135284 0.104562
Si Si5 0.138212 0.552516 0.077462
Si Si6 0.412190 0.237408 0.529407
O O1 0.686709 0.384156 0.710527
O O2 0.836026 0.088329 0.773738
O O3 0.000000 0.000000 0.500000
O O4 0.500000 0.000000 0.000000
O O5 0.404409 0.183262 0.319511
O O6 0.537593 0.785243 0.409555
O O7 0.079192 0.866032 0.740362
O O8 0.550833 0.844820 0.217643
O O9 0.500000 0.500000 0.000000
O O10 0.228157 0.564831 0.085851
O O11 0.079882 0.316623 0.182429
O O12 0.886326 0.705383 0.236590
O O13 0.387644 0.614036 0.761174
O O14 0.500000 0.000000 0.500000
#
# Coordination Sequence:
#
# PCOD9071529 Si02
#       6
#     2   2   2   2   2   2
#     4  12  27  47  76 109 153 204 251 307 381 458
#     4  12  28  48  78 114 152 196 257 317 372 447
#     4  12  28  51  80 118 151 202 259 318 382 458
#     4  12  27  48  76 113 155 196 252 315 383 448
#     4  12  28  49  80 109 151 205 249 308 388 451
#     4  12  27  48  79 112 152 196 256 314 374 449
#
# _framework density 24.701602999999999
#
# number of rings (size 3 to 8) (size 9 to 14) (size 15 to 20)
#    0.000    0.000    5.000    3.500    4.667    6.000 
#    0.000    0.000    0.000    0.000    0.000    0.000 
#    0.000    0.000    0.000    0.000    0.000    0.000 
#
# Total GULP energy -67148.332508 kJ/mol
# GULP energy per Si atom -5595.694376 kJ/mol
# Density = 2.464538 g / cm^3
# Si number density = 24.701603 Si / 1000 Ang^3
#
#
#
# Elastic Constant Matrix: (Units=GPa)
#
#
# Indices 1 2 3 4 5 6 
#
# 1 126.0778 56.5471 34.9672 -1.2635 -10.1813 -34.0564
# 2 56.5471 139.0138 30.8910 18.6135 -9.2883 5.6304
# 3 34.9672 30.8910 111.0309 16.3871 -6.8753 0.5895
# 4 -1.2635 18.6135 16.3871 41.4108 -2.3282 -1.3572
# 5 -10.1813 -9.2883 -6.8753 -2.3282 41.5268 -6.0990
# 6 -34.0564 5.6304 0.5895 -1.3572 -6.0990 44.5490
#
#
#
# Elastic Compliance Matrix: (Units=1/GPa)
#
#
# Indices 1 2 3 4 5 6 
#
# 1 0.016289 -0.006827 -0.003902 0.005810 0.004221 0.014122
# 2 -0.006827 0.010950 -0.000105 -0.005343 -0.000546 -0.006839
# 3 -0.003902 -0.000105 0.010953 -0.004506 0.000105 -0.003237
# 4 0.005810 -0.005343 -0.004506 0.028832 0.002030 0.006333
# 5 0.004221 -0.000546 0.000105 0.002030 0.026143 0.006935
# 6 0.014122 -0.006839 -0.003237 0.006333 0.006935 0.035293
#
#
# Mechanical properties :
#
#
# Convention : Reuss Voigt Hill
#
# Bulk Modulus (GPa) = 60.51576 68.99257 64.75416
# Shear Modulus (GPa) = 32.12595 42.41180 37.26887
#
# Velocity S-wave (km/s) = 3.61024 4.14812 3.88849
# Velocity P-wave (km/s) = 6.47537 7.13678 6.81410
#
# Compressibility (1/GPa) = 0.01652462
#
# Stress axis : x y z
#
# Youngs Moduli (GPa) = 61.38933 91.32468 91.29582
#
# Poissons Ratio (x) = 0.62347 0.35622
# Poissons Ratio (y) = 0.41910 0.00962
# Poissons Ratio (z) = 0.23953 0.00962
#
# Static dielectric constant tensor:
#      x y z
#    x 2.026710 -0.085250 -0.115650 
#    y -0.085250 2.117240 0.083830 
#    z -0.115650 0.083830 1.902040 
# 
# From -- ./inp_files/488058.got.cif
#   From: 2010.05.17/outbox.cif.g08.bks.cpg/sg2_245_cif.got.tgz:488058.got - 2010.06.03 11:33:40.
