data_PCOD9071735
_publ_section_title
;
Structure prediction by ZEFSAII (Michael W. Deem and Ramdas Pophale) SiO2 
 PCOD9071735
Probable space group: P -1
;
_chemical_formula_sum "Si O2"
_cell_formula_units_Z 16
_cell_length_a 8.639116
_cell_length_b 16.688198
_cell_length_c 11.238519
_cell_angle_alpha 45.190405
_cell_angle_beta 119.016667
_cell_angle_gamma 82.812247
_cell_volume 661.807752
_symmetry_space_group_name_H-M "P -1"
_symmetry_group_IT_number 2
_symmetry_cell_setting 'triclinic'
loop_
_space_group_symop_operation_xyz
x,y,z
-x,-y,-z
loop_
_atom_site_type_symbol
_atom_site_label
_atom_site_fract_x
_atom_site_fract_y
_atom_site_fract_z
Si Si1 0.260364 0.262978 0.884145
Si Si2 0.913995 0.893206 0.044548
Si Si3 0.504248 0.378318 0.469436
Si Si4 0.044865 0.995217 0.303501
Si Si5 0.718167 0.931877 0.253120
Si Si6 0.594558 0.823737 0.717154
Si Si7 0.521658 0.348241 0.794024
Si Si8 0.307218 0.260609 0.428415
O O1 0.217759 0.285522 0.985587
O O2 0.550689 0.068729 0.156556
O O3 0.078856 0.245761 0.791353
O O4 0.291822 0.373114 0.728375
O O5 0.205672 0.791760 0.303409
O O6 0.931700 0.928106 0.878213
O O7 0.617200 0.078216 0.773813
O O8 0.501557 0.356322 0.633675
O O9 0.474993 0.525753 0.292534
O O10 0.287118 0.400393 0.307935
O O11 0.925136 0.930032 0.291900
O O12 0.816545 0.157275 0.132729
O O13 0.343761 0.858925 0.607525
O O14 0.855943 0.752267 0.542521
O O15 0.500000 0.000000 0.000000
O O16 0.708220 0.749089 0.707105
O O17 0.500000 0.000000 0.500000
#
# Coordination Sequence:
#
# PCOD9071735 Si02
#       8
#     2   2   2   2   2   2   2   2
#     4  10  19  33  50  78 104 134 174 212 254 301
#     4   9  17  30  53  78 104 131 167 215 266 301
#     4  10  19  35  53  76 104 139 170 208 264 312
#     4   9  18  32  54  77 102 137 167 209 262 306
#     4  10  18  29  48  78 106 129 161 215 262 304
#     4  11  19  36  52  80 102 136 174 216 258 298
#     4   9  20  34  51  77 104 138 170 209 255 318
#     4  10  19  32  52  76 107 131 171 216 261 298
#
# _framework density 24.176206000000001
#
# number of rings (size 3 to 8) (size 9 to 14) (size 15 to 20)
#    0.000    2.250    3.750    2.625    0.000    5.500 
#    0.000    0.625    0.000    0.750    0.000    0.000 
#    0.000    0.000    0.000    0.000    0.000    0.000 
#
# Total GULP energy -89222.262171 kJ/mol
# GULP energy per Si atom -5576.391386 kJ/mol
# Density = 2.412118 g / cm^3
# Si number density = 24.176206 Si / 1000 Ang^3
#
#
#
# Elastic Constant Matrix: (Units=GPa)
#
#
# Indices 1 2 3 4 5 6 
#
# 1 148.1513 38.6834 27.3656 -8.1813 -25.4657 29.7257
# 2 38.6834 100.9489 15.8784 0.3239 -15.6028 17.1044
# 3 27.3656 15.8784 38.0333 -6.6223 3.1555 3.5927
# 4 -8.1813 0.3239 -6.6223 19.4528 1.6779 -9.8425
# 5 -25.4657 -15.6028 3.1555 1.6779 34.4787 -3.8813
# 6 29.7257 17.1044 3.5927 -9.8425 -3.8813 43.7105
#
#
#
# Elastic Compliance Matrix: (Units=1/GPa)
#
#
# Indices 1 2 3 4 5 6 
#
# 1 0.010886 -0.000637 -0.007973 -0.001962 0.007875 -0.006242
# 2 -0.000637 0.012751 -0.005807 -0.005361 0.005553 -0.004794
# 3 -0.007973 -0.005807 0.037210 0.013820 -0.011840 0.006696
# 4 -0.001962 -0.005361 0.013820 0.064107 -0.006441 0.016160
# 5 0.007875 0.005553 -0.011840 -0.006441 0.038210 -0.004613
# 6 -0.006242 -0.004794 0.006696 0.016160 -0.004613 0.031677
#
#
# Mechanical properties :
#
#
# Convention : Reuss Voigt Hill
#
# Bulk Modulus (GPa) = 31.23525 50.10983 40.67254
# Shear Modulus (GPa) = 21.33607 33.20878 27.27242
#
# Velocity S-wave (km/s) = 2.97395 3.71025 3.36232
# Velocity P-wave (km/s) = 4.97397 6.25512 5.65097
#
# Compressibility (1/GPa) = 0.03201512
#
# Stress axis : x y z
#
# Youngs Moduli (GPa) = 91.85842 78.42560 26.87479
#
# Poissons Ratio (x) = 0.04992 0.21426
# Poissons Ratio (y) = 0.05848 0.15605
# Poissons Ratio (z) = 0.73235 0.45539
#
# Static dielectric constant tensor:
#      x y z
#    x 1.989050 0.016390 0.012530 
#    y 0.016390 1.943410 -0.047840 
#    z 0.012530 -0.047840 2.049710 
# 
# From -- ./inp_files/257536.got.cif
#   From: 2010.05.17/outbox.cif.g08.bks.cpg/sg2_129_cif.got.tgz:257536.got - 2010.06.03 11:33:40.
