data_PCOD9071660
_publ_section_title
;
Structure prediction by ZEFSAII (Michael W. Deem and Ramdas Pophale) SiO2 
 PCOD9071660
Probable space group: P -1
;
_chemical_formula_sum "Si O2"
_cell_formula_units_Z 14
_cell_length_a 7.065656
_cell_length_b 10.036635
_cell_length_c 10.203857
_cell_angle_alpha 81.971867
_cell_angle_beta 91.443715
_cell_angle_gamma 134.705785
_cell_volume 506.499584
_symmetry_space_group_name_H-M "P -1"
_symmetry_group_IT_number 2
_symmetry_cell_setting 'triclinic'
loop_
_space_group_symop_operation_xyz
x,y,z
-x,-y,-z
loop_
_atom_site_type_symbol
_atom_site_label
_atom_site_fract_x
_atom_site_fract_y
_atom_site_fract_z
Si Si1 0.583391 0.724333 0.341206
Si Si2 0.127265 0.257372 0.420742
Si Si3 0.578454 0.326953 0.926096
Si Si4 0.469799 0.830620 0.780645
Si Si5 0.044281 0.239745 0.145504
Si Si6 0.782392 0.154260 0.905861
Si Si7 0.258891 0.716704 0.516894
O O1 0.358680 0.490456 0.375996
O O2 0.792897 0.787721 0.446118
O O3 0.633773 0.781685 0.182228
O O4 0.453233 0.792885 0.389291
O O5 0.092854 0.177224 0.285610
O O6 0.854143 0.194921 0.464569
O O7 0.707266 0.536299 0.894756
O O8 0.804766 0.327586 0.884795
O O9 0.505192 0.259464 0.084000
O O10 0.407048 0.740819 0.648832
O O11 0.205308 0.788506 0.812651
O O12 0.728191 0.055646 0.781122
O O13 0.980343 0.174619 0.002480
O O14 0.500000 0.000000 0.000000
O O15 0.000000 0.500000 0.500000
#
# Coordination Sequence:
#
# PCOD9071660 Si02
#       7
#     2   2   2   2   2   2   2
#     4   9  16  27  46  68  92 119 151 192 228 268
#     4   8  15  27  44  67  94 120 150 186 233 274
#     4   9  15  25  45  69  89 118 157 190 225 269
#     4   9  16  27  44  65  92 121 150 188 233 274
#     4   8  13  23  43  66  86 116 156 189 218 269
#     4   8  14  24  41  64  91 120 151 186 229 274
#     4   9  17  29  47  68  90 121 154 187 228 277
#
# _framework density 27.640692999999999
#
# number of rings (size 3 to 8) (size 9 to 14) (size 15 to 20)
#    0.000    3.714    0.000    2.571    0.000    0.000 
#    0.000    0.714    0.000   33.429    0.000    0.000 
#    0.000    1.143    0.000    0.000    0.000    0.000 
#
# Total GULP energy -78178.602016 kJ/mol
# GULP energy per Si atom -5584.185858 kJ/mol
# Density = 2.757778 g / cm^3
# Si number density = 27.640693 Si / 1000 Ang^3
#
#
#
# Elastic Constant Matrix: (Units=GPa)
#
#
# Indices 1 2 3 4 5 6 
#
# 1 77.5657 5.5286 69.8415 1.7448 9.7829 0.7309
# 2 5.5286 91.4392 60.1025 16.3255 5.3856 -12.4913
# 3 69.8415 60.1025 308.2880 35.5002 33.8243 0.8073
# 4 1.7448 16.3255 35.5002 56.7218 -3.2997 10.1527
# 5 9.7829 5.3856 33.8243 -3.2997 54.2311 1.2236
# 6 0.7309 -12.4913 0.8073 10.1527 1.2236 9.3019
#
#
#
# Elastic Compliance Matrix: (Units=1/GPa)
#
#
# Indices 1 2 3 4 5 6 
#
# 1 0.016583 0.001212 -0.004181 0.001996 -0.000350 -0.001444
# 2 0.001212 0.020397 -0.002801 -0.011504 -0.002108 0.040372
# 3 -0.004181 -0.002801 0.005265 -0.002309 -0.002368 -0.001058
# 4 0.001996 -0.011504 -0.002309 0.031710 0.005296 -0.050711
# 5 -0.000350 -0.002108 -0.002368 0.005296 0.020762 -0.011110
# 6 -0.001444 0.040372 -0.001058 -0.050711 -0.011110 0.218734
#
#
# Mechanical properties :
#
#
# Convention : Reuss Voigt Hill
#
# Bulk Modulus (GPa) = 32.56574 83.13756 57.85165
# Shear Modulus (GPa) = 14.91531 46.83900 30.87716
#
# Velocity S-wave (km/s) = 2.32548 4.12098 3.34592
# Velocity P-wave (km/s) = 4.36095 7.26543 5.99184
#
# Compressibility (1/GPa) = 0.03070712
#
# Stress axis : x y z
#
# Youngs Moduli (GPa) = 60.30175 49.02665 189.91717
#
# Poissons Ratio (x) = -0.05944 0.79401
# Poissons Ratio (y) = -0.07311 0.53195
# Poissons Ratio (z) = 0.25211 0.13732
#
# Static dielectric constant tensor:
#      x y z
#    x 2.254880 -0.072260 0.042040 
#    y -0.072260 2.244900 0.034790 
#    z 0.042040 0.034790 2.224840 
# 
# From -- ./inp_files/384920.got.cif
#   From: 2010.05.17/outbox.cif.g08.bks.cpg/sg2_193_cif.got.tgz:384920.got - 2010.06.03 11:33:40.
