data_PCOD9071282
_publ_section_title
;
Structure prediction by ZEFSAII (Michael W. Deem and Ramdas Pophale) SiO2 
 PCOD9071282
Probable space group: P -1
;
_chemical_formula_sum "Si O2"
_cell_formula_units_Z 16
_cell_length_a 8.569072
_cell_length_b 9.396297
_cell_length_c 15.876719
_cell_angle_alpha 35.292463
_cell_angle_beta 80.010958
_cell_angle_gamma 80.495660
_cell_volume 726.750738
_symmetry_space_group_name_H-M "P -1"
_symmetry_group_IT_number 2
_symmetry_cell_setting 'triclinic'
loop_
_space_group_symop_operation_xyz
x,y,z
-x,-y,-z
loop_
_atom_site_type_symbol
_atom_site_label
_atom_site_fract_x
_atom_site_fract_y
_atom_site_fract_z
Si Si1 0.386785 0.746677 0.877782
Si Si2 0.434769 0.283565 0.666494
Si Si3 0.594034 0.224248 0.336437
Si Si4 0.955153 0.416443 0.951963
Si Si5 0.891872 0.023666 0.917075
Si Si6 0.562308 0.271331 0.845188
Si Si7 0.064470 0.402161 0.629674
Si Si8 0.942955 0.276612 0.355291
O O1 0.363472 0.813749 0.748122
O O2 0.467365 0.992811 0.785980
O O3 0.500000 0.500000 0.000000
O O4 0.217502 0.703225 0.961559
O O5 0.500000 0.500000 0.500000
O O6 0.502385 0.330687 0.728971
O O7 0.248156 0.329092 0.651941
O O8 0.490845 0.483347 0.219060
O O9 0.757479 0.270825 0.348517
O O10 0.500000 0.000000 0.500000
O O11 0.952121 0.621544 0.780466
O O12 0.000000 0.500000 0.000000
O O13 0.110271 0.252546 0.982733
O O14 0.746642 0.203964 0.865633
O O15 0.977061 0.152189 0.771383
O O16 0.000000 0.000000 0.000000
O O17 0.500000 0.000000 0.000000
O O18 0.034469 0.570744 0.634088
O O19 0.000000 0.500000 0.500000
O O20 0.000000 0.000000 0.500000
#
# Coordination Sequence:
#
# PCOD9071282 Si02
#       8
#     2   2   2   2   2   2   2   2
#     4  12  29  46  78 113 151 203 250 313 391 455
#     4  12  26  49  71 109 151 193 254 312 376 458
#     4  12  28  50  74 113 157 198 251 318 388 460
#     4  12  27  50  75 109 154 195 257 313 377 466
#     4  12  26  47  77 106 145 195 254 312 375 448
#     4  12  26  47  77 104 145 198 251 308 377 450
#     4  12  27  47  74 108 147 199 257 311 379 453
#     4  12  29  48  76 111 153 202 253 316 391 455
#
# _framework density 22.015799000000001
#
# number of rings (size 3 to 8) (size 9 to 14) (size 15 to 20)
#    0.000    0.000    5.000    3.750   10.500    0.000 
#    0.000    0.000    0.000    0.000    0.000    0.000 
#    0.000    0.000    0.000    0.000    0.000    0.000 
#
# Total GULP energy -89323.188130 kJ/mol
# GULP energy per Si atom -5582.699258 kJ/mol
# Density = 2.196569 g / cm^3
# Si number density = 22.015799 Si / 1000 Ang^3
#
#
#
# Elastic Constant Matrix: (Units=GPa)
#
#
# Indices 1 2 3 4 5 6 
#
# 1 89.6097 6.2192 23.9589 2.2123 8.4646 -17.2353
# 2 6.2192 100.1223 23.2983 -1.8749 8.1712 1.0985
# 3 23.9589 23.2983 176.4065 10.8032 -10.3564 -8.2977
# 4 2.2123 -1.8749 10.8032 48.9243 7.1207 16.4337
# 5 8.4646 8.1712 -10.3564 7.1207 47.9308 0.4059
# 6 -17.2353 1.0985 -8.2977 16.4337 0.4059 42.5925
#
#
#
# Elastic Compliance Matrix: (Units=1/GPa)
#
#
# Indices 1 2 3 4 5 6 
#
# 1 0.012936 -0.000372 -0.001462 -0.001854 -0.002310 0.005697
# 2 -0.000372 0.010628 -0.001649 0.001574 -0.002325 -0.001331
# 3 -0.001462 -0.001649 0.006429 -0.002268 0.002252 0.001557
# 4 -0.001854 0.001574 -0.002268 0.025371 -0.004107 -0.010982
# 5 -0.002310 -0.002325 0.002252 -0.004107 0.022757 0.000932
# 6 0.005697 -0.001331 0.001557 -0.010982 0.000932 0.030350
#
#
# Mechanical properties :
#
#
# Convention : Reuss Voigt Hill
#
# Bulk Modulus (GPa) = 43.42477 52.56570 47.99523
# Shear Modulus (GPa) = 40.61335 48.73366 44.67351
#
# Velocity S-wave (km/s) = 4.29970 4.70997 4.50950
# Velocity P-wave (km/s) = 6.66461 7.31482 6.99727
#
# Compressibility (1/GPa) = 0.02302833
#
# Stress axis : x y z
#
# Youngs Moduli (GPa) = 77.30485 94.08811 155.53737
#
# Poissons Ratio (x) = 0.03501 0.22738
# Poissons Ratio (y) = 0.02876 0.25642
# Poissons Ratio (z) = 0.11301 0.15512
#
# Static dielectric constant tensor:
#      x y z
#    x 1.813490 0.044190 0.169390 
#    y 0.044190 1.934160 -0.273510 
#    z 0.169390 -0.273510 1.762260 
# 
# From -- ./inp_files/494204.got.cif
#   From: 2010.05.17/outbox.cif.g08.bks.cpg/sg2_248_cif.got.tgz:494204.got - 2010.06.03 11:33:40.
