data_PCOD9071795
_publ_section_title
;
Structure prediction by ZEFSAII (Michael W. Deem and Ramdas Pophale) SiO2 
 PCOD9071795
Probable space group: P -1
;
_chemical_formula_sum "Si O2"
_cell_formula_units_Z 13
_cell_length_a 5.219190
_cell_length_b 15.505501
_cell_length_c 13.075636
_cell_angle_alpha 28.912153
_cell_angle_beta 110.232947
_cell_angle_gamma 112.815538
_cell_volume 471.510783
_symmetry_space_group_name_H-M "P -1"
_symmetry_group_IT_number 2
_symmetry_cell_setting 'triclinic'
loop_
_space_group_symop_operation_xyz
x,y,z
-x,-y,-z
loop_
_atom_site_type_symbol
_atom_site_label
_atom_site_fract_x
_atom_site_fract_y
_atom_site_fract_z
Si Si1 0.319995 0.379279 0.462225
Si Si2 0.021099 0.127743 0.050268
Si Si3 0.287629 0.613444 0.956578
Si Si4 0.749075 0.454858 0.280985
Si Si5 0.443233 0.207856 0.856231
Si Si6 0.500000 0.000000 0.500000
Si Si7 0.825858 0.054134 0.316520
O O1 0.563083 0.340712 0.462041
O O2 0.283824 0.248755 0.689973
O O3 0.434336 0.585895 0.301042
O O4 0.021929 0.378032 0.370527
O O5 0.719637 0.127270 0.960172
O O6 0.143161 0.339354 0.876079
O O7 0.245326 0.095585 0.030676
O O8 0.956558 0.021336 0.260853
O O9 0.192931 0.733092 0.912396
O O10 0.421302 0.784205 0.730190
O O11 0.514384 0.491617 0.132225
O O12 0.000000 0.500000 0.000000
O O13 0.530041 0.969383 0.408487
O O14 0.000000 0.000000 0.500000
#
# Coordination Sequence:
#
# PCOD9071795 Si02
#       7
#     2   2   2   2   2   1   2
#     4   9  17  29  46  74 118 154 190 244 312 352
#     4  10  18  29  51  76 115 159 195 242 313 350
#     4  10  21  39  61  88 121 163 207 248 306 367
#     4  10  18  31  51  78 112 161 189 246 305 353
#     4   9  17  27  45  76 111 160 189 244 306 368
#     4   8  22  36  58  80 118 154 194 256 292 346
#     4  10  20  35  56  80 117 163 195 252 301 354
#
# _framework density 27.57095
#
# number of rings (size 3 to 8) (size 9 to 14) (size 15 to 20)
#    0.923    1.538    0.000    4.615    2.154    3.692 
#    0.000    6.923    0.000    0.000    0.000    0.000 
#    0.000   24.615    3.385    0.000    0.000    0.000 
#
# Total GULP energy -72398.995639 kJ/mol
# GULP energy per Si atom -5569.153511 kJ/mol
# Density = 2.750820 g / cm^3
# Si number density = 27.570950 Si / 1000 Ang^3
#
#
#
# Elastic Constant Matrix: (Units=GPa)
#
#
# Indices 1 2 3 4 5 6 
#
# 1 139.6725 38.3036 64.6912 13.0516 -8.2119 19.4308
# 2 38.3036 63.0354 52.3338 5.7381 9.3690 14.2823
# 3 64.6912 52.3338 177.2043 35.0840 -27.1564 -2.6099
# 4 13.0516 5.7381 35.0840 45.0801 -9.3514 13.5704
# 5 -8.2119 9.3690 -27.1564 -9.3514 52.0926 6.0099
# 6 19.4308 14.2823 -2.6099 13.5704 6.0099 45.7023
#
#
#
# Elastic Compliance Matrix: (Units=1/GPa)
#
#
# Indices 1 2 3 4 5 6 
#
# 1 0.009785 -0.003103 -0.002732 0.001123 0.001323 -0.003854
# 2 -0.003103 0.028874 -0.010042 0.005871 -0.008841 -0.008858
# 3 -0.002732 -0.010042 0.012189 -0.008315 0.005458 0.006747
# 4 0.001123 0.005871 -0.008315 0.031732 0.001920 -0.012461
# 5 0.001323 -0.008841 0.005458 0.001920 0.024330 -0.001257
# 6 -0.003854 -0.008858 0.006747 -0.012461 -0.001257 0.030538
#
#
# Mechanical properties :
#
#
# Convention : Reuss Voigt Hill
#
# Bulk Modulus (GPa) = 52.37711 76.72994 64.55352
# Shear Modulus (GPa) = 28.47919 43.54722 36.01321
#
# Velocity S-wave (km/s) = 3.21743 3.97855 3.61806
# Velocity P-wave (km/s) = 5.73070 6.99969 6.39674
#
# Compressibility (1/GPa) = 0.01909231
#
# Stress axis : x y z
#
# Youngs Moduli (GPa) = 102.19749 34.63337 82.04418
#
# Poissons Ratio (x) = 0.10748 0.22415
# Poissons Ratio (y) = 0.31715 0.82391
# Poissons Ratio (z) = 0.27921 0.34780
#
# Static dielectric constant tensor:
#      x y z
#    x 0.167530 -0.903490 0.125490 
#    y -0.903490 2.079420 0.084240 
#    z 0.125490 0.084240 2.099100 
# 
# From -- ./inp_files/485376.got.cif
#   From: 2010.05.17/outbox.cif.g08.bks.cpg/sg2_243_cif.got.tgz:485376.got - 2010.06.03 11:33:40.
