data_PCOD9071323
_publ_section_title
;
Structure prediction by ZEFSAII (Michael W. Deem and Ramdas Pophale) SiO2 
 PCOD9071323
Probable space group: P -1
;
_chemical_formula_sum "Si O2"
_cell_formula_units_Z 14
_cell_length_a 7.218345
_cell_length_b 6.749073
_cell_length_c 13.640972
_cell_angle_alpha 97.435274
_cell_angle_beta 124.173040
_cell_angle_gamma 90.523201
_cell_volume 542.470301
_symmetry_space_group_name_H-M "P -1"
_symmetry_group_IT_number 2
_symmetry_cell_setting 'triclinic'
loop_
_space_group_symop_operation_xyz
x,y,z
-x,-y,-z
loop_
_atom_site_type_symbol
_atom_site_label
_atom_site_fract_x
_atom_site_fract_y
_atom_site_fract_z
Si Si1 0.173976 0.248160 0.195300
Si Si2 0.754484 0.547753 0.394818
Si Si3 0.981701 0.340610 0.859666
Si Si4 0.000000 0.000000 0.000000
Si Si5 0.451487 0.802409 0.826253
Si Si6 0.500000 0.500000 0.000000
Si Si7 0.316623 0.157979 0.450299
Si Si8 0.889921 0.889898 0.300898
O O1 0.288205 0.140239 0.127247
O O2 0.270603 0.213852 0.327909
O O3 0.172402 0.478900 0.185845
O O4 0.943489 0.111591 0.099810
O O5 0.634670 0.345878 0.298655
O O6 0.631402 0.645834 0.454739
O O7 0.786537 0.716726 0.331056
O O8 0.000000 0.500000 0.500000
O O9 0.236578 0.438951 0.943293
O O10 0.973202 0.213559 0.748952
O O11 0.928907 0.206169 0.929031
O O12 0.434413 0.667564 0.907734
O O13 0.313491 0.993692 0.792782
O O14 0.500000 0.000000 0.500000
O O15 0.078460 0.051157 0.413079
#
# Coordination Sequence:
#
# PCOD9071323 Si02
#       8
#     2   2   2   1   2   1   2   2
#     4  12  28  50  74 110 147 193 244 302 371 435
#     4  12  26  48  75 102 147 192 242 302 359 436
#     4  12  27  48  79 108 153 190 246 304 369 438
#     4  12  26  48  80 108 150 194 240 310 366 440
#     4  12  28  46  76 109 144 194 244 296 370 435
#     4  12  26  50  74 114 146 192 246 306 366 436
#     4  12  27  47  74 107 145 192 244 300 367 434
#     4  12  26  49  72 108 145 190 244 301 364 436
#
# _framework density 25.807867999999999
#
# number of rings (size 3 to 8) (size 9 to 14) (size 15 to 20)
#    0.000    0.000    5.714    3.429    4.000    3.429 
#    0.000    0.000    0.000    0.000    0.000    0.000 
#    0.000    0.000    0.000    0.000    0.000    0.000 
#
# Total GULP energy -78075.460891 kJ/mol
# GULP energy per Si atom -5576.818635 kJ/mol
# Density = 2.574913 g / cm^3
# Si number density = 25.807868 Si / 1000 Ang^3
#
#
#
# Elastic Constant Matrix: (Units=GPa)
#
#
# Indices 1 2 3 4 5 6 
#
# 1 91.5820 56.0730 36.0509 -13.1903 -4.4352 8.5628
# 2 56.0730 175.8221 81.6951 -38.9451 -9.7569 3.8453
# 3 36.0509 81.6951 133.7779 -33.7479 -7.7663 -0.7404
# 4 -13.1903 -38.9451 -33.7479 47.5678 10.9051 -4.8523
# 5 -4.4352 -9.7569 -7.7663 10.9051 42.4606 -13.4060
# 6 8.5628 3.8453 -0.7404 -4.8523 -13.4060 53.1928
#
#
#
# Elastic Compliance Matrix: (Units=1/GPa)
#
#
# Indices 1 2 3 4 5 6 
#
# 1 0.013987 -0.003798 -0.001610 -0.000534 -0.000234 -0.002107
# 2 -0.003798 0.009560 -0.003772 0.004092 0.000147 0.000278
# 3 -0.001610 -0.003772 0.011397 0.004617 0.000233 0.001171
# 4 -0.000534 0.004092 0.004617 0.028836 -0.005315 0.001145
# 5 -0.000234 0.000147 0.000233 -0.005315 0.026971 0.006343
# 6 -0.002107 0.000278 0.001171 0.001145 0.006343 0.020838
#
#
# Mechanical properties :
#
#
# Convention : Reuss Voigt Hill
#
# Bulk Modulus (GPa) = 60.29880 83.20223 71.75051
# Shear Modulus (GPa) = 36.90642 43.80177 40.35409
#
# Velocity S-wave (km/s) = 3.78570 4.12421 3.95857
# Velocity P-wave (km/s) = 6.52103 7.41538 6.98254
#
# Compressibility (1/GPa) = 0.01658408
#
# Stress axis : x y z
#
# Youngs Moduli (GPa) = 71.49483 104.60162 87.73986
#
# Poissons Ratio (x) = 0.39727 0.14127
# Poissons Ratio (y) = 0.27153 0.33097
# Poissons Ratio (z) = 0.11511 0.39458
#
# Static dielectric constant tensor:
#      x y z
#    x 2.185960 0.031800 0.137700 
#    y 0.031800 2.020950 0.124250 
#    z 0.137700 0.124250 2.126010 
# 
# From -- ./inp_files/27826.got.cif
#   From: 2010.05.17/outbox.cif.g08.bks.cpg/sg2_14_cif.got.tgz:27826.got - 2010.06.03 11:33:40.
