data_PCOD9071962
_publ_section_title
;
Structure prediction by ZEFSAII (Michael W. Deem and Ramdas Pophale) SiO2 
 PCOD9071962
Probable space group: P -1
;
_chemical_formula_sum "Si O2"
_cell_formula_units_Z 16
_cell_length_a 16.292473
_cell_length_b 26.700609
_cell_length_c 14.960186
_cell_angle_alpha 20.140122
_cell_angle_beta 149.145846
_cell_angle_gamma 158.905307
_cell_volume 798.441649
_symmetry_space_group_name_H-M "P -1"
_symmetry_group_IT_number 2
_symmetry_cell_setting 'triclinic'
loop_
_space_group_symop_operation_xyz
x,y,z
-x,-y,-z
loop_
_atom_site_type_symbol
_atom_site_label
_atom_site_fract_x
_atom_site_fract_y
_atom_site_fract_z
Si Si1 0.881402 0.976216 0.296164
Si Si2 0.389044 0.567578 0.593993
Si Si3 0.952658 0.188314 0.188822
Si Si4 0.453015 0.629434 0.888059
Si Si5 0.362978 0.027009 0.070462
Si Si6 0.722944 0.320937 0.530802
Si Si7 0.158204 0.588038 0.201099
Si Si8 0.354856 0.836093 0.559856
O O1 0.630754 0.750811 0.464524
O O2 0.065644 0.969203 0.503043
O O3 0.837578 0.002324 0.110789
O O4 0.919418 0.121803 0.165593
O O5 0.374941 0.681175 0.465911
O O6 0.201445 0.486742 0.481340
O O7 0.377642 0.397310 0.907181
O O8 0.214442 0.410257 0.069115
O O9 0.824131 0.246276 0.006944
O O10 0.379916 0.638394 0.707884
O O11 0.497623 0.797943 0.709651
O O12 0.350042 0.883838 0.228831
O O13 0.320147 0.931192 0.288251
O O14 0.622524 0.263344 0.909952
O O15 0.000000 0.500000 0.500000
O O16 0.892343 0.387508 0.261198
O O17 0.500000 0.000000 0.500000
#
# Coordination Sequence:
#
# PCOD9071962 Si02
#       8
#     2   2   2   2   2   2   2   2
#     4   9  17  28  48  76 111 144 175 209 252 315
#     4  10  18  30  49  76 112 144 172 213 261 320
#     4   9  16  29  48  76 110 146 174 204 255 318
#     4   9  19  32  49  75 107 141 179 223 266 313
#     4  10  20  34  53  81 109 140 181 218 262 318
#     4  11  19  29  49  79 117 153 180 208 254 319
#     4  10  20  35  56  77 105 140 176 221 273 324
#     4  10  22  41  60  76 100 137 183 236 284 321
#
# _framework density 20.039034000000001
#
# number of rings (size 3 to 8) (size 9 to 14) (size 15 to 20)
#    0.000    2.250    0.000    4.875    0.000    2.500 
#    0.000    6.875    0.000   12.000    0.000    0.000 
#    0.000    0.000    0.000    0.000    0.000    0.000 
#
# Total GULP energy -89108.352118 kJ/mol
# GULP energy per Si atom -5569.272007 kJ/mol
# Density = 1.999342 g / cm^3
# Si number density = 20.039034 Si / 1000 Ang^3
#
#
#
# Elastic Constant Matrix: (Units=GPa)
#
#
# Indices 1 2 3 4 5 6 
#
# 1 17.6351 29.5152 4.2561 -1.1611 -17.5435 -0.0555
# 2 29.5152 99.3583 38.6991 -9.1294 -0.1104 -5.4068
# 3 4.2561 38.6991 70.3561 13.2683 -11.8109 -3.1373
# 4 -1.1611 -9.1294 13.2683 29.4099 4.2889 3.9257
# 5 -17.5435 -0.1104 -11.8109 4.2889 10.0455 -0.4653
# 6 -0.0555 -5.4068 -3.1373 3.9257 -0.4653 25.6053
#
#
#
# Elastic Compliance Matrix: (Units=1/GPa)
#
#
# Indices 1 2 3 4 5 6 
#
# 1 -0.012666 0.013002 -0.019522 0.020723 -0.053955 -0.003832
# 2 0.013002 0.006171 0.000111 -0.001321 0.023560 0.001976
# 3 -0.019522 0.000111 0.013700 -0.004897 -0.015796 0.002123
# 4 0.020723 -0.001321 -0.004897 0.035211 0.015110 -0.005958
# 5 -0.053955 0.023560 -0.015796 0.015110 -0.019431 0.000253
# 6 -0.003832 0.001976 0.002123 -0.005958 0.000253 0.040642
#
#
# Mechanical properties :
#
#
# Convention : Reuss Voigt Hill
#
# Bulk Modulus (GPa) = -178.17478 36.92115 -70.62682
# Shear Modulus (GPa) = 67.04794 20.67074 43.85934
#
# Velocity S-wave (km/s) = 5.79062 3.21522 4.68342
# Velocity P-wave (km/s) = 6.66322 5.67874 2.46479
#
# Compressibility (1/GPa) = -0.00561247
#
# Stress axis : x y z
#
# Youngs Moduli (GPa) = -78.95297 162.03986 72.99457
#
# Poissons Ratio (x) = -2.10679 1.42499
# Poissons Ratio (y) = 1.02652 -0.00812
# Poissons Ratio (z) = -1.54130 -0.01803
#
# Static dielectric constant tensor:
#      x y z
#    x 1.720750 0.067680 -0.003190 
#    y 0.067680 1.748850 0.052970 
#    z -0.003190 0.052970 1.847280 
# 
# From -- ./inp_files/169443.got.cif
#   From: 2010.05.17/outbox.cif.g08.bks.cpg/sg2_85_cif.got.tgz:169443.got - 2010.06.03 11:33:40.
