data_PCOD9071132
_publ_section_title
;
Structure prediction by ZEFSAII (Michael W. Deem and Ramdas Pophale) SiO2 
 PCOD9071132
Probable space group: P -1
;
_chemical_formula_sum "Si O2"
_cell_formula_units_Z 16
_cell_length_a 11.376154
_cell_length_b 11.810031
_cell_length_c 22.016361
_cell_angle_alpha 147.944300
_cell_angle_beta 154.711206
_cell_angle_gamma 35.187976
_cell_volume 653.481743
_symmetry_space_group_name_H-M "P -1"
_symmetry_group_IT_number 2
_symmetry_cell_setting 'triclinic'
loop_
_space_group_symop_operation_xyz
x,y,z
-x,-y,-z
loop_
_atom_site_type_symbol
_atom_site_label
_atom_site_fract_x
_atom_site_fract_y
_atom_site_fract_z
Si Si1 0.130399 0.340840 0.743069
Si Si2 0.890944 0.370461 0.316712
Si Si3 0.066064 0.915057 0.566912
Si Si4 0.556397 0.741919 0.419748
Si Si5 0.367039 0.346928 0.325108
Si Si6 0.179277 0.451206 0.148425
Si Si7 0.586580 0.647394 0.997146
Si Si8 0.307164 0.904127 0.802123
O O1 0.375128 0.341750 0.907343
O O2 0.121599 0.226035 0.620860
O O3 0.951445 0.591741 0.770653
O O4 0.966774 0.174564 0.628416
O O5 0.729286 0.584035 0.376482
O O6 0.845688 0.161167 0.240082
O O7 0.228666 0.332626 0.456782
O O8 0.715837 0.377055 0.176775
O O9 0.382790 0.866714 0.662418
O O10 0.124227 0.851379 0.634809
O O11 0.264737 0.665899 0.259052
O O12 0.500000 0.000000 0.500000
O O13 0.500000 0.500000 0.500000
O O14 0.307576 0.417780 0.260327
O O15 0.377311 0.250355 0.114883
O O16 0.848462 0.466307 0.008988
O O17 0.641891 0.864569 0.089579
#
# Coordination Sequence:
#
# PCOD9071132 Si02
#       8
#     2   2   2   2   2   2   2   2
#     4   8  14  23  38  62  92 118 140 174 227 277
#     4  10  21  33  47  70  95 123 159 195 235 282
#     4   8  13  23  38  60  91 119 144 176 221 274
#     4  10  21  36  49  63  92 132 168 194 223 273
#     4   8  13  23  40  64  91 112 140 187 230 266
#     4   9  18  30  47  71  93 122 158 188 232 286
#     4  10  18  29  47  72 100 120 146 196 246 281
#     4   9  17  28  45  69  97 122 152 195 238 277
#
# _framework density 24.484234000000001
#
# number of rings (size 3 to 8) (size 9 to 14) (size 15 to 20)
#    0.000    3.000    0.000    1.125    0.000    3.000 
#    0.000    0.000    0.000    0.000    0.000   31.500 
#    0.000  116.000    0.000    0.000    0.000    0.000 
#
# Total GULP energy -89072.758474 kJ/mol
# GULP energy per Si atom -5567.047405 kJ/mol
# Density = 2.442851 g / cm^3
# Si number density = 24.484234 Si / 1000 Ang^3
#
#
#
# Elastic Constant Matrix: (Units=GPa)
#
#
# Indices 1 2 3 4 5 6 
#
# 1 52.4581 2.9963 35.8100 -4.8314 6.2074 8.4029
# 2 2.9963 96.2907 14.4182 -13.8787 10.8878 1.7304
# 3 35.8100 14.4182 114.9923 -37.6258 -32.4365 8.8557
# 4 -4.8314 -13.8787 -37.6258 28.3204 12.4634 0.7017
# 5 6.2074 10.8878 -32.4365 12.4634 38.2003 -0.5181
# 6 8.4029 1.7304 8.8557 0.7017 -0.5181 23.6145
#
#
#
# Elastic Compliance Matrix: (Units=1/GPa)
#
#
# Indices 1 2 3 4 5 6 
#
# 1 0.034480 0.002767 -0.019453 -0.009763 -0.019796 -0.005321
# 2 0.002767 0.012691 -0.002313 0.007376 -0.008457 -0.001452
# 3 -0.019453 -0.002313 0.029691 0.026100 0.020457 -0.004370
# 4 -0.009763 0.007376 0.026100 0.073198 -0.002359 -0.009081
# 5 -0.019796 -0.008457 0.020457 -0.002359 0.049961 0.001159
# 6 -0.005321 -0.001452 -0.004370 -0.009081 0.001159 0.046280
#
#
# Mechanical properties :
#
#
# Convention : Reuss Voigt Hill
#
# Bulk Modulus (GPa) = 25.73144 41.13224 33.43184
# Shear Modulus (GPa) = 16.82061 32.06149 24.44105
#
# Velocity S-wave (km/s) = 2.62391 3.62259 3.16292
# Velocity P-wave (km/s) = 4.43983 5.85948 5.19834
#
# Compressibility (1/GPa) = 0.03886296
#
# Stress axis : x y z
#
# Youngs Moduli (GPa) = 29.00245 78.79628 33.68022
#
# Poissons Ratio (x) = -0.21801 0.65518
# Poissons Ratio (y) = -0.08024 0.07791
# Poissons Ratio (z) = 0.56419 0.18227
#
# Static dielectric constant tensor:
#      x y z
#    x 1.989890 -0.050790 -0.033440 
#    y -0.050790 2.038850 -0.023220 
#    z -0.033440 -0.023220 2.032810 
# 
# From -- ./inp_files/201360.got.cif
#   From: 2010.05.17/outbox.cif.g08.bks.cpg/sg2_101_cif.got.tgz:201360.got - 2010.06.03 11:33:40.
