data_PCOD9071838
_publ_section_title
;
Structure prediction by ZEFSAII (Michael W. Deem and Ramdas Pophale) SiO2 
 PCOD9071838
Probable space group: P -1
;
_chemical_formula_sum "Si O2"
_cell_formula_units_Z 16
_cell_length_a 9.000000
_cell_length_b 24.000000
_cell_length_c 9.000000
_cell_angle_alpha 120.000000
_cell_angle_beta 70.000000
_cell_angle_gamma 150.000000
_cell_volume 822.981223
_symmetry_space_group_name_H-M "P -1"
_symmetry_group_IT_number 2
_symmetry_cell_setting 'triclinic'
loop_
_space_group_symop_operation_xyz
x,y,z
-x,-y,-z
loop_
_atom_site_type_symbol
_atom_site_label
_atom_site_fract_x
_atom_site_fract_y
_atom_site_fract_z
Si Si1 0.140729 0.304462 0.715910
Si Si2 0.813818 0.000258 0.102355
Si Si3 0.902829 0.261957 0.038743
Si Si4 0.796935 0.057728 0.499750
Si Si5 0.551284 0.384263 0.448815
Si Si6 0.025646 0.814767 0.835457
Si Si7 0.363526 0.833177 0.536795
Si Si8 0.194037 0.661613 0.584080
O O1 0.435409 0.391640 0.630620
O O2 0.036195 0.195043 0.647935
O O3 0.892559 0.250853 0.617711
O O4 0.118487 0.336300 0.919151
O O5 0.897447 0.060353 0.313845
O O6 0.874700 0.076225 0.058320
O O7 0.450931 0.865291 0.058465
O O8 0.000000 0.000000 0.000000
O O9 0.986242 0.228216 0.064402
O O10 0.893887 0.321097 0.227103
O O11 0.500000 0.000000 0.500000
O O12 0.683710 0.964097 0.527928
O O13 0.610374 0.331962 0.419147
O O14 0.870783 0.520011 0.455774
O O15 0.291007 0.296776 0.295876
O O16 0.266839 0.857297 0.712875
O O17 0.343318 0.759761 0.538518
#
# Coordination Sequence:
#
# PCOD9071838 Si02
#       8
#     2   2   2   2   2   2   2   2
#     4  10  19  36  62  83 119 155 190 238 286 345
#     4  12  21  34  58  91 124 154 185 240 300 339
#     4  11  22  35  58  92 117 151 196 242 281 346
#     4  10  16  35  59  83 119 160 184 225 297 346
#     4  10  21  43  61  80 117 158 193 245 293 345
#     4  10  20  37  60  81 117 158 197 231 283 350
#     4   9  17  35  61  81 111 154 196 228 280 352
#     4  10  23  39  61  87 114 149 201 246 294 340
#
# _framework density 19.441513
#
# number of rings (size 3 to 8) (size 9 to 14) (size 15 to 20)
#    0.000    1.750    6.250    1.125    0.000    6.000 
#    2.250    0.625    0.000    3.000    0.000    0.000 
#    0.000    0.000    0.000    0.000    0.000    0.000 
#
# Total GULP energy -89258.675857 kJ/mol
# GULP energy per Si atom -5578.667241 kJ/mol
# Density = 1.939726 g / cm^3
# Si number density = 19.441513 Si / 1000 Ang^3
#
#
#
# Elastic Constant Matrix: (Units=GPa)
#
#
# Indices 1 2 3 4 5 6 
#
# 1 80.3366 -1.3195 20.4554 -4.9914 -4.0258 -0.6357
# 2 -1.3195 53.6007 0.1329 3.3938 11.6909 6.2153
# 3 20.4554 0.1329 64.7088 -19.0976 -7.2486 -1.4234
# 4 -4.9914 3.3938 -19.0976 31.4394 -0.6413 0.3840
# 5 -4.0258 11.6909 -7.2486 -0.6413 25.6690 -3.2778
# 6 -0.6357 6.2153 -1.4234 0.3840 -3.2778 30.3178
#
#
#
# Elastic Compliance Matrix: (Units=1/GPa)
#
#
# Indices 1 2 3 4 5 6 
#
# 1 0.013567 0.000179 -0.004336 -0.000484 0.000828 0.000140
# 2 0.000179 0.022174 -0.002792 -0.004228 -0.011717 -0.005886
# 3 -0.004336 -0.002792 0.021456 0.012768 0.007239 0.002110
# 4 -0.000484 -0.004228 0.012768 0.040058 0.006669 0.001670
# 5 0.000828 -0.011717 0.007239 0.006669 0.047634 0.007825
# 6 0.000140 -0.005886 0.002110 0.001670 0.007825 0.035117
#
#
# Mechanical properties :
#
#
# Convention : Reuss Voigt Hill
#
# Bulk Modulus (GPa) = 23.09596 26.35377 24.72487
# Shear Modulus (GPa) = 23.99957 29.44374 26.72165
#
# Velocity S-wave (km/s) = 3.51729 3.89585 3.71140
# Velocity P-wave (km/s) = 5.32922 5.81564 5.57774
#
# Compressibility (1/GPa) = 0.04329762
#
# Stress axis : x y z
#
# Youngs Moduli (GPa) = 73.70740 45.09884 46.60731
#
# Poissons Ratio (x) = -0.00806 0.20210
# Poissons Ratio (y) = -0.01317 0.13012
# Poissons Ratio (z) = 0.31961 0.12591
#
# Static dielectric constant tensor:
#      x y z
#    x 1.653730 -0.011670 0.018620 
#    y -0.011670 1.725810 0.027520 
#    z 0.018620 0.027520 1.717570 
# 
# From -- ./inp_files/189408.got.cif
#   From: 2010.05.17/outbox.ucp.g08.bks.cvg/sg2_95_cif.got.tgz:189408.got - 2010.06.11 11:32:03.
