data_PCOD9071034
_publ_section_title
;
Structure prediction by ZEFSAII (Michael W. Deem and Ramdas Pophale) SiO2 
 PCOD9071034
Probable space group: P -1
;
_chemical_formula_sum "Si O2"
_cell_formula_units_Z 16
_cell_length_a 11.634630
_cell_length_b 9.520006
_cell_length_c 9.162388
_cell_angle_alpha 75.929900
_cell_angle_beta 47.624531
_cell_angle_gamma 83.925202
_cell_volume 724.828400
_symmetry_space_group_name_H-M "P -1"
_symmetry_group_IT_number 2
_symmetry_cell_setting 'triclinic'
loop_
_space_group_symop_operation_xyz
x,y,z
-x,-y,-z
loop_
_atom_site_type_symbol
_atom_site_label
_atom_site_fract_x
_atom_site_fract_y
_atom_site_fract_z
Si Si1 0.363981 0.421884 0.539423
Si Si2 0.950745 0.029350 0.869939
Si Si3 0.744793 0.826811 0.925934
Si Si4 0.135448 0.439386 0.993774
Si Si5 0.227715 0.706774 0.059162
Si Si6 0.377857 0.697025 0.253217
Si Si7 0.232105 0.978469 0.425203
Si Si8 0.517868 0.866642 0.623349
O O1 0.500000 0.500000 0.500000
O O2 0.238093 0.395698 0.779753
O O3 0.342032 0.541859 0.402825
O O4 0.403617 0.269630 0.478343
O O5 0.087419 0.983006 0.657772
O O6 0.789192 0.933072 0.996679
O O7 0.920151 0.197346 0.823660
O O8 0.000000 0.000000 0.000000
O O9 0.789599 0.932577 0.726162
O O10 0.865252 0.702949 0.869496
O O11 0.564740 0.754492 0.087288
O O12 0.193047 0.564273 0.027271
O O13 0.000000 0.500000 0.000000
O O14 0.349856 0.804142 0.833871
O O15 0.312323 0.683768 0.147285
O O16 0.283577 0.818974 0.383334
O O17 0.378817 0.068816 0.349557
O O18 0.500000 0.000000 0.500000
#
# Coordination Sequence:
#
# PCOD9071034 Si02
#       8
#     2   2   2   2   2   2   2   2
#     4  12  26  47  73 108 147 195 246 298 362 436
#     4  12  28  46  71 106 153 193 249 298 366 437
#     4  12  25  49  75 105 148 195 243 304 363 436
#     4  12  30  49  74 106 153 196 240 303 372 437
#     4  12  26  48  72 108 145 195 243 303 365 428
#     4  12  26  48  77 110 149 190 248 306 361 431
#     4  12  27  45  74 112 148 194 241 305 369 430
#     4  12  26  43  76 110 142 189 250 303 356 430
#
# _framework density 22.074190999999999
#
# number of rings (size 3 to 8) (size 9 to 14) (size 15 to 20)
#    0.000    0.000    5.000    3.750   10.500    1.000 
#    0.000    1.250    0.000    0.000    0.000    0.000 
#    0.000    0.000    0.000    0.000    0.000    0.000 
#
# Total GULP energy -89430.089291 kJ/mol
# GULP energy per Si atom -5589.380581 kJ/mol
# Density = 2.202395 g / cm^3
# Si number density = 22.074191 Si / 1000 Ang^3
#
#
#
# Elastic Constant Matrix: (Units=GPa)
#
#
# Indices 1 2 3 4 5 6 
#
# 1 102.5136 41.9644 17.5730 -2.0611 42.7367 -9.6848
# 2 41.9644 196.7405 48.2010 4.8425 30.1261 -13.1999
# 3 17.5730 48.2010 69.4883 14.7689 14.9880 -9.9383
# 4 -2.0611 4.8425 14.7689 32.1571 -5.4490 7.5673
# 5 42.7367 30.1261 14.9880 -5.4490 35.4534 1.3714
# 6 -9.6848 -13.1999 -9.9383 7.5673 1.3714 43.3254
#
#
#
# Elastic Compliance Matrix: (Units=1/GPa)
#
#
# Indices 1 2 3 4 5 6 
#
# 1 0.022022 -0.000436 0.003572 -0.006905 -0.029046 0.007735
# 2 -0.000436 0.006705 -0.003425 -0.000435 -0.003844 0.001358
# 3 0.003572 -0.003425 0.022845 -0.013880 -0.013490 0.007847
# 4 -0.006905 -0.000435 -0.013880 0.043903 0.021821 -0.013219
# 5 -0.029046 -0.003844 -0.013490 0.021821 0.076199 -0.016982
# 6 0.007735 0.001358 0.007847 -0.013219 -0.016982 0.029870
#
#
# Mechanical properties :
#
#
# Convention : Reuss Voigt Hill
#
# Bulk Modulus (GPa) = 19.60990 64.91326 42.26158
# Shear Modulus (GPa) = 22.81846 39.58744 31.20295
#
# Velocity S-wave (km/s) = 3.21863 4.23943 3.76380
# Velocity P-wave (km/s) = 4.76610 7.30988 6.17050
#
# Compressibility (1/GPa) = 0.05099464
#
# Stress axis : x y z
#
# Youngs Moduli (GPa) = 45.40980 149.13453 43.77239
#
# Poissons Ratio (x) = 0.06498 -0.15635
# Poissons Ratio (y) = 0.01979 0.14993
# Poissons Ratio (z) = -0.16220 0.51082
#
# Static dielectric constant tensor:
#      x y z
#    x 1.831220 -0.015080 -0.008620 
#    y -0.015080 1.750560 -0.056190 
#    z -0.008620 -0.056190 1.778600 
# 
# From -- ./inp_files/190683.got.cif
#   From: 2010.05.17/outbox.cif.g08.bks.cpg/sg2_96_cif.got.tgz:190683.got - 2010.06.03 11:33:40.
