data_PCOD9071798
_publ_section_title
;
Structure prediction by ZEFSAII (Michael W. Deem and Ramdas Pophale) SiO2 
 PCOD9071798
Probable space group: P -1
;
_chemical_formula_sum "Si O2"
_cell_formula_units_Z 16
_cell_length_a 20.919940
_cell_length_b 10.321659
_cell_length_c 6.756716
_cell_angle_alpha 68.856317
_cell_angle_beta 49.469502
_cell_angle_gamma 35.436452
_cell_volume 593.925931
_symmetry_space_group_name_H-M "P -1"
_symmetry_group_IT_number 2
_symmetry_cell_setting 'triclinic'
loop_
_space_group_symop_operation_xyz
x,y,z
-x,-y,-z
loop_
_atom_site_type_symbol
_atom_site_label
_atom_site_fract_x
_atom_site_fract_y
_atom_site_fract_z
Si Si1 0.247207 0.130514 0.183832
Si Si2 0.944972 0.729662 0.029369
Si Si3 0.456218 0.387429 0.988305
Si Si4 0.659762 0.967865 0.381942
Si Si5 0.018526 0.672535 0.376903
Si Si6 0.566722 0.511774 0.552267
Si Si7 0.772027 0.520877 0.505063
Si Si8 0.153926 0.732555 0.906468
O O1 0.144340 0.138952 0.321434
O O2 0.132204 0.396621 0.354194
O O3 0.308791 0.108871 0.869676
O O4 0.384118 0.902942 0.166751
O O5 0.774193 0.934847 0.228417
O O6 0.983020 0.708137 0.192201
O O7 0.000000 0.500000 0.000000
O O8 0.053148 0.681722 0.709336
O O9 0.434493 0.465754 0.216971
O O10 0.323928 0.458502 0.188889
O O11 0.473339 0.495476 0.747893
O O12 0.688505 0.782465 0.531437
O O13 0.505230 0.253583 0.528841
O O14 0.106342 0.696227 0.199152
O O15 0.735460 0.290428 0.269986
O O16 0.774659 0.454243 0.312216
O O17 0.000000 0.000000 0.000000
#
# Coordination Sequence:
#
# PCOD9071798 Si02
#       8
#     2   2   2   2   2   2   2   2
#     4  10  18  29  51  77 106 130 168 217 256 302
#     4   9  16  33  51  76 102 137 172 212 252 307
#     4   9  18  31  47  74 108 131 166 217 266 294
#     4  10  18  33  57  78 103 134 177 214 250 306
#     4  10  19  30  49  80 104 137 170 210 263 305
#     4   9  19  30  49  77 102 136 173 212 257 304
#     4   9  18  31  53  76 100 138 176 209 256 306
#     4  10  18  30  49  73 106 134 172 207 259 305
#
# _framework density 26.939385999999999
#
# number of rings (size 3 to 8) (size 9 to 14) (size 15 to 20)
#    0.000    2.500    3.750    0.750    1.750    2.500 
#    0.000    0.625    0.000   11.250    0.000    0.000 
#    0.000    0.000    0.000    0.000    0.000    0.000 
#
# Total GULP energy -89440.400583 kJ/mol
# GULP energy per Si atom -5590.025036 kJ/mol
# Density = 2.687807 g / cm^3
# Si number density = 26.939386 Si / 1000 Ang^3
#
#
#
# Elastic Constant Matrix: (Units=GPa)
#
#
# Indices 1 2 3 4 5 6 
#
# 1 77.1404 22.6827 21.9108 -6.3982 -24.4123 -3.1022
# 2 22.6827 84.4499 58.5196 -20.3495 -31.4730 -5.9083
# 3 21.9108 58.5196 192.1031 -31.0595 -34.3712 -3.1196
# 4 -6.3982 -20.3495 -31.0595 44.2634 -2.2557 -11.9566
# 5 -24.4123 -31.4730 -34.3712 -2.2557 55.9284 5.5862
# 6 -3.1022 -5.9083 -3.1196 -11.9566 5.5862 35.0514
#
#
#
# Elastic Compliance Matrix: (Units=1/GPa)
#
#
# Indices 1 2 3 4 5 6 
#
# 1 0.015473 -0.001372 0.000115 0.002252 0.006048 0.000953
# 2 -0.001372 0.019808 -0.002869 0.008552 0.008681 0.004496
# 3 0.000115 -0.002869 0.007315 0.004298 0.002988 0.001168
# 4 0.002252 0.008552 0.004298 0.033573 0.008582 0.012108
# 5 0.006048 0.008681 0.002988 0.008582 0.027507 0.000808
# 6 0.000953 0.004496 0.001168 0.012108 0.000808 0.033477
#
#
# Mechanical properties :
#
#
# Convention : Reuss Voigt Hill
#
# Bulk Modulus (GPa) = 29.11720 62.21328 45.66524
# Shear Modulus (GPa) = 31.87682 43.75399 37.81540
#
# Velocity S-wave (km/s) = 3.44361 4.03446 3.75069
# Velocity P-wave (km/s) = 5.16170 6.69675 5.97870
#
# Compressibility (1/GPa) = 0.03434396
#
# Stress axis : x y z
#
# Youngs Moduli (GPa) = 64.62727 50.48397 136.70872
#
# Poissons Ratio (x) = 0.06929 -0.01571
# Poissons Ratio (y) = 0.08870 0.39218
# Poissons Ratio (z) = -0.00742 0.14482
#
# Static dielectric constant tensor:
#      x y z
#    x 2.274760 -0.011400 0.028250 
#    y -0.011400 2.085890 -0.076440 
#    z 0.028250 -0.076440 2.275300 
# 
# From -- ./inp_files/464816.got.cif
#   From: 2010.05.17/outbox.cif.g08.bks.cpg/sg2_233_cif.got.tgz:464816.got - 2010.06.03 11:33:40.
