data_PCOD9071684
_publ_section_title
;
Structure prediction by ZEFSAII (Michael W. Deem and Ramdas Pophale) SiO2 
 PCOD9071684
Probable space group: P -1
;
_chemical_formula_sum "Si O2"
_cell_formula_units_Z 12
_cell_length_a 5.739882
_cell_length_b 18.333959
_cell_length_c 13.487840
_cell_angle_alpha 19.701437
_cell_angle_beta 101.494252
_cell_angle_gamma 103.510049
_cell_volume 464.336319
_symmetry_space_group_name_H-M "P -1"
_symmetry_group_IT_number 2
_symmetry_cell_setting 'triclinic'
loop_
_space_group_symop_operation_xyz
x,y,z
-x,-y,-z
loop_
_atom_site_type_symbol
_atom_site_label
_atom_site_fract_x
_atom_site_fract_y
_atom_site_fract_z
Si Si1 0.448892 0.507620 0.179507
Si Si2 0.685120 0.906558 0.449862
Si Si3 0.937737 0.534960 0.119277
Si Si4 0.819413 0.140857 0.478326
Si Si5 0.939479 0.172408 0.972697
Si Si6 0.200757 0.635659 0.474286
O O1 0.380982 0.310350 0.347465
O O2 0.703868 0.643015 0.993413
O O3 0.528693 0.392806 0.433415
O O4 0.216787 0.629127 0.012818
O O5 0.461474 0.919690 0.484434
O O6 0.954093 0.888059 0.535403
O O7 0.726724 0.106328 0.119219
O O8 0.858150 0.387377 0.206751
O O9 0.934265 0.367342 0.427872
O O10 0.882453 0.995907 0.763808
O O11 0.084598 0.406575 0.710340
O O12 0.839010 0.180866 0.842745
#
# Coordination Sequence:
#
# PCOD9071684 Si02
#       6
#     2   2   2   2   2   2
#     4   8  15  27  35  42  47  56  66  71  76  87
#     4   8  15  27  35  42  47  56  66  71  76  87
#     4   8  15  27  35  42  47  56  66  71  76  87
#     4   8  15  27  35  42  47  56  66  71  76  87
#     4   9  18  26  32  42  51  55  61  73  82  84
#     4   9  18  26  32  42  51  55  61  73  82  84
#
# _framework density 25.843336999999998
#
# number of rings (size 3 to 8) (size 9 to 14) (size 15 to 20)
#    2.000    1.667    0.000    0.000    0.000    4.000 
#    0.000    3.333    0.000    0.000    0.000    0.000 
#    0.000    0.000    0.000    0.000    0.000    0.000 
#
# Total GULP energy -66819.254749 kJ/mol
# GULP energy per Si atom -5568.271229 kJ/mol
# Density = 2.578452 g / cm^3
# Si number density = 25.843337 Si / 1000 Ang^3
#
#
#
# Elastic Constant Matrix: (Units=GPa)
#
#
# Indices 1 2 3 4 5 6 
#
# 1 261.4709 30.3782 35.0546 20.5868 3.9850 39.9064
# 2 30.3782 83.5155 40.3778 9.3240 10.1516 9.2287
# 3 35.0546 40.3778 99.3749 36.8983 17.3085 10.8500
# 4 20.5868 9.3240 36.8983 28.3648 6.1305 2.6240
# 5 3.9850 10.1516 17.3085 6.1305 16.4598 0.1388
# 6 39.9064 9.2287 10.8500 2.6240 0.1388 25.0542
#
#
#
# Elastic Compliance Matrix: (Units=1/GPa)
#
#
# Indices 1 2 3 4 5 6 
#
# 1 0.005385 -0.001040 0.000898 -0.003966 -0.000060 -0.008167
# 2 -0.001040 0.015995 -0.007686 0.006490 -0.003935 -0.001564
# 3 0.000898 -0.007686 0.026856 -0.029684 -0.012602 -0.007051
# 4 -0.003966 0.006490 -0.029684 0.073631 0.000672 0.009066
# 5 -0.000060 -0.003935 -0.012602 0.000672 0.076142 0.006511
# 6 -0.008167 -0.001564 -0.007051 0.009066 0.006511 0.055565
#
#
# Mechanical properties :
#
#
# Convention : Reuss Voigt Hill
#
# Bulk Modulus (GPa) = 30.69476 72.88693 51.79085
# Shear Modulus (GPa) = 17.85148 36.54582 27.19865
#
# Velocity S-wave (km/s) = 2.63108 3.76457 3.24766
# Velocity P-wave (km/s) = 4.59708 6.86736 5.84353
#
# Compressibility (1/GPa) = 0.03257885
#
# Stress axis : x y z
#
# Youngs Moduli (GPa) = 185.71694 62.52105 37.23597
#
# Poissons Ratio (x) = 0.06503 -0.03343
# Poissons Ratio (y) = 0.19318 0.28618
# Poissons Ratio (z) = -0.16674 0.48052
#
# Static dielectric constant tensor:
#      x y z
#    x 2.070730 -0.006410 -0.028020 
#    y -0.006410 2.002560 0.038750 
#    z -0.028020 0.038750 2.091150 
# 
# From -- ./inp_files/338336.got.cif
#   From: 2010.05.17/outbox.cif.g08.bks.cpg/sg2_170_cif.got.tgz:338336.got - 2010.06.03 11:33:40.
