data_PCOD9071540
_publ_section_title
;
Structure prediction by ZEFSAII (Michael W. Deem and Ramdas Pophale) SiO2 
 PCOD9071540
Probable space group: P -1
;
_chemical_formula_sum "Si O2"
_cell_formula_units_Z 12
_cell_length_a 9.292320
_cell_length_b 8.467469
_cell_length_c 13.229349
_cell_angle_alpha 119.611949
_cell_angle_beta 55.596015
_cell_angle_gamma 147.399012
_cell_volume 462.342505
_symmetry_space_group_name_H-M "P -1"
_symmetry_group_IT_number 2
_symmetry_cell_setting 'triclinic'
loop_
_space_group_symop_operation_xyz
x,y,z
-x,-y,-z
loop_
_atom_site_type_symbol
_atom_site_label
_atom_site_fract_x
_atom_site_fract_y
_atom_site_fract_z
Si Si1 0.136520 0.224674 0.927713
Si Si2 0.870469 0.310655 0.176005
Si Si3 0.742570 0.718992 0.760186
Si Si4 0.701001 0.035548 0.744466
Si Si5 0.277419 0.166476 0.504597
Si Si6 0.754796 0.084230 0.379947
O O1 0.459514 0.445850 0.847000
O O2 0.945708 0.006661 0.841587
O O3 0.091330 0.388800 0.040772
O O4 0.000000 0.000000 0.000000
O O5 0.800925 0.159495 0.265194
O O6 0.013152 0.623238 0.239090
O O7 0.581215 0.085981 0.157269
O O8 0.903293 0.661686 0.647411
O O9 0.675895 0.815201 0.732636
O O10 0.671364 0.981089 0.618813
O O11 0.500000 0.500000 0.500000
O O12 0.306048 0.152054 0.607789
O O13 0.000000 0.000000 0.500000
O O14 0.500000 0.000000 0.500000
#
# Coordination Sequence:
#
# PCOD9071540 Si02
#       6
#     2   2   2   2   2   2
#     4  12  27  50  79 116 153 202 257 317 378 454
#     4  12  28  48  79 112 157 197 259 316 374 452
#     4  12  28  49  82 108 156 205 255 312 390 453
#     4  12  27  49  75 117 153 199 253 318 383 451
#     4  12  27  48  76 108 152 203 251 308 380 457
#     4  12  28  49  79 116 150 203 257 316 384 455
#
# _framework density 25.954785000000001
#
# number of rings (size 3 to 8) (size 9 to 14) (size 15 to 20)
#    0.000    0.000    5.000    3.500    4.667    6.000 
#    0.000    0.000    0.000    0.000    0.000    0.000 
#    0.000    0.000    0.000    0.000    0.000    0.000 
#
# Total GULP energy -66863.442750 kJ/mol
# GULP energy per Si atom -5571.953563 kJ/mol
# Density = 2.589571 g / cm^3
# Si number density = 25.954785 Si / 1000 Ang^3
#
#
#
# Elastic Constant Matrix: (Units=GPa)
#
#
# Indices 1 2 3 4 5 6 
#
# 1 145.0110 36.3003 29.3486 -29.8433 -3.3335 11.3558
# 2 36.3003 157.2892 48.8105 -19.7494 -2.0774 3.9708
# 3 29.3486 48.8105 145.0717 -38.0035 -21.8803 6.1425
# 4 -29.8433 -19.7494 -38.0035 52.4294 8.3466 -2.6183
# 5 -3.3335 -2.0774 -21.8803 8.3466 37.0953 -14.5325
# 6 11.3558 3.9708 6.1425 -2.6183 -14.5325 37.4622
#
#
#
# Elastic Compliance Matrix: (Units=1/GPa)
#
#
# Indices 1 2 3 4 5 6 
#
# 1 0.008291 -0.001261 -0.000274 0.004145 -0.001440 -0.002603
# 2 -0.001261 0.007426 -0.002264 0.000632 -0.001381 -0.000525
# 3 -0.000274 -0.002264 0.009802 0.005381 0.004792 0.000951
# 4 0.004145 0.000632 0.005381 0.025949 -0.002842 -0.001495
# 5 -0.001440 -0.001381 0.004792 -0.002842 0.035447 0.013349
# 6 -0.002603 -0.000525 0.000951 -0.001495 0.013349 0.032456
#
#
# Mechanical properties :
#
#
# Convention : Reuss Voigt Hill
#
# Bulk Modulus (GPa) = 55.80074 75.14341 65.47208
# Shear Modulus (GPa) = 37.61017 47.59154 42.60085
#
# Velocity S-wave (km/s) = 3.81079 4.28674 4.05575
# Velocity P-wave (km/s) = 6.39599 7.31546 6.87112
#
# Compressibility (1/GPa) = 0.01792091
#
# Stress axis : x y z
#
# Youngs Moduli (GPa) = 120.61285 134.66843 102.01572
#
# Poissons Ratio (x) = 0.16985 0.02796
# Poissons Ratio (y) = 0.15213 0.23093
# Poissons Ratio (z) = 0.03306 0.30485
#
# Static dielectric constant tensor:
#      x y z
#    x 2.158970 -0.045680 -0.115560 
#    y -0.045680 2.097870 -0.003790 
#    z -0.115560 -0.003790 2.319840 
# 
# From -- ./inp_files/495408.got.cif
#   From: 2010.05.17/outbox.cif.g08.bks.cpg/sg2_248_cif.got.tgz:495408.got - 2010.06.03 11:33:40.
