data_PCOD9071694
_publ_section_title
;
Structure prediction by ZEFSAII (Michael W. Deem and Ramdas Pophale) SiO2 
 PCOD9071694
Probable space group: P -1
;
_chemical_formula_sum "Si O2"
_cell_formula_units_Z 10
_cell_length_a 9.423075
_cell_length_b 9.757930
_cell_length_c 8.211644
_cell_angle_alpha 119.466932
_cell_angle_beta 44.181281
_cell_angle_gamma 86.940453
_cell_volume 340.379290
_symmetry_space_group_name_H-M "P -1"
_symmetry_group_IT_number 2
_symmetry_cell_setting 'triclinic'
loop_
_space_group_symop_operation_xyz
x,y,z
-x,-y,-z
loop_
_atom_site_type_symbol
_atom_site_label
_atom_site_fract_x
_atom_site_fract_y
_atom_site_fract_z
Si Si1 0.752120 0.745551 0.791212
Si Si2 0.806611 0.890048 0.132055
Si Si3 0.664157 0.428071 0.079461
Si Si4 0.252372 0.811564 0.406546
Si Si5 0.720938 0.587452 0.422700
O O1 0.792497 0.884984 0.943366
O O2 0.000000 0.500000 0.500000
O O3 0.730153 0.742274 0.611099
O O4 0.586549 0.387335 0.719199
O O5 0.481657 0.800276 0.118655
O O6 0.500000 0.000000 0.500000
O O7 0.884775 0.997783 0.242504
O O8 0.028646 0.647127 0.856980
O O9 0.736422 0.546372 0.193031
O O10 0.554381 0.356703 0.255155
O O11 0.859628 0.237477 0.678964
#
# Coordination Sequence:
#
# PCOD9071694 Si02
#       5
#     2   2   2   2   2
#     4   8  15  30  48  64  88 124 152 179 223 271
#     4   9  17  30  48  68  90 121 154 187 224 266
#     4   9  18  31  47  70  93 121 150 185 229 271
#     4   9  17  30  48  69  93 117 153 189 225 269
#     4   9  17  31  50  67  92 121 152 186 226 272
#
# _framework density 29.378993999999999
#
# number of rings (size 3 to 8) (size 9 to 14) (size 15 to 20)
#    0.000    3.200    0.000    0.000    0.000    1.600 
#    0.000   10.000    0.000    0.000    0.000    0.000 
#    0.000    0.000    0.000    0.000    0.000    0.000 
#
# Total GULP energy -55915.855937 kJ/mol
# GULP energy per Si atom -5591.585594 kJ/mol
# Density = 2.931213 g / cm^3
# Si number density = 29.378994 Si / 1000 Ang^3
#
#
#
# Elastic Constant Matrix: (Units=GPa)
#
#
# Indices 1 2 3 4 5 6 
#
# 1 253.3403 56.6577 95.9268 8.1540 86.8613 49.5516
# 2 56.6577 80.4264 37.5875 3.1083 17.4979 30.1229
# 3 95.9268 37.5875 182.0083 -7.8144 79.5024 14.8748
# 4 8.1540 3.1083 -7.8144 36.5423 5.1188 9.0966
# 5 86.8613 17.4979 79.5024 5.1188 97.3043 26.3528
# 6 49.5516 30.1229 14.8748 9.0966 26.3528 61.0983
#
#
#
# Elastic Compliance Matrix: (Units=1/GPa)
#
#
# Indices 1 2 3 4 5 6 
#
# 1 0.006764 -0.002545 -0.001101 -0.000424 -0.004079 -0.002141
# 2 -0.002545 0.017821 -0.003470 -0.000370 0.003961 -0.007531
# 3 -0.001101 -0.003470 0.009942 0.002976 -0.007476 0.002964
# 4 -0.000424 -0.000370 0.002976 0.029350 -0.002597 -0.003448
# 5 -0.004079 0.003961 -0.007476 -0.002597 0.020931 -0.005466
# 6 -0.002141 -0.007531 0.002964 -0.003448 -0.005466 0.023965
#
#
# Mechanical properties :
#
#
# Convention : Reuss Voigt Hill
#
# Bulk Modulus (GPa) = 49.27047 99.56877 74.41962
# Shear Modulus (GPa) = 38.52944 60.69585 49.61265
#
# Velocity S-wave (km/s) = 3.62534 4.55022 4.11385
# Velocity P-wave (km/s) = 5.85928 7.84670 6.92466
#
# Compressibility (1/GPa) = 0.02029613
#
# Stress axis : x y z
#
# Youngs Moduli (GPa) = 147.83749 56.11246 100.58273
#
# Poissons Ratio (x) = 0.14281 0.11074
# Poissons Ratio (y) = 0.37625 0.34899
# Poissons Ratio (z) = 0.16277 0.19469
#
# Static dielectric constant tensor:
#      x y z
#    x 2.364970 0.089860 -0.009350 
#    y 0.089860 2.272190 0.000840 
#    z -0.009350 0.000840 2.377210 
# 
# From -- ./inp_files/190552.got.cif
#   From: 2010.05.17/outbox.cif.g08.bks.cpg/sg2_96_cif.got.tgz:190552.got - 2010.06.03 11:33:40.
