data_PCOD9071961
_publ_section_title
;
Structure prediction by ZEFSAII (Michael W. Deem and Ramdas Pophale) SiO2 
 PCOD9071961
Probable space group: P -1
;
_chemical_formula_sum "Si O2"
_cell_formula_units_Z 16
_cell_length_a 12.989691
_cell_length_b 14.646250
_cell_length_c 8.338000
_cell_angle_alpha 88.801479
_cell_angle_beta 135.355259
_cell_angle_gamma 59.202719
_cell_volume 737.209710
_symmetry_space_group_name_H-M "P -1"
_symmetry_group_IT_number 2
_symmetry_cell_setting 'triclinic'
loop_
_space_group_symop_operation_xyz
x,y,z
-x,-y,-z
loop_
_atom_site_type_symbol
_atom_site_label
_atom_site_fract_x
_atom_site_fract_y
_atom_site_fract_z
Si Si1 0.909616 0.730675 0.390796
Si Si2 0.793224 0.920007 0.982382
Si Si3 0.661042 0.462807 0.313880
Si Si4 0.518948 0.595898 0.462993
Si Si5 0.762197 0.218834 0.584596
Si Si6 0.952844 0.420695 0.154860
Si Si7 0.645803 0.706378 0.954180
Si Si8 0.318024 0.201032 0.337589
O O1 0.998147 0.690014 0.672396
O O2 0.118349 0.601181 0.518332
O O3 0.833186 0.856592 0.205074
O O4 0.714694 0.747051 0.163080
O O5 0.806596 0.832198 0.865222
O O6 0.543285 0.070125 0.680926
O O7 0.976284 0.911842 0.147663
O O8 0.540301 0.587168 0.296802
O O9 0.729110 0.339174 0.487561
O O10 0.500000 0.500000 0.000000
O O11 0.500000 0.500000 0.500000
O O12 0.325787 0.741925 0.331474
O O13 0.752137 0.510701 0.804507
O O14 0.584195 0.241389 0.288126
O O15 0.166449 0.330346 0.284073
O O16 0.854799 0.541512 0.163344
O O17 0.627426 0.771865 0.766380
#
# Coordination Sequence:
#
# PCOD9071961 Si02
#       8
#     2   2   2   2   2   2   2   2
#     4  10  20  34  53  76 108 139 174 215 261 314
#     4   9  20  37  54  76 102 140 178 216 259 306
#     4  10  18  30  49  76 108 139 167 210 263 311
#     4   9  16  28  47  74 105 130 166 210 254 308
#     4   9  18  32  51  74 103 134 176 214 254 310
#     4  11  20  32  54  81 105 135 173 218 264 308
#     4  10  20  34  52  79 106 138 172 215 269 313
#     4  10  20  35  55  75 105 138 177 218 257 311
#
# _framework density 21.703457
#
# number of rings (size 3 to 8) (size 9 to 14) (size 15 to 20)
#    0.000    2.250    0.000    6.000    0.000    2.000 
#    0.000    0.000    0.000    0.750    0.000    0.000 
#    0.000    0.000    0.000    0.000    0.000    0.000 
#
# Total GULP energy -89178.643863 kJ/mol
# GULP energy per Si atom -5573.665241 kJ/mol
# Density = 2.165406 g / cm^3
# Si number density = 21.703457 Si / 1000 Ang^3
#
#
#
# Elastic Constant Matrix: (Units=GPa)
#
#
# Indices 1 2 3 4 5 6 
#
# 1 62.1508 15.9384 39.0146 13.2791 10.5001 4.4934
# 2 15.9384 19.6028 23.3429 5.3105 8.9645 5.2697
# 3 39.0146 23.3429 104.5253 5.1184 11.8486 0.6012
# 4 13.2791 5.3105 5.1184 23.1018 6.9527 -4.2436
# 5 10.5001 8.9645 11.8486 6.9527 46.0048 11.1755
# 6 4.4934 5.2697 0.6012 -4.2436 11.1755 14.1891
#
#
#
# Elastic Compliance Matrix: (Units=1/GPa)
#
#
# Indices 1 2 3 4 5 6 
#
# 1 0.026234 -0.005480 -0.008035 -0.015032 0.002417 -0.012332
# 2 -0.005480 0.091939 -0.017258 -0.021280 0.000294 -0.038275
# 3 -0.008035 -0.017258 0.016333 0.008573 -0.003630 0.013685
# 4 -0.015032 -0.021280 0.008573 0.067986 -0.015868 0.045131
# 5 0.002417 0.000294 -0.003630 -0.015868 0.031890 -0.030584
# 6 -0.012332 -0.038275 0.013685 0.045131 -0.030584 0.125603
#
#
# Mechanical properties :
#
#
# Convention : Reuss Voigt Hill
#
# Bulk Modulus (GPa) = 13.70603 38.09674 25.90139
# Shear Modulus (GPa) = 11.21449 23.85800 17.53625
#
# Velocity S-wave (km/s) = 2.27560 3.31912 2.84561
# Velocity P-wave (km/s) = 3.63776 5.68157 4.77040
#
# Compressibility (1/GPa) = 0.07296060
#
# Stress axis : x y z
#
# Youngs Moduli (GPa) = 38.11807 10.87677 61.22475
#
# Poissons Ratio (x) = 0.05960 0.49196
# Poissons Ratio (y) = 0.20888 1.05661
# Poissons Ratio (z) = 0.30629 0.18771
#
# Static dielectric constant tensor:
#      x y z
#    x 1.837930 -0.042290 -0.006300 
#    y -0.042290 1.571650 -0.079710 
#    z -0.006300 -0.079710 1.801260 
# 
# From -- ./inp_files/279329.got.cif
#   From: 2010.05.17/outbox.cif.g08.bks.cpg/sg2_140_cif.got.tgz:279329.got - 2010.06.03 11:33:40.
