data_PCOD9071357
_publ_section_title
;
Structure prediction by ZEFSAII (Michael W. Deem and Ramdas Pophale) SiO2 
 PCOD9071357
Probable space group: P -1
;
_chemical_formula_sum "Si O2"
_cell_formula_units_Z 14
_cell_length_a 8.299258
_cell_length_b 13.034293
_cell_length_c 8.151962
_cell_angle_alpha 126.848616
_cell_angle_beta 124.532074
_cell_angle_gamma 69.847364
_cell_volume 581.320856
_symmetry_space_group_name_H-M "P -1"
_symmetry_group_IT_number 2
_symmetry_cell_setting 'triclinic'
loop_
_space_group_symop_operation_xyz
x,y,z
-x,-y,-z
loop_
_atom_site_type_symbol
_atom_site_label
_atom_site_fract_x
_atom_site_fract_y
_atom_site_fract_z
Si Si1 0.192970 0.164954 0.603311
Si Si2 0.297528 0.438220 0.767103
Si Si3 0.785510 0.279114 0.505504
Si Si4 0.072378 0.673375 0.010201
Si Si5 0.712913 0.538355 0.592944
Si Si6 0.503159 0.876322 0.994831
Si Si7 0.821830 0.065858 0.863326
O O1 0.260400 0.303860 0.708814
O O2 0.957335 0.174302 0.483552
O O3 0.251719 0.045620 0.407919
O O4 0.292220 0.142039 0.813846
O O5 0.152746 0.556667 0.835364
O O6 0.299269 0.410877 0.548905
O O7 0.500000 0.500000 0.000000
O O8 0.822992 0.400421 0.528477
O O9 0.577489 0.228892 0.278566
O O10 0.808748 0.324654 0.749136
O O11 0.846641 0.633259 0.867421
O O12 0.103336 0.809287 0.071157
O O13 0.500000 0.500000 0.500000
O O14 0.344539 0.889082 0.062290
O O15 0.500000 0.000000 0.000000
O O16 0.000000 0.000000 0.000000
#
# Coordination Sequence:
#
# PCOD9071357 Si02
#       7
#     2   2   2   2   2   2   2
#     4  12  27  50  80 111 156 200 257 317 382 454
#     4  12  26  48  78 112 151 201 254 315 381 458
#     4  12  27  47  76 115 151 199 256 316 381 446
#     4  12  27  48  77 108 157 200 254 311 385 458
#     4  12  27  46  77 113 154 202 255 315 384 453
#     4  12  29  49  77 113 155 199 259 316 382 460
#     4  12  26  49  78 111 149 205 254 313 386 453
#
# _framework density 24.083085000000001
#
# number of rings (size 3 to 8) (size 9 to 14) (size 15 to 20)
#    0.000    0.000    2.857    6.429    6.000    3.429 
#    0.000    0.000    0.000    0.000    0.000    0.000 
#    0.000    0.000    0.000    0.000    0.000    0.000 
#
# Total GULP energy -78431.358426 kJ/mol
# GULP energy per Si atom -5602.239888 kJ/mol
# Density = 2.402827 g / cm^3
# Si number density = 24.083085 Si / 1000 Ang^3
#
#
#
# Elastic Constant Matrix: (Units=GPa)
#
#
# Indices 1 2 3 4 5 6 
#
# 1 54.3706 13.3064 19.5452 5.6621 0.6344 -4.2114
# 2 13.3064 147.3713 53.7841 2.6669 13.7431 28.1587
# 3 19.5452 53.7841 171.2507 -0.6678 4.1555 9.0127
# 4 5.6621 2.6669 -0.6678 56.7869 0.5827 5.8690
# 5 0.6344 13.7431 4.1555 0.5827 40.9291 1.2770
# 6 -4.2114 28.1587 9.0127 5.8690 1.2770 48.7841
#
#
#
# Elastic Compliance Matrix: (Units=1/GPa)
#
#
# Indices 1 2 3 4 5 6 
#
# 1 0.020005 -0.001737 -0.001933 -0.002286 0.000397 0.003351
# 2 -0.001737 0.008943 -0.002291 0.000254 -0.002596 -0.004851
# 3 -0.001933 -0.002291 0.006786 0.000394 0.000109 -0.000148
# 4 -0.002286 0.000254 0.000394 0.018101 -0.000267 -0.002588
# 5 0.000397 -0.002596 0.000109 -0.000267 0.025263 0.000883
# 6 0.003351 -0.004851 -0.000148 -0.002588 0.000883 0.023904
#
#
# Mechanical properties :
#
#
# Convention : Reuss Voigt Hill
#
# Bulk Modulus (GPa) = 41.99417 60.69602 51.34509
# Shear Modulus (GPa) = 40.69645 48.39046 44.54346
#
# Velocity S-wave (km/s) = 4.11522 4.48740 4.30533
# Velocity P-wave (km/s) = 6.32891 7.21848 6.78828
#
# Compressibility (1/GPa) = 0.02381283
#
# Stress axis : x y z
#
# Youngs Moduli (GPa) = 49.98701 111.81938 147.35707
#
# Poissons Ratio (x) = 0.19423 0.28479
# Poissons Ratio (y) = 0.08683 0.33762
# Poissons Ratio (z) = 0.09661 0.25620
#
# Static dielectric constant tensor:
#      x y z
#    x 1.982180 -0.074720 -0.000700 
#    y -0.074720 1.900140 0.027140 
#    z -0.000700 0.027140 1.935920 
# 
# From -- ./inp_files/183444.got.cif
#   From: 2010.05.17/outbox.cif.g08.bks.cpg/sg2_92_cif.got.tgz:183444.got - 2010.06.03 11:33:40.
