data_PCOD9071503
_publ_section_title
;
Structure prediction by ZEFSAII (Michael W. Deem and Ramdas Pophale) SiO2 
 PCOD9071503
Probable space group: P -1
;
_chemical_formula_sum "Si O2"
_cell_formula_units_Z 10
_cell_length_a 8.963356
_cell_length_b 9.256182
_cell_length_c 5.098800
_cell_angle_alpha 87.810853
_cell_angle_beta 75.170103
_cell_angle_gamma 113.362231
_cell_volume 370.731647
_symmetry_space_group_name_H-M "P -1"
_symmetry_group_IT_number 2
_symmetry_cell_setting 'triclinic'
loop_
_space_group_symop_operation_xyz
x,y,z
-x,-y,-z
loop_
_atom_site_type_symbol
_atom_site_label
_atom_site_fract_x
_atom_site_fract_y
_atom_site_fract_z
Si Si1 0.815183 0.049932 0.825468
Si Si2 0.670438 0.550623 0.746849
Si Si3 0.995674 0.327474 0.071799
Si Si4 0.298579 0.155861 0.597227
Si Si5 0.661058 0.220595 0.571243
O O1 0.675190 0.117827 0.816604
O O2 0.818970 0.957286 0.567709
O O3 0.971730 0.210483 0.843867
O O4 0.767805 0.920884 0.086306
O O5 0.668353 0.665188 0.504327
O O6 0.683814 0.392931 0.649035
O O7 0.836893 0.641879 0.842474
O O8 0.500000 0.500000 0.000000
O O9 0.821993 0.241676 0.320225
O O10 0.000000 0.500000 0.000000
O O11 0.484657 0.154301 0.501863
#
# Coordination Sequence:
#
# PCOD9071503 Si02
#       5
#     2   2   2   2   2
#     4  12  27  50  82 114 159 208 262 319 390 468
#     4  12  28  53  79 117 159 209 259 328 393 463
#     4  12  27  49  84 114 155 208 271 316 385 475
#     4  12  28  48  80 120 160 200 259 328 396 453
#     4  12  26  52  84 112 157 212 266 311 385 482
#
# _framework density 26.973686000000001
#
# number of rings (size 3 to 8) (size 9 to 14) (size 15 to 20)
#    0.000    0.000    4.000    4.800    2.800    3.200 
#    0.000    0.000    0.000    0.000    0.000    0.000 
#    0.000    0.000    0.000    0.000    0.000    0.000 
#
# Total GULP energy -56167.238154 kJ/mol
# GULP energy per Si atom -5616.723815 kJ/mol
# Density = 2.691229 g / cm^3
# Si number density = 26.973686 Si / 1000 Ang^3
#
#
#
# Elastic Constant Matrix: (Units=GPa)
#
#
# Indices 1 2 3 4 5 6 
#
# 1 193.7512 33.9569 60.1553 -6.4010 21.1326 24.1425
# 2 33.9569 157.9620 51.4479 -5.3218 29.7536 -27.9573
# 3 60.1553 51.4479 161.9208 -18.4031 23.7973 -4.0950
# 4 -6.4010 -5.3218 -18.4031 69.3140 -6.1340 20.6913
# 5 21.1326 29.7536 23.7973 -6.1340 54.5260 -7.7807
# 6 24.1425 -27.9573 -4.0950 20.6913 -7.7807 67.6042
#
#
#
# Elastic Compliance Matrix: (Units=1/GPa)
#
#
# Indices 1 2 3 4 5 6 
#
# 1 0.006534 -0.001079 -0.001845 0.000894 -0.001514 -0.003339
# 2 -0.001079 0.008354 -0.001880 -0.001352 -0.002929 0.003803
# 3 -0.001845 -0.001880 0.007876 0.001745 -0.001551 -0.000354
# 4 0.000894 -0.001352 0.001745 0.016658 0.000677 -0.005793
# 5 -0.001514 -0.002929 -0.001551 0.000677 0.021492 0.001502
# 6 -0.003339 0.003803 -0.000354 -0.005793 0.001502 0.019482
#
#
# Mechanical properties :
#
#
# Convention : Reuss Voigt Hill
#
# Bulk Modulus (GPa) = 76.01720 89.41713 82.71716
# Shear Modulus (GPa) = 52.97105 62.82711 57.89908
#
# Velocity S-wave (km/s) = 4.43629 4.83141 4.63806
# Velocity P-wave (km/s) = 7.38133 8.02154 7.70809
#
# Compressibility (1/GPa) = 0.01315492
#
# Stress axis : x y z
#
# Youngs Moduli (GPa) = 153.04598 119.69671 126.96883
#
# Poissons Ratio (x) = 0.12921 0.23424
# Poissons Ratio (y) = 0.16520 0.23876
# Poissons Ratio (z) = 0.28234 0.22508
#
# Static dielectric constant tensor:
#      x y z
#    x 2.114580 0.006920 -0.050950 
#    y 0.006920 2.100560 0.018630 
#    z -0.050950 0.018630 2.114520 
# 
# From -- ./inp_files/15876.got.cif
#   From: 2010.05.17/outbox.cif.g08.bks.cpg/sg2_8_cif.got.tgz:15876.got - 2010.06.03 11:33:40.
