data_PCOD9071425
_publ_section_title
;
Structure prediction by ZEFSAII (Michael W. Deem and Ramdas Pophale) SiO2 
 PCOD9071425
Probable space group: P -1
;
_chemical_formula_sum "Si O2"
_cell_formula_units_Z 10
_cell_length_a 15.885601
_cell_length_b 10.902694
_cell_length_c 4.674768
_cell_angle_alpha 69.168299
_cell_angle_beta 78.151918
_cell_angle_gamma 30.069382
_cell_volume 369.970628
_symmetry_space_group_name_H-M "P -1"
_symmetry_group_IT_number 2
_symmetry_cell_setting 'triclinic'
loop_
_space_group_symop_operation_xyz
x,y,z
-x,-y,-z
loop_
_atom_site_type_symbol
_atom_site_label
_atom_site_fract_x
_atom_site_fract_y
_atom_site_fract_z
Si Si1 0.144373 0.156325 0.710738
Si Si2 0.716015 0.448489 0.070938
Si Si3 0.323905 0.683349 0.320814
Si Si4 0.598965 0.972788 0.250786
Si Si5 0.093547 0.554686 0.891070
O O1 0.287318 0.075194 0.607699
O O2 0.040553 0.245397 0.436476
O O3 0.007395 0.394017 0.840004
O O4 0.239470 0.914974 0.018646
O O5 0.665692 0.446292 0.812496
O O6 0.774445 0.258093 0.402009
O O7 0.854675 0.380783 0.029728
O O8 0.541621 0.752378 0.039979
O O9 0.500000 0.500000 0.500000
O O10 0.733588 0.728479 0.142135
O O11 0.500000 0.000000 0.500000
#
# Coordination Sequence:
#
# PCOD9071425 Si02
#       5
#     2   2   2   2   2
#     4  12  28  49  81 113 160 203 255 324 390 449
#     4  12  27  48  80 112 154 203 259 313 382 460
#     4  12  26  49  80 112 153 201 263 316 378 465
#     4  12  27  51  82 113 157 208 261 317 378 471
#     4  12  28  50  75 121 159 201 252 322 394 456
#
# _framework density 27.029176
#
# number of rings (size 3 to 8) (size 9 to 14) (size 15 to 20)
#    0.000    0.000    2.000    7.200    2.800    9.600 
#    0.000    0.000    0.000    0.000    0.000    0.000 
#    0.000    0.000    0.000    0.000    0.000    0.000 
#
# Total GULP energy -56120.897259 kJ/mol
# GULP energy per Si atom -5612.089726 kJ/mol
# Density = 2.696766 g / cm^3
# Si number density = 27.029176 Si / 1000 Ang^3
#
#
#
# Elastic Constant Matrix: (Units=GPa)
#
#
# Indices 1 2 3 4 5 6 
#
# 1 197.5386 77.7773 67.3409 -0.3730 24.1142 -15.7263
# 2 77.7773 120.2130 60.2537 2.4048 -1.8768 -12.8660
# 3 67.3409 60.2537 166.4605 -9.5482 11.8715 -4.7626
# 4 -0.3730 2.4048 -9.5482 62.5965 -5.4844 -2.6194
# 5 24.1142 -1.8768 11.8715 -5.4844 57.0963 7.1785
# 6 -15.7263 -12.8660 -4.7626 -2.6194 7.1785 43.5451
#
#
#
# Elastic Compliance Matrix: (Units=1/GPa)
#
#
# Indices 1 2 3 4 5 6 
#
# 1 0.007728 -0.004172 -0.001330 -0.000212 -0.003391 0.001959
# 2 -0.004172 0.012796 -0.003127 -0.000706 0.002581 0.001464
# 3 -0.001330 -0.003127 0.007809 0.001202 -0.001010 -0.000311
# 4 -0.000212 -0.000706 0.001202 0.016325 0.001307 0.000613
# 5 -0.003391 0.002581 -0.001010 0.001307 0.019840 -0.003765
# 6 0.001959 0.001464 -0.000311 0.000613 -0.003765 0.024728
#
#
# Mechanical properties :
#
#
# Convention : Reuss Voigt Hill
#
# Bulk Modulus (GPa) = 90.29179 99.43952 94.86565
# Shear Modulus (GPa) = 45.38135 51.23693 48.30914
#
# Velocity S-wave (km/s) = 4.10198 4.35859 4.23223
# Velocity P-wave (km/s) = 7.47748 7.88665 7.68479
#
# Compressibility (1/GPa) = 0.01107520
#
# Stress axis : x y z
#
# Youngs Moduli (GPa) = 129.39772 78.14760 128.04973
#
# Poissons Ratio (x) = 0.32605 0.17036
# Poissons Ratio (y) = 0.53988 0.40037
# Poissons Ratio (z) = 0.17215 0.24434
#
# Static dielectric constant tensor:
#      x y z
#    x 2.172530 0.067700 -0.007530 
#    y 0.067700 2.163280 -0.018440 
#    z -0.007530 -0.018440 2.053710 
# 
# From -- ./inp_files/35399.got.cif
#   From: 2010.05.17/outbox.cif.g08.bks.cpg/sg2_18_cif.got.tgz:35399.got - 2010.06.03 11:33:40.
