data_PCOD9071240
_publ_section_title
;
Structure prediction by ZEFSAII (Michael W. Deem and Ramdas Pophale) SiO2 
 PCOD9071240
Probable space group: P -1
;
_chemical_formula_sum "Si O2"
_cell_formula_units_Z 16
_cell_length_a 21.804135
_cell_length_b 13.712412
_cell_length_c 6.814593
_cell_angle_alpha 103.476824
_cell_angle_beta 110.380650
_cell_angle_gamma 20.472434
_cell_volume 640.447519
_symmetry_space_group_name_H-M "P -1"
_symmetry_group_IT_number 2
_symmetry_cell_setting 'triclinic'
loop_
_space_group_symop_operation_xyz
x,y,z
-x,-y,-z
loop_
_atom_site_type_symbol
_atom_site_label
_atom_site_fract_x
_atom_site_fract_y
_atom_site_fract_z
Si Si1 0.407487 0.793277 0.978374
Si Si2 0.307296 0.454228 0.735075
Si Si3 0.964153 0.352029 0.145442
Si Si4 0.333959 0.370184 0.192696
Si Si5 0.719243 0.217209 0.921989
Si Si6 0.987967 0.044203 0.773863
Si Si7 0.729151 0.713397 0.450848
Si Si8 0.984101 0.545283 0.271382
O O1 0.545072 0.543647 0.850221
O O2 0.224117 0.112164 0.840325
O O3 0.535597 0.687040 0.194030
O O4 0.347047 0.785383 0.037432
O O5 0.326870 0.320833 0.582052
O O6 0.343629 0.383590 0.977539
O O7 0.091087 0.807747 0.658109
O O8 0.862417 0.505725 0.312175
O O9 0.013160 0.392663 0.144657
O O10 0.811087 0.515231 0.916548
O O11 0.150671 0.014397 0.213708
O O12 0.228972 0.607582 0.313800
O O13 0.542133 0.040872 0.332342
O O14 0.869122 0.067568 0.143733
O O15 0.000000 0.000000 0.000000
O O16 0.854961 0.605537 0.672450
O O17 0.000000 0.500000 0.500000
#
# Coordination Sequence:
#
# PCOD9071240 Si02
#       8
#     2   2   2   2   2   2   2   2
#     4  10  19  34  54  74 101 134 166 207 252 296
#     4   9  15  27  48  72  92 124 168 203 243 287
#     4   9  17  32  51  74  98 128 171 212 248 287
#     4   9  15  27  48  71  95 123 163 210 245 283
#     4   9  19  33  54  78  98 126 172 214 247 291
#     4   8  15  27  48  75  96 115 156 215 253 278
#     4  10  18  29  47  73 102 129 162 204 249 296
#     4  10  20  33  48  73 106 137 166 201 250 300
#
# _framework density 24.982531000000002
#
# number of rings (size 3 to 8) (size 9 to 14) (size 15 to 20)
#    0.000    2.750    0.000    4.500    0.000    0.500 
#    0.000    3.750    0.000   13.500    0.000    0.000 
#    0.000    0.000    0.000    0.000    0.000    0.000 
#
# Total GULP energy -89422.691930 kJ/mol
# GULP energy per Si atom -5588.918246 kJ/mol
# Density = 2.492567 g / cm^3
# Si number density = 24.982531 Si / 1000 Ang^3
#
#
#
# Elastic Constant Matrix: (Units=GPa)
#
#
# Indices 1 2 3 4 5 6 
#
# 1 123.2747 2.4911 31.7340 -6.8968 32.8628 4.7615
# 2 2.4911 80.3562 -0.1159 -9.5255 -4.2591 19.7782
# 3 31.7340 -0.1159 69.5887 -5.8048 13.7634 8.0390
# 4 -6.8968 -9.5255 -5.8048 38.6910 -0.8891 -7.2351
# 5 32.8628 -4.2591 13.7634 -0.8891 39.0934 1.3842
# 6 4.7615 19.7782 8.0390 -7.2351 1.3842 40.9717
#
#
#
# Elastic Compliance Matrix: (Units=1/GPa)
#
#
# Indices 1 2 3 4 5 6 
#
# 1 0.011289 -0.000705 -0.003424 0.001169 -0.008342 0.000188
# 2 -0.000705 0.014527 0.000899 0.002371 0.002152 -0.006761
# 3 -0.003424 0.000899 0.016973 0.001531 -0.002858 -0.002999
# 4 0.001169 0.002371 0.001531 0.027466 -0.000755 0.003295
# 5 -0.008342 0.002152 -0.002858 -0.000755 0.033843 -0.000785
# 6 0.000188 -0.006761 -0.002999 0.003295 -0.000785 0.028846
#
#
# Mechanical properties :
#
#
# Convention : Reuss Voigt Hill
#
# Bulk Modulus (GPa) = 27.52616 37.93756 32.73186
# Shear Modulus (GPa) = 33.00031 39.69193 36.34612
#
# Velocity S-wave (km/s) = 3.63841 3.99028 3.81840
# Velocity P-wave (km/s) = 5.35656 6.03725 5.70707
#
# Compressibility (1/GPa) = 0.03632908
#
# Stress axis : x y z
#
# Youngs Moduli (GPa) = 88.57846 68.83762 58.91882
#
# Poissons Ratio (x) = 0.04852 0.20173
# Poissons Ratio (y) = 0.06243 -0.05296
# Poissons Ratio (z) = 0.30328 -0.06187
#
# Static dielectric constant tensor:
#      x y z
#    x 2.093280 -0.010270 -0.029710 
#    y -0.010270 1.991250 0.046070 
#    z -0.029710 0.046070 1.992050 
# 
# From -- ./inp_files/317481.got.cif
#   From: 2010.05.17/outbox.cif.g08.bks.cpg/sg2_159_cif.got.tgz:317481.got - 2010.06.03 11:33:40.
