data_PCOD9071446
_publ_section_title
;
Structure prediction by ZEFSAII (Michael W. Deem and Ramdas Pophale) SiO2 
 PCOD9071446
Probable space group: P -1
;
_chemical_formula_sum "Si O2"
_cell_formula_units_Z 14
_cell_length_a 16.797526
_cell_length_b 8.131627
_cell_length_c 9.212317
_cell_angle_alpha 62.466702
_cell_angle_beta 64.569392
_cell_angle_gamma 30.145379
_cell_volume 559.108221
_symmetry_space_group_name_H-M "P -1"
_symmetry_group_IT_number 2
_symmetry_cell_setting 'triclinic'
loop_
_space_group_symop_operation_xyz
x,y,z
-x,-y,-z
loop_
_atom_site_type_symbol
_atom_site_label
_atom_site_fract_x
_atom_site_fract_y
_atom_site_fract_z
Si Si1 0.790936 0.318371 0.166189
Si Si2 0.800620 0.884000 0.300543
Si Si3 0.066655 0.902669 0.324300
Si Si4 0.664523 0.898361 0.150233
Si Si5 0.865559 0.804526 0.817881
Si Si6 0.659421 0.689169 0.823602
Si Si7 0.643634 0.135049 0.608285
O O1 0.712892 0.597847 0.227579
O O2 0.739095 0.202390 0.214530
O O3 0.767412 0.465085 0.972329
O O4 0.956701 0.000089 0.249578
O O5 0.688762 0.946239 0.267945
O O6 0.978904 0.553910 0.234048
O O7 0.780253 0.867255 0.490059
O O8 0.240342 0.518012 0.316064
O O9 0.077818 0.101340 0.196914
O O10 0.000000 0.000000 0.500000
O O11 0.485005 0.203536 0.109383
O O12 0.781752 0.814225 0.992069
O O13 0.730425 0.087850 0.690066
O O14 0.599890 0.005205 0.748222
O O15 0.500000 0.500000 0.500000
#
# Coordination Sequence:
#
# PCOD9071446 Si02
#       7
#     2   2   2   2   2   2   2
#     4  12  26  50  79 115 153 206 255 312 382 463
#     4  12  27  49  82 111 155 203 255 319 388 452
#     4  12  27  49  81 117 154 204 259 315 382 465
#     4  12  28  48  77 115 155 196 263 315 382 451
#     4  12  26  50  76 113 155 200 258 318 379 465
#     4  12  28  49  78 111 160 200 254 324 386 450
#     4  12  28  50  77 112 155 202 256 321 390 456
#
# _framework density 25.039873
#
# number of rings (size 3 to 8) (size 9 to 14) (size 15 to 20)
#    0.000    0.000    2.857    6.000    6.000    1.714 
#    0.000    0.000    0.000    0.000    0.000    0.000 
#    0.000    0.000    0.000    0.000    0.000    0.000 
#
# Total GULP energy -78374.455620 kJ/mol
# GULP energy per Si atom -5598.175401 kJ/mol
# Density = 2.498288 g / cm^3
# Si number density = 25.039873 Si / 1000 Ang^3
#
#
#
# Elastic Constant Matrix: (Units=GPa)
#
#
# Indices 1 2 3 4 5 6 
#
# 1 90.9384 32.7212 22.8035 0.0492 10.2087 16.0373
# 2 32.7212 86.4536 25.4510 -1.2775 -3.7286 2.7609
# 3 22.8035 25.4510 65.4987 -17.2698 -1.7397 -13.4172
# 4 0.0492 -1.2775 -17.2698 30.9870 -3.4666 -5.6051
# 5 10.2087 -3.7286 -1.7397 -3.4666 42.7411 -8.3555
# 6 16.0373 2.7609 -13.4172 -5.6051 -8.3555 52.0905
#
#
#
# Elastic Compliance Matrix: (Units=1/GPa)
#
#
# Indices 1 2 3 4 5 6 
#
# 1 0.016933 -0.004107 -0.008240 -0.007215 -0.007089 -0.009032
# 2 -0.004107 0.014630 -0.004895 -0.002051 0.001753 -0.000711
# 3 -0.008240 -0.004895 0.027716 0.018356 0.006696 0.012985
# 4 -0.007215 -0.002051 0.018356 0.045812 0.008621 0.013371
# 5 -0.007089 0.001753 0.006696 0.008621 0.028020 0.009237
# 6 -0.009032 -0.000711 0.012985 0.013371 0.009237 0.028280
#
#
# Mechanical properties :
#
#
# Convention : Reuss Voigt Hill
#
# Bulk Modulus (GPa) = 40.33107 44.98244 42.65676
# Shear Modulus (GPa) = 24.49286 35.95805 30.22546
#
# Velocity S-wave (km/s) = 3.13094 3.79361 3.47809
# Velocity P-wave (km/s) = 5.40482 6.09852 5.76212
#
# Compressibility (1/GPa) = 0.02479478
#
# Stress axis : x y z
#
# Youngs Moduli (GPa) = 59.05653 68.35102 36.08029
#
# Poissons Ratio (x) = 0.28071 0.29731
# Poissons Ratio (y) = 0.24254 0.17662
# Poissons Ratio (z) = 0.48664 0.33459
#
# Static dielectric constant tensor:
#      x y z
#    x 1.976290 -0.050160 -0.043030 
#    y -0.050160 2.055940 0.020280 
#    z -0.043030 0.020280 1.980590 
# 
# From -- ./inp_files/328551.got.cif
#   From: 2010.05.17/outbox.cif.g08.bks.cpg/sg2_165_cif.got.tgz:328551.got - 2010.06.03 11:33:40.
