data_PCOD9071647
_publ_section_title
;
Structure prediction by ZEFSAII (Michael W. Deem and Ramdas Pophale) SiO2 
 PCOD9071647
Probable space group: P -1
;
_chemical_formula_sum "Si O2"
_cell_formula_units_Z 16
_cell_length_a 8.565522
_cell_length_b 9.879049
_cell_length_c 22.341417
_cell_angle_alpha 26.460457
_cell_angle_beta 46.364304
_cell_angle_gamma 43.020269
_cell_volume 570.773495
_symmetry_space_group_name_H-M "P -1"
_symmetry_group_IT_number 2
_symmetry_cell_setting 'triclinic'
loop_
_space_group_symop_operation_xyz
x,y,z
-x,-y,-z
loop_
_atom_site_type_symbol
_atom_site_label
_atom_site_fract_x
_atom_site_fract_y
_atom_site_fract_z
Si Si1 0.747904 0.229020 0.177388
Si Si2 0.858689 0.770393 0.860347
Si Si3 0.266695 0.359712 0.829195
Si Si4 0.736836 0.318245 0.476883
Si Si5 0.983282 0.329289 0.815371
Si Si6 0.794501 0.970499 0.482623
Si Si7 0.427671 0.242583 0.159652
Si Si8 0.653353 0.401710 0.772026
O O1 0.641474 0.073760 0.214412
O O2 0.558443 0.360574 0.226439
O O3 0.997047 0.044860 0.214752
O O4 0.773746 0.544355 0.015013
O O5 0.668917 0.940929 0.792299
O O6 0.063595 0.499293 0.875724
O O7 0.522764 0.195572 0.853046
O O8 0.174915 0.161035 0.882969
O O9 0.283967 0.694846 0.664907
O O10 0.500000 0.500000 0.500000
O O11 0.874166 0.492746 0.330586
O O12 0.929219 0.147948 0.542353
O O13 0.705922 0.069997 0.534450
O O14 0.779703 0.566632 0.816465
O O15 0.846567 0.216612 0.843894
O O16 0.731317 0.653533 0.611892
O O17 0.500000 0.500000 0.000000
#
# Coordination Sequence:
#
# PCOD9071647 Si02
#       8
#     2   2   2   2   2   2   2   2
#     4   8  13  20  31  51  80 110 139 172 211 254
#     4   8  13  20  31  51  80 110 139 172 211 254
#     4   9  15  24  40  60  87 117 141 180 223 252
#     4   9  17  30  47  65  90 121 148 182 220 256
#     4   8  15  25  38  60  84 111 148 173 208 268
#     4   9  17  28  44  67  89 112 151 179 214 275
#     4   8  12  19  32  51  79 106 130 174 215 241
#     4   9  15  24  40  60  87 117 141 180 223 252
#
# _framework density 28.032136000000001
#
# number of rings (size 3 to 8) (size 9 to 14) (size 15 to 20)
#    0.000    3.500    0.000    1.125    0.000    0.000 
#    0.000    0.000    0.000   18.750    0.000    0.000 
#    0.000  144.000    0.000  165.250    0.000    0.250 
#
# Total GULP energy -89423.527336 kJ/mol
# GULP energy per Si atom -5588.970459 kJ/mol
# Density = 2.796833 g / cm^3
# Si number density = 28.032136 Si / 1000 Ang^3
#
#
#
# Elastic Constant Matrix: (Units=GPa)
#
#
# Indices 1 2 3 4 5 6 
#
# 1 272.0982 40.2992 16.3618 0.0031 -16.8805 -15.5785
# 2 40.2992 116.2577 47.5931 12.0916 -16.6984 -11.8229
# 3 16.3618 47.5931 143.2686 22.0730 -7.9906 5.8782
# 4 0.0031 12.0916 22.0730 30.0646 -0.3997 -9.6716
# 5 -16.8805 -16.6984 -7.9906 -0.3997 33.9203 9.1249
# 6 -15.5785 -11.8229 5.8782 -9.6716 9.1249 41.6965
#
#
#
# Elastic Compliance Matrix: (Units=1/GPa)
#
#
# Indices 1 2 3 4 5 6 
#
# 1 0.003990 -0.001118 -0.000232 0.001023 0.001067 0.001210
# 2 -0.001118 0.011202 -0.003266 -0.001380 0.003605 0.002110
# 3 -0.000232 -0.003266 0.009430 -0.006974 0.001574 -0.004304
# 4 0.001023 -0.001380 -0.006974 0.042693 -0.004501 0.011862
# 5 0.001067 0.003605 0.001574 -0.004501 0.034068 -0.007301
# 6 0.001210 0.002110 -0.004304 0.011862 -0.007301 0.029989
#
#
# Mechanical properties :
#
#
# Convention : Reuss Voigt Hill
#
# Bulk Modulus (GPa) = 64.98009 82.23698 73.60853
# Shear Modulus (GPa) = 34.30864 49.62763 41.96813
#
# Velocity S-wave (km/s) = 3.50223 4.21216 3.87349
# Velocity P-wave (km/s) = 6.29166 7.28400 6.80594
#
# Compressibility (1/GPa) = 0.01538933
#
# Stress axis : x y z
#
# Youngs Moduli (GPa) = 250.61455 89.26687 106.04156
#
# Poissons Ratio (x) = 0.09982 0.02460
# Poissons Ratio (y) = 0.28025 0.34638
# Poissons Ratio (z) = 0.05814 0.29159
#
# Static dielectric constant tensor:
#      x y z
#    x 2.373740 -0.016670 0.035680 
#    y -0.016670 2.127630 0.006630 
#    z 0.035680 0.006630 2.126790 
# 
# From -- ./inp_files/219601.got.cif
#   From: 2010.05.17/outbox.cif.g08.bks.cpg/sg2_110_cif.got.tgz:219601.got - 2010.06.03 11:33:40.
