data_PCOD9071393
_publ_section_title
;
Structure prediction by ZEFSAII (Michael W. Deem and Ramdas Pophale) SiO2 
 PCOD9071393
Probable space group: P -1
;
_chemical_formula_sum "Si O2"
_cell_formula_units_Z 12
_cell_length_a 4.867268
_cell_length_b 15.297895
_cell_length_c 9.158564
_cell_angle_alpha 50.797821
_cell_angle_beta 60.245923
_cell_angle_gamma 79.161231
_cell_volume 450.708160
_symmetry_space_group_name_H-M "P -1"
_symmetry_group_IT_number 2
_symmetry_cell_setting 'triclinic'
loop_
_space_group_symop_operation_xyz
x,y,z
-x,-y,-z
loop_
_atom_site_type_symbol
_atom_site_label
_atom_site_fract_x
_atom_site_fract_y
_atom_site_fract_z
Si Si1 0.765402 0.808762 0.199528
Si Si2 0.576234 0.234702 0.070506
Si Si3 0.832522 0.974792 0.766684
Si Si4 0.544253 0.494061 0.823094
Si Si5 0.278341 0.583890 0.539037
Si Si6 0.454170 0.125481 0.521724
O O1 0.297678 0.555306 0.735804
O O2 0.461853 0.713160 0.334116
O O3 0.762102 0.819111 0.363890
O O4 0.744749 0.930062 0.001028
O O5 0.303477 0.137408 0.174346
O O6 0.587779 0.210090 0.266985
O O7 0.504607 0.360714 0.932554
O O8 0.912857 0.224430 0.916665
O O9 0.300973 0.922590 0.384883
O O10 0.213506 0.017384 0.629612
O O11 0.909278 0.554470 0.620903
O O12 0.500000 0.500000 0.000000
O O13 0.500000 0.500000 0.500000
#
# Coordination Sequence:
#
# PCOD9071393 Si02
#       6
#     2   2   2   2   2   2
#     4  12  28  47  79 108 150 197 247 303 376 441
#     4  12  28  48  78 108 148 199 247 303 378 440
#     4  12  27  50  73 109 151 194 246 308 365 441
#     4  12  28  50  77 111 150 193 250 311 372 446
#     4  12  26  49  76 109 149 192 248 308 373 443
#     4  12  29  47  73 111 149 193 249 305 364 443
#
# _framework density 26.624766000000001
#
# number of rings (size 3 to 8) (size 9 to 14) (size 15 to 20)
#    0.000    0.000    3.333    5.000    7.000    1.333 
#    0.000    0.000    0.000    0.000    0.000    0.000 
#    0.000    0.000    0.000    0.000    0.000    0.000 
#
# Total GULP energy -67395.486369 kJ/mol
# GULP energy per Si atom -5616.290531 kJ/mol
# Density = 2.656417 g / cm^3
# Si number density = 26.624766 Si / 1000 Ang^3
#
#
#
# Elastic Constant Matrix: (Units=GPa)
#
#
# Indices 1 2 3 4 5 6 
#
# 1 109.3922 16.5491 39.1419 2.7117 -0.2378 8.7705
# 2 16.5491 79.4930 30.9123 14.5209 -19.2722 2.7827
# 3 39.1419 30.9123 160.3801 17.8694 -1.1500 -2.7667
# 4 2.7117 14.5209 17.8694 62.3870 6.1472 2.6287
# 5 -0.2378 -19.2722 -1.1500 6.1472 51.2628 -1.1056
# 6 8.7705 2.7827 -2.7667 2.6287 -1.1056 34.9392
#
#
#
# Elastic Compliance Matrix: (Units=1/GPa)
#
#
# Indices 1 2 3 4 5 6 
#
# 1 0.010421 -0.001447 -0.002402 0.000757 -0.000700 -0.002770
# 2 -0.001447 0.015999 -0.002294 -0.003606 0.006376 -0.000620
# 3 -0.002402 -0.002294 0.007454 -0.001510 -0.000493 0.001474
# 4 0.000757 -0.003606 -0.001510 0.017678 -0.003538 -0.001464
# 5 -0.000700 0.006376 -0.000493 -0.003538 0.022327 0.000602
# 6 -0.002770 -0.000620 0.001474 -0.001464 0.000602 0.029612
#
#
# Mechanical properties :
#
#
# Convention : Reuss Voigt Hill
#
# Bulk Modulus (GPa) = 46.31874 58.05242 52.18558
# Shear Modulus (GPa) = 40.65955 47.22858 43.94407
#
# Velocity S-wave (km/s) = 3.91209 4.21629 4.06704
# Velocity P-wave (km/s) = 6.15147 6.74937 6.45735
#
# Compressibility (1/GPa) = 0.02158953
#
# Stress axis : x y z
#
# Youngs Moduli (GPa) = 95.95587 62.50379 134.16298
#
# Poissons Ratio (x) = 0.09042 0.32223
# Poissons Ratio (y) = 0.13882 0.30775
# Poissons Ratio (z) = 0.23047 0.14337
#
# Static dielectric constant tensor:
#      x y z
#    x 2.032880 -0.015860 0.016600 
#    y -0.015860 2.130910 0.073550 
#    z 0.016600 0.073550 2.099910 
# 
# From -- ./inp_files/136501.got.cif
#   From: 2010.05.17/outbox.cif.g08.bks.cpg/sg2_69_cif.got.tgz:136501.got - 2010.06.03 11:33:40.
