data_PCOD9071983
_publ_section_title
;
Structure prediction by ZEFSAII (Michael W. Deem and Ramdas Pophale) SiO2 
 PCOD9071983
Probable space group: P -1
;
_chemical_formula_sum "Si O2"
_cell_formula_units_Z 12
_cell_length_a 9.094394
_cell_length_b 8.404722
_cell_length_c 12.403356
_cell_angle_alpha 74.228248
_cell_angle_beta 50.495215
_cell_angle_gamma 114.093130
_cell_volume 438.196013
_symmetry_space_group_name_H-M "P -1"
_symmetry_group_IT_number 2
_symmetry_cell_setting 'triclinic'
loop_
_space_group_symop_operation_xyz
x,y,z
-x,-y,-z
loop_
_atom_site_type_symbol
_atom_site_label
_atom_site_fract_x
_atom_site_fract_y
_atom_site_fract_z
Si Si1 0.672668 0.147108 0.099913
Si Si2 0.913850 0.316623 0.405320
Si Si3 0.183426 0.416228 0.983917
Si Si4 0.410351 0.223385 0.897170
Si Si5 0.686185 0.516117 0.492169
Si Si6 0.825908 0.904420 0.485033
O O1 0.757129 0.395608 0.993224
O O2 0.320774 0.888037 0.348523
O O3 0.729356 0.053642 0.996221
O O4 0.876753 0.237429 0.092466
O O5 0.803802 0.424261 0.404888
O O6 0.255930 0.556552 0.246605
O O7 0.874616 0.126923 0.384552
O O8 0.233467 0.260003 0.020313
O O9 0.465882 0.644063 0.727492
O O10 0.463437 0.305652 0.731607
O O11 0.500000 0.500000 0.500000
O O12 0.907445 0.801461 0.393411
O O13 0.000000 0.000000 0.500000
#
# Coordination Sequence:
#
# PCOD9071983 Si02
#       6
#     2   2   2   2   2   2
#     4   9  17  26  43  71 103 119 155 198 247 282
#     4  10  19  31  52  74  98 128 162 204 241 282
#     4   9  17  27  43  73  98 123 152 201 247 278
#     4  10  18  30  50  71  98 124 160 205 237 279
#     4  10  20  31  47  75 102 128 160 198 247 288
#     4  10  18  31  52  72 102 123 159 207 240 279
#
# _framework density 27.385006000000001
#
# number of rings (size 3 to 8) (size 9 to 14) (size 15 to 20)
#    0.000    2.333    3.333    2.500    2.333    0.667 
#    0.000    0.000    0.000    0.000    0.000   46.667 
#    0.000    0.667    0.000    0.000    0.000    0.000 
#
# Total GULP energy -67200.127467 kJ/mol
# GULP energy per Si atom -5600.010622 kJ/mol
# Density = 2.732268 g / cm^3
# Si number density = 27.385006 Si / 1000 Ang^3
#
#
#
# Elastic Constant Matrix: (Units=GPa)
#
#
# Indices 1 2 3 4 5 6 
#
# 1 115.2699 44.5847 53.9059 -2.5516 -21.7972 -28.8986
# 2 44.5847 282.0360 61.7632 0.6628 -1.8901 -62.5235
# 3 53.9059 61.7632 70.5990 -7.1025 2.6727 -14.5261
# 4 -2.5516 0.6628 -7.1025 61.9423 -11.3615 3.3239
# 5 -21.7972 -1.8901 2.6727 -11.3615 47.8812 -10.9361
# 6 -28.8986 -62.5235 -14.5261 3.3239 -10.9361 67.4551
#
#
#
# Elastic Compliance Matrix: (Units=1/GPa)
#
#
# Indices 1 2 3 4 5 6 
#
# 1 0.019727 0.002460 -0.015691 0.000735 0.012253 0.009303
# 2 0.002460 0.005691 -0.005864 -0.000408 0.002842 0.005547
# 3 -0.015691 -0.005864 0.030287 0.001373 -0.010428 -0.007394
# 4 0.000735 -0.000408 0.001373 0.017125 0.004326 0.000090
# 5 0.012253 0.002842 -0.010428 0.004326 0.030554 0.010378
# 6 0.009303 0.005547 -0.007394 0.000090 0.010378 0.024037
#
#
# Mechanical properties :
#
#
# Convention : Reuss Voigt Hill
#
# Bulk Modulus (GPa) = 57.09304 87.60140 72.34722
# Shear Modulus (GPa) = 29.16325 55.96579 42.56452
#
# Velocity S-wave (km/s) = 3.26687 4.52560 3.94674
# Velocity P-wave (km/s) = 5.92651 7.70495 6.87349
#
# Compressibility (1/GPa) = 0.01751527
#
# Stress axis : x y z
#
# Youngs Moduli (GPa) = 50.69213 175.72938 33.01721
#
# Poissons Ratio (x) = -0.43236 0.51806
# Poissons Ratio (y) = -0.12472 0.19363
# Poissons Ratio (z) = 0.79539 1.03055
#
# Static dielectric constant tensor:
#      x y z
#    x 2.104300 -0.004440 0.075750 
#    y -0.004440 2.254820 0.043720 
#    z 0.075750 0.043720 2.118860 
# 
# From -- ./inp_files/147024.got.cif
#   From: 2010.05.17/outbox.cif.g08.bks.cpg/sg2_74_cif.got.tgz:147024.got - 2010.06.03 11:33:40.
