data_PCOD9071816
_publ_section_title
;
Structure prediction by ZEFSAII (Michael W. Deem and Ramdas Pophale) SiO2 
 PCOD9071816
Probable space group: P -1
;
_chemical_formula_sum "Si O2"
_cell_formula_units_Z 16
_cell_length_a 8.065057
_cell_length_b 14.452182
_cell_length_c 10.959322
_cell_angle_alpha 135.398085
_cell_angle_beta 59.618366
_cell_angle_gamma 92.761186
_cell_volume 663.304851
_symmetry_space_group_name_H-M "P -1"
_symmetry_group_IT_number 2
_symmetry_cell_setting 'triclinic'
loop_
_space_group_symop_operation_xyz
x,y,z
-x,-y,-z
loop_
_atom_site_type_symbol
_atom_site_label
_atom_site_fract_x
_atom_site_fract_y
_atom_site_fract_z
Si Si1 0.599290 0.007498 0.601526
Si Si2 0.220944 0.440007 0.438712
Si Si3 0.973812 0.926114 0.228104
Si Si4 0.783596 0.895421 0.012182
Si Si5 0.654372 0.687257 0.295749
Si Si6 0.708373 0.321436 0.445331
Si Si7 0.601649 0.148908 0.116659
Si Si8 0.964039 0.403647 0.089899
O O1 0.804491 0.023533 0.491984
O O2 0.662218 0.839440 0.473589
O O3 0.500000 0.000000 0.500000
O O4 0.397810 0.132693 0.877148
O O5 0.366952 0.501051 0.375290
O O6 0.362305 0.261339 0.251835
O O7 0.126513 0.535982 0.687243
O O8 0.000000 0.500000 0.500000
O O9 0.865677 0.953572 0.156222
O O10 0.200410 0.927490 0.127988
O O11 0.038316 0.752257 0.072535
O O12 0.644929 0.019867 0.076590
O O13 0.021220 0.775637 0.750253
O O14 0.410452 0.709758 0.426908
O O15 0.805617 0.543374 0.191709
O O16 0.781660 0.639834 0.074734
O O17 0.637323 0.266158 0.298755
#
# Coordination Sequence:
#
# PCOD9071816 Si02
#       8
#     2   2   2   2   2   2   2   2
#     4   9  17  26  42  82 118 134 156 216 285 319
#     4  12  24  38  54  77 111 150 185 222 269 320
#     4   9  17  28  51  79 111 135 170 221 274 315
#     4  10  18  29  52  84 115 131 170 228 274 321
#     4  10  19  29  55  81 109 138 177 224 275 314
#     4  11  19  34  57  84 108 139 183 228 269 316
#     4  11  19  33  56  81 108 136 181 228 263 323
#     4  10  18  34  50  79 108 140 180 222 265 316
#
# _framework density 24.121637
#
# number of rings (size 3 to 8) (size 9 to 14) (size 15 to 20)
#    0.000    1.750    5.000    2.625    1.750    0.000 
#    0.000    1.250    0.000    0.000    0.000    1.750 
#    0.000    0.000    0.000    0.000    0.000    0.000 
#
# Total GULP energy -89279.925052 kJ/mol
# GULP energy per Si atom -5579.995316 kJ/mol
# Density = 2.406674 g / cm^3
# Si number density = 24.121637 Si / 1000 Ang^3
#
#
#
# Elastic Constant Matrix: (Units=GPa)
#
#
# Indices 1 2 3 4 5 6 
#
# 1 38.8461 17.6719 15.4356 4.3577 -16.0735 -6.2107
# 2 17.6719 144.0708 38.2815 0.4856 -19.8917 -5.7820
# 3 15.4356 38.2815 138.7320 -32.1476 -48.1239 7.2330
# 4 4.3577 0.4856 -32.1476 52.0956 11.4985 -16.8833
# 5 -16.0735 -19.8917 -48.1239 11.4985 30.0699 5.4184
# 6 -6.2107 -5.7820 7.2330 -16.8833 5.4184 29.5293
#
#
#
# Elastic Compliance Matrix: (Units=1/GPa)
#
#
# Indices 1 2 3 4 5 6 
#
# 1 0.037794 -0.001894 0.005826 -0.008051 0.032135 -0.004349
# 2 -0.001894 0.007896 -0.001520 -0.001181 0.002149 0.000450
# 3 0.005826 -0.001520 0.020115 0.000735 0.035850 -0.010157
# 4 -0.008051 -0.001181 0.000735 0.030672 -0.019048 0.018927
# 5 0.032135 0.002149 0.035850 -0.019048 0.122826 -0.035030
# 6 -0.004349 0.000450 -0.010157 0.018927 -0.035030 0.052775
#
#
# Mechanical properties :
#
#
# Convention : Reuss Voigt Hill
#
# Bulk Modulus (GPa) = 14.15852 51.60300 32.88076
# Shear Modulus (GPa) = 17.19412 39.02294 28.10853
#
# Velocity S-wave (km/s) = 2.67275 4.02650 3.41733
# Velocity P-wave (km/s) = 3.92519 6.56172 5.40663
#
# Compressibility (1/GPa) = 0.07062886
#
# Stress axis : x y z
#
# Youngs Moduli (GPa) = 26.45918 126.64638 49.71418
#
# Poissons Ratio (x) = 0.23992 -0.28964
# Poissons Ratio (y) = 0.05013 0.07556
# Poissons Ratio (z) = -0.15415 0.19248
#
# Static dielectric constant tensor:
#      x y z
#    x 2.007460 0.044210 -0.043720 
#    y 0.044210 1.987800 0.021160 
#    z -0.043720 0.021160 2.022050 
# 
# From -- ./inp_files/397602.got.cif
#   From: 2010.05.17/outbox.cif.g08.bks.cpg/sg2_199_cif.got.tgz:397602.got - 2010.06.03 11:33:40.
