data_PCOD9071011
_publ_section_title
;
Structure prediction by ZEFSAII (Michael W. Deem and Ramdas Pophale) SiO2 
 PCOD9071011
Probable space group: P -1
;
_chemical_formula_sum "Si O2"
_cell_formula_units_Z 14
_cell_length_a 10.070021
_cell_length_b 19.547317
_cell_length_c 7.937214
_cell_angle_alpha 32.456753
_cell_angle_beta 121.862699
_cell_angle_gamma 131.844941
_cell_volume 622.218408
_symmetry_space_group_name_H-M "P -1"
_symmetry_group_IT_number 2
_symmetry_cell_setting 'triclinic'
loop_
_space_group_symop_operation_xyz
x,y,z
-x,-y,-z
loop_
_atom_site_type_symbol
_atom_site_label
_atom_site_fract_x
_atom_site_fract_y
_atom_site_fract_z
Si Si1 0.357535 0.340923 0.656261
Si Si2 0.673698 0.158097 0.323762
Si Si3 0.419711 0.178943 0.335366
Si Si4 0.502881 0.352312 0.358801
Si Si5 0.840891 0.338093 0.732375
Si Si6 0.114071 0.920560 0.798689
Si Si7 0.032337 0.870115 0.228631
O O1 0.500000 0.500000 0.500000
O O2 0.426236 0.319437 0.565566
O O3 0.147891 0.285581 0.595682
O O4 0.344861 0.227573 0.026124
O O5 0.615368 0.219536 0.318491
O O6 0.500000 0.000000 0.500000
O O7 0.739373 0.271404 0.979343
O O8 0.399367 0.248103 0.350246
O O9 0.839849 0.140644 0.526949
O O10 0.303791 0.009422 0.648513
O O11 0.686555 0.343400 0.504635
O O12 0.500000 0.500000 0.000000
O O13 0.000000 0.500000 0.500000
O O14 0.936934 0.242905 0.944656
O O15 0.000000 0.000000 0.500000
O O16 0.127326 0.923289 0.002056
O O17 0.000000 0.000000 0.000000
#
# Coordination Sequence:
#
# PCOD9071011 Si02
#       7
#     2   2   2   2   2   2   2
#     4  12  26  49  77 115 160 208 265 329 407 482
#     4  12  26  50  77 112 161 209 269 332 398 480
#     4  12  25  48  80 110 155 208 265 327 402 477
#     4  12  28  48  77 113 159 206 263 329 406 474
#     4  12  30  48  76 117 159 205 265 331 399 474
#     4  12  26  47  79 112 153 201 267 325 397 469
#     4  12  27  46  78 114 154 207 273 327 399 482
#
# _framework density 22.500136999999999
#
# number of rings (size 3 to 8) (size 9 to 14) (size 15 to 20)
#    0.000    0.000    5.714    3.429    8.000    1.143 
#    0.000    2.143    0.000    0.000    0.000    0.000 
#    0.000    0.000    0.000    0.000    0.000    0.000 
#
# Total GULP energy -78171.649585 kJ/mol
# GULP energy per Si atom -5583.689256 kJ/mol
# Density = 2.244893 g / cm^3
# Si number density = 22.500137 Si / 1000 Ang^3
#
#
#
# Elastic Constant Matrix: (Units=GPa)
#
#
# Indices 1 2 3 4 5 6 
#
# 1 100.8872 34.6328 38.8251 1.9913 -11.6507 -17.0530
# 2 34.6328 109.1534 61.4349 3.7515 -10.9147 -2.6435
# 3 38.8251 61.4349 135.5689 -2.8755 -4.7389 -4.4686
# 4 1.9913 3.7515 -2.8755 45.0606 3.0150 6.3737
# 5 -11.6507 -10.9147 -4.7389 3.0150 50.4882 11.4438
# 6 -17.0530 -2.6435 -4.4686 6.3737 11.4438 50.3068
#
#
#
# Elastic Compliance Matrix: (Units=1/GPa)
#
#
# Indices 1 2 3 4 5 6 
#
# 1 0.012432 -0.002360 -0.002344 -0.001119 0.001364 0.003713
# 2 -0.002360 0.013092 -0.005242 -0.001334 0.002073 -0.000880
# 3 -0.002344 -0.005242 0.010420 0.001274 -0.000741 -0.000137
# 4 -0.001119 -0.001334 0.001274 0.022932 -0.001119 -0.002987
# 5 0.001364 0.002073 -0.000741 -0.001119 0.021530 -0.004251
# 6 0.003713 -0.000880 -0.000137 -0.002987 -0.004251 0.022424
#
#
# Mechanical properties :
#
#
# Convention : Reuss Voigt Hill
#
# Bulk Modulus (GPa) = 62.30186 68.37726 65.33956
# Shear Modulus (GPa) = 39.04036 43.21889 41.12962
#
# Velocity S-wave (km/s) = 4.16999 4.38748 4.28012
# Velocity P-wave (km/s) = 7.13686 7.49148 7.31632
#
# Compressibility (1/GPa) = 0.01605088
#
# Stress axis : x y z
#
# Youngs Moduli (GPa) = 80.43941 76.38014 95.97141
#
# Poissons Ratio (x) = 0.18027 0.22500
# Poissons Ratio (y) = 0.18985 0.50308
# Poissons Ratio (z) = 0.18858 0.40038
#
# Static dielectric constant tensor:
#      x y z
#    x 2.043280 -0.213550 -0.053460 
#    y -0.213550 2.127450 0.088610 
#    z -0.053460 0.088610 1.991040 
# 
# From -- ./inp_files/222907.got.cif
#   From: 2010.05.17/outbox.cif.g08.bks.cpg/sg2_112_cif.got.tgz:222907.got - 2010.06.03 11:33:40.
