data_PCOD9071627
_publ_section_title
;
Structure prediction by ZEFSAII (Michael W. Deem and Ramdas Pophale) SiO2 
 PCOD9071627
Probable space group: P -1
;
_chemical_formula_sum "Si O2"
_cell_formula_units_Z 11
_cell_length_a 9.607659
_cell_length_b 8.168860
_cell_length_c 8.338615
_cell_angle_alpha 92.467393
_cell_angle_beta 132.171139
_cell_angle_gamma 63.230857
_cell_volume 398.414896
_symmetry_space_group_name_H-M "P -1"
_symmetry_group_IT_number 2
_symmetry_cell_setting 'triclinic'
loop_
_space_group_symop_operation_xyz
x,y,z
-x,-y,-z
loop_
_atom_site_type_symbol
_atom_site_label
_atom_site_fract_x
_atom_site_fract_y
_atom_site_fract_z
Si Si1 0.500000 0.000000 0.000000
Si Si2 0.971934 0.131469 0.802030
Si Si3 0.569119 0.086043 0.411286
Si Si4 0.209469 0.537568 0.049372
Si Si5 0.425233 0.728935 0.108621
Si Si6 0.913762 0.469893 0.597787
O O1 0.574675 0.979445 0.247428
O O2 0.382213 0.320400 0.246813
O O3 0.869219 0.302137 0.863171
O O4 0.642353 0.591069 0.383500
O O5 0.003298 0.543788 0.808493
O O6 0.803730 0.069589 0.620190
O O7 0.500000 0.000000 0.500000
O O8 0.213567 0.936706 0.028031
O O9 0.318245 0.602026 0.001296
O O10 0.024365 0.235155 0.703138
O O11 0.511824 0.196066 0.994267
O O12 0.000000 0.500000 0.500000
#
# Coordination Sequence:
#
# PCOD9071627 Si02
#       6
#     1   2   2   2   2   2
#     4  12  30  52  86 128 174 232 290 360 440 524
#     4  12  28  53  83 128 175 230 292 367 441 523
#     4  12  29  56  91 129 180 229 303 367 441 531
#     4  12  28  55  86 124 175 234 291 364 450 520
#     4  12  28  53  85 130 171 229 298 354 442 533
#     4  12  29  52  84 124 174 233 290 364 436 525
#
# _framework density 27.609408999999999
#
# number of rings (size 3 to 8) (size 9 to 14) (size 15 to 20)
#    0.000    0.000    1.818    6.000    7.636    4.364 
#    0.000    0.000    0.000    0.000    0.000    0.000 
#    0.000    0.000    0.000    0.000    0.000    0.000 
#
# Total GULP energy -61625.290209 kJ/mol
# GULP energy per Si atom -5602.299110 kJ/mol
# Density = 2.754657 g / cm^3
# Si number density = 27.609409 Si / 1000 Ang^3
#
#
#
# Elastic Constant Matrix: (Units=GPa)
#
#
# Indices 1 2 3 4 5 6 
#
# 1 105.8393 60.2218 57.5755 16.1704 -1.4081 34.5403
# 2 60.2218 191.8985 38.9187 -13.0740 -1.9145 24.5406
# 3 57.5755 38.9187 153.7646 20.9355 11.5865 7.0723
# 4 16.1704 -13.0740 20.9355 58.5574 10.0980 0.4075
# 5 -1.4081 -1.9145 11.5865 10.0980 72.7045 -14.2378
# 6 34.5403 24.5406 7.0723 0.4075 -14.2378 87.2070
#
#
#
# Elastic Compliance Matrix: (Units=1/GPa)
#
#
# Indices 1 2 3 4 5 6 
#
# 1 0.016192 -0.003821 -0.004390 -0.003805 0.000484 -0.004885
# 2 -0.003821 0.006781 -0.000634 0.002845 -0.000268 -0.000401
# 3 -0.004390 -0.000634 0.008584 -0.001832 -0.001007 0.001065
# 4 -0.003805 0.002845 -0.001832 0.019827 -0.002388 0.000372
# 5 0.000484 -0.000268 -0.001007 -0.002388 0.014715 0.002379
# 6 -0.004885 -0.000401 0.001065 0.000372 0.002379 0.013815
#
#
# Mechanical properties :
#
#
# Convention : Reuss Voigt Hill
#
# Bulk Modulus (GPa) = 72.11098 84.99271 78.55185
# Shear Modulus (GPa) = 48.91088 63.34619 56.12854
#
# Velocity S-wave (km/s) = 4.21352 4.79515 4.51372
# Velocity P-wave (km/s) = 7.06022 7.84275 7.46175
#
# Compressibility (1/GPa) = 0.01386751
#
# Stress axis : x y z
#
# Youngs Moduli (GPa) = 61.75764 147.46677 116.49533
#
# Poissons Ratio (x) = 0.56345 0.51139
# Poissons Ratio (y) = 0.23597 0.07391
# Poissons Ratio (z) = 0.27110 0.09356
#
# Static dielectric constant tensor:
#      x y z
#    x 2.686030 -0.120250 0.041820 
#    y -0.120250 2.157880 -0.034170 
#    z 0.041820 -0.034170 2.074730 
# 
# From -- ./inp_files/151023.got.cif
#   From: 2010.05.17/outbox.cif.g08.bks.cpg/sg2_76_cif.got.tgz:151023.got - 2010.06.03 11:33:40.
