data_PCOD9071217
_publ_section_title
;
Structure prediction by ZEFSAII (Michael W. Deem and Ramdas Pophale) SiO2 
 PCOD9071217
Probable space group: P -1
;
_chemical_formula_sum "Si O2"
_cell_formula_units_Z 16
_cell_length_a 6.421993
_cell_length_b 10.558069
_cell_length_c 25.565242
_cell_angle_alpha 34.651852
_cell_angle_beta 47.908965
_cell_angle_gamma 63.909585
_cell_volume 705.339393
_symmetry_space_group_name_H-M "P -1"
_symmetry_group_IT_number 2
_symmetry_cell_setting 'triclinic'
loop_
_space_group_symop_operation_xyz
x,y,z
-x,-y,-z
loop_
_atom_site_type_symbol
_atom_site_label
_atom_site_fract_x
_atom_site_fract_y
_atom_site_fract_z
Si Si1 0.822716 0.902956 0.767371
Si Si2 0.214520 0.242419 0.872582
Si Si3 0.244592 0.946106 0.162444
Si Si4 0.336415 0.489075 0.942325
Si Si5 0.127761 0.325027 0.504350
Si Si6 0.857886 0.737735 0.599475
Si Si7 0.793241 0.579456 0.304308
Si Si8 0.709981 0.359298 0.211650
O O1 0.554483 0.679335 0.877189
O O2 0.093487 0.811544 0.772661
O O3 0.746536 0.053234 0.776263
O O4 0.953437 0.070346 0.640283
O O5 0.527696 0.193700 0.847468
O O6 0.205387 0.333039 0.784772
O O7 0.101340 0.400971 0.878831
O O8 0.000000 0.000000 0.000000
O O9 0.930316 0.805549 0.240488
O O10 0.330814 0.219271 0.040596
O O11 0.434187 0.583884 0.835895
O O12 0.000000 0.500000 0.000000
O O13 0.095708 0.326507 0.446429
O O14 0.472702 0.418047 0.426000
O O15 0.000000 0.500000 0.500000
O O16 0.522140 0.707657 0.680173
O O17 0.997536 0.584926 0.665574
O O18 0.000000 0.000000 0.500000
#
# Coordination Sequence:
#
# PCOD9071217 Si02
#       8
#     2   2   2   2   2   2   2   2
#     4  12  28  47  76 108 153 198 253 311 379 453
#     4  12  27  44  75 109 150 194 248 304 377 450
#     4  12  27  48  76 112 151 200 247 311 380 458
#     4  12  28  47  77 111 151 196 250 313 381 452
#     4  12  28  49  77 109 152 203 255 317 380 454
#     4  12  27  47  76 112 152 198 258 312 377 451
#     4  12  26  49  75 108 155 194 253 311 376 447
#     4  12  26  46  71 113 143 194 249 300 381 441
#
# _framework density 22.684114999999998
#
# number of rings (size 3 to 8) (size 9 to 14) (size 15 to 20)
#    0.000    0.000    3.750    4.875   10.500    5.000 
#    0.000    0.000    0.000    0.000    0.000    0.000 
#    0.000    0.000    0.000    0.000    0.000    0.000 
#
# Total GULP energy -89454.802176 kJ/mol
# GULP energy per Si atom -5590.925136 kJ/mol
# Density = 2.263249 g / cm^3
# Si number density = 22.684115 Si / 1000 Ang^3
#
#
#
# Elastic Constant Matrix: (Units=GPa)
#
#
# Indices 1 2 3 4 5 6 
#
# 1 88.7536 20.6509 36.4326 -5.4992 -10.8425 4.8853
# 2 20.6509 82.7022 15.1178 -1.8628 -3.0566 2.9534
# 3 36.4326 15.1178 105.0820 -17.1150 -6.9439 -4.8899
# 4 -5.4992 -1.8628 -17.1150 40.2618 5.5289 -2.2316
# 5 -10.8425 -3.0566 -6.9439 5.5289 39.9019 -1.5334
# 6 4.8853 2.9534 -4.8899 -2.2316 -1.5334 40.9175
#
#
#
# Elastic Compliance Matrix: (Units=1/GPa)
#
#
# Indices 1 2 3 4 5 6 
#
# 1 0.014143 -0.002539 -0.004541 -0.000620 0.002868 -0.001974
# 2 -0.002539 0.012944 -0.001051 -0.000254 0.000125 -0.000766
# 3 -0.004541 -0.001051 0.012112 0.004574 0.000249 0.002324
# 4 -0.000620 -0.000254 0.004574 0.027221 -0.003086 0.002008
# 5 0.002868 0.000125 0.000249 -0.003086 0.026340 0.000497
# 6 -0.001974 -0.000766 0.002324 0.002008 0.000497 0.025136
#
#
# Mechanical properties :
#
#
# Convention : Reuss Voigt Hill
#
# Bulk Modulus (GPa) = 43.59880 46.77116 45.18498
# Shear Modulus (GPa) = 35.26018 37.83867 36.54942
#
# Velocity S-wave (km/s) = 3.94686 4.08863 4.01837
# Velocity P-wave (km/s) = 6.32709 6.55381 6.44145
#
# Compressibility (1/GPa) = 0.02293641
#
# Stress axis : x y z
#
# Youngs Moduli (GPa) = 70.70775 77.25693 82.56474
#
# Poissons Ratio (x) = 0.19614 0.37496
# Poissons Ratio (y) = 0.17951 0.08676
# Poissons Ratio (z) = 0.32111 0.08118
#
# Static dielectric constant tensor:
#      x y z
#    x 1.883700 -0.005360 -0.043320 
#    y -0.005360 1.654640 0.047910 
#    z -0.043320 0.047910 1.869250 
# 
# From -- ./inp_files/615478.got.cif
#   From: 2010.05.17/outbox.cif.g08.bks.cpg/sg2_308_cif.got.tgz:615478.got - 2010.06.03 11:33:40.
