data_PCOD9071811
_publ_section_title
;
Structure prediction by ZEFSAII (Michael W. Deem and Ramdas Pophale) SiO2 
 PCOD9071811
Probable space group: P -1
;
_chemical_formula_sum "Si O2"
_cell_formula_units_Z 16
_cell_length_a 10.436383
_cell_length_b 16.080897
_cell_length_c 16.169916
_cell_angle_alpha 39.117658
_cell_angle_beta 146.318000
_cell_angle_gamma 137.139319
_cell_volume 919.422216
_symmetry_space_group_name_H-M "P -1"
_symmetry_group_IT_number 2
_symmetry_cell_setting 'triclinic'
loop_
_space_group_symop_operation_xyz
x,y,z
-x,-y,-z
loop_
_atom_site_type_symbol
_atom_site_label
_atom_site_fract_x
_atom_site_fract_y
_atom_site_fract_z
Si Si1 0.894251 0.045950 0.492308
Si Si2 0.498121 0.813878 0.069033
Si Si3 0.190651 0.529402 0.152681
Si Si4 0.893668 0.049958 0.165226
Si Si5 0.265638 0.330553 0.476838
Si Si6 0.014651 0.174379 0.955097
Si Si7 0.805348 0.397340 0.726039
Si Si8 0.603852 0.929012 0.855116
O O1 0.620774 0.044068 0.333732
O O2 0.056510 0.197956 0.475851
O O3 0.000000 0.000000 0.500000
O O4 0.932595 0.958925 0.659297
O O5 0.417809 0.651077 0.157472
O O6 0.745774 0.896954 0.178331
O O7 0.297717 0.873374 0.961002
O O8 0.509976 0.857618 0.946225
O O9 0.256527 0.396567 0.329363
O O10 0.088947 0.585710 0.137412
O O11 0.000000 0.500000 0.000000
O O12 0.005080 0.122532 0.084939
O O13 0.529177 0.308857 0.648778
O O14 0.227031 0.450854 0.424156
O O15 0.958219 0.321706 0.811547
O O16 0.796838 0.068811 0.873622
O O17 0.255291 0.161635 0.050665
#
# Coordination Sequence:
#
# PCOD9071811 Si02
#       8
#     2   2   2   2   2   2   2   2
#     4  12  21  32  53  87 112 130 174 239 265 299
#     4  10  18  34  52  82 101 141 177 221 259 315
#     4  10  18  29  52  76 109 130 174 223 258 308
#     4  10  20  30  58  76 108 136 182 214 267 321
#     4   9  20  32  51  83 103 139 172 219 267 308
#     4  10  20  40  54  78 105 156 174 208 274 328
#     4   9  18  34  55  73 106 144 175 212 255 332
#     4  10  22  34  56  81 112 136 183 219 268 319
#
# _framework density 17.402234
#
# number of rings (size 3 to 8) (size 9 to 14) (size 15 to 20)
#    0.750    1.250    2.500    2.250    1.750    0.500 
#    0.000    0.625    0.000    0.750    0.000    0.000 
#    0.000    0.000    0.000    0.000    0.000    0.000 
#
# Total GULP energy -89104.201181 kJ/mol
# GULP energy per Si atom -5569.012574 kJ/mol
# Density = 1.736263 g / cm^3
# Si number density = 17.402234 Si / 1000 Ang^3
#
#
#
# Elastic Constant Matrix: (Units=GPa)
#
#
# Indices 1 2 3 4 5 6 
#
# 1 56.1923 10.4698 20.6058 3.6052 4.3480 -20.9053
# 2 10.4698 36.2269 16.8667 -0.6315 2.6509 -3.6160
# 3 20.6058 16.8667 99.1526 19.0821 -5.0870 -14.8873
# 4 3.6052 -0.6315 19.0821 22.2632 -6.1956 -1.7968
# 5 4.3480 2.6509 -5.0870 -6.1956 27.0872 -6.3066
# 6 -20.9053 -3.6160 -14.8873 -1.7968 -6.3066 21.3347
#
#
#
# Elastic Compliance Matrix: (Units=1/GPa)
#
#
# Indices 1 2 3 4 5 6 
#
# 1 0.029368 -0.005616 -0.000549 -0.001689 0.001828 0.027840
# 2 -0.005616 0.032020 -0.006332 0.005953 -0.003210 -0.004942
# 3 -0.000549 -0.006332 0.014922 -0.011359 0.002941 0.008714
# 4 -0.001689 0.005953 -0.011359 0.058033 0.010708 -0.000519
# 5 0.001828 -0.003210 0.002941 0.010708 0.043943 0.017191
# 6 0.027840 -0.004942 0.008714 -0.000519 0.017191 0.084433
#
#
# Mechanical properties :
#
#
# Convention : Reuss Voigt Hill
#
# Bulk Modulus (GPa) = 19.48724 31.93962 25.71343
# Shear Modulus (GPa) = 16.40314 23.71231 20.05772
#
# Velocity S-wave (km/s) = 3.07349 3.69535 3.39867
# Velocity P-wave (km/s) = 4.88032 6.04988 5.49630
#
# Compressibility (1/GPa) = 0.05131562
#
# Stress axis : x y z
#
# Youngs Moduli (GPa) = 34.05054 31.23000 67.01507
#
# Poissons Ratio (x) = 0.17540 0.03679
# Poissons Ratio (y) = 0.19124 0.42435
# Poissons Ratio (z) = 0.01869 0.19775
#
# Static dielectric constant tensor:
#      x y z
#    x 1.573450 -0.008580 -0.023750 
#    y -0.008580 1.628870 -0.014400 
#    z -0.023750 -0.014400 1.611900 
# 
# From -- ./inp_files/502861.got.cif
#   From: 2010.05.17/outbox.cif.g08.bks.cpg/sg2_252_cif.got.tgz:502861.got - 2010.06.03 11:33:40.
