data_PCOD9071067
_publ_section_title
;
Structure prediction by ZEFSAII (Michael W. Deem and Ramdas Pophale) SiO2 
 PCOD9071067
Probable space group: P -1
;
_chemical_formula_sum "Si O2"
_cell_formula_units_Z 14
_cell_length_a 14.678887
_cell_length_b 9.056272
_cell_length_c 14.941240
_cell_angle_alpha 48.692578
_cell_angle_beta 29.187087
_cell_angle_gamma 68.863032
_cell_volume 588.105137
_symmetry_space_group_name_H-M "P -1"
_symmetry_group_IT_number 2
_symmetry_cell_setting 'triclinic'
loop_
_space_group_symop_operation_xyz
x,y,z
-x,-y,-z
loop_
_atom_site_type_symbol
_atom_site_label
_atom_site_fract_x
_atom_site_fract_y
_atom_site_fract_z
Si Si1 0.949334 0.892052 0.233769
Si Si2 0.382881 0.127146 0.016889
Si Si3 0.149028 0.517185 0.622184
Si Si4 0.182322 0.449212 0.829373
Si Si5 0.506348 0.770932 0.578939
Si Si6 0.919886 0.669535 0.522584
Si Si7 0.785694 0.598465 0.861098
O O1 0.026260 0.742175 0.175010
O O2 0.767691 0.869915 0.329557
O O3 0.825076 0.726911 0.495305
O O4 0.108991 0.174759 0.010566
O O5 0.277939 0.214692 0.142310
O O6 0.159317 0.931081 0.230744
O O7 0.597875 0.353660 0.689187
O O8 0.500000 0.000000 0.000000
O O9 0.186884 0.497768 0.701052
O O10 0.041110 0.666448 0.636951
O O11 0.401614 0.627021 0.633416
O O12 0.000000 0.500000 0.000000
O O13 0.500000 0.000000 0.500000
O O14 0.362741 0.603424 0.854737
O O15 0.000000 0.500000 0.500000
O O16 0.764580 0.558998 0.788410
#
# Coordination Sequence:
#
# PCOD9071067 Si02
#       7
#     2   2   2   2   2   2   2
#     4  12  26  51  75 112 161 199 257 323 380 466
#     4  12  26  48  77 113 152 205 262 314 390 465
#     4  12  26  50  78 112 159 202 256 326 386 458
#     4  12  26  47  80 113 154 208 258 318 394 454
#     4  12  26  49  77 117 151 200 264 317 387 465
#     4  12  27  49  74 113 156 201 259 322 391 459
#     4  12  25  49  79 111 156 200 256 323 384 463
#
# _framework density 23.805268000000002
#
# number of rings (size 3 to 8) (size 9 to 14) (size 15 to 20)
#    0.000    0.000    7.143    1.714    0.000    2.286 
#    2.571    0.000    0.000    0.000    0.000    0.000 
#    0.000    0.000    0.000    0.000    0.000    0.000 
#
# Total GULP energy -78272.101931 kJ/mol
# GULP energy per Si atom -5590.864424 kJ/mol
# Density = 2.375109 g / cm^3
# Si number density = 23.805268 Si / 1000 Ang^3
#
#
#
# Elastic Constant Matrix: (Units=GPa)
#
#
# Indices 1 2 3 4 5 6 
#
# 1 153.3199 56.3637 16.7789 -9.5796 23.1140 8.9161
# 2 56.3637 193.3837 40.7677 -1.2150 17.0706 8.1515
# 3 16.7789 40.7677 48.2446 1.7222 11.0441 16.9719
# 4 -9.5796 -1.2150 1.7222 48.0241 2.1401 -5.3123
# 5 23.1140 17.0706 11.0441 2.1401 49.8650 1.8513
# 6 8.9161 8.1515 16.9719 -5.3123 1.8513 49.3584
#
#
#
# Elastic Compliance Matrix: (Units=1/GPa)
#
#
# Indices 1 2 3 4 5 6 
#
# 1 0.007847 -0.001941 -0.000203 0.001573 -0.002968 -0.000746
# 2 -0.001941 0.006867 -0.005459 0.000119 -0.000289 0.001117
# 3 -0.000203 -0.005459 0.029735 -0.002093 -0.004186 -0.009354
# 4 0.001573 0.000119 -0.002093 0.021583 -0.001336 0.002789
# 5 -0.002968 -0.000289 -0.004186 -0.001336 0.022475 0.001036
# 6 -0.000746 0.001117 -0.009354 0.002789 0.001036 0.023688
#
#
# Mechanical properties :
#
#
# Convention : Reuss Voigt Hill
#
# Bulk Modulus (GPa) = 34.19616 69.19655 51.69636
# Shear Modulus (GPa) = 36.45717 48.18534 42.32125
#
# Velocity S-wave (km/s) = 3.91765 4.50393 4.22098
# Velocity P-wave (km/s) = 5.90425 7.49520 6.74678
#
# Compressibility (1/GPa) = 0.02924305
#
# Stress axis : x y z
#
# Youngs Moduli (GPa) = 127.43375 145.63110 33.63077
#
# Poissons Ratio (x) = 0.28267 0.00683
# Poissons Ratio (y) = 0.24735 0.18358
# Poissons Ratio (z) = 0.02589 0.79494
#
# Static dielectric constant tensor:
#      x y z
#    x 1.908660 0.013990 0.002600 
#    y 0.013990 1.884910 0.015260 
#    z 0.002600 0.015260 1.924440 
# 
# From -- ./inp_files/529363.got.cif
#   From: 2010.05.17/outbox.cif.g08.bks.cpg/sg2_265_cif.got.tgz:529363.got - 2010.06.03 11:33:40.
