data_PCOD9071422
_publ_section_title
;
Structure prediction by ZEFSAII (Michael W. Deem and Ramdas Pophale) SiO2 
 PCOD9071422
Probable space group: P -1
;
_chemical_formula_sum "Si O2"
_cell_formula_units_Z 11
_cell_length_a 7.676188
_cell_length_b 9.090931
_cell_length_c 9.499068
_cell_angle_alpha 132.842250
_cell_angle_beta 69.970173
_cell_angle_gamma 89.288669
_cell_volume 426.708785
_symmetry_space_group_name_H-M "P -1"
_symmetry_group_IT_number 2
_symmetry_cell_setting 'triclinic'
loop_
_space_group_symop_operation_xyz
x,y,z
-x,-y,-z
loop_
_atom_site_type_symbol
_atom_site_label
_atom_site_fract_x
_atom_site_fract_y
_atom_site_fract_z
Si Si1 0.500000 0.500000 0.500000
Si Si2 0.295029 0.573490 0.838873
Si Si3 0.123066 0.753996 0.273167
Si Si4 0.517686 0.796329 0.271470
Si Si5 0.375311 0.012905 0.902085
Si Si6 0.002625 0.424893 0.291005
O O1 0.508876 0.547803 0.704684
O O2 0.421542 0.774031 0.674755
O O3 0.305807 0.384817 0.818482
O O4 0.219857 0.552578 0.685767
O O5 0.149377 0.756469 0.095205
O O6 0.337136 0.714644 0.254581
O O7 0.047443 0.584193 0.266964
O O8 0.000000 0.000000 0.500000
O O9 0.500000 0.000000 0.500000
O O10 0.549227 0.856953 0.146505
O O11 0.500000 0.000000 0.000000
O O12 0.146003 0.175330 0.084733
O O13 0.000000 0.500000 0.500000
#
# Coordination Sequence:
#
# PCOD9071422 Si02
#       6
#     1   2   2   2   2   2
#     4  12  28  46  82 110 156 202 274 314 406 456
#     4  12  27  51  78 114 156 209 263 329 396 475
#     4  12  29  48  79 117 157 209 266 324 404 476
#     4  12  26  49  80 108 153 205 262 322 390 474
#     4  12  28  50  77 113 159 208 263 332 394 474
#     4  12  30  50  78 117 165 205 266 334 400 473
#
# _framework density 25.778707000000001
#
# number of rings (size 3 to 8) (size 9 to 14) (size 15 to 20)
#    0.000    0.000    3.636    4.364   12.727    0.727 
#    0.000    0.000    0.000    0.000    0.000    0.000 
#    0.000    0.000    0.000    0.000    0.000    0.000 
#
# Total GULP energy -61248.242664 kJ/mol
# GULP energy per Si atom -5568.022060 kJ/mol
# Density = 2.572003 g / cm^3
# Si number density = 25.778707 Si / 1000 Ang^3
#
#
#
# Elastic Constant Matrix: (Units=GPa)
#
#
# Indices 1 2 3 4 5 6 
#
# 1 90.5567 38.1730 7.2961 3.7251 12.5199 -10.9184
# 2 38.1730 184.0142 65.7249 -17.6558 -3.1002 -9.3907
# 3 7.2961 65.7249 201.0081 -0.7131 -2.7585 -9.5448
# 4 3.7251 -17.6558 -0.7131 73.7247 -15.0271 4.5449
# 5 12.5199 -3.1002 -2.7585 -15.0271 29.6734 -1.8381
# 6 -10.9184 -9.3907 -9.5448 4.5449 -1.8381 51.5436
#
#
#
# Elastic Compliance Matrix: (Units=1/GPa)
#
#
# Indices 1 2 3 4 5 6 
#
# 1 0.013923 -0.003421 0.000613 -0.003229 -0.007658 0.002451
# 2 -0.003421 0.007227 -0.002181 0.002548 0.003291 0.000081
# 3 0.000613 -0.002181 0.005700 -0.000591 -0.000204 0.000833
# 4 -0.003229 0.002548 -0.000591 0.016417 0.009799 -0.001427
# 5 -0.007658 0.003291 -0.000204 0.009799 0.042193 -0.000420
# 6 0.002451 0.000081 0.000833 -0.001427 -0.000420 0.020200
#
#
# Mechanical properties :
#
#
# Convention : Reuss Voigt Hill
#
# Bulk Modulus (GPa) = 59.26768 77.55189 68.40978
# Shear Modulus (GPa) = 41.23330 55.28067 48.25698
#
# Velocity S-wave (km/s) = 4.00373 4.63582 4.33132
# Velocity P-wave (km/s) = 6.66438 7.66834 7.18392
#
# Compressibility (1/GPa) = 0.01687260
#
# Stress axis : x y z
#
# Youngs Moduli (GPa) = 71.82605 138.36935 175.42594
#
# Poissons Ratio (x) = 0.47334 -0.10754
# Poissons Ratio (y) = 0.24571 0.38258
# Poissons Ratio (z) = -0.04403 0.30176
#
# Static dielectric constant tensor:
#      x y z
#    x -2.921100 -1.790770 3.394670 
#    y -1.790770 1.357750 1.124760 
#    z 3.394670 1.124760 -1.571860 
# 
# From -- ./inp_files/150248.got.cif
#   From: 2010.05.17/outbox.cif.g08.bks.cpg/sg2_76_cif.got.tgz:150248.got - 2010.06.03 11:33:40.
