data_PCOD9071206
_publ_section_title
;
Structure prediction by ZEFSAII (Michael W. Deem and Ramdas Pophale) SiO2 
 PCOD9071206
Probable space group: P -1
;
_chemical_formula_sum "Si O2"
_cell_formula_units_Z 12
_cell_length_a 5.347006
_cell_length_b 18.106649
_cell_length_c 20.314445
_cell_angle_alpha 13.838535
_cell_angle_beta 83.910699
_cell_angle_gamma 85.263525
_cell_volume 466.042500
_symmetry_space_group_name_H-M "P -1"
_symmetry_group_IT_number 2
_symmetry_cell_setting 'triclinic'
loop_
_space_group_symop_operation_xyz
x,y,z
-x,-y,-z
loop_
_atom_site_type_symbol
_atom_site_label
_atom_site_fract_x
_atom_site_fract_y
_atom_site_fract_z
Si Si1 0.786177 0.082578 0.225317
Si Si2 0.507541 0.416900 0.252015
Si Si3 0.636307 0.652844 0.181101
Si Si4 0.052808 0.750820 0.388217
Si Si5 0.245285 0.821443 0.132407
Si Si6 0.077589 0.653355 0.795609
O O1 0.702662 0.856023 0.484124
O O2 0.922164 0.891570 0.333001
O O3 0.559957 0.235480 0.062556
O O4 0.943291 0.396131 0.972954
O O5 0.656342 0.462695 0.277486
O O6 0.642022 0.318789 0.266797
O O7 0.352280 0.750047 0.117549
O O8 0.734083 0.452147 0.411643
O O9 0.814101 0.966190 0.899698
O O10 0.852502 0.532874 0.540084
O O11 0.500000 0.000000 0.000000
O O12 0.000000 0.000000 0.000000
O O13 0.000000 0.000000 0.500000
O O14 0.000000 0.500000 0.000000
#
# Coordination Sequence:
#
# PCOD9071206 Si02
#       6
#     2   2   2   2   2   2
#     4  12  26  45  78 111 148 199 259 316 385 469
#     4  12  26  45  78 111 148 199 259 316 385 469
#     4  12  27  49  81 113 155 207 263 316 391 477
#     4  12  27  49  81 113 155 207 263 316 391 477
#     4  12  28  52  79 122 162 206 262 336 399 462
#     4  12  28  46  71 108 154 196 252 324 389 456
#
# _framework density 25.748726000000001
#
# number of rings (size 3 to 8) (size 9 to 14) (size 15 to 20)
#    0.000    0.000    5.000    4.000    2.333    5.333 
#    0.000    0.000    0.000    0.000    0.000    0.000 
#    0.000    0.000    0.000    0.000    0.000    0.000 
#
# Total GULP energy -67116.500328 kJ/mol
# GULP energy per Si atom -5593.041694 kJ/mol
# Density = 2.569012 g / cm^3
# Si number density = 25.748726 Si / 1000 Ang^3
#
#
#
# Elastic Constant Matrix: (Units=GPa)
#
#
# Indices 1 2 3 4 5 6 
#
# 1 103.3571 44.0283 57.1303 -12.4877 1.8920 -33.5976
# 2 44.0283 135.5416 50.2729 2.4738 4.2138 -40.3830
# 3 57.1303 50.2729 193.1353 -11.2423 -12.1870 -25.9480
# 4 -12.4877 2.4738 -11.2423 55.9002 3.6503 -11.3950
# 5 1.8920 4.2138 -12.1870 3.6503 56.2713 -8.2044
# 6 -33.5976 -40.3830 -25.9480 -11.3950 -8.2044 64.6288
#
#
#
# Elastic Compliance Matrix: (Units=1/GPa)
#
#
# Indices 1 2 3 4 5 6 
#
# 1 0.014418 -0.001995 -0.002758 0.003958 -0.000345 0.005795
# 2 -0.001995 0.009907 -0.001416 -0.000231 -0.000310 0.004505
# 3 -0.002758 -0.001416 0.006608 0.000806 0.001678 0.000689
# 4 0.003958 -0.000231 0.000806 0.020142 -0.000411 0.005737
# 5 -0.000345 -0.000310 0.001678 -0.000411 0.018573 0.002586
# 6 0.005795 0.004505 0.000689 0.005737 0.002586 0.022917
#
#
# Mechanical properties :
#
#
# Convention : Reuss Voigt Hill
#
# Bulk Modulus (GPa) = 53.78324 81.65520 67.71922
# Shear Modulus (GPa) = 45.00341 54.06688 49.53514
#
# Velocity S-wave (km/s) = 4.18520 4.58732 4.39086
# Velocity P-wave (km/s) = 6.65489 7.73558 7.21549
#
# Compressibility (1/GPa) = 0.01859315
#
# Stress axis : x y z
#
# Youngs Moduli (GPa) = 69.35665 100.93652 151.33760
#
# Poissons Ratio (x) = 0.20140 0.41744
# Poissons Ratio (y) = 0.13839 0.21435
# Poissons Ratio (z) = 0.19131 0.14297
#
# Static dielectric constant tensor:
#      x y z
#    x 2.152010 0.118040 0.009570 
#    y 0.118040 2.088530 -0.023410 
#    z 0.009570 -0.023410 1.965300 
# 
# From -- ./inp_files/120553.got.cif
#   From: 2010.05.17/outbox.cif.g08.bks.cpg/sg2_61_cif.got.tgz:120553.got - 2010.06.03 11:33:40.
