data_PCOD9071382
_publ_section_title
;
Structure prediction by ZEFSAII (Michael W. Deem and Ramdas Pophale) SiO2 
 PCOD9071382
Probable space group: P -1
;
_chemical_formula_sum "Si O2"
_cell_formula_units_Z 14
_cell_length_a 11.091342
_cell_length_b 11.902598
_cell_length_c 5.302032
_cell_angle_alpha 72.217106
_cell_angle_beta 58.022214
_cell_angle_gamma 63.684037
_cell_volume 529.902216
_symmetry_space_group_name_H-M "P -1"
_symmetry_group_IT_number 2
_symmetry_cell_setting 'triclinic'
loop_
_space_group_symop_operation_xyz
x,y,z
-x,-y,-z
loop_
_atom_site_type_symbol
_atom_site_label
_atom_site_fract_x
_atom_site_fract_y
_atom_site_fract_z
Si Si1 0.667429 0.422023 0.289011
Si Si2 0.379890 0.327999 0.078684
Si Si3 0.411456 0.109543 0.828374
Si Si4 0.101520 0.043983 0.157428
Si Si5 0.347522 0.819941 0.802600
Si Si6 0.037360 0.689975 0.725803
Si Si7 0.917049 0.639215 0.390205
O O1 0.500000 0.500000 0.500000
O O2 0.669549 0.289180 0.276848
O O3 0.787776 0.396325 0.397167
O O4 0.686834 0.522597 0.998691
O O5 0.553408 0.262638 0.019206
O O6 0.263847 0.306951 0.422826
O O7 0.368294 0.246947 0.907201
O O8 0.540558 0.110812 0.480682
O O9 0.255081 0.081034 0.992923
O O10 0.500000 0.000000 0.000000
O O11 0.984443 0.185169 0.169098
O O12 0.000000 0.000000 0.500000
O O13 0.182632 0.922822 0.975016
O O14 0.973916 0.715166 0.494995
O O15 0.955691 0.630338 0.059669
O O16 0.000000 0.500000 0.500000
#
# Coordination Sequence:
#
# PCOD9071382 Si02
#       7
#     2   2   2   2   2   2   2
#     4  12  29  49  79 116 159 215 278 339 415 494
#     4  12  26  48  83 112 160 208 274 338 412 498
#     4  12  26  51  79 117 158 212 276 333 419 500
#     4  12  30  50  82 118 167 215 279 348 418 494
#     4  12  29  51  82 116 162 223 273 341 416 509
#     4  12  30  51  78 119 166 213 278 339 422 488
#     4  12  27  49  82 118 163 214 269 346 419 495
#
# _framework density 26.419969999999999
#
# number of rings (size 3 to 8) (size 9 to 14) (size 15 to 20)
#    0.000    0.000    5.714    2.143   10.000    0.571 
#    0.000    0.000    0.000    0.000    0.000    0.000 
#    0.000    0.000    0.000    0.000    0.000    0.000 
#
# Total GULP energy -78113.353470 kJ/mol
# GULP energy per Si atom -5579.525248 kJ/mol
# Density = 2.635984 g / cm^3
# Si number density = 26.419970 Si / 1000 Ang^3
#
#
#
# Elastic Constant Matrix: (Units=GPa)
#
#
# Indices 1 2 3 4 5 6 
#
# 1 85.8547 32.4920 33.7568 10.9342 -2.3674 6.0566
# 2 32.4920 141.1764 30.9799 23.0896 -11.3960 2.7707
# 3 33.7568 30.9799 141.3004 15.9611 -29.2419 9.2485
# 4 10.9342 23.0896 15.9611 51.5992 -9.3812 -5.3149
# 5 -2.3674 -11.3960 -29.2419 -9.3812 37.7983 2.5957
# 6 6.0566 2.7707 9.2485 -5.3149 2.5957 51.0382
#
#
#
# Elastic Compliance Matrix: (Units=1/GPa)
#
#
# Indices 1 2 3 4 5 6 
#
# 1 0.013993 -0.002489 -0.003099 -0.001461 -0.002566 -0.000985
# 2 -0.002489 0.008367 -0.000647 -0.002841 0.001188 -0.000398
# 3 -0.003099 -0.000647 0.009620 -0.000953 0.006940 -0.001793
# 4 -0.001461 -0.002841 -0.000953 0.022188 0.003642 0.002626
# 5 -0.002566 0.001188 0.006940 0.003642 0.033086 -0.002321
# 6 -0.000985 -0.000398 -0.001793 0.002626 -0.002321 0.020448
#
#
# Mechanical properties :
#
#
# Convention : Reuss Voigt Hill
#
# Bulk Modulus (GPa) = 51.25504 62.53209 56.89356
# Shear Modulus (GPa) = 39.47096 46.16066 42.81581
#
# Velocity S-wave (km/s) = 3.86940 4.18447 4.03002
# Velocity P-wave (km/s) = 6.27736 6.86049 6.57539
#
# Compressibility (1/GPa) = 0.01951028
#
# Stress axis : x y z
#
# Youngs Moduli (GPa) = 71.46498 119.52253 103.94563
#
# Poissons Ratio (x) = 0.29754 0.32209
# Poissons Ratio (y) = 0.17791 0.06722
# Poissons Ratio (z) = 0.22145 0.07730
#
# Static dielectric constant tensor:
#      x y z
#    x 1.993570 -0.241600 0.456790 
#    y -0.241600 1.580420 0.755380 
#    z 0.456790 0.755380 1.049900 
# 
# From -- ./inp_files/68881.got.cif
#   From: 2010.05.17/outbox.cif.g08.bks.cpg/sg2_35_cif.got.tgz:68881.got - 2010.06.03 11:33:40.
