data_PCOD9071165
_publ_section_title
;
Structure prediction by ZEFSAII (Michael W. Deem and Ramdas Pophale) SiO2 
 PCOD9071165
Probable space group: P -1
;
_chemical_formula_sum "Si O2"
_cell_formula_units_Z 11
_cell_length_a 9.840919
_cell_length_b 5.569241
_cell_length_c 11.514593
_cell_angle_alpha 132.210110
_cell_angle_beta 51.348575
_cell_angle_gamma 122.258257
_cell_volume 357.868932
_symmetry_space_group_name_H-M "P -1"
_symmetry_group_IT_number 2
_symmetry_cell_setting 'triclinic'
loop_
_space_group_symop_operation_xyz
x,y,z
-x,-y,-z
loop_
_atom_site_type_symbol
_atom_site_label
_atom_site_fract_x
_atom_site_fract_y
_atom_site_fract_z
Si Si1 0.243394 0.826335 0.961501
Si Si2 0.312351 0.340556 0.599107
Si Si3 0.537914 0.607774 0.230448
Si Si4 0.000000 0.000000 0.500000
Si Si5 0.133181 0.480346 0.347300
Si Si6 0.863720 0.654119 0.927533
O O1 0.221884 0.633227 0.788658
O O2 0.443099 0.767508 0.866408
O O3 0.860414 0.421453 0.967813
O O4 0.174483 0.164668 0.136826
O O5 0.500000 0.500000 0.500000
O O6 0.355475 0.188271 0.652245
O O7 0.197816 0.170672 0.500158
O O8 0.333765 0.624009 0.329574
O O9 0.651845 0.698951 0.082316
O O10 0.981602 0.740714 0.557921
O O11 0.092131 0.628410 0.284837
O O12 0.000000 0.000000 0.000000
#
# Coordination Sequence:
#
# PCOD9071165 Si02
#       6
#     2   2   2   1   2   2
#     4   8  21  42  78 103 140 203 263 312 373 465
#     4   9  21  46  73 106 151 200 256 317 392 457
#     4   8  22  42  71 102 139 206 247 313 375 458
#     4  12  28  44  68 112 156 188 260 320 396 456
#     4  12  26  41  67 113 152 198 249 324 386 462
#     4   9  21  44  73 107 146 200 263 309 382 464
#
# _framework density 30.737508999999999
#
# number of rings (size 3 to 8) (size 9 to 14) (size 15 to 20)
#    2.182    0.000    0.000    1.636    5.091    1.455 
#    9.818    4.545    0.000    0.000    0.000    0.000 
#    0.000    0.000    0.000    0.000    0.000    0.000 
#
# Total GULP energy -61290.065628 kJ/mol
# GULP energy per Si atom -5571.824148 kJ/mol
# Density = 3.066755 g / cm^3
# Si number density = 30.737509 Si / 1000 Ang^3
#
#
#
# Elastic Constant Matrix: (Units=GPa)
#
#
# Indices 1 2 3 4 5 6 
#
# 1 252.8598 83.4586 88.4207 35.9072 -40.4102 13.2750
# 2 83.4586 139.5227 90.1224 17.3127 -16.4040 19.0614
# 3 88.4207 90.1224 316.8703 -11.1578 7.0590 23.5610
# 4 35.9072 17.3127 -11.1578 80.2783 4.0491 -11.1134
# 5 -40.4102 -16.4040 7.0590 4.0491 72.1595 19.3087
# 6 13.2750 19.0614 23.5610 -11.1134 19.3087 94.4585
#
#
#
# Elastic Compliance Matrix: (Units=1/GPa)
#
#
# Indices 1 2 3 4 5 6 
#
# 1 0.006042 -0.001878 -0.001240 -0.002818 0.003563 -0.001221
# 2 -0.001878 0.010729 -0.002507 -0.002216 0.002293 -0.002005
# 3 -0.001240 -0.002507 0.004305 0.001813 -0.001840 0.000196
# 4 -0.002818 -0.002216 0.001813 0.015053 -0.003896 0.002958
# 5 0.003563 0.002293 -0.001840 -0.003896 0.018016 -0.004646
# 6 -0.001221 -0.002005 0.000196 0.002958 -0.004646 0.012412
#
#
# Mechanical properties :
#
#
# Convention : Reuss Voigt Hill
#
# Bulk Modulus (GPa) = 101.77321 137.02845 119.40083
# Shear Modulus (GPa) = 61.66596 79.19601 70.43098
#
# Velocity S-wave (km/s) = 4.48393 5.08146 4.79202
# Velocity P-wave (km/s) = 7.74531 8.89411 8.33952
#
# Compressibility (1/GPa) = 0.00982577
#
# Stress axis : x y z
#
# Youngs Moduli (GPa) = 165.51579 93.20775 232.27724
#
# Poissons Ratio (x) = 0.17503 0.28794
# Poissons Ratio (y) = 0.31082 0.58241
# Poissons Ratio (z) = 0.20518 0.23371
#
# Static dielectric constant tensor:
#      x y z
#    x 4.158900 -0.204260 -0.183320 
#    y -0.204260 2.451790 0.152460 
#    z -0.183320 0.152460 2.571770 
# 
# From -- ./inp_files/413601.got.cif
#   From: 2010.05.17/outbox.cif.g08.bks.cpg/sg2_207_cif.got.tgz:413601.got - 2010.06.03 11:33:40.
