data_PCOD9071697
_publ_section_title
;
Structure prediction by ZEFSAII (Michael W. Deem and Ramdas Pophale) SiO2 
 PCOD9071697
Probable space group: P -1
;
_chemical_formula_sum "Si O2"
_cell_formula_units_Z 14
_cell_length_a 7.664446
_cell_length_b 23.040685
_cell_length_c 10.069143
_cell_angle_alpha 29.983765
_cell_angle_beta 41.252908
_cell_angle_gamma 41.337698
_cell_volume 558.526383
_symmetry_space_group_name_H-M "P -1"
_symmetry_group_IT_number 2
_symmetry_cell_setting 'triclinic'
loop_
_space_group_symop_operation_xyz
x,y,z
-x,-y,-z
loop_
_atom_site_type_symbol
_atom_site_label
_atom_site_fract_x
_atom_site_fract_y
_atom_site_fract_z
Si Si1 0.202637 0.878603 0.399953
Si Si2 0.023272 0.332983 0.820079
Si Si3 0.790987 0.520685 0.373800
Si Si4 0.174071 0.647693 0.535180
Si Si5 0.835026 0.904468 0.319018
Si Si6 0.438142 0.623323 0.715190
Si Si7 0.683345 0.942730 0.821361
O O1 0.336803 0.739066 0.641074
O O2 0.936045 0.878500 0.464594
O O3 0.165354 0.981406 0.326450
O O4 0.440736 0.908171 0.112882
O O5 0.034766 0.398280 0.823212
O O6 0.287873 0.356561 0.547094
O O7 0.785304 0.414754 0.696213
O O8 0.103860 0.188332 0.073594
O O9 0.481700 0.617407 0.350409
O O10 0.918188 0.449569 0.307730
O O11 0.243524 0.626896 0.691798
O O12 0.962702 0.785074 0.388339
O O13 0.509497 0.967915 0.355008
O O14 0.000000 0.000000 0.000000
O O15 0.500000 0.500000 0.000000
#
# Coordination Sequence:
#
# PCOD9071697 Si02
#       7
#     2   2   2   2   2   2   2
#     4   8  16  26  41  67  92 123 147 186 246 280
#     4   9  18  30  47  72  98 122 157 194 236 292
#     4   9  17  30  45  66  99 125 154 194 237 278
#     4   9  18  29  45  69  96 123 156 194 235 291
#     4   9  16  25  42  67  99 120 144 193 245 290
#     4   9  17  31  46  66  98 128 157 192 234 287
#     4   9  16  27  45  71  96 120 150 196 254 283
#
# _framework density 25.065958999999999
#
# number of rings (size 3 to 8) (size 9 to 14) (size 15 to 20)
#    0.000    3.143    0.000    2.571    8.000    0.000 
#    0.000    0.714    0.000    0.000    0.000   10.000 
#    0.000    2.286    0.000    0.000    0.000    0.000 
#
# Total GULP energy -78103.880556 kJ/mol
# GULP energy per Si atom -5578.848611 kJ/mol
# Density = 2.500891 g / cm^3
# Si number density = 25.065959 Si / 1000 Ang^3
#
#
#
# Elastic Constant Matrix: (Units=GPa)
#
#
# Indices 1 2 3 4 5 6 
#
# 1 103.6706 49.7012 32.1854 -34.4339 -4.3056 15.3357
# 2 49.7012 178.7515 52.1210 -49.7917 -12.0701 18.9401
# 3 32.1854 52.1210 113.9029 -50.7673 -3.8726 2.8233
# 4 -34.4339 -49.7917 -50.7673 51.9196 1.6191 -8.9989
# 5 -4.3056 -12.0701 -3.8726 1.6191 29.1231 -7.7657
# 6 15.3357 18.9401 2.8233 -8.9989 -7.7657 37.0080
#
#
#
# Elastic Compliance Matrix: (Units=1/GPa)
#
#
# Indices 1 2 3 4 5 6 
#
# 1 0.013016 -0.001412 0.000106 0.006861 0.000179 -0.002973
# 2 -0.001412 0.008140 -0.000532 0.006001 0.002336 -0.001591
# 3 0.000106 -0.000532 0.015959 0.015664 0.001905 0.003220
# 4 0.006861 0.006001 0.015664 0.045594 0.004354 0.004891
# 5 0.000179 0.002336 0.001905 0.004354 0.037337 0.007478
# 6 -0.002973 -0.001591 0.003220 0.004891 0.007478 0.031580
#
#
# Mechanical properties :
#
#
# Convention : Reuss Voigt Hill
#
# Bulk Modulus (GPa) = 29.90472 73.81560 51.86016
# Shear Modulus (GPa) = 30.03916 41.09796 35.56856
#
# Velocity S-wave (km/s) = 3.46555 4.05358 3.77105
# Velocity P-wave (km/s) = 5.28864 7.17086 6.30043
#
# Compressibility (1/GPa) = 0.03343954
#
# Stress axis : x y z
#
# Youngs Moduli (GPa) = 76.82828 122.84999 62.65909
#
# Poissons Ratio (x) = 0.17341 -0.00664
# Poissons Ratio (y) = 0.10845 0.03336
# Poissons Ratio (z) = -0.00814 0.06540
#
# Static dielectric constant tensor:
#      x y z
#    x 2.113850 -0.050690 0.045740 
#    y -0.050690 2.111970 0.072910 
#    z 0.045740 0.072910 2.001710 
# 
# From -- ./inp_files/265913.got.cif
#   From: 2010.05.17/outbox.cif.g08.bks.cpg/sg2_133_cif.got.tgz:265913.got - 2010.06.03 11:33:40.
