data_PCOD9071095
_publ_section_title
;
Structure prediction by ZEFSAII (Michael W. Deem and Ramdas Pophale) SiO2 
 PCOD9071095
Probable space group: P -1
;
_chemical_formula_sum "Si O2"
_cell_formula_units_Z 14
_cell_length_a 8.805798
_cell_length_b 8.667303
_cell_length_c 18.277084
_cell_angle_alpha 30.806550
_cell_angle_beta 120.253184
_cell_angle_gamma 114.299145
_cell_volume 616.403920
_symmetry_space_group_name_H-M "P -1"
_symmetry_group_IT_number 2
_symmetry_cell_setting 'triclinic'
loop_
_space_group_symop_operation_xyz
x,y,z
-x,-y,-z
loop_
_atom_site_type_symbol
_atom_site_label
_atom_site_fract_x
_atom_site_fract_y
_atom_site_fract_z
Si Si1 0.988569 0.358145 0.858711
Si Si2 0.389235 0.344515 0.972305
Si Si3 0.499807 0.337950 0.714157
Si Si4 0.890416 0.679285 0.837634
Si Si5 0.252700 0.270508 0.463682
Si Si6 0.119533 0.216173 0.618766
Si Si7 0.498139 0.700579 0.716896
O O1 0.872050 0.432460 0.870856
O O2 0.899996 0.559872 0.690849
O O3 0.186091 0.452831 0.883272
O O4 0.000000 0.000000 0.000000
O O5 0.396622 0.983967 0.123960
O O6 0.500000 0.500000 0.000000
O O7 0.460800 0.443507 0.871232
O O8 0.585969 0.507956 0.597775
O O9 0.302673 0.241467 0.694463
O O10 0.503578 0.562463 0.693088
O O11 0.689777 0.811162 0.744745
O O12 0.010146 0.935033 0.731097
O O13 0.000000 0.500000 0.000000
O O14 0.173598 0.223298 0.543738
O O15 0.340713 0.956265 0.582323
O O16 0.000000 0.500000 0.500000
#
# Coordination Sequence:
#
# PCOD9071095 Si02
#       7
#     2   2   2   2   2   2   2
#     4  12  26  48  77 109 145 200 252 305 373 444
#     4  12  26  47  74 109 152 202 251 305 371 446
#     4  12  25  50  74 111 149 201 246 305 377 446
#     4  12  27  49  75 111 152 196 249 304 368 444
#     4  12  27  50  78 107 153 196 249 312 380 444
#     4  12  30  47  76 113 149 193 248 310 377 444
#     4  12  26  48  77 109 153 196 253 308 372 446
#
# _framework density 22.71238
#
# number of rings (size 3 to 8) (size 9 to 14) (size 15 to 20)
#    0.000    0.000    2.857    6.429    6.000    2.286 
#    0.000    0.000    0.000    0.000    0.000    0.000 
#    0.000    0.000    0.000    0.000    0.000    0.000 
#
# Total GULP energy -78315.729927 kJ/mol
# GULP energy per Si atom -5593.980709 kJ/mol
# Density = 2.266069 g / cm^3
# Si number density = 22.712380 Si / 1000 Ang^3
#
#
#
# Elastic Constant Matrix: (Units=GPa)
#
#
# Indices 1 2 3 4 5 6 
#
# 1 96.8597 36.5467 47.3190 -4.1508 18.8501 -13.3472
# 2 36.5467 97.8640 68.5777 -3.9904 9.8118 -11.7577
# 3 47.3190 68.5777 147.2670 -12.5651 5.2554 -20.3472
# 4 -4.1508 -3.9904 -12.5651 43.8819 6.4842 4.0668
# 5 18.8501 9.8118 5.2554 6.4842 58.1700 11.1050
# 6 -13.3472 -11.7577 -20.3472 4.0668 11.1050 38.6591
#
#
#
# Elastic Compliance Matrix: (Units=1/GPa)
#
#
# Indices 1 2 3 4 5 6 
#
# 1 0.014013 -0.002435 -0.002584 0.000692 -0.004743 0.004027
# 2 -0.002435 0.015918 -0.006475 -0.000521 -0.001456 0.001066
# 3 -0.002584 -0.006475 0.011191 0.002092 0.000158 0.002763
# 4 0.000692 -0.000521 0.002092 0.023879 -0.002892 -0.000500
# 5 -0.004743 -0.001456 0.000158 -0.002892 0.020742 -0.007651
# 6 0.004027 0.001066 0.002763 -0.000500 -0.007651 0.031286
#
#
# Mechanical properties :
#
#
# Convention : Reuss Voigt Hill
#
# Bulk Modulus (GPa) = 55.14808 71.87529 63.51168
# Shear Modulus (GPa) = 34.23216 40.77869 37.50543
#
# Velocity S-wave (km/s) = 3.88648 4.24186 4.06805
# Velocity P-wave (km/s) = 6.66884 7.46363 7.07740
#
# Compressibility (1/GPa) = 0.01813300
#
# Stress axis : x y z
#
# Youngs Moduli (GPa) = 71.36333 62.82242 89.36036
#
# Poissons Ratio (x) = 0.15295 0.23092
# Poissons Ratio (y) = 0.17375 0.57864
# Poissons Ratio (z) = 0.18441 0.40680
#
# Static dielectric constant tensor:
#      x y z
#    x 1.877840 0.056570 0.101900 
#    y 0.056570 1.870560 0.063910 
#    z 0.101900 0.063910 1.953690 
# 
# From -- ./inp_files/184432.got.cif
#   From: 2010.05.17/outbox.cif.g08.bks.cpg/sg2_93_cif.got.tgz:184432.got - 2010.06.03 11:33:40.
