data_PCOD9071415
_publ_section_title
;
Structure prediction by ZEFSAII (Michael W. Deem and Ramdas Pophale) SiO2 
 PCOD9071415
Probable space group: P -1
;
_chemical_formula_sum "Si O2"
_cell_formula_units_Z 16
_cell_length_a 18.264175
_cell_length_b 8.666829
_cell_length_c 8.983837
_cell_angle_alpha 88.764521
_cell_angle_beta 150.513894
_cell_angle_gamma 94.110472
_cell_volume 695.742896
_symmetry_space_group_name_H-M "P -1"
_symmetry_group_IT_number 2
_symmetry_cell_setting 'triclinic'
loop_
_space_group_symop_operation_xyz
x,y,z
-x,-y,-z
loop_
_atom_site_type_symbol
_atom_site_label
_atom_site_fract_x
_atom_site_fract_y
_atom_site_fract_z
Si Si1 0.972228 0.135090 0.277935
Si Si2 0.041949 0.354317 0.661541
Si Si3 0.932829 0.654954 0.815082
Si Si4 0.401920 0.897581 0.711857
Si Si5 0.644832 0.605834 0.804628
Si Si6 0.393015 0.381996 0.915622
Si Si7 0.090933 0.846924 0.329146
Si Si8 0.650877 0.956664 0.698428
O O1 0.049949 0.213128 0.560651
O O2 0.968322 0.273878 0.150008
O O3 0.061947 0.005671 0.358099
O O4 0.805866 0.055297 0.019209
O O5 0.000000 0.500000 0.500000
O O6 0.921187 0.287589 0.566981
O O7 0.202244 0.421460 0.007255
O O8 0.762694 0.642404 0.453011
O O9 0.000000 0.500000 0.000000
O O10 0.956406 0.789138 0.980112
O O11 0.243493 0.847511 0.510283
O O12 0.365928 0.001777 0.505440
O O13 0.504171 0.758319 0.866403
O O14 0.500000 0.000000 0.000000
O O15 0.500000 0.500000 0.500000
O O16 0.643708 0.781623 0.745319
O O17 0.654764 0.577924 0.000910
O O18 0.500000 0.500000 0.000000
O O19 0.500000 0.000000 0.500000
#
# Coordination Sequence:
#
# PCOD9071415 Si02
#       8
#     2   2   2   2   2   2   2   2
#     4  12  26  49  79 111 156 206 276 323 390 469
#     4  12  29  48  79 114 156 209 266 325 392 472
#     4  12  26  49  79 115 161 206 264 323 395 467
#     4  12  29  46  77 116 154 202 259 320 395 469
#     4  12  30  53  80 114 160 208 261 325 402 476
#     4  12  29  49  78 114 162 206 260 327 396 468
#     4  12  27  48  79 112 154 209 263 329 389 467
#     4  12  28  51  78 113 158 209 260 330 398 469
#
# _framework density 22.997001999999998
#
# number of rings (size 3 to 8) (size 9 to 14) (size 15 to 20)
#    0.000    0.000    5.000    3.000   10.500    0.000 
#    0.000    0.000    0.000    0.000    0.000    0.000 
#    0.000    0.000    0.000    0.000    0.000    0.000 
#
# Total GULP energy -89406.770713 kJ/mol
# GULP energy per Si atom -5587.923170 kJ/mol
# Density = 2.294466 g / cm^3
# Si number density = 22.997002 Si / 1000 Ang^3
#
#
#
# Elastic Constant Matrix: (Units=GPa)
#
#
# Indices 1 2 3 4 5 6 
#
# 1 132.6751 41.5150 42.5869 7.7870 4.0545 38.9166
# 2 41.5150 86.5706 55.5705 1.0715 9.2643 38.9433
# 3 42.5869 55.5705 153.6093 16.9566 11.8950 16.0533
# 4 7.7870 1.0715 16.9566 47.9932 0.6670 -2.2045
# 5 4.0545 9.2643 11.8950 0.6670 50.5869 -0.9697
# 6 38.9166 38.9433 16.0533 -2.2045 -0.9697 55.1105
#
#
#
# Elastic Compliance Matrix: (Units=1/GPa)
#
#
# Indices 1 2 3 4 5 6 
#
# 1 0.010274 -0.001089 -0.001647 -0.001335 -0.000335 -0.006065
# 2 -0.001089 0.022351 -0.006341 0.001352 -0.002785 -0.013173
# 3 -0.001647 -0.006341 0.009334 -0.002749 -0.000812 0.002801
# 4 -0.001335 0.001352 -0.002749 0.022067 0.000247 0.001675
# 5 -0.000335 -0.002785 -0.000812 0.000247 0.020546 0.002813
# 6 -0.006065 -0.013173 0.002801 0.001675 0.002813 0.031038
#
#
# Mechanical properties :
#
#
# Convention : Reuss Voigt Hill
#
# Bulk Modulus (GPa) = 42.00685 72.46664 57.23674
# Shear Modulus (GPa) = 35.28587 46.28363 40.78475
#
# Velocity S-wave (km/s) = 3.92135 4.49106 4.21584
# Velocity P-wave (km/s) = 6.22965 7.64674 6.97428
#
# Compressibility (1/GPa) = 0.02380564
#
# Stress axis : x y z
#
# Youngs Moduli (GPa) = 97.32948 44.74143 107.13252
#
# Poissons Ratio (x) = 0.04871 0.17650
# Poissons Ratio (y) = 0.10596 0.67929
# Poissons Ratio (z) = 0.16035 0.28369
#
# Static dielectric constant tensor:
#      x y z
#    x 1.882180 -0.063980 0.023470 
#    y -0.063980 1.883140 -0.034990 
#    z 0.023470 -0.034990 1.938490 
# 
# From -- ./inp_files/329088.got.cif
#   From: 2010.05.17/outbox.cif.g08.bks.cpg/sg2_165_cif.got.tgz:329088.got - 2010.06.03 11:33:40.
