data_PCOD9071115
_publ_section_title
;
Structure prediction by ZEFSAII (Michael W. Deem and Ramdas Pophale) SiO2 
 PCOD9071115
Probable space group: P -1
;
_chemical_formula_sum "Si O2"
_cell_formula_units_Z 16
_cell_length_a 10.616760
_cell_length_b 4.970476
_cell_length_c 24.268549
_cell_angle_alpha 104.470317
_cell_angle_beta 149.433239
_cell_angle_gamma 85.456825
_cell_volume 606.100443
_symmetry_space_group_name_H-M "P -1"
_symmetry_group_IT_number 2
_symmetry_cell_setting 'triclinic'
loop_
_space_group_symop_operation_xyz
x,y,z
-x,-y,-z
loop_
_atom_site_type_symbol
_atom_site_label
_atom_site_fract_x
_atom_site_fract_y
_atom_site_fract_z
Si Si1 0.096285 0.532898 0.788845
Si Si2 0.487378 0.585395 0.436282
Si Si3 0.172610 0.171323 0.892349
Si Si4 0.956683 0.363422 0.351516
Si Si5 0.594214 0.012123 0.690244
Si Si6 0.665453 0.117650 0.845622
Si Si7 0.069416 0.028336 0.462886
Si Si8 0.284310 0.282114 0.063010
O O1 0.790780 0.349986 0.666330
O O2 0.239612 0.338372 0.868097
O O3 0.146283 0.635593 0.749195
O O4 0.149921 0.834525 0.857690
O O5 0.500000 0.500000 0.500000
O O6 0.790112 0.765455 0.558780
O O7 0.447159 0.294327 0.370464
O O8 0.886182 0.195369 0.799611
O O9 0.320249 0.273357 0.010441
O O10 0.023271 0.699796 0.408356
O O11 0.872632 0.184266 0.366995
O O12 0.565165 0.978354 0.742620
O O13 0.386897 0.158650 0.593659
O O14 0.593170 0.411091 0.846639
O O15 0.617000 0.942296 0.875244
O O16 0.977552 0.203097 0.956549
O O17 0.000000 0.000000 0.500000
#
# Coordination Sequence:
#
# PCOD9071115 Si02
#       8
#     2   2   2   2   2   2   2   2
#     4  10  18  29  47  71  97 127 157 187 230 290
#     4   8  16  29  46  68  95 126 158 191 229 279
#     4  10  18  29  47  72 102 129 156 185 230 289
#     4  10  20  34  49  68  95 124 159 200 240 277
#     4   9  19  31  48  70  97 132 165 195 232 280
#     4   9  17  28  43  63  93 129 160 186 225 273
#     4  11  22  36  51  68  94 127 166 206 239 268
#     4   9  17  28  42  65  96 127 153 187 225 274
#
# _framework density 26.398268000000002
#
# number of rings (size 3 to 8) (size 9 to 14) (size 15 to 20)
#    0.000    2.500    0.000    2.625    0.000    8.000 
#    0.000    7.500    0.000    0.000    0.000    0.000 
#    0.000   20.000    0.000    0.500    0.000    0.000 
#
# Total GULP energy -89250.565592 kJ/mol
# GULP energy per Si atom -5578.160349 kJ/mol
# Density = 2.633818 g / cm^3
# Si number density = 26.398268 Si / 1000 Ang^3
#
#
#
# Elastic Constant Matrix: (Units=GPa)
#
#
# Indices 1 2 3 4 5 6 
#
# 1 31.1993 -11.3508 74.9779 24.0889 -4.8606 37.1996
# 2 -11.3508 91.1589 53.5679 -6.4212 -14.7983 26.5868
# 3 74.9779 53.5679 136.7215 -30.2202 -37.8155 -25.2041
# 4 24.0889 -6.4212 -30.2202 28.0076 -13.1361 -31.0875
# 5 -4.8606 -14.7983 -37.8155 -13.1361 55.6025 -8.0352
# 6 37.1996 26.5868 -25.2041 -31.0875 -8.0352 1.5043
#
#
#
# Elastic Compliance Matrix: (Units=1/GPa)
#
#
# Indices 1 2 3 4 5 6 
#
# 1 0.009215 -0.001559 0.000922 0.008309 0.004723 0.012055
# 2 -0.001559 0.011888 -0.000515 0.007582 0.004711 0.001677
# 3 0.000922 -0.000515 0.004944 -0.004042 0.001177 -0.008125
# 4 0.008309 0.007582 -0.004042 0.018488 0.003198 -0.008061
# 5 0.004723 0.004711 0.001177 0.003198 0.020590 -0.004277
# 6 0.012055 0.001677 -0.008125 -0.008061 -0.004277 0.011438
#
#
# Mechanical properties :
#
#
# Convention : Reuss Voigt Hill
#
# Bulk Modulus (GPa) = 42.11335 54.82998 48.47167
# Shear Modulus (GPa) = 57.61758 26.48186 42.04972
#
# Velocity S-wave (km/s) = 4.67693 3.17072 3.99544
# Velocity P-wave (km/s) = 6.71957 5.84978 6.29970
#
# Compressibility (1/GPa) = 0.02374544
#
# Stress axis : x y z
#
# Youngs Moduli (GPa) = 108.51812 84.11918 202.25370
#
# Poissons Ratio (x) = 0.13111 -0.18655
# Poissons Ratio (y) = 0.16914 0.10409
# Poissons Ratio (z) = -0.10009 0.04329
#
# Static dielectric constant tensor:
#      x y z
#    x 3.021480 0.559140 0.212680 
#    y 0.559140 2.230860 0.051390 
#    z 0.212680 0.051390 2.068520 
# 
# From -- ./inp_files/93691.got.cif
#   From: 2010.05.17/outbox.cif.g08.bks.cpg/sg2_47_cif.got.tgz:93691.got - 2010.06.03 11:33:40.
