data_PCOD9071030
_publ_section_title
;
Structure prediction by ZEFSAII (Michael W. Deem and Ramdas Pophale) SiO2 
 PCOD9071030
Probable space group: P -1
;
_chemical_formula_sum "Si O2"
_cell_formula_units_Z 16
_cell_length_a 9.678781
_cell_length_b 12.796199
_cell_length_c 6.809906
_cell_angle_alpha 90.676208
_cell_angle_beta 131.655269
_cell_angle_gamma 87.230371
_cell_volume 629.196439
_symmetry_space_group_name_H-M "P -1"
_symmetry_group_IT_number 2
_symmetry_cell_setting 'triclinic'
loop_
_space_group_symop_operation_xyz
x,y,z
-x,-y,-z
loop_
_atom_site_type_symbol
_atom_site_label
_atom_site_fract_x
_atom_site_fract_y
_atom_site_fract_z
Si Si1 0.848443 0.743820 0.905468
Si Si2 0.720795 0.402482 0.033494
Si Si3 0.679955 0.607522 0.245960
Si Si4 0.546619 0.926168 0.732509
Si Si5 0.845438 0.127425 0.689589
Si Si6 0.032211 0.245251 0.437431
Si Si7 0.718961 0.521185 0.691453
Si Si8 0.146653 0.943089 0.867221
O O1 0.685543 0.829984 0.801292
O O2 0.776444 0.628661 0.844774
O O3 0.895021 0.761779 0.719984
O O4 0.027686 0.773150 0.202916
O O5 0.676424 0.518967 0.076800
O O6 0.870058 0.335087 0.292863
O O7 0.522248 0.353126 0.865382
O O8 0.799705 0.422417 0.890206
O O9 0.767546 0.540346 0.511575
O O10 0.792516 0.706439 0.293173
O O11 0.350846 0.880613 0.601349
O O12 0.500000 0.000000 0.500000
O O13 0.669693 0.993958 0.997684
O O14 0.805090 0.120816 0.887521
O O15 0.979774 0.025925 0.768161
O O16 0.938270 0.135284 0.371196
O O17 0.500000 0.500000 0.500000
#
# Coordination Sequence:
#
# PCOD9071030 Si02
#       8
#     2   2   2   2   2   2   2   2
#     4   9  18  28  41  69  99 126 166 205 240 294
#     4  10  20  35  52  71 102 140 166 202 256 292
#     4   9  20  35  50  72 101 132 173 210 242 296
#     4   9  15  25  42  63  96 132 158 200 254 293
#     4   8  14  25  40  61  96 129 156 202 250 290
#     4  10  18  29  47  70 100 132 167 209 247 294
#     4   9  19  34  52  74 103 134 167 209 246 290
#     4   8  15  24  38  66  94 122 162 203 243 294
#
# _framework density 25.429261
#
# number of rings (size 3 to 8) (size 9 to 14) (size 15 to 20)
#    0.000    3.000    0.000    2.625    0.000   12.000 
#    0.000    1.250    0.000    0.000    0.000    3.500 
#    0.000   86.000    0.000    7.125    0.000    0.000 
#
# Total GULP energy -89377.858355 kJ/mol
# GULP energy per Si atom -5586.116147 kJ/mol
# Density = 2.537138 g / cm^3
# Si number density = 25.429261 Si / 1000 Ang^3
#
#
#
# Elastic Constant Matrix: (Units=GPa)
#
#
# Indices 1 2 3 4 5 6 
#
# 1 102.6141 44.3557 41.7500 10.8596 31.5869 18.7015
# 2 44.3557 66.8039 37.3701 20.7230 25.8149 7.4899
# 3 41.7500 37.3701 126.8305 34.6371 44.7588 0.8713
# 4 10.8596 20.7230 34.6371 53.2977 18.4792 4.7511
# 5 31.5869 25.8149 44.7588 18.4792 51.0609 3.0137
# 6 18.7015 7.4899 0.8713 4.7511 3.0137 28.7710
#
#
#
# Elastic Compliance Matrix: (Units=1/GPa)
#
#
# Indices 1 2 3 4 5 6 
#
# 1 0.017084 -0.008193 -0.002355 0.003848 -0.005224 -0.008989
# 2 -0.008193 0.024505 -0.001655 -0.005453 -0.003915 0.000307
# 3 -0.002355 -0.001655 0.013211 -0.005103 -0.007630 0.003203
# 4 0.003848 -0.005453 -0.005103 0.025219 -0.004001 -0.004672
# 5 -0.005224 -0.003915 -0.007630 -0.004001 0.032821 0.001868
# 6 -0.008989 0.000307 0.003203 -0.004672 0.001868 0.040999
#
#
# Mechanical properties :
#
#
# Convention : Reuss Voigt Hill
#
# Bulk Modulus (GPa) = 32.90062 60.35555 46.62809
# Shear Modulus (GPa) = 26.54271 38.14410 32.34341
#
# Velocity S-wave (km/s) = 3.23427 3.87720 3.57024
# Velocity P-wave (km/s) = 5.18783 6.62040 5.94741
#
# Compressibility (1/GPa) = 0.03039456
#
# Stress axis : x y z
#
# Youngs Moduli (GPa) = 58.53455 40.80878 75.69178
#
# Poissons Ratio (x) = 0.33434 0.17828
# Poissons Ratio (y) = 0.47956 0.12524
# Poissons Ratio (z) = 0.13787 0.06752
#
# Static dielectric constant tensor:
#      x y z
#    x 2.070920 0.067650 -0.064390 
#    y 0.067650 1.944750 0.024620 
#    z -0.064390 0.024620 2.093810 
# 
# From -- ./inp_files/270776.got.cif
#   From: 2010.05.17/outbox.cif.g08.bks.cpg/sg2_136_cif.got.tgz:270776.got - 2010.06.03 11:33:40.
