data_PCOD9071122
_publ_section_title
;
Structure prediction by ZEFSAII (Michael W. Deem and Ramdas Pophale) SiO2 
 PCOD9071122
Probable space group: P -1
;
_chemical_formula_sum "Si O2"
_cell_formula_units_Z 11
_cell_length_a 12.495221
_cell_length_b 7.583793
_cell_length_c 8.275889
_cell_angle_alpha 118.365295
_cell_angle_beta 34.684612
_cell_angle_gamma 109.450666
_cell_volume 390.080101
_symmetry_space_group_name_H-M "P -1"
_symmetry_group_IT_number 2
_symmetry_cell_setting 'triclinic'
loop_
_space_group_symop_operation_xyz
x,y,z
-x,-y,-z
loop_
_atom_site_type_symbol
_atom_site_label
_atom_site_fract_x
_atom_site_fract_y
_atom_site_fract_z
Si Si1 0.319054 0.897948 0.233117
Si Si2 0.738099 0.115466 0.054299
Si Si3 0.189606 0.358903 0.248153
Si Si4 0.500000 0.500000 0.000000
Si Si5 0.608557 0.645046 0.315714
Si Si6 0.954834 0.818943 0.093401
O O1 0.170927 0.071623 0.561541
O O2 0.242898 0.815356 0.123320
O O3 0.373663 0.725951 0.218951
O O4 0.500000 0.000000 0.000000
O O5 0.500000 0.500000 0.500000
O O6 0.521269 0.145936 0.395917
O O7 0.849275 0.250801 0.092973
O O8 0.000000 0.500000 0.500000
O O9 0.182670 0.121318 0.138993
O O10 0.299189 0.415833 0.294088
O O11 0.374262 0.402133 0.919271
O O12 0.824092 0.671992 0.105134
O O13 0.000000 0.000000 0.000000
#
# Coordination Sequence:
#
# PCOD9071122 Si02
#       6
#     2   2   2   1   2   2
#     4  12  25  50  79 116 157 215 260 331 404 476
#     4  12  26  51  82 112 166 205 273 326 400 475
#     4  12  27  46  81 117 156 211 269 325 398 482
#     4  12  26  46  78 108 162 204 262 322 408 468
#     4  12  28  50  76 119 159 210 267 331 398 474
#     4  12  27  49  82 113 157 212 265 326 402 474
#
# _framework density 28.199341
#
# number of rings (size 3 to 8) (size 9 to 14) (size 15 to 20)
#    0.000    0.000    5.455    3.273    2.545    2.182 
#    0.000    0.000    0.000    0.000    0.000    0.000 
#    0.000    0.000    0.000    0.000    0.000    0.000 
#
# Total GULP energy -61509.384346 kJ/mol
# GULP energy per Si atom -5591.762213 kJ/mol
# Density = 2.813516 g / cm^3
# Si number density = 28.199341 Si / 1000 Ang^3
#
#
#
# Elastic Constant Matrix: (Units=GPa)
#
#
# Indices 1 2 3 4 5 6 
#
# 1 161.0987 46.0695 20.0575 -6.2539 -14.2496 17.6392
# 2 46.0695 165.1383 18.9451 -4.2515 -7.5095 -9.0669
# 3 20.0575 18.9451 115.8130 1.4192 5.6448 -7.1008
# 4 -6.2539 -4.2515 1.4192 50.5836 -6.8962 -8.3433
# 5 -14.2496 -7.5095 5.6448 -6.8962 63.0513 -8.3599
# 6 17.6392 -9.0669 -7.1008 -8.3433 -8.3599 67.3997
#
#
#
# Elastic Compliance Matrix: (Units=1/GPa)
#
#
# Indices 1 2 3 4 5 6 
#
# 1 0.007265 -0.001933 -0.001139 0.000609 0.001309 -0.002044
# 2 -0.001933 0.006813 -0.000730 0.000703 0.000719 0.001522
# 3 -0.001139 -0.000730 0.009068 -0.000444 -0.001077 0.000967
# 4 0.000609 0.000703 -0.000444 0.020778 0.002908 0.002821
# 5 0.001309 0.000719 -0.001077 0.002908 0.016935 0.002101
# 6 -0.002044 0.001522 0.000967 0.002821 0.002101 0.016288
#
#
# Mechanical properties :
#
#
# Convention : Reuss Voigt Hill
#
# Bulk Modulus (GPa) = 64.33787 68.02155 66.17971
# Shear Modulus (GPa) = 55.59788 60.00544 57.80166
#
# Velocity S-wave (km/s) = 4.44509 4.61792 4.53233
# Velocity P-wave (km/s) = 7.01498 7.25311 7.13504
#
# Compressibility (1/GPa) = 0.01554295
#
# Stress axis : x y z
#
# Youngs Moduli (GPa) = 137.64287 146.78020 110.27303
#
# Poissons Ratio (x) = 0.28375 0.12556
# Poissons Ratio (y) = 0.26609 0.08050
# Poissons Ratio (z) = 0.15672 0.10715
#
# Static dielectric constant tensor:
#      x y z
#    x 3.265780 0.277580 0.109030 
#    y 0.277580 2.300390 0.030090 
#    z 0.109030 0.030090 2.206570 
# 
# From -- ./inp_files/241184.got.cif
#   From: 2010.05.17/outbox.cif.g08.bks.cpg/sg2_121_cif.got.tgz:241184.got - 2010.06.03 11:33:40.
