data_PCOD9071238
_publ_section_title
;
Structure prediction by ZEFSAII (Michael W. Deem and Ramdas Pophale) SiO2 
 PCOD9071238
Probable space group: P -1
;
_chemical_formula_sum "Si O2"
_cell_formula_units_Z 14
_cell_length_a 21.829576
_cell_length_b 5.320541
_cell_length_c 21.835522
_cell_angle_alpha 90.202745
_cell_angle_beta 13.165710
_cell_angle_gamma 90.131079
_cell_volume 577.629510
_symmetry_space_group_name_H-M "P -1"
_symmetry_group_IT_number 2
_symmetry_cell_setting 'triclinic'
loop_
_space_group_symop_operation_xyz
x,y,z
-x,-y,-z
loop_
_atom_site_type_symbol
_atom_site_label
_atom_site_fract_x
_atom_site_fract_y
_atom_site_fract_z
Si Si1 0.932736 0.227071 0.259794
Si Si2 0.271863 0.985618 0.353856
Si Si3 0.079805 0.749067 0.959048
Si Si4 0.631003 0.858690 0.484882
Si Si5 0.726842 0.517506 0.728073
Si Si6 0.446702 0.521916 0.772500
Si Si7 0.204165 0.886600 0.092389
O O1 0.731188 0.380752 0.500017
O O2 0.735980 0.139886 0.396636
O O3 0.048234 0.992471 0.185245
O O4 0.206108 0.365583 0.975593
O O5 0.316030 0.218441 0.264787
O O6 0.000926 0.067566 0.652987
O O7 0.264715 0.719949 0.326267
O O8 0.521520 0.974286 0.157583
O O9 0.390846 0.794724 0.672712
O O10 0.000000 0.500000 0.000000
O O11 0.900057 0.737650 0.195431
O O12 0.000000 0.000000 0.000000
O O13 0.526394 0.751887 0.651020
O O14 0.000000 0.500000 0.500000
O O15 0.500000 0.500000 0.000000
O O16 0.314482 0.614091 0.964622
#
# Coordination Sequence:
#
# PCOD9071238 Si02
#       7
#     2   2   2   2   2   2   2
#     4  12  26  46  77 105 154 199 246 310 368 480
#     4  12  27  45  80 106 153 196 240 325 370 440
#     4  12  29  50  78 108 148 192 252 327 376 442
#     4  12  27  50  72 110 142 198 254 297 390 446
#     4  12  26  50  74 108 144 198 260 306 370 440
#     4  12  26  46  77 105 154 199 246 310 368 480
#     4  12  27  47  66 120 147 190 252 295 388 444
#
# _framework density 24.236989000000001
#
# number of rings (size 3 to 8) (size 9 to 14) (size 15 to 20)
#    0.000    0.000    0.000   10.286   12.000    0.000 
#    0.000    0.000    0.000    0.000    0.000    0.000 
#    0.000    0.000    0.000    0.000    0.000    0.000 
#
# Total GULP energy -78373.299036 kJ/mol
# GULP energy per Si atom -5598.092788 kJ/mol
# Density = 2.418182 g / cm^3
# Si number density = 24.236989 Si / 1000 Ang^3
#
#
#
# Elastic Constant Matrix: (Units=GPa)
#
#
# Indices 1 2 3 4 5 6 
#
# 1 47.9839 24.3363 16.1335 -3.4228 -13.0067 16.0219
# 2 24.3363 105.5992 33.2517 -6.1976 -12.7521 16.0619
# 3 16.1335 33.2517 179.8445 1.7700 -1.7354 19.5665
# 4 -3.4228 -6.1976 1.7700 53.8306 12.4406 -2.6322
# 5 -13.0067 -12.7521 -1.7354 12.4406 62.4550 -3.7209
# 6 16.0219 16.0619 19.5665 -2.6322 -3.7209 49.7848
#
#
#
# Elastic Compliance Matrix: (Units=1/GPa)
#
#
# Indices 1 2 3 4 5 6 
#
# 1 0.026672 -0.004382 -0.000830 -0.000086 0.004265 -0.006529
# 2 -0.004382 0.011378 -0.001540 0.000746 0.001128 -0.001531
# 3 -0.000830 -0.001540 0.006104 -0.000437 -0.000331 -0.001683
# 4 -0.000086 0.000746 -0.000437 0.019569 -0.003733 0.000714
# 5 0.004265 0.001128 -0.000331 -0.003733 0.017836 -0.000471
# 6 -0.006529 -0.001531 -0.001683 0.000714 -0.000471 0.023346
#
#
# Mechanical properties :
#
#
# Convention : Reuss Voigt Hill
#
# Bulk Modulus (GPa) = 32.62849 53.43005 43.02927
# Shear Modulus (GPa) = 38.87221 50.52782 44.70002
#
# Velocity S-wave (km/s) = 4.00914 4.57085 4.29918
# Velocity P-wave (km/s) = 5.90952 7.06750 6.51429
#
# Compressibility (1/GPa) = 0.03064806
#
# Stress axis : x y z
#
# Youngs Moduli (GPa) = 37.49227 87.89154 163.83248
#
# Poissons Ratio (x) = 0.38517 0.13599
# Poissons Ratio (y) = 0.16430 0.25236
# Poissons Ratio (z) = 0.03112 0.13539
#
# Static dielectric constant tensor:
#      x y z
#    x 1.976080 0.016790 0.004750 
#    y 0.016790 1.991860 -0.008830 
#    z 0.004750 -0.008830 1.869380 
# 
# From -- ./inp_files/613882.got.cif
#   From: 2010.05.17/outbox.cif.g08.bks.cpg/sg2_307_cif.got.tgz:613882.got - 2010.06.03 11:33:40.
