data_PCOD9071716
_publ_section_title
;
Structure prediction by ZEFSAII (Michael W. Deem and Ramdas Pophale) SiO2 
 PCOD9071716
Probable space group: P -1
;
_chemical_formula_sum "Si O2"
_cell_formula_units_Z 16
_cell_length_a 9.878655
_cell_length_b 8.977360
_cell_length_c 15.016648
_cell_angle_alpha 36.322679
_cell_angle_beta 52.104915
_cell_angle_gamma 63.196287
_cell_volume 619.740717
_symmetry_space_group_name_H-M "P -1"
_symmetry_group_IT_number 2
_symmetry_cell_setting 'triclinic'
loop_
_space_group_symop_operation_xyz
x,y,z
-x,-y,-z
loop_
_atom_site_type_symbol
_atom_site_label
_atom_site_fract_x
_atom_site_fract_y
_atom_site_fract_z
Si Si1 0.712887 0.512944 0.623960
Si Si2 0.228019 0.087400 0.942447
Si Si3 0.752582 0.617283 0.760189
Si Si4 0.689561 0.385287 0.261841
Si Si5 0.103890 0.298372 0.716756
Si Si6 0.612265 0.010589 0.819542
Si Si7 0.658611 0.427774 0.063180
Si Si8 0.195750 0.830767 0.501025
O O1 0.780125 0.565639 0.670469
O O2 0.515484 0.584888 0.663959
O O3 0.821943 0.659877 0.431815
O O4 0.710083 0.215924 0.745631
O O5 0.219208 0.339160 0.883601
O O6 0.227543 0.179938 0.795292
O O7 0.411716 0.987393 0.933557
O O8 0.067113 0.889725 0.121161
O O9 0.757805 0.414145 0.936287
O O10 0.849762 0.881333 0.624764
O O11 0.544175 0.655314 0.827679
O O12 0.746898 0.207945 0.402169
O O13 0.724905 0.305403 0.184801
O O14 0.087192 0.576270 0.632843
O O15 0.646022 0.146223 0.645010
O O16 0.668918 0.729668 0.934648
#
# Coordination Sequence:
#
# PCOD9071716 Si02
#       8
#     2   2   2   2   2   2   2   2
#     4   9  17  28  49  73  96 124 161 198 239 283
#     4   9  17  29  51  75  99 125 161 205 245 282
#     4   9  18  31  49  70 100 132 159 195 243 288
#     4   9  17  29  50  75  98 123 160 203 241 281
#     4   9  17  31  50  75  99 125 161 205 244 282
#     4   9  17  31  52  75  97 125 162 201 240 286
#     4   9  18  31  49  74 101 127 159 200 243 285
#     4   9  17  31  52  75  98 126 161 198 241 289
#
# _framework density 25.817250000000001
#
# number of rings (size 3 to 8) (size 9 to 14) (size 15 to 20)
#    0.000    3.000    0.000    0.750    0.000    9.500 
#    0.000    1.250    0.000   39.000    0.000    0.000 
#    0.000    0.000    0.000    0.000    0.000    0.000 
#
# Total GULP energy -89574.179860 kJ/mol
# GULP energy per Si atom -5598.386241 kJ/mol
# Density = 2.575849 g / cm^3
# Si number density = 25.817250 Si / 1000 Ang^3
#
#
#
# Elastic Constant Matrix: (Units=GPa)
#
#
# Indices 1 2 3 4 5 6 
#
# 1 47.6923 15.4945 33.6626 17.5215 6.4138 28.0351
# 2 15.4945 95.5796 64.8680 25.9940 3.4623 25.3591
# 3 33.6626 64.8680 159.1831 26.6557 -4.0853 24.3037
# 4 17.5215 25.9940 26.6557 49.6839 13.9461 25.4348
# 5 6.4138 3.4623 -4.0853 13.9461 42.5916 2.6444
# 6 28.0351 25.3591 24.3037 25.4348 2.6444 40.2156
#
#
#
# Elastic Compliance Matrix: (Units=1/GPa)
#
#
# Indices 1 2 3 4 5 6 
#
# 1 0.041268 0.005274 -0.007119 0.003511 -0.006639 -0.029576
# 2 0.005274 0.016956 -0.006298 -0.002346 -0.001451 -0.008984
# 3 -0.007119 -0.006298 0.010248 -0.002795 0.003215 0.004297
# 4 0.003511 -0.002346 -0.002795 0.035401 -0.010897 -0.020952
# 5 -0.006639 -0.001451 0.003215 -0.010897 0.027936 0.008655
# 6 -0.029576 -0.008984 0.004297 -0.020952 0.008655 0.061234
#
#
# Mechanical properties :
#
#
# Convention : Reuss Voigt Hill
#
# Bulk Modulus (GPa) = 19.16178 58.94503 39.05341
# Shear Modulus (GPa) = 22.05332 39.06022 30.55677
#
# Velocity S-wave (km/s) = 2.92586 3.89389 3.44405
# Velocity P-wave (km/s) = 4.34193 6.56488 5.56552
#
# Compressibility (1/GPa) = 0.05218722
#
# Stress axis : x y z
#
# Youngs Moduli (GPa) = 24.23198 58.97724 97.57611
#
# Poissons Ratio (x) = -0.31106 0.69464
# Poissons Ratio (y) = -0.12781 0.61450
# Poissons Ratio (z) = 0.17251 0.37142
#
# Static dielectric constant tensor:
#      x y z
#    x 2.086740 -0.068280 -0.034520 
#    y -0.068280 2.091570 0.037060 
#    z -0.034520 0.037060 2.017280 
# 
# From -- ./inp_files/401873.got.cif
#   From: 2010.05.17/outbox.cif.g08.bks.cpg/sg2_201_cif.got.tgz:401873.got - 2010.06.03 11:33:40.
