data_PCOD9071463
_publ_section_title
;
Structure prediction by ZEFSAII (Michael W. Deem and Ramdas Pophale) SiO2 
 PCOD9071463
Probable space group: P -1
;
_chemical_formula_sum "Si O2"
_cell_formula_units_Z 12
_cell_length_a 8.418291
_cell_length_b 8.594226
_cell_length_c 11.473417
_cell_angle_alpha 114.350781
_cell_angle_beta 106.657403
_cell_angle_gamma 120.920634
_cell_volume 499.651476
_symmetry_space_group_name_H-M "P -1"
_symmetry_group_IT_number 2
_symmetry_cell_setting 'triclinic'
loop_
_space_group_symop_operation_xyz
x,y,z
-x,-y,-z
loop_
_atom_site_type_symbol
_atom_site_label
_atom_site_fract_x
_atom_site_fract_y
_atom_site_fract_z
Si Si1 0.966109 0.528789 0.155963
Si Si2 0.423622 0.208363 0.868956
Si Si3 0.827920 0.726219 0.333801
Si Si4 0.458623 0.623894 0.619017
Si Si5 0.833930 0.038251 0.008493
Si Si6 0.503641 0.989675 0.636299
O O1 0.964457 0.656856 0.304107
O O2 0.952241 0.315502 0.114062
O O3 0.204685 0.761490 0.208204
O O4 0.708017 0.393746 0.006886
O O5 0.331981 0.310681 0.815697
O O6 0.373682 0.026802 0.704811
O O7 0.289064 0.078645 0.925256
O O8 0.675623 0.563740 0.362495
O O9 0.000000 0.000000 0.500000
O O10 0.500000 0.500000 0.500000
O O11 0.372360 0.712331 0.547657
O O12 0.647618 0.878181 0.813679
O O13 0.000000 0.000000 0.000000
O O14 0.500000 0.000000 0.500000
#
# Coordination Sequence:
#
# PCOD9071463 Si02
#       6
#     2   2   2   2   2   2
#     4  12  26  50  80 113 155 204 265 323 391 467
#     4  12  26  50  80 113 155 204 265 323 391 467
#     4  12  28  49  80 117 157 208 259 328 402 471
#     4  12  27  49  74 108 165 197 268 322 391 460
#     4  12  30  50  81 116 153 209 270 328 390 465
#     4  12  28  49  80 117 157 208 259 328 402 471
#
# _framework density 24.016742000000001
#
# number of rings (size 3 to 8) (size 9 to 14) (size 15 to 20)
#    0.000    0.000    3.333    5.500    9.333    0.000 
#    0.000    3.333    0.000    0.000    0.000    0.000 
#    0.000    0.000    0.000    0.000    0.000    0.000 
#
# Total GULP energy -66932.700494 kJ/mol
# GULP energy per Si atom -5577.725041 kJ/mol
# Density = 2.396208 g / cm^3
# Si number density = 24.016742 Si / 1000 Ang^3
#
#
#
# Elastic Constant Matrix: (Units=GPa)
#
#
# Indices 1 2 3 4 5 6 
#
# 1 168.6352 71.6444 57.5453 -6.0008 -51.8301 -13.6402
# 2 71.6444 195.0827 65.1168 -0.3973 -17.9586 -13.2263
# 3 57.5453 65.1168 116.1760 0.1790 -29.5993 0.7349
# 4 -6.0008 -0.3973 0.1790 47.5254 1.7236 -15.7453
# 5 -51.8301 -17.9586 -29.5993 1.7236 65.6560 1.4346
# 6 -13.6402 -13.2263 0.7349 -15.7453 1.4346 50.0186
#
#
#
# Elastic Compliance Matrix: (Units=1/GPa)
#
#
# Indices 1 2 3 4 5 6 
#
# 1 0.009654 -0.002125 -0.002081 0.001820 0.005999 0.002502
# 2 -0.002125 0.006948 -0.003169 0.000325 -0.001246 0.001442
# 3 -0.002081 -0.003169 0.012211 -0.001117 0.003069 -0.002024
# 4 0.001820 0.000325 -0.001117 0.023966 0.000215 0.008137
# 5 0.005999 -0.001246 0.003069 0.000215 0.020988 0.000727
# 6 0.002502 0.001442 -0.002024 0.008137 0.000727 0.023627
#
#
# Mechanical properties :
#
#
# Convention : Reuss Voigt Hill
#
# Bulk Modulus (GPa) = 71.10745 96.50078 83.80411
# Shear Modulus (GPa) = 42.79694 51.67915 47.23804
#
# Velocity S-wave (km/s) = 4.22591 4.64378 4.43976
# Velocity P-wave (km/s) = 7.31319 8.30787 7.82635
#
# Compressibility (1/GPa) = 0.01406322
#
# Stress axis : x y z
#
# Youngs Moduli (GPa) = 103.58449 143.92719 81.89432
#
# Poissons Ratio (x) = 0.30588 0.17041
# Poissons Ratio (y) = 0.22014 0.25950
# Poissons Ratio (z) = 0.21554 0.45606
#
# Static dielectric constant tensor:
#      x y z
#    x 2.857750 -2.236700 0.961970 
#    y -2.236700 7.165470 -2.213750 
#    z 0.961970 -2.213750 2.946490 
# 
# From -- ./inp_files/373434.got.cif
#   From: 2010.05.17/outbox.cif.g08.bks.cpg/sg2_187_cif.got.tgz:373434.got - 2010.06.03 11:33:40.
