data_PCOD9071933
_publ_section_title
;
Structure prediction by ZEFSAII (Michael W. Deem and Ramdas Pophale) SiO2 
 PCOD9071933
Probable space group: P -1
;
_chemical_formula_sum "Si O2"
_cell_formula_units_Z 16
_cell_length_a 16.151848
_cell_length_b 9.361127
_cell_length_c 9.643590
_cell_angle_alpha 95.867065
_cell_angle_beta 56.732072
_cell_angle_gamma 47.790485
_cell_volume 586.729861
_symmetry_space_group_name_H-M "P -1"
_symmetry_group_IT_number 2
_symmetry_cell_setting 'triclinic'
loop_
_space_group_symop_operation_xyz
x,y,z
-x,-y,-z
loop_
_atom_site_type_symbol
_atom_site_label
_atom_site_fract_x
_atom_site_fract_y
_atom_site_fract_z
Si Si1 0.324608 0.600948 0.278984
Si Si2 0.378323 0.537972 0.934365
Si Si3 0.817019 0.060490 0.070940
Si Si4 0.353461 0.512760 0.538625
Si Si5 0.001778 0.389503 0.320104
Si Si6 0.945546 0.771787 0.433574
Si Si7 0.563041 0.088429 0.531120
Si Si8 0.273964 0.238811 0.908986
O O1 0.539472 0.411507 0.086221
O O2 0.301562 0.539253 0.432431
O O3 0.172245 0.929502 0.439191
O O4 0.327705 0.520245 0.120201
O O5 0.193931 0.810464 0.030959
O O6 0.553236 0.239992 0.652205
O O7 0.586250 0.283435 0.306680
O O8 0.807402 0.162949 0.230457
O O9 0.986307 0.732192 0.834415
O O10 0.379135 0.360015 0.616889
O O11 0.988504 0.330856 0.475084
O O12 0.862519 0.710470 0.477164
O O13 0.225304 0.185178 0.069049
O O14 0.109803 0.565190 0.137501
O O15 0.486137 0.053265 0.688977
O O16 0.741309 0.817268 0.234136
#
# Coordination Sequence:
#
# PCOD9071933 Si02
#       8
#     2   2   2   2   2   2   2   2
#     4  10  18  30  48  79 102 130 158 206 260 290
#     4   9  19  29  51  75 104 126 163 212 247 287
#     4   9  14  28  47  75  95 121 170 208 240 281
#     4   9  17  26  49  73 100 126 158 209 246 281
#     4   9  16  30  52  72  95 129 163 213 239 283
#     4   9  18  31  49  77  99 129 165 206 251 291
#     4  10  18  35  51  77  97 131 174 201 237 298
#     4   9  19  31  55  72  96 135 172 203 237 291
#
# _framework density 27.269788999999999
#
# number of rings (size 3 to 8) (size 9 to 14) (size 15 to 20)
#    0.750    2.000    2.500    0.750    0.000    0.000 
#    0.000    3.750    0.000    6.750    0.000    0.000 
#    0.000    0.000    0.000    0.000    0.000    0.000 
#
# Total GULP energy -89068.068786 kJ/mol
# GULP energy per Si atom -5566.754299 kJ/mol
# Density = 2.720772 g / cm^3
# Si number density = 27.269789 Si / 1000 Ang^3
#
#
#
# Elastic Constant Matrix: (Units=GPa)
#
#
# Indices 1 2 3 4 5 6 
#
# 1 41.8099 6.4663 37.3982 -3.4117 1.4371 1.1106
# 2 6.4663 85.6707 30.0612 -1.1010 6.5228 -1.2279
# 3 37.3982 30.0612 167.5749 -3.9482 29.5926 -0.3442
# 4 -3.4117 -1.1010 -3.9482 49.4050 16.5426 8.2511
# 5 1.4371 6.5228 29.5926 16.5426 57.5142 0.2794
# 6 1.1106 -1.2279 -0.3442 8.2511 0.2794 22.3650
#
#
#
# Elastic Compliance Matrix: (Units=1/GPa)
#
#
# Indices 1 2 3 4 5 6 
#
# 1 0.030445 0.000027 -0.007259 0.000952 0.002707 -0.002007
# 2 0.000027 0.012471 -0.002181 0.000113 -0.000328 0.000612
# 3 -0.007259 -0.002181 0.008834 0.001736 -0.004615 -0.000206
# 4 0.000952 0.000113 0.001736 0.024618 -0.007967 -0.008997
# 5 0.002707 -0.000328 -0.004615 -0.007967 0.022011 0.002441
# 6 -0.002007 0.000612 -0.000206 -0.008997 0.002441 0.048132
#
#
# Mechanical properties :
#
#
# Convention : Reuss Voigt Hill
#
# Bulk Modulus (GPa) = 30.37419 49.21186 39.79303
# Shear Modulus (GPa) = 28.35882 40.59881 34.47882
#
# Velocity S-wave (km/s) = 3.22830 3.86266 3.55964
# Velocity P-wave (km/s) = 5.00585 6.16271 5.61416
#
# Compressibility (1/GPa) = 0.03292269
#
# Stress axis : x y z
#
# Youngs Moduli (GPa) = 32.84653 80.18477 113.19626
#
# Poissons Ratio (x) = -0.00213 0.82169
# Poissons Ratio (y) = -0.00087 0.24691
# Poissons Ratio (z) = 0.23843 0.17490
#
# Static dielectric constant tensor:
#      x y z
#    x 2.253920 0.018440 -0.036850 
#    y 0.018440 2.178510 -0.001350 
#    z -0.036850 -0.001350 2.210000 
# 
# From -- ./inp_files/353502.got.cif
#   From: 2010.05.17/outbox.cif.g08.bks.cpg/sg2_177_cif.got.tgz:353502.got - 2010.06.03 11:33:40.
