data_PCOD9071919
_publ_section_title
;
Structure prediction by ZEFSAII (Michael W. Deem and Ramdas Pophale) SiO2 
 PCOD9071919
Probable space group: P -1
;
_chemical_formula_sum "Si O2"
_cell_formula_units_Z 16
_cell_length_a 9.774806
_cell_length_b 8.563265
_cell_length_c 13.131514
_cell_angle_alpha 62.795283
_cell_angle_beta 111.664436
_cell_angle_gamma 93.249119
_cell_volume 900.125109
_symmetry_space_group_name_H-M "P -1"
_symmetry_group_IT_number 2
_symmetry_cell_setting 'triclinic'
loop_
_space_group_symop_operation_xyz
x,y,z
-x,-y,-z
loop_
_atom_site_type_symbol
_atom_site_label
_atom_site_fract_x
_atom_site_fract_y
_atom_site_fract_z
Si Si1 0.925844 0.606683 0.759888
Si Si2 0.668237 0.703349 0.799527
Si Si3 0.763072 0.008735 0.867560
Si Si4 0.023200 0.220710 0.849806
Si Si5 0.929436 0.493263 0.373014
Si Si6 0.225204 0.637411 0.929581
Si Si7 0.428161 0.827461 0.063319
Si Si8 0.626773 0.448912 0.224457
O O1 0.764488 0.685489 0.728700
O O2 0.951977 0.392441 0.844661
O O3 0.966828 0.623452 0.647129
O O4 0.051824 0.677562 0.842610
O O5 0.689747 0.882875 0.809122
O O6 0.498749 0.672784 0.748347
O O7 0.740846 0.539565 0.940024
O O8 0.891999 0.106423 0.824838
O O9 0.641036 0.143787 0.852052
O O10 0.848718 0.888322 0.016434
O O11 0.084786 0.311883 0.741373
O O12 0.767801 0.432227 0.342396
O O13 0.000000 0.500000 0.500000
O O14 0.309644 0.595582 0.858048
O O15 0.295241 0.789953 0.962426
O O16 0.546079 0.650837 0.141966
O O17 0.500000 0.000000 0.000000
#
# Coordination Sequence:
#
# PCOD9071919 Si02
#       8
#     2   2   2   2   2   2   2   2
#     4   9  19  32  51  78  99 137 185 205 255 307
#     4  11  18  30  51  75 112 137 168 212 260 316
#     4  11  20  29  49  84 119 137 158 206 267 325
#     4   9  19  32  50  79 109 132 180 203 262 301
#     4   9  19  39  60  73  94 133 189 233 252 295
#     4  10  18  30  48  71 111 144 171 203 248 321
#     4  11  20  28  46  77 117 144 166 200 262 319
#     4  10  20  34  51  77 102 140 180 211 260 314
#
# _framework density 17.775307999999999
#
# number of rings (size 3 to 8) (size 9 to 14) (size 15 to 20)
#    0.750    1.250    1.250    5.625    3.500    0.000 
#    0.000    0.625    0.000    1.500    0.000    0.000 
#    0.000    0.000    0.000    0.000    0.000    0.000 
#
# Total GULP energy -89208.762066 kJ/mol
# GULP energy per Si atom -5575.547629 kJ/mol
# Density = 1.773485 g / cm^3
# Si number density = 17.775308 Si / 1000 Ang^3
#
#
#
# Elastic Constant Matrix: (Units=GPa)
#
#
# Indices 1 2 3 4 5 6 
#
# 1 109.9258 36.0714 29.3174 20.4262 16.0626 13.6859
# 2 36.0714 97.9918 18.8096 21.6856 8.9359 19.4050
# 3 29.3174 18.8096 43.2691 28.2677 5.2777 8.3924
# 4 20.4262 21.6856 28.2677 25.1432 3.9999 7.2956
# 5 16.0626 8.9359 5.2777 3.9999 9.2070 6.5829
# 6 13.6859 19.4050 8.3924 7.2956 6.5829 33.8944
#
#
#
# Elastic Compliance Matrix: (Units=1/GPa)
#
#
# Indices 1 2 3 4 5 6 
#
# 1 0.014419 -0.002718 -0.007967 0.002433 -0.019733 0.001016
# 2 -0.002718 0.014926 0.009038 -0.018871 -0.003142 -0.005014
# 3 -0.007967 0.009038 0.095952 -0.108375 -0.001258 -0.002144
# 4 0.002433 -0.018871 -0.108375 0.176220 0.000637 -0.001398
# 5 -0.019733 -0.003142 -0.001258 0.000637 0.161909 -0.021505
# 6 0.001016 -0.005014 -0.002144 -0.001398 -0.021505 0.036972
#
#
# Mechanical properties :
#
#
# Convention : Reuss Voigt Hill
#
# Bulk Modulus (GPa) = 8.19668 46.62040 27.40854
# Shear Modulus (GPa) = 9.18508 24.78146 16.98327
#
# Velocity S-wave (km/s) = 2.27564 3.73788 3.09438
# Velocity P-wave (km/s) = 3.39500 6.70176 5.31223
#
# Compressibility (1/GPa) = 0.12200058
#
# Stress axis : x y z
#
# Youngs Moduli (GPa) = 69.35331 66.99537 10.42193
#
# Poissons Ratio (x) = 0.18212 0.08303
# Poissons Ratio (y) = 0.18853 -0.09419
# Poissons Ratio (z) = 0.55256 -0.60547
#
# Static dielectric constant tensor:
#      x y z
#    x 1.646140 -0.000980 0.005890 
#    y -0.000980 1.623490 0.000150 
#    z 0.005890 0.000150 1.568680 
# 
# From -- ./inp_files/492588.got.cif
#   From: 2010.05.17/outbox.cif.g08.bks.cpg/sg2_247_cif.got.tgz:492588.got - 2010.06.03 11:33:40.
