data_PCOD9071409
_publ_section_title
;
Structure prediction by ZEFSAII (Michael W. Deem and Ramdas Pophale) SiO2 
 PCOD9071409
Probable space group: P -1
;
_chemical_formula_sum "Si O2"
_cell_formula_units_Z 16
_cell_length_a 5.549537
_cell_length_b 14.494173
_cell_length_c 9.044898
_cell_angle_alpha 115.447060
_cell_angle_beta 105.069293
_cell_angle_gamma 84.274744
_cell_volume 634.300689
_symmetry_space_group_name_H-M "P -1"
_symmetry_group_IT_number 2
_symmetry_cell_setting 'triclinic'
loop_
_space_group_symop_operation_xyz
x,y,z
-x,-y,-z
loop_
_atom_site_type_symbol
_atom_site_label
_atom_site_fract_x
_atom_site_fract_y
_atom_site_fract_z
Si Si1 0.648063 0.239208 0.867910
Si Si2 0.200878 0.279985 0.282326
Si Si3 0.851973 0.403299 0.477129
Si Si4 0.391115 0.174830 0.493918
Si Si5 0.561102 0.601532 0.820094
Si Si6 0.878200 0.054945 0.380344
Si Si7 0.821566 0.422436 0.829871
Si Si8 0.064751 0.089969 0.959679
O O1 0.440689 0.198158 0.690552
O O2 0.801579 0.317296 0.840428
O O3 0.824409 0.151615 0.901741
O O4 0.534953 0.311532 0.026679
O O5 0.383942 0.272611 0.449187
O O6 0.189502 0.357071 0.192965
O O7 0.948339 0.301565 0.343551
O O8 0.228280 0.172930 0.130550
O O9 0.585595 0.411711 0.365628
O O10 0.889822 0.402219 0.656669
O O11 0.000000 0.500000 0.500000
O O12 0.631778 0.113044 0.433446
O O13 0.118665 0.119735 0.400874
O O14 0.575120 0.492561 0.825461
O O15 0.000000 0.000000 0.500000
O O16 0.802787 0.966922 0.192055
O O17 0.000000 0.500000 0.000000
O O18 0.000000 0.000000 0.000000
#
# Coordination Sequence:
#
# PCOD9071409 Si02
#       8
#     2   2   2   2   2   2   2   2
#     4  12  28  47  79 115 157 208 268 333 401 484
#     4  12  28  48  78 114 152 214 262 327 398 481
#     4  12  26  49  78 111 161 199 262 321 401 482
#     4  12  30  49  81 119 157 212 270 334 404 478
#     4  12  27  49  76 112 155 205 264 322 405 474
#     4  12  28  52  79 113 161 206 269 337 407 467
#     4  12  27  48  78 114 158 207 260 332 403 481
#     4  12  27  51  78 111 157 207 266 331 395 477
#
# _framework density 25.224626000000001
#
# number of rings (size 3 to 8) (size 9 to 14) (size 15 to 20)
#    0.000    0.000    5.000    3.375   10.500    0.500 
#    0.000    0.000    0.000    0.000    0.000    0.000 
#    0.000    0.000    0.000    0.000    0.000    0.000 
#
# Total GULP energy -89439.434834 kJ/mol
# GULP energy per Si atom -5589.964677 kJ/mol
# Density = 2.516721 g / cm^3
# Si number density = 25.224626 Si / 1000 Ang^3
#
#
#
# Elastic Constant Matrix: (Units=GPa)
#
#
# Indices 1 2 3 4 5 6 
#
# 1 66.1739 21.5043 31.3864 -1.4057 -20.2361 -9.7152
# 2 21.5043 138.0075 24.2374 -30.5538 -6.7826 -8.7288
# 3 31.3864 24.2374 181.0663 -9.2382 -29.6694 -0.4231
# 4 -1.4057 -30.5538 -9.2382 52.1920 -7.7673 0.7010
# 5 -20.2361 -6.7826 -29.6694 -7.7673 34.5395 -2.9785
# 6 -9.7152 -8.7288 -0.4231 0.7010 -2.9785 38.1973
#
#
#
# Elastic Compliance Matrix: (Units=1/GPa)
#
#
# Indices 1 2 3 4 5 6 
#
# 1 0.020674 -0.001887 -0.001449 0.000780 0.011161 0.005667
# 2 -0.001887 0.008974 -0.000311 0.005385 0.001739 0.001604
# 3 -0.001449 -0.000311 0.006776 0.001768 0.005310 0.000017
# 4 0.000780 0.005385 0.001768 0.023897 0.008552 0.001677
# 5 0.011161 0.001739 0.005310 0.008552 0.042876 0.006481
# 6 0.005667 0.001604 0.000017 0.001677 0.006481 0.028463
#
#
# Mechanical properties :
#
#
# Convention : Reuss Voigt Hill
#
# Bulk Modulus (GPa) = 34.32921 59.94488 47.13705
# Shear Modulus (GPa) = 33.63319 45.52708 39.58013
#
# Velocity S-wave (km/s) = 3.65546 4.25298 3.96549
# Velocity P-wave (km/s) = 5.60852 6.92338 6.30034
#
# Compressibility (1/GPa) = 0.02912971
#
# Stress axis : x y z
#
# Youngs Moduli (GPa) = 48.36989 111.43755 147.58151
#
# Poissons Ratio (x) = 0.21030 0.21386
# Poissons Ratio (y) = 0.09128 0.04585
# Poissons Ratio (z) = 0.07009 0.03462
#
# Static dielectric constant tensor:
#      x y z
#    x 1.856320 -0.199130 -0.009640 
#    y -0.199130 1.801830 -0.045320 
#    z -0.009640 -0.045320 1.990890 
# 
# From -- ./inp_files/135754.got.cif
#   From: 2010.05.17/outbox.cif.g08.bks.cpg/sg2_68_cif.got.tgz:135754.got - 2010.06.03 11:33:40.
