data_PCOD9071578
_publ_section_title
;
Structure prediction by ZEFSAII (Michael W. Deem and Ramdas Pophale) SiO2 
 PCOD9071578
Probable space group: P -1
;
_chemical_formula_sum "Si O2"
_cell_formula_units_Z 12
_cell_length_a 11.979574
_cell_length_b 5.275191
_cell_length_c 13.861380
_cell_angle_alpha 107.466359
_cell_angle_beta 148.581547
_cell_angle_gamma 73.793899
_cell_volume 435.108379
_symmetry_space_group_name_H-M "P -1"
_symmetry_group_IT_number 2
_symmetry_cell_setting 'triclinic'
loop_
_space_group_symop_operation_xyz
x,y,z
-x,-y,-z
loop_
_atom_site_type_symbol
_atom_site_label
_atom_site_fract_x
_atom_site_fract_y
_atom_site_fract_z
Si Si1 0.588391 0.572148 0.824788
Si Si2 0.953384 0.016912 0.581727
Si Si3 0.371755 0.117105 0.531275
Si Si4 0.010245 0.437865 0.209680
Si Si5 0.378784 0.727513 0.873970
Si Si6 0.797345 0.810921 0.837867
O O1 0.484135 0.395650 0.647347
O O2 0.403316 0.656318 0.771588
O O3 0.727888 0.777587 0.893801
O O4 0.763219 0.406413 0.998818
O O5 0.980888 0.304891 0.685266
O O6 0.718988 0.939758 0.434307
O O7 0.000000 0.000000 0.500000
O O8 0.134812 0.800658 0.729637
O O9 0.148899 0.178852 0.319324
O O10 0.569242 0.912129 0.633939
O O11 0.126104 0.459835 0.192373
O O12 0.500000 0.500000 0.000000
O O13 0.500000 0.000000 0.000000
O O14 0.000000 0.000000 0.000000
#
# Coordination Sequence:
#
# PCOD9071578 Si02
#       6
#     2   2   2   2   2   2
#     4  12  28  51  80 120 161 216 283 337 424 503
#     4  12  29  52  79 119 165 215 282 348 421 502
#     4  12  28  49  80 116 163 209 282 342 421 499
#     4  12  27  50  79 114 160 217 267 337 425 490
#     4  12  28  51  86 120 167 223 281 343 424 503
#     4  12  28  51  82 117 165 216 279 346 417 505
#
# _framework density 27.579335
#
# number of rings (size 3 to 8) (size 9 to 14) (size 15 to 20)
#    0.000    0.000    3.333    5.000    7.000    4.000 
#    0.000    0.000    0.000    0.000    0.000    0.000 
#    0.000    0.000    0.000    0.000    0.000    0.000 
#
# Total GULP energy -67165.215879 kJ/mol
# GULP energy per Si atom -5597.101323 kJ/mol
# Density = 2.751656 g / cm^3
# Si number density = 27.579335 Si / 1000 Ang^3
#
#
#
# Elastic Constant Matrix: (Units=GPa)
#
#
# Indices 1 2 3 4 5 6 
#
# 1 163.2546 44.6379 32.1990 -18.0254 34.8728 -31.7085
# 2 44.6379 131.9431 45.4350 -23.9115 7.9650 -20.9360
# 3 32.1990 45.4350 144.9883 -38.7017 20.4299 -12.0563
# 4 -18.0254 -23.9115 -38.7017 66.9831 -10.0748 8.5573
# 5 34.8728 7.9650 20.4299 -10.0748 62.5545 -9.6099
# 6 -31.7085 -20.9360 -12.0563 8.5573 -9.6099 64.4080
#
#
#
# Elastic Compliance Matrix: (Units=1/GPa)
#
#
# Indices 1 2 3 4 5 6 
#
# 1 0.008059 -0.001885 -0.000354 0.000397 -0.003660 0.002690
# 2 -0.001885 0.009439 -0.002127 0.001576 0.001057 0.001690
# 3 -0.000354 -0.002127 0.008982 0.004062 -0.001810 0.000006
# 4 0.000397 0.001576 0.004062 0.018207 0.001062 -0.000792
# 5 -0.003660 0.001057 -0.001810 0.001062 0.018787 0.000865
# 6 0.002690 0.001690 0.000006 -0.000792 0.000865 0.017635
#
#
# Mechanical properties :
#
#
# Convention : Reuss Voigt Hill
#
# Bulk Modulus (GPa) = 56.34087 76.08110 66.21098
# Shear Modulus (GPa) = 52.21624 59.98338 56.09981
#
# Velocity S-wave (km/s) = 4.35594 4.66868 4.51502
# Velocity P-wave (km/s) = 6.76550 7.53049 7.15822
#
# Compressibility (1/GPa) = 0.01774911
#
# Stress axis : x y z
#
# Youngs Moduli (GPa) = 124.09212 105.94082 111.33276
#
# Poissons Ratio (x) = 0.19968 0.03936
# Poissons Ratio (y) = 0.23389 0.23680
# Poissons Ratio (z) = 0.04388 0.22533
#
# Static dielectric constant tensor:
#      x y z
#    x 2.366180 0.000660 -0.113150 
#    y 0.000660 2.176230 -0.114940 
#    z -0.113150 -0.114940 2.203070 
# 
# From -- ./inp_files/373225.got.cif
#   From: 2010.05.17/outbox.cif.g08.bks.cpg/sg2_187_cif.got.tgz:373225.got - 2010.06.03 11:33:40.
