data_PCOD9071359
_publ_section_title
;
Structure prediction by ZEFSAII (Michael W. Deem and Ramdas Pophale) SiO2 
 PCOD9071359
Probable space group: P -1
;
_chemical_formula_sum "Si O2"
_cell_formula_units_Z 15
_cell_length_a 21.556616
_cell_length_b 5.687006
_cell_length_c 13.385078
_cell_angle_alpha 107.584702
_cell_angle_beta 22.559536
_cell_angle_gamma 109.872170
_cell_volume 591.721975
_symmetry_space_group_name_H-M "P -1"
_symmetry_group_IT_number 2
_symmetry_cell_setting 'triclinic'
loop_
_space_group_symop_operation_xyz
x,y,z
-x,-y,-z
loop_
_atom_site_type_symbol
_atom_site_label
_atom_site_fract_x
_atom_site_fract_y
_atom_site_fract_z
Si Si1 0.885421 0.057270 0.912600
Si Si2 0.051478 0.794236 0.475689
Si Si3 0.161804 0.521203 0.575391
Si Si4 0.562706 0.981577 0.291422
Si Si5 0.891015 0.820892 0.062519
Si Si6 0.500000 0.500000 0.000000
Si Si7 0.626028 0.520482 0.561348
Si Si8 0.440690 0.931877 0.919672
O O1 0.806920 0.969856 0.124264
O O2 0.950607 0.841710 0.729100
O O3 0.748372 0.126163 0.050964
O O4 0.042476 0.258770 0.728495
O O5 0.000000 0.500000 0.500000
O O6 0.000000 0.000000 0.500000
O O7 0.246831 0.851752 0.206308
O O8 0.257970 0.586652 0.544902
O O9 0.030482 0.701814 0.782868
O O10 0.300426 0.495242 0.286028
O O11 0.519301 0.682929 0.293171
O O12 0.514345 0.077795 0.267266
O O13 0.500000 0.000000 0.500000
O O14 0.754238 0.632609 0.299986
O O15 0.000000 0.000000 0.000000
O O16 0.483572 0.204231 0.940218
O O17 0.545237 0.720281 0.775706
#
# Coordination Sequence:
#
# PCOD9071359 Si02
#       8
#     2   2   2   2   2   1   2   2
#     4  12  27  46  75 113 149 213 261 333 411 480
#     4  12  28  51  80 116 165 213 270 335 417 502
#     4  12  27  47  76 111 154 206 274 336 411 497
#     4  12  27  47  76 112 158 201 267 337 412 489
#     4  12  27  46  76 110 153 206 270 331 406 489
#     4  12  26  48  78 114 154 206 268 336 412 486
#     4  12  27  48  76 114 156 214 267 343 414 492
#     4  12  27  49  79 116 161 207 276 340 416 496
#
# _framework density 25.349746
#
# number of rings (size 3 to 8) (size 9 to 14) (size 15 to 20)
#    0.000    0.000    5.333    3.600    3.733    5.867 
#    0.000    0.000    0.000    0.000    0.000    0.000 
#    0.000    0.000    0.000    0.000    0.000    0.000 
#
# Total GULP energy -83582.035291 kJ/mol
# GULP energy per Si atom -5572.135686 kJ/mol
# Density = 2.529205 g / cm^3
# Si number density = 25.349746 Si / 1000 Ang^3
#
#
#
# Elastic Constant Matrix: (Units=GPa)
#
#
# Indices 1 2 3 4 5 6 
#
# 1 92.0907 8.5507 -5.5197 -2.9881 -4.8784 6.3003
# 2 8.5507 95.3450 -8.1060 -6.6919 -4.5387 14.4586
# 3 -5.5197 -8.1060 77.1966 -8.9874 -20.4238 1.5494
# 4 -2.9881 -6.6919 -8.9874 53.8186 5.8851 1.2406
# 5 -4.8784 -4.5387 -20.4238 5.8851 36.9016 9.8108
# 6 6.3003 14.4586 1.5494 1.2406 9.8108 27.3914
#
#
#
# Elastic Compliance Matrix: (Units=1/GPa)
#
#
# Indices 1 2 3 4 5 6 
#
# 1 0.011460 -0.000043 0.001905 0.000656 0.003526 -0.004013
# 2 -0.000043 0.012439 0.003066 0.001681 0.005264 -0.008691
# 3 0.001905 0.003066 0.016867 0.002209 0.011538 -0.007243
# 4 0.000656 0.001681 0.002209 0.019357 -0.001137 -0.001633
# 5 0.003526 0.005264 0.011538 -0.001137 0.039672 -0.018400
# 6 -0.004013 -0.008691 -0.007243 -0.001633 -0.018400 0.049092
#
#
# Mechanical properties :
#
#
# Convention : Reuss Voigt Hill
#
# Bulk Modulus (GPa) = 19.75481 28.27582 24.01532
# Shear Modulus (GPa) = 32.07052 41.60280 36.83666
#
# Velocity S-wave (km/s) = 3.56071 4.05551 3.81614
# Velocity P-wave (km/s) = 4.97139 5.75396 5.37693
#
# Compressibility (1/GPa) = 0.05062058
#
# Stress axis : x y z
#
# Youngs Moduli (GPa) = 87.26226 80.39069 59.28695
#
# Poissons Ratio (x) = 0.00348 -0.11292
# Poissons Ratio (y) = 0.00378 -0.18176
# Poissons Ratio (z) = -0.16621 -0.24646
#
# Static dielectric constant tensor:
#      x y z
#    x 2.173210 -0.343050 0.181670 
#    y -0.343050 2.234370 -0.152040 
#    z 0.181670 -0.152040 2.072280 
# 
# From -- ./inp_files/510569.got.cif
#   From: 2010.05.17/outbox.cif.g08.bks.cpg/sg2_256_cif.got.tgz:510569.got - 2010.06.03 11:33:40.
