data_PCOD9071092
_publ_section_title
;
Structure prediction by ZEFSAII (Michael W. Deem and Ramdas Pophale) SiO2 
 PCOD9071092
Probable space group: P -1
;
_chemical_formula_sum "Si O2"
_cell_formula_units_Z 14
_cell_length_a 9.748001
_cell_length_b 8.870319
_cell_length_c 9.824181
_cell_angle_alpha 129.985386
_cell_angle_beta 71.583674
_cell_angle_gamma 107.324307
_cell_volume 612.271547
_symmetry_space_group_name_H-M "P -1"
_symmetry_group_IT_number 2
_symmetry_cell_setting 'triclinic'
loop_
_space_group_symop_operation_xyz
x,y,z
-x,-y,-z
loop_
_atom_site_type_symbol
_atom_site_label
_atom_site_fract_x
_atom_site_fract_y
_atom_site_fract_z
Si Si1 0.346483 0.076429 0.577605
Si Si2 0.147529 0.089661 0.091556
Si Si3 0.594429 0.710485 0.041380
Si Si4 0.106362 0.829158 0.361135
Si Si5 0.683729 0.210652 0.977747
Si Si6 0.358480 0.450214 0.604598
Si Si7 0.080096 0.374459 0.501501
O O1 0.332111 0.188817 0.787745
O O2 0.342232 0.227943 0.540917
O O3 0.500000 0.000000 0.500000
O O4 0.225469 0.894291 0.477608
O O5 0.092921 0.172281 0.299038
O O6 0.262594 0.267247 0.089719
O O7 0.255996 0.931072 0.009877
O O8 0.000000 0.000000 0.000000
O O9 0.500000 0.500000 0.000000
O O10 0.470964 0.830814 0.080085
O O11 0.002250 0.642080 0.338926
O O12 0.191848 0.783135 0.173150
O O13 0.000000 0.000000 0.500000
O O14 0.658292 0.408182 0.181002
O O15 0.500000 0.500000 0.500000
O O16 0.237142 0.475281 0.547486
O O17 0.000000 0.500000 0.500000
#
# Coordination Sequence:
#
# PCOD9071092 Si02
#       7
#     2   2   2   2   2   2   2
#     4  12  26  45  73 106 142 191 239 301 364 430
#     4  12  27  49  76 110 147 196 250 301 373 437
#     4  12  27  47  74 110 148 192 248 305 366 447
#     4  12  25  50  73 106 147 191 247 299 370 434
#     4  12  26  48  75 107 147 198 241 305 366 443
#     4  12  28  47  72 108 145 189 246 302 363 437
#     4  12  28  46  73 105 151 189 239 309 362 436
#
# _framework density 22.865672
#
# number of rings (size 3 to 8) (size 9 to 14) (size 15 to 20)
#    0.000    0.000    5.714    3.000    6.000    0.571 
#    0.000    0.000    0.000    0.000    0.000    0.000 
#    0.000    0.000    0.000    0.000    0.000    0.000 
#
# Total GULP energy -78124.870675 kJ/mol
# GULP energy per Si atom -5580.347905 kJ/mol
# Density = 2.281363 g / cm^3
# Si number density = 22.865672 Si / 1000 Ang^3
#
#
#
# Elastic Constant Matrix: (Units=GPa)
#
#
# Indices 1 2 3 4 5 6 
#
# 1 168.9852 37.8815 27.5147 -22.7737 -4.3176 7.6860
# 2 37.8815 62.0384 8.0073 -16.2602 -18.0412 5.0881
# 3 27.5147 8.0073 119.4037 -18.7372 -9.2220 20.6053
# 4 -22.7737 -16.2602 -18.7372 29.0585 0.4081 -5.5794
# 5 -4.3176 -18.0412 -9.2220 0.4081 42.5538 -4.5805
# 6 7.6860 5.0881 20.6053 -5.5794 -4.5805 47.2630
#
#
#
# Elastic Compliance Matrix: (Units=1/GPa)
#
#
# Indices 1 2 3 4 5 6 
#
# 1 0.007329 -0.003925 -0.001052 0.002869 -0.001185 -0.000087
# 2 -0.003925 0.024280 0.001954 0.011535 0.010157 -0.000481
# 3 -0.001052 0.001954 0.010259 0.006169 0.002505 -0.003541
# 4 0.002869 0.011535 0.006169 0.047352 0.006258 0.001798
# 5 -0.001185 0.010157 0.002505 0.006258 0.028329 0.001492
# 6 -0.000087 -0.000481 -0.003541 0.001798 0.001492 0.023125
#
#
# Mechanical properties :
#
#
# Convention : Reuss Voigt Hill
#
# Bulk Modulus (GPa) = 27.91614 55.24826 41.58220
# Shear Modulus (GPa) = 31.51391 42.24331 36.87861
#
# Velocity S-wave (km/s) = 3.71646 4.30287 4.02037
# Velocity P-wave (km/s) = 5.53637 6.99291 6.30683
#
# Compressibility (1/GPa) = 0.03582157
#
# Stress axis : x y z
#
# Youngs Moduli (GPa) = 136.44037 41.18632 97.47690
#
# Poissons Ratio (x) = 0.16166 0.10254
# Poissons Ratio (y) = 0.53554 -0.19045
# Poissons Ratio (z) = 0.14353 -0.08047
#
# Static dielectric constant tensor:
#      x y z
#    x 1.795490 -0.073500 -0.089640 
#    y -0.073500 1.938260 0.081340 
#    z -0.089640 0.081340 2.100440 
# 
# From -- ./inp_files/160100.got.cif
#   From: 2010.05.17/outbox.cif.g08.bks.cpg/sg2_81_cif.got.tgz:160100.got - 2010.06.03 11:33:40.
