data_PCOD9071304
_publ_section_title
;
Structure prediction by ZEFSAII (Michael W. Deem and Ramdas Pophale) SiO2 
 PCOD9071304
Probable space group: P -1
;
_chemical_formula_sum "Si O2"
_cell_formula_units_Z 11
_cell_length_a 5.833689
_cell_length_b 11.842066
_cell_length_c 8.460674
_cell_angle_alpha 125.320631
_cell_angle_beta 80.358465
_cell_angle_gamma 79.268504
_cell_volume 440.099056
_symmetry_space_group_name_H-M "P -1"
_symmetry_group_IT_number 2
_symmetry_cell_setting 'triclinic'
loop_
_space_group_symop_operation_xyz
x,y,z
-x,-y,-z
loop_
_atom_site_type_symbol
_atom_site_label
_atom_site_fract_x
_atom_site_fract_y
_atom_site_fract_z
Si Si1 0.548855 0.050722 0.708118
Si Si2 0.741863 0.097983 0.181613
Si Si3 0.789619 0.424053 0.964681
Si Si4 0.501106 0.317306 0.114840
Si Si5 0.007414 0.770078 0.510803
Si Si6 0.000000 0.500000 0.500000
O O1 0.359909 0.014898 0.815880
O O2 0.813211 0.935973 0.642169
O O3 0.500000 0.000000 0.500000
O O4 0.499916 0.222975 0.880087
O O5 0.584986 0.193210 0.136735
O O6 0.768029 0.211545 0.401516
O O7 0.000000 0.000000 0.000000
O O8 0.911552 0.291676 0.722136
O O9 0.500000 0.500000 0.000000
O O10 0.726032 0.380844 0.113225
O O11 0.000000 0.500000 0.000000
O O12 0.243559 0.435484 0.298105
O O13 0.914202 0.659830 0.537659
#
# Coordination Sequence:
#
# PCOD9071304 Si02
#       6
#     2   2   2   2   2   1
#     4  12  28  50  79 117 165 213 276 347 417 508
#     4  12  26  47  79 115 160 206 274 348 418 495
#     4  12  31  53  80 122 171 222 280 344 424 509
#     4  12  27  52  81 122 162 220 281 348 424 500
#     4  12  28  49  79 120 159 220 277 340 425 499
#     4  12  26  48  84 112 168 210 278 340 422 490
#
# _framework density 24.994373
#
# number of rings (size 3 to 8) (size 9 to 14) (size 15 to 20)
#    0.000    0.000    5.455    2.727   10.182    2.182 
#    0.000    0.000    0.000    0.000    0.000    0.000 
#    0.000    0.000    0.000    0.000    0.000    0.000 
#
# Total GULP energy -61289.467365 kJ/mol
# GULP energy per Si atom -5571.769760 kJ/mol
# Density = 2.493748 g / cm^3
# Si number density = 24.994373 Si / 1000 Ang^3
#
#
#
# Elastic Constant Matrix: (Units=GPa)
#
#
# Indices 1 2 3 4 5 6 
#
# 1 100.2879 39.1477 77.1709 -3.8607 -13.7784 24.8938
# 2 39.1477 126.5044 29.1822 -7.1580 -16.2706 28.3210
# 3 77.1709 29.1822 157.4571 15.6815 -25.0958 18.9536
# 4 -3.8607 -7.1580 15.6815 34.8624 -2.1590 -11.2521
# 5 -13.7784 -16.2706 -25.0958 -2.1590 52.2284 -8.7352
# 6 24.8938 28.3210 18.9536 -11.2521 -8.7352 56.7532
#
#
#
# Elastic Compliance Matrix: (Units=1/GPa)
#
#
# Indices 1 2 3 4 5 6 
#
# 1 0.018726 -0.002903 -0.008798 0.004426 -0.000515 -0.003029
# 2 -0.002903 0.009754 0.000242 0.000635 0.001870 -0.003261
# 3 -0.008798 0.000242 0.011860 -0.006405 0.003017 -0.001028
# 4 0.004426 0.000635 -0.006405 0.034447 0.000856 0.006842
# 5 -0.000515 0.001870 0.003017 0.000856 0.021370 0.001744
# 6 -0.003029 -0.003261 -0.001028 0.006842 0.001744 0.022544
#
#
# Mechanical properties :
#
#
# Convention : Reuss Voigt Hill
#
# Bulk Modulus (GPa) = 57.39589 75.02788 66.21189
# Shear Modulus (GPa) = 33.91522 44.68537 39.30029
#
# Velocity S-wave (km/s) = 3.68763 4.23285 3.96961
# Velocity P-wave (km/s) = 6.41442 7.34659 6.89628
#
# Compressibility (1/GPa) = 0.01742285
#
# Stress axis : x y z
#
# Youngs Moduli (GPa) = 53.40202 102.52315 84.31432
#
# Poissons Ratio (x) = 0.29764 0.74179
# Poissons Ratio (y) = 0.15503 -0.02044
# Poissons Ratio (z) = 0.46983 -0.02486
#
# Static dielectric constant tensor:
#      x y z
#    x 2.115670 -0.086300 0.195250 
#    y -0.086300 2.095280 -0.108690 
#    z 0.195250 -0.108690 2.098390 
# 
# From -- ./inp_files/17005.got.cif
#   From: 2010.05.17/outbox.cif.g08.bks.cpg/sg2_9_cif.got.tgz:17005.got - 2010.06.03 11:33:40.
