data_PCOD9071935
_publ_section_title
;
Structure prediction by ZEFSAII (Michael W. Deem and Ramdas Pophale) SiO2 
 PCOD9071935
Probable space group: P -1
;
_chemical_formula_sum "Si O2"
_cell_formula_units_Z 12
_cell_length_a 5.334121
_cell_length_b 9.239368
_cell_length_c 21.521701
_cell_angle_alpha 31.292061
_cell_angle_beta 122.798787
_cell_angle_gamma 109.440203
_cell_volume 442.059217
_symmetry_space_group_name_H-M "P -1"
_symmetry_group_IT_number 2
_symmetry_cell_setting 'triclinic'
loop_
_space_group_symop_operation_xyz
x,y,z
-x,-y,-z
loop_
_atom_site_type_symbol
_atom_site_label
_atom_site_fract_x
_atom_site_fract_y
_atom_site_fract_z
Si Si1 0.203954 0.001193 0.286657
Si Si2 0.656930 0.969386 0.945480
Si Si3 0.236332 0.284020 0.339001
Si Si4 0.449580 0.920681 0.801385
Si Si5 0.405468 0.539714 0.386772
Si Si6 0.567157 0.501610 0.200606
O O1 0.359194 0.193918 0.193424
O O2 0.159390 0.760465 0.317757
O O3 0.436784 0.777806 0.446866
O O4 0.860262 0.166883 0.201648
O O5 0.647766 0.879569 0.905768
O O6 0.419255 0.278744 0.820899
O O7 0.547355 0.729079 0.058244
O O8 0.000000 0.000000 0.000000
O O9 0.272413 0.517678 0.309338
O O10 0.315527 0.363642 0.250209
O O11 0.894304 0.260271 0.317254
O O12 0.500000 0.000000 0.500000
O O13 0.348451 0.273794 0.649382
#
# Coordination Sequence:
#
# PCOD9071935 Si02
#       6
#     2   2   2   2   2   2
#     4   9  19  29  50  76 109 136 169 227 274 326
#     4  11  21  33  60  81 116 143 174 242 284 327
#     4  12  24  38  55  79 117 156 183 219 264 335
#     4  10  18  30  48  79 107 131 167 217 288 324
#     4   9  19  31  52  73 111 135 182 216 271 327
#     4  11  22  37  52  83 110 145 190 218 280 325
#
# _framework density 27.145682000000001
#
# number of rings (size 3 to 8) (size 9 to 14) (size 15 to 20)
#    1.000    0.667    3.333    2.000    4.667    0.000 
#    0.000    0.000    0.000    0.000    0.000    7.000 
#    0.000    0.000    0.000    0.000    0.000    0.000 
#
# Total GULP energy -66975.057149 kJ/mol
# GULP energy per Si atom -5581.254762 kJ/mol
# Density = 2.708390 g / cm^3
# Si number density = 27.145682 Si / 1000 Ang^3
#
#
#
# Elastic Constant Matrix: (Units=GPa)
#
#
# Indices 1 2 3 4 5 6 
#
# 1 236.1996 47.9293 46.4962 27.2394 -25.4537 5.6045
# 2 47.9293 68.2747 22.0012 14.5738 -15.7381 12.4192
# 3 46.4962 22.0012 73.5012 10.5559 -21.6120 0.9155
# 4 27.2394 14.5738 10.5559 56.2488 -16.9985 -12.4979
# 5 -25.4537 -15.7381 -21.6120 -16.9985 51.3150 4.5008
# 6 5.6045 12.4192 0.9155 -12.4979 4.5008 48.9139
#
#
#
# Elastic Compliance Matrix: (Units=1/GPa)
#
#
# Indices 1 2 3 4 5 6 
#
# 1 0.005443 -0.002592 -0.002313 -0.001462 0.000476 -0.000340
# 2 -0.002592 0.019955 -0.002861 -0.003831 0.002883 -0.005960
# 3 -0.002313 -0.002861 0.017472 0.000267 0.005401 0.000236
# 4 -0.001462 -0.003831 0.000267 0.022378 0.005065 0.006387
# 5 0.000476 0.002883 0.005401 0.005065 0.024725 -0.001868
# 6 -0.000340 -0.005960 0.000236 0.006387 -0.001868 0.023796
#
#
# Mechanical properties :
#
#
# Convention : Reuss Voigt Hill
#
# Bulk Modulus (GPa) = 36.58068 67.86989 52.22529
# Shear Modulus (GPa) = 36.12368 48.73214 42.42791
#
# Velocity S-wave (km/s) = 3.65188 4.24159 3.95773
# Velocity P-wave (km/s) = 5.59344 7.00317 6.33763
#
# Compressibility (1/GPa) = 0.02733683
#
# Stress axis : x y z
#
# Youngs Moduli (GPa) = 183.72328 50.11309 57.23504
#
# Poissons Ratio (x) = 0.12990 0.13239
# Poissons Ratio (y) = 0.47622 0.16376
# Poissons Ratio (z) = 0.42497 0.14339
#
# Static dielectric constant tensor:
#      x y z
#    x 2.195740 -0.003330 -0.060980 
#    y -0.003330 2.239820 -0.019620 
#    z -0.060980 -0.019620 2.115560 
# 
# From -- ./inp_files/549039.got.cif
#   From: 2010.05.17/outbox.cif.g08.bks.cpg/sg2_275_cif.got.tgz:549039.got - 2010.06.03 11:33:40.
