data_PCOD9071968
_publ_section_title
;
Structure prediction by ZEFSAII (Michael W. Deem and Ramdas Pophale) SiO2 
 PCOD9071968
Probable space group: P -1
;
_chemical_formula_sum "Si O2"
_cell_formula_units_Z 16
_cell_length_a 15.070412
_cell_length_b 10.871748
_cell_length_c 13.833134
_cell_angle_alpha 44.011447
_cell_angle_beta 88.977687
_cell_angle_gamma 123.304007
_cell_volume 925.780621
_symmetry_space_group_name_H-M "P -1"
_symmetry_group_IT_number 2
_symmetry_cell_setting 'triclinic'
loop_
_space_group_symop_operation_xyz
x,y,z
-x,-y,-z
loop_
_atom_site_type_symbol
_atom_site_label
_atom_site_fract_x
_atom_site_fract_y
_atom_site_fract_z
Si Si1 0.660043 0.745511 0.733539
Si Si2 0.007801 0.817845 0.555101
Si Si3 0.555622 0.877050 0.800791
Si Si4 0.544008 0.846759 0.168238
Si Si5 0.007808 0.699676 0.832459
Si Si6 0.656434 0.782107 0.483156
Si Si7 0.708973 0.270133 0.757226
Si Si8 0.318158 0.787136 0.846684
O O1 0.630120 0.878648 0.715924
O O2 0.641502 0.739800 0.622720
O O3 0.545887 0.416803 0.964684
O O4 0.830579 0.953383 0.624882
O O5 0.991977 0.664466 0.736125
O O6 0.876245 0.578482 0.615765
O O7 0.000000 0.000000 0.500000
O O8 0.438749 0.834636 0.787029
O O9 0.677289 0.163315 0.708236
O O10 0.482827 0.556370 0.362709
O O11 0.395064 0.725949 0.222652
O O12 0.638055 0.092623 0.111747
O O13 0.641597 0.011692 0.976188
O O14 0.857533 0.555706 0.955184
O O15 0.000000 0.500000 0.000000
O O16 0.819009 0.960423 0.348149
O O17 0.661442 0.995610 0.333403
#
# Coordination Sequence:
#
# PCOD9071968 Si02
#       8
#     2   2   2   2   2   2   2   2
#     4  10  21  35  52  74 102 135 174 212 243 301
#     4  11  20  32  55  79  99 130 166 208 258 304
#     4  10  21  36  51  72 103 139 173 206 251 297
#     4  10  18  30  49  79 104 129 163 211 257 299
#     4   9  18  30  46  73 103 126 155 203 252 293
#     4  10  19  32  51  77 103 130 171 213 252 299
#     4  10  19  31  52  75 104 134 165 210 252 302
#     4  10  19  32  52  75 103 135 166 208 260 305
#
# _framework density 17.282713000000001
#
# number of rings (size 3 to 8) (size 9 to 14) (size 15 to 20)
#    0.000    2.000    2.500    2.625    1.750    1.000 
#    0.000    0.000    0.000    0.000    0.000    0.875 
#    0.000    0.000    0.000    0.000    0.000    0.000 
#
# Total GULP energy -89158.882659 kJ/mol
# GULP energy per Si atom -5572.430166 kJ/mol
# Density = 1.724338 g / cm^3
# Si number density = 17.282713 Si / 1000 Ang^3
#
#
#
# Elastic Constant Matrix: (Units=GPa)
#
#
# Indices 1 2 3 4 5 6 
#
# 1 95.6807 31.7665 25.8321 -6.4573 -12.9115 -2.6841
# 2 31.7665 44.7478 11.6499 -12.4711 -10.7821 1.5676
# 3 25.8321 11.6499 55.5564 0.7737 -3.9209 -6.1019
# 4 -6.4573 -12.4711 0.7737 19.0486 6.6426 4.7181
# 5 -12.9115 -10.7821 -3.9209 6.6426 27.2965 4.0476
# 6 -2.6841 1.5676 -6.1019 4.7181 4.0476 23.2881
#
#
#
# Elastic Compliance Matrix: (Units=1/GPa)
#
#
# Indices 1 2 3 4 5 6 
#
# 1 0.015157 -0.009426 -0.004703 -0.002200 0.003151 0.001047
# 2 -0.009426 0.038413 -0.004716 0.022634 0.006094 -0.010553
# 3 -0.004703 -0.004716 0.022037 -0.007254 -0.000203 0.007054
# 4 -0.002200 0.022634 -0.007254 0.074134 -0.008633 -0.017197
# 5 0.003151 0.006094 -0.000203 -0.008633 0.043480 -0.005908
# 6 0.001047 -0.010553 0.007054 -0.017197 -0.005908 0.050131
#
#
# Mechanical properties :
#
#
# Convention : Reuss Voigt Hill
#
# Bulk Modulus (GPa) = 26.37401 37.16465 31.76933
# Shear Modulus (GPa) = 17.02529 22.37572 19.70051
#
# Velocity S-wave (km/s) = 3.14204 3.60208 3.37990
# Velocity P-wave (km/s) = 5.33448 6.23303 5.80118
#
# Compressibility (1/GPa) = 0.03791611
#
# Stress axis : x y z
#
# Youngs Moduli (GPa) = 65.97752 26.03281 45.37852
#
# Poissons Ratio (x) = 0.24539 0.21340
# Poissons Ratio (y) = 0.62192 0.21402
# Poissons Ratio (z) = 0.31028 0.12278
#
# Static dielectric constant tensor:
#      x y z
#    x 1.604390 0.028700 0.013710 
#    y 0.028700 1.573910 -0.017420 
#    z 0.013710 -0.017420 1.611680 
# 
# From -- ./inp_files/530982.got.cif
#   From: 2010.05.17/outbox.cif.g08.bks.cpg/sg2_266_cif.got.tgz:530982.got - 2010.06.03 11:33:40.
