data_PCOD9071612
_publ_section_title
;
Structure prediction by ZEFSAII (Michael W. Deem and Ramdas Pophale) SiO2 
 PCOD9071612
Probable space group: P -1
;
_chemical_formula_sum "Si O2"
_cell_formula_units_Z 12
_cell_length_a 19.317976
_cell_length_b 17.738631
_cell_length_c 8.623994
_cell_angle_alpha 34.983651
_cell_angle_beta 146.116399
_cell_angle_gamma 164.393121
_cell_volume 439.391443
_symmetry_space_group_name_H-M "P -1"
_symmetry_group_IT_number 2
_symmetry_cell_setting 'triclinic'
loop_
_space_group_symop_operation_xyz
x,y,z
-x,-y,-z
loop_
_atom_site_type_symbol
_atom_site_label
_atom_site_fract_x
_atom_site_fract_y
_atom_site_fract_z
Si Si1 0.174559 0.070203 0.826004
Si Si2 0.460719 0.391459 0.438639
Si Si3 0.948741 0.715514 0.620752
Si Si4 0.728101 0.255796 0.111748
Si Si5 0.509012 0.865724 0.813378
Si Si6 0.063720 0.315099 0.709601
O O1 0.500000 0.500000 0.500000
O O2 0.289545 0.455690 0.424802
O O3 0.137173 0.363691 0.585626
O O4 0.034059 0.903337 0.007596
O O5 0.205764 0.056650 0.521441
O O6 0.000000 0.000000 0.500000
O O7 0.543132 0.601346 0.147767
O O8 0.952631 0.564266 0.935238
O O9 0.720922 0.422994 0.218155
O O10 0.578989 0.193739 0.075540
O O11 0.846032 0.229514 0.438625
O O12 0.500000 0.000000 0.000000
O O13 0.763368 0.010826 0.007434
O O14 0.500000 0.000000 0.500000
#
# Coordination Sequence:
#
# PCOD9071612 Si02
#       6
#     2   2   2   2   2   2
#     4  12  31  54  87 129 179 244 308 372 457 551
#     4  12  29  52  87 124 179 240 302 359 454 552
#     4  12  29  53  89 132 180 234 297 381 458 539
#     4  12  27  55  92 135 182 234 303 382 465 547
#     4  12  28  54  93 126 181 238 306 381 457 543
#     4  12  30  54  85 133 178 232 312 375 459 548
#
# _framework density 27.310500999999999
#
# number of rings (size 3 to 8) (size 9 to 14) (size 15 to 20)
#    0.000    0.000    1.667    5.500   11.667    4.000 
#    0.000    0.000    0.000    0.000    0.000    0.000 
#    0.000    0.000    0.000    0.000    0.000    0.000 
#
# Total GULP energy -67015.424780 kJ/mol
# GULP energy per Si atom -5584.618732 kJ/mol
# Density = 2.724834 g / cm^3
# Si number density = 27.310501 Si / 1000 Ang^3
#
#
#
# Elastic Constant Matrix: (Units=GPa)
#
#
# Indices 1 2 3 4 5 6 
#
# 1 195.1686 70.3474 55.2925 7.1505 -8.1466 4.1657
# 2 70.3474 205.8480 57.0159 -40.1102 -5.7037 -4.2848
# 3 55.2925 57.0159 207.6272 -17.9451 5.4251 8.1768
# 4 7.1505 -40.1102 -17.9451 68.5500 11.3754 10.0054
# 5 -8.1466 -5.7037 5.4251 11.3754 54.3802 0.9524
# 6 4.1657 -4.2848 8.1768 10.0054 0.9524 47.7137
#
#
#
# Elastic Compliance Matrix: (Units=1/GPa)
#
#
# Indices 1 2 3 4 5 6 
#
# 1 0.006499 -0.002317 -0.001357 -0.002620 0.001414 -0.000022
# 2 -0.002317 0.006651 -0.000862 0.003954 -0.000393 0.000126
# 3 -0.001357 -0.000862 0.005619 0.001474 -0.001141 -0.001208
# 4 -0.002620 0.003954 0.001474 0.018735 -0.003982 -0.003518
# 5 0.001414 -0.000393 -0.001141 -0.003982 0.019498 0.000483
# 6 -0.000022 0.000126 -0.001208 -0.003518 0.000483 0.021907
#
#
# Mechanical properties :
#
#
# Convention : Reuss Voigt Hill
#
# Bulk Modulus (GPa) = 103.12994 108.21727 105.67361
# Shear Modulus (GPa) = 54.81641 62.52798 58.67220
#
# Velocity S-wave (km/s) = 4.48499 4.79009 4.64005
# Velocity P-wave (km/s) = 8.04140 8.38475 8.21487
#
# Compressibility (1/GPa) = 0.00969651
#
# Stress axis : x y z
#
# Youngs Moduli (GPa) = 153.87299 150.35704 177.95855
#
# Poissons Ratio (x) = 0.34837 0.24150
# Poissons Ratio (y) = 0.35651 0.15345
# Poissons Ratio (z) = 0.20881 0.12965
#
# Static dielectric constant tensor:
#      x y z
#    x 2.212600 0.124670 0.111170 
#    y 0.124670 2.308920 -0.032090 
#    z 0.111170 -0.032090 2.351660 
# 
# From -- ./inp_files/224474.got.cif
#   From: 2010.05.17/outbox.cif.g08.bks.cpg/sg2_113_cif.got.tgz:224474.got - 2010.06.03 11:33:40.
