data_PCOD9071922
_publ_section_title
;
Structure prediction by ZEFSAII (Michael W. Deem and Ramdas Pophale) SiO2 
 PCOD9071922
Probable space group: P -1
;
_chemical_formula_sum "Si O2"
_cell_formula_units_Z 14
_cell_length_a 15.000000
_cell_length_b 9.000000
_cell_length_c 9.000000
_cell_angle_alpha 130.000000
_cell_angle_beta 70.000000
_cell_angle_gamma 130.000000
_cell_volume 707.730323
_symmetry_space_group_name_H-M "P -1"
_symmetry_group_IT_number 2
_symmetry_cell_setting 'triclinic'
loop_
_space_group_symop_operation_xyz
x,y,z
-x,-y,-z
loop_
_atom_site_type_symbol
_atom_site_label
_atom_site_fract_x
_atom_site_fract_y
_atom_site_fract_z
Si Si1 0.818857 0.206755 0.559973
Si Si2 0.342673 0.729101 0.797303
Si Si3 0.038995 0.245069 0.045143
Si Si4 0.374505 0.439422 0.998887
Si Si5 0.205567 0.918154 0.856443
Si Si6 0.402410 0.910483 0.221873
Si Si7 0.797414 0.756560 0.297012
O O1 0.887731 0.489608 0.746203
O O2 0.820772 0.176944 0.361040
O O3 0.690972 0.076344 0.625414
O O4 0.855950 0.033678 0.482609
O O5 0.282670 0.840436 0.828099
O O6 0.254486 0.440317 0.669807
O O7 0.466690 0.847564 0.718318
O O8 0.364593 0.818181 0.013984
O O9 0.913506 0.193771 0.056729
O O10 0.115240 0.260679 0.872070
O O11 0.000000 0.000000 0.000000
O O12 0.318250 0.342490 0.804376
O O13 0.278614 0.207485 0.000631
O O14 0.500000 0.500000 0.000000
O O15 0.394561 0.692323 0.167589
#
# Coordination Sequence:
#
# PCOD9071922 Si02
#       7
#     2   2   2   2   2   2   2
#     4  11  22  41  64  94 115 165 210 258 292 372
#     4  10  21  41  58  93 125 169 194 253 316 370
#     4  12  21  42  67  89 120 169 203 257 308 359
#     4  10  17  36  59  92 116 161 201 249 293 368
#     4  11  23  35  66  94 124 155 219 253 297 362
#     4  10  20  38  67  82 133 164 199 249 320 356
#     4  10  23  40  63  88 130 160 204 249 313 364
#
# _framework density 19.781545999999999
#
# number of rings (size 3 to 8) (size 9 to 14) (size 15 to 20)
#    0.000    1.429    7.143    0.429    0.000    1.714 
#    0.000    3.571    0.000    0.000    0.000    0.000 
#    0.000    0.000    0.000    0.000    0.000    0.000 
#
# Total GULP energy -77995.637424 kJ/mol
# GULP energy per Si atom -5571.116959 kJ/mol
# Density = 1.973652 g / cm^3
# Si number density = 19.781546 Si / 1000 Ang^3
#
#
#
# Elastic Constant Matrix: (Units=GPa)
#
#
# Indices 1 2 3 4 5 6 
#
# 1 45.3864 34.3286 11.9674 -9.0823 -12.7753 17.0093
# 2 34.3286 154.6935 38.2591 22.5396 -15.4023 7.4087
# 3 11.9674 38.2591 67.9978 14.7134 -33.4654 10.3683
# 4 -9.0823 22.5396 14.7134 28.7725 0.4624 -12.2759
# 5 -12.7753 -15.4023 -33.4654 0.4624 22.6670 -0.6615
# 6 17.0093 7.4087 10.3683 -12.2759 -0.6615 44.5318
#
#
#
# Elastic Compliance Matrix: (Units=1/GPa)
#
#
# Indices 1 2 3 4 5 6 
#
# 1 0.074217 -0.013133 0.130122 -0.066974 0.224294 -0.071590
# 2 -0.013133 0.010959 -0.015219 -0.002105 -0.022211 0.005826
# 3 0.130122 -0.015219 0.493689 -0.313161 0.791355 -0.236687
# 4 -0.066974 -0.002105 -0.313161 0.252114 -0.501973 0.160887
# 5 0.224294 -0.022211 0.791355 -0.501973 1.322793 -0.384953
# 6 -0.071590 0.005826 -0.236687 0.160887 -0.384953 0.142571
#
#
# Mechanical properties :
#
#
# Convention : Reuss Voigt Hill
#
# Bulk Modulus (GPa) = 1.27811 48.57644 24.92728
# Shear Modulus (GPa) = 2.12440 31.42909 16.77675
#
# Velocity S-wave (km/s) = 1.03743 3.99031 2.91538
# Velocity P-wave (km/s) = 1.44310 6.77051 4.89502
#
# Compressibility (1/GPa) = 0.78240554
#
# Stress axis : x y z
#
# Youngs Moduli (GPa) = 13.47395 91.24974 2.02557
#
# Poissons Ratio (x) = 1.19836 -0.26357
# Poissons Ratio (y) = 0.17695 0.03083
# Poissons Ratio (z) = -1.75326 1.38873
#
# Static dielectric constant tensor:
#      x y z
#    x 1.743360 -0.013110 0.002740 
#    y -0.013110 1.735560 0.033520 
#    z 0.002740 0.033520 1.685220 
# 
# From -- ./inp_files/180855.got.cif
#   From: 2010.05.17/outbox.ucp.g08.bks.cvg/sg2_91_cif.got.tgz:180855.got - 2010.06.11 11:32:03.
