data_PCOD9071978
_publ_section_title
;
Structure prediction by ZEFSAII (Michael W. Deem and Ramdas Pophale) SiO2 
 PCOD9071978
Probable space group: P -1
;
_chemical_formula_sum "Si O2"
_cell_formula_units_Z 16
_cell_length_a 24.603347
_cell_length_b 6.364744
_cell_length_c 12.509834
_cell_angle_alpha 113.511864
_cell_angle_beta 144.254993
_cell_angle_gamma 42.724379
_cell_volume 673.396109
_symmetry_space_group_name_H-M "P -1"
_symmetry_group_IT_number 2
_symmetry_cell_setting 'triclinic'
loop_
_space_group_symop_operation_xyz
x,y,z
-x,-y,-z
loop_
_atom_site_type_symbol
_atom_site_label
_atom_site_fract_x
_atom_site_fract_y
_atom_site_fract_z
Si Si1 0.785560 0.099678 0.294596
Si Si2 0.616060 0.085387 0.134906
Si Si3 0.462430 0.279620 0.131562
Si Si4 0.157661 0.295160 0.170725
Si Si5 0.116207 0.604244 0.943113
Si Si6 0.293968 0.623464 0.127471
Si Si7 0.152145 0.602936 0.412944
Si Si8 0.957796 0.765981 0.311596
O O1 0.763615 0.903775 0.281430
O O2 0.662895 0.348953 0.058970
O O3 0.763038 0.340107 0.394442
O O4 0.931992 0.876296 0.416735
O O5 0.574571 0.918941 0.985440
O O6 0.500000 0.500000 0.000000
O O7 0.599798 0.083339 0.236428
O O8 0.439415 0.372545 0.238863
O O9 0.222009 0.311850 0.376010
O O10 0.255763 0.901152 0.203970
O O11 0.132045 0.510314 0.073057
O O12 0.000000 0.500000 0.000000
O O13 0.074408 0.444255 0.788256
O O14 0.263034 0.442677 0.100575
O O15 0.986541 0.023830 0.795182
O O16 0.169137 0.874686 0.888389
O O17 0.093075 0.578743 0.416679
#
# Coordination Sequence:
#
# PCOD9071978 Si02
#       8
#     2   2   2   2   2   2   2   2
#     4  10  20  32  48  76 105 130 165 200 252 306
#     4   9  18  34  56  76  99 125 160 206 253 313
#     4   9  18  35  55  77 100 126 159 208 260 296
#     4  11  19  34  48  69 103 139 179 208 230 277
#     4  10  18  30  50  67  97 139 172 208 238 279
#     4   9  18  30  51  74  96 130 172 208 240 288
#     4  11  21  30  46  72 104 141 170 203 241 285
#     4   9  18  31  45  69 104 136 164 203 239 294
#
# _framework density 23.760159999999999
#
# number of rings (size 3 to 8) (size 9 to 14) (size 15 to 20)
#    0.000    2.250    3.750    1.500    0.000    2.500 
#    0.000    0.000    0.000    0.750    0.000    8.750 
#    0.000    0.000    0.000    0.000    0.000    0.000 
#
# Total GULP energy -89352.088981 kJ/mol
# GULP energy per Si atom -5584.505561 kJ/mol
# Density = 2.370608 g / cm^3
# Si number density = 23.760160 Si / 1000 Ang^3
#
#
#
# Elastic Constant Matrix: (Units=GPa)
#
#
# Indices 1 2 3 4 5 6 
#
# 1 217.1363 76.9830 45.4015 23.1676 1.5872 -5.4197
# 2 76.9830 86.5320 17.4459 15.8149 -4.5495 -6.8539
# 3 45.4015 17.4459 44.1359 13.2971 -11.5658 -9.6180
# 4 23.1676 15.8149 13.2971 39.7869 -8.6472 -6.3967
# 5 1.5872 -4.5495 -11.5658 -8.6472 32.8905 -4.1862
# 6 -5.4197 -6.8539 -9.6180 -6.3967 -4.1862 52.6103
#
#
#
# Elastic Compliance Matrix: (Units=1/GPa)
#
#
# Indices 1 2 3 4 5 6 
#
# 1 0.008479 -0.006189 -0.007459 -0.001239 -0.004443 -0.001801
# 2 -0.006189 0.017610 0.001389 -0.003000 0.002658 0.001757
# 3 -0.007459 0.001389 0.035869 -0.004367 0.012840 0.006461
# 4 -0.001239 -0.003000 -0.004367 0.030377 0.006463 0.002891
# 5 -0.004443 0.002658 0.012840 0.006463 0.037969 0.006043
# 6 -0.001801 0.001757 0.006461 0.002891 0.006043 0.021065
#
#
# Mechanical properties :
#
#
# Convention : Reuss Voigt Hill
#
# Bulk Modulus (GPa) = 26.70932 69.71832 48.21382
# Shear Modulus (GPa) = 26.54376 38.92245 32.73310
#
# Velocity S-wave (km/s) = 3.34601 4.05178 3.71569
# Velocity P-wave (km/s) = 5.11794 7.16209 6.22450
#
# Compressibility (1/GPa) = 0.03744012
#
# Stress axis : x y z
#
# Youngs Moduli (GPa) = 117.93562 56.78634 27.87884
#
# Poissons Ratio (x) = 0.35147 0.20795
# Poissons Ratio (y) = 0.72995 -0.03873
# Poissons Ratio (z) = 0.87971 -0.07890
#
# Static dielectric constant tensor:
#      x y z
#    x 1.937940 -0.062820 0.051530 
#    y -0.062820 1.974710 -0.067520 
#    z 0.051530 -0.067520 1.953600 
# 
# From -- ./inp_files/70681.got.cif
#   From: 2010.05.17/outbox.cif.g08.bks.cpg/sg2_36_cif.got.tgz:70681.got - 2010.06.03 11:33:40.
