data_PCOD9071334
_publ_section_title
;
Structure prediction by ZEFSAII (Michael W. Deem and Ramdas Pophale) SiO2 
 PCOD9071334
Probable space group: P -1
;
_chemical_formula_sum "Si O2"
_cell_formula_units_Z 12
_cell_length_a 11.403589
_cell_length_b 11.135693
_cell_length_c 9.618040
_cell_angle_alpha 41.136375
_cell_angle_beta 131.972884
_cell_angle_gamma 138.029748
_cell_volume 520.624918
_symmetry_space_group_name_H-M "P -1"
_symmetry_group_IT_number 2
_symmetry_cell_setting 'triclinic'
loop_
_space_group_symop_operation_xyz
x,y,z
-x,-y,-z
loop_
_atom_site_type_symbol
_atom_site_label
_atom_site_fract_x
_atom_site_fract_y
_atom_site_fract_z
Si Si1 0.892938 0.034234 0.759243
Si Si2 0.695555 0.192260 0.661503
Si Si3 0.819698 0.407889 0.847241
Si Si4 0.862398 0.833064 0.427333
Si Si5 0.516474 0.806604 0.052647
Si Si6 0.547904 0.604591 0.795778
O O1 0.792416 0.151121 0.644657
O O2 0.743127 0.809843 0.778239
O O3 0.029620 0.153659 0.639523
O O4 0.000000 0.000000 0.000000
O O5 0.832769 0.318992 0.785169
O O6 0.441739 0.031847 0.181581
O O7 0.591220 0.316144 0.428825
O O8 0.783298 0.600495 0.625069
O O9 0.648938 0.230299 0.949035
O O10 0.000000 0.500000 0.000000
O O11 0.700591 0.875661 0.222731
O O12 0.000000 0.000000 0.500000
O O13 0.464086 0.577973 0.151444
O O14 0.500000 0.500000 0.000000
#
# Coordination Sequence:
#
# PCOD9071334 Si02
#       6
#     2   2   2   2   2   2
#     4  12  27  49  77 113 156 197 257 320 382 456
#     4  12  27  49  77 113 152 199 257 315 386 455
#     4  12  29  47  77 114 151 202 258 318 384 460
#     4  12  26  49  78 110 153 205 252 317 381 455
#     4  12  26  52  75 109 155 199 258 314 385 453
#     4  12  26  48  76 110 150 203 252 310 384 452
#
# _framework density 23.049223000000001
#
# number of rings (size 3 to 8) (size 9 to 14) (size 15 to 20)
#    0.000    0.000    5.000    3.500    7.000    0.667 
#    0.000    0.000    0.000    0.000    0.000    0.000 
#    0.000    0.000    0.000    0.000    0.000    0.000 
#
# Total GULP energy -67307.840109 kJ/mol
# GULP energy per Si atom -5608.986676 kJ/mol
# Density = 2.299676 g / cm^3
# Si number density = 23.049223 Si / 1000 Ang^3
#
#
#
# Elastic Constant Matrix: (Units=GPa)
#
#
# Indices 1 2 3 4 5 6 
#
# 1 125.0440 51.2429 56.3799 -10.6985 -15.0226 -4.9206
# 2 51.2429 118.9025 43.1525 13.6903 -1.4643 -10.1891
# 3 56.3799 43.1525 130.8279 -3.4465 2.3052 3.0282
# 4 -10.6985 13.6903 -3.4465 49.5143 -5.0658 -1.2293
# 5 -15.0226 -1.4643 2.3052 -5.0658 34.5564 -9.8733
# 6 -4.9206 -10.1891 3.0282 -1.2293 -9.8733 51.9050
#
#
#
# Elastic Compliance Matrix: (Units=1/GPa)
#
#
# Indices 1 2 3 4 5 6 
#
# 1 0.012967 -0.004308 -0.004220 0.004465 0.006980 0.002063
# 2 -0.004308 0.011666 -0.002120 -0.004409 -0.001417 0.001631
# 3 -0.004220 -0.002120 0.010265 0.000013 -0.003185 -0.002021
# 4 0.004465 -0.004409 0.000013 0.022966 0.005445 0.001137
# 5 0.006980 -0.001417 -0.003185 0.005445 0.035026 0.007361
# 6 0.002063 0.001631 -0.002021 0.001137 0.007361 0.021327
#
#
# Mechanical properties :
#
#
# Convention : Reuss Voigt Hill
#
# Bulk Modulus (GPa) = 73.52433 75.14724 74.33578
# Shear Modulus (GPa) = 35.70175 42.12841 38.91508
#
# Velocity S-wave (km/s) = 3.93992 4.27987 4.11341
# Velocity P-wave (km/s) = 7.25709 7.55624 7.40817
#
# Compressibility (1/GPa) = 0.01360094
#
# Stress axis : x y z
#
# Youngs Moduli (GPa) = 77.11727 85.71642 97.41810
#
# Poissons Ratio (x) = 0.36927 0.41114
# Poissons Ratio (y) = 0.33222 0.20657
# Poissons Ratio (z) = 0.32546 0.18176
#
# Static dielectric constant tensor:
#      x y z
#    x 1.673780 -0.070270 0.002160 
#    y -0.070270 1.888970 -0.004110 
#    z 0.002160 -0.004110 1.832380 
# 
# From -- ./inp_files/314521.got.cif
#   From: 2010.05.17/outbox.cif.g08.bks.cpg/sg2_158_cif.got.tgz:314521.got - 2010.06.03 11:33:40.
