data_PCOD9071581
_publ_section_title
;
Structure prediction by ZEFSAII (Michael W. Deem and Ramdas Pophale) SiO2 
 PCOD9071581
Probable space group: P -1
;
_chemical_formula_sum "Si O2"
_cell_formula_units_Z 15
_cell_length_a 8.977974
_cell_length_b 9.551013
_cell_length_c 15.761893
_cell_angle_alpha 51.901987
_cell_angle_beta 140.920675
_cell_angle_gamma 106.738863
_cell_volume 618.839220
_symmetry_space_group_name_H-M "P -1"
_symmetry_group_IT_number 2
_symmetry_cell_setting 'triclinic'
loop_
_space_group_symop_operation_xyz
x,y,z
-x,-y,-z
loop_
_atom_site_type_symbol
_atom_site_label
_atom_site_fract_x
_atom_site_fract_y
_atom_site_fract_z
Si Si1 0.161251 0.941604 0.728227
Si Si2 0.397575 0.339809 0.548144
Si Si3 0.205542 0.903773 0.052842
Si Si4 0.064510 0.604071 0.572418
Si Si5 0.500000 0.000000 0.000000
Si Si6 0.476145 0.637415 0.858701
Si Si7 0.968295 0.423241 0.925983
Si Si8 0.324458 0.166212 0.422677
O O1 0.354541 0.903027 0.906765
O O2 0.043773 0.171519 0.582689
O O3 0.290608 0.846410 0.732560
O O4 0.939688 0.863438 0.675869
O O5 0.500000 0.500000 0.500000
O O6 0.538069 0.237225 0.733904
O O7 0.450538 0.167329 0.568859
O O8 0.098510 0.429549 0.408476
O O9 0.100080 0.757546 0.019384
O O10 0.284083 0.021775 0.972650
O O11 0.000000 0.000000 0.000000
O O12 0.347840 0.569333 0.747589
O O13 0.000000 0.500000 0.500000
O O14 0.500000 0.500000 0.000000
O O15 0.756022 0.637132 0.971784
O O16 0.750518 0.608642 0.718037
O O17 0.000000 0.500000 0.000000
O O18 0.500000 0.000000 0.500000
#
# Coordination Sequence:
#
# PCOD9071581 Si02
#       8
#     2   2   2   2   1   2   2   2
#     4  12  27  50  80 115 160 217 279 337 419 497
#     4  12  27  53  78 114 165 211 278 343 422 497
#     4  12  29  51  82 119 163 217 269 345 413 497
#     4  12  30  48  80 119 161 216 273 345 422 499
#     4  12  28  52  82 118 166 214 284 338 422 494
#     4  12  27  51  80 113 163 211 275 351 413 498
#     4  12  28  49  78 118 155 209 275 335 418 493
#     4  12  29  50  80 118 161 216 271 346 419 504
#
# _framework density 24.238928999999999
#
# number of rings (size 3 to 8) (size 9 to 14) (size 15 to 20)
#    0.000    0.000    5.333    2.000   11.200    0.000 
#    0.000    0.000    0.000    0.000    0.000    0.000 
#    0.000    0.000    0.000    0.000    0.000    0.000 
#
# Total GULP energy -83660.219740 kJ/mol
# GULP energy per Si atom -5577.347983 kJ/mol
# Density = 2.418376 g / cm^3
# Si number density = 24.238929 Si / 1000 Ang^3
#
#
#
# Elastic Constant Matrix: (Units=GPa)
#
#
# Indices 1 2 3 4 5 6 
#
# 1 126.4375 28.7489 -1.3778 -0.5980 14.9842 -0.7834
# 2 28.7489 153.9073 25.2782 24.4558 -1.8811 -13.5011
# 3 -1.3778 25.2782 46.7314 5.6933 10.1028 -5.4556
# 4 -0.5980 24.4558 5.6933 52.0707 -2.3529 -3.2370
# 5 14.9842 -1.8811 10.1028 -2.3529 27.5669 2.5336
# 6 -0.7834 -13.5011 -5.4556 -3.2370 2.5336 45.3408
#
#
#
# Elastic Compliance Matrix: (Units=1/GPa)
#
#
# Indices 1 2 3 4 5 6 
#
# 1 0.009206 -0.002341 0.002814 0.000631 -0.006159 0.000190
# 2 -0.002341 0.008391 -0.004728 -0.003216 0.003167 0.001483
# 3 0.002814 -0.004728 0.027081 -0.001100 -0.012100 0.002497
# 4 0.000631 -0.003216 -0.001100 0.020935 0.001598 0.000326
# 5 -0.006159 0.003167 -0.012100 0.001598 0.044686 -0.003002
# 6 0.000190 0.001483 0.002497 0.000326 -0.003002 0.022991
#
#
# Mechanical properties :
#
#
# Convention : Reuss Voigt Hill
#
# Bulk Modulus (GPa) = 27.64768 48.04165 37.84466
# Shear Modulus (GPa) = 32.49832 43.29081 37.89457
#
# Velocity S-wave (km/s) = 3.66560 4.23070 3.95824
# Velocity P-wave (km/s) = 5.41724 6.61273 6.04461
#
# Compressibility (1/GPa) = 0.03616940
#
# Stress axis : x y z
#
# Youngs Moduli (GPa) = 108.62527 119.17739 36.92687
#
# Poissons Ratio (x) = 0.27896 -0.10392
# Poissons Ratio (y) = 0.25426 0.17458
# Poissons Ratio (z) = -0.30571 0.56342
#
# Static dielectric constant tensor:
#      x y z
#    x 2.009190 -0.030650 -0.011900 
#    y -0.030650 1.918270 -0.003800 
#    z -0.011900 -0.003800 2.024940 
# 
# From -- ./inp_files/494551.got.cif
#   From: 2010.05.17/outbox.cif.g08.bks.cpg/sg2_248_cif.got.tgz:494551.got - 2010.06.03 11:33:40.
