data_PCOD9071097
_publ_section_title
;
Structure prediction by ZEFSAII (Michael W. Deem and Ramdas Pophale) SiO2 
 PCOD9071097
Probable space group: P -1
;
_chemical_formula_sum "Si O2"
_cell_formula_units_Z 16
_cell_length_a 12.503701
_cell_length_b 8.969734
_cell_length_c 10.156253
_cell_angle_alpha 49.966717
_cell_angle_beta 57.976942
_cell_angle_gamma 53.330846
_cell_volume 679.462859
_symmetry_space_group_name_H-M "P -1"
_symmetry_group_IT_number 2
_symmetry_cell_setting 'triclinic'
loop_
_space_group_symop_operation_xyz
x,y,z
-x,-y,-z
loop_
_atom_site_type_symbol
_atom_site_label
_atom_site_fract_x
_atom_site_fract_y
_atom_site_fract_z
Si Si1 0.998993 0.224076 0.416767
Si Si2 0.841069 0.492407 0.619648
Si Si3 0.175851 0.367168 0.856803
Si Si4 0.046180 0.764015 0.054102
Si Si5 0.571164 0.407496 0.869124
Si Si6 0.547908 0.985206 0.131712
Si Si7 0.276982 0.066659 0.430139
Si Si8 0.291889 0.627455 0.793119
O O1 0.931265 0.331929 0.538404
O O2 0.907033 0.401875 0.278267
O O3 0.159732 0.172625 0.337998
O O4 0.000000 0.000000 0.500000
O O5 0.930077 0.395496 0.748244
O O6 0.701337 0.457940 0.731549
O O7 0.780192 0.752430 0.519812
O O8 0.233217 0.445280 0.902867
O O9 0.065495 0.260760 0.962098
O O10 0.324615 0.223110 0.783106
O O11 0.197076 0.720663 0.926720
O O12 0.000000 0.000000 0.000000
O O13 0.452916 0.507375 0.781054
O O14 0.500000 0.500000 0.000000
O O15 0.611115 0.160449 0.992571
O O16 0.420787 0.037810 0.285504
O O17 0.500000 0.000000 0.000000
O O18 0.275548 0.837771 0.599538
#
# Coordination Sequence:
#
# PCOD9071097 Si02
#       8
#     2   2   2   2   2   2   2   2
#     4  12  28  49  77 114 154 202 253 319 391 453
#     4  12  27  49  78 109 157 205 255 319 378 458
#     4  12  28  47  78 111 154 201 256 314 389 446
#     4  12  26  46  77 109 150 199 262 313 378 456
#     4  12  25  50  75 109 155 202 257 313 381 454
#     4  12  28  49  77 111 154 202 252 314 384 459
#     4  12  27  49  77 112 156 199 255 316 382 455
#     4  12  27  47  75 114 154 201 259 313 384 456
#
# _framework density 23.548012
#
# number of rings (size 3 to 8) (size 9 to 14) (size 15 to 20)
#    0.000    0.000    6.250    2.250    5.250    2.000 
#    0.000    0.000    0.000    0.000    0.000    0.000 
#    0.000    0.000    0.000    0.000    0.000    0.000 
#
# Total GULP energy -89161.811125 kJ/mol
# GULP energy per Si atom -5572.613195 kJ/mol
# Density = 2.349442 g / cm^3
# Si number density = 23.548012 Si / 1000 Ang^3
#
#
#
# Elastic Constant Matrix: (Units=GPa)
#
#
# Indices 1 2 3 4 5 6 
#
# 1 111.7290 35.3567 23.3124 -2.1485 -25.5589 -17.2228
# 2 35.3567 134.4048 34.0680 -18.5798 -17.3068 -22.7431
# 3 23.3124 34.0680 56.2179 -8.9586 -19.1332 4.0269
# 4 -2.1485 -18.5798 -8.9586 42.6440 -2.0229 -12.5490
# 5 -25.5589 -17.3068 -19.1332 -2.0229 34.4286 -4.3687
# 6 -17.2228 -22.7431 4.0269 -12.5490 -4.3687 50.6754
#
#
#
# Elastic Compliance Matrix: (Units=1/GPa)
#
#
# Indices 1 2 3 4 5 6 
#
# 1 0.012354 -0.000442 -0.001975 0.002015 0.008655 0.005402
# 2 -0.000442 0.011394 -0.004899 0.006231 0.003962 0.007237
# 3 -0.001975 -0.004899 0.025661 0.002637 0.010057 -0.003389
# 4 0.002015 0.006231 0.002637 0.030703 0.009380 0.011684
# 5 0.008655 0.003962 0.010057 0.009380 0.044886 0.010113
# 6 0.005402 0.007237 -0.003389 0.011684 0.010113 0.028852
#
#
# Mechanical properties :
#
#
# Convention : Reuss Voigt Hill
#
# Bulk Modulus (GPa) = 28.75419 54.20287 41.47853
# Shear Modulus (GPa) = 27.76621 39.52389 33.64505
#
# Velocity S-wave (km/s) = 3.43757 4.10132 3.78403
# Velocity P-wave (km/s) = 5.29087 6.74505 6.06173
#
# Compressibility (1/GPa) = 0.03477755
#
# Stress axis : x y z
#
# Youngs Moduli (GPa) = 80.94769 87.76319 38.96905
#
# Poissons Ratio (x) = 0.03878 0.07697
# Poissons Ratio (y) = 0.03577 0.19090
# Poissons Ratio (z) = 0.15989 0.42994
#
# Static dielectric constant tensor:
#      x y z
#    x 1.974350 -0.031410 0.014650 
#    y -0.031410 1.951610 0.020050 
#    z 0.014650 0.020050 1.945030 
# 
# From -- ./inp_files/418856.got.cif
#   From: 2010.05.17/outbox.cif.g08.bks.cpg/sg2_210_cif.got.tgz:418856.got - 2010.06.03 11:33:40.
