data_PCOD9071330
_publ_section_title
;
Structure prediction by ZEFSAII (Michael W. Deem and Ramdas Pophale) SiO2 
 PCOD9071330
Probable space group: P -1
;
_chemical_formula_sum "Si O2"
_cell_formula_units_Z 13
_cell_length_a 5.206048
_cell_length_b 6.950068
_cell_length_c 17.579349
_cell_angle_alpha 101.469807
_cell_angle_beta 124.596398
_cell_angle_gamma 75.675208
_cell_volume 505.949764
_symmetry_space_group_name_H-M "P -1"
_symmetry_group_IT_number 2
_symmetry_cell_setting 'triclinic'
loop_
_space_group_symop_operation_xyz
x,y,z
-x,-y,-z
loop_
_atom_site_type_symbol
_atom_site_label
_atom_site_fract_x
_atom_site_fract_y
_atom_site_fract_z
Si Si1 0.777136 0.520053 0.634051
Si Si2 0.000000 0.500000 0.500000
Si Si3 0.388040 0.070587 0.277793
Si Si4 0.743920 0.068421 0.106284
Si Si5 0.592310 0.832365 0.439661
Si Si6 0.746463 0.782282 0.215528
Si Si7 0.628420 0.510580 0.935390
O O1 0.973386 0.547783 0.593839
O O2 0.003050 0.386376 0.719575
O O3 0.642475 0.725723 0.666794
O O4 0.483082 0.393191 0.568115
O O5 0.036566 0.250826 0.509364
O O6 0.108843 0.103041 0.168968
O O7 0.416132 0.907020 0.338395
O O8 0.693686 0.976159 0.275018
O O9 0.552882 0.283982 0.115093
O O10 0.810839 0.874428 0.154432
O O11 0.500000 0.000000 0.000000
O O12 0.500000 0.000000 0.500000
O O13 0.445944 0.674829 0.140810
O O14 0.500000 0.500000 0.000000
O O15 0.000000 0.500000 0.000000
#
# Coordination Sequence:
#
# PCOD9071330 Si02
#       7
#     2   1   2   2   2   2   2
#     4  12  27  49  74 113 153 198 264 321 399 483
#     4  12  26  48  76 108 146 206 248 312 414 464
#     4  12  27  46  74 114 153 204 259 328 397 474
#     4  12  26  48  78 111 157 204 268 320 406 470
#     4  12  27  48  76 111 152 197 258 329 395 482
#     4  12  27  47  78 111 154 207 261 336 394 480
#     4  12  28  49  79 117 160 211 273 337 402 481
#
# _framework density 25.694248999999999
#
# number of rings (size 3 to 8) (size 9 to 14) (size 15 to 20)
#    0.000    0.000    7.692    1.385    2.154    5.538 
#    0.000    0.000    0.000    0.000    0.000    0.000 
#    0.000    0.000    0.000    0.000    0.000    0.000 
#
# Total GULP energy -72428.781652 kJ/mol
# GULP energy per Si atom -5571.444742 kJ/mol
# Density = 2.563577 g / cm^3
# Si number density = 25.694249 Si / 1000 Ang^3
#
#
#
# Elastic Constant Matrix: (Units=GPa)
#
#
# Indices 1 2 3 4 5 6 
#
# 1 71.1885 24.4472 27.9762 -6.6709 1.5457 -7.1540
# 2 24.4472 167.6021 37.8437 -5.0950 3.3587 -40.0100
# 3 27.9762 37.8437 126.5151 -30.9510 -4.8775 -7.2042
# 4 -6.6709 -5.0950 -30.9510 62.4619 -15.9162 -4.1659
# 5 1.5457 3.3587 -4.8775 -15.9162 23.8336 -3.0784
# 6 -7.1540 -40.0100 -7.2042 -4.1659 -3.0784 41.6337
#
#
#
# Elastic Compliance Matrix: (Units=1/GPa)
#
#
# Indices 1 2 3 4 5 6 
#
# 1 0.015857 -0.001412 -0.003207 -0.000391 -0.001663 0.000651
# 2 -0.001412 0.008364 -0.001776 0.000030 -0.000468 0.007456
# 3 -0.003207 -0.001776 0.011223 0.007075 0.007603 0.000955
# 4 -0.000391 0.000030 0.007075 0.024522 0.018492 0.005006
# 5 -0.001663 -0.000468 0.007603 0.018492 0.056893 0.006637
# 6 0.000651 0.007456 0.000955 0.005006 0.006637 0.032453
#
#
# Mechanical properties :
#
#
# Convention : Reuss Voigt Hill
#
# Bulk Modulus (GPa) = 44.14180 60.64887 52.39533
# Shear Modulus (GPa) = 29.47205 43.92174 36.69689
#
# Velocity S-wave (km/s) = 3.39046 4.13897 3.78327
# Velocity P-wave (km/s) = 5.70472 6.81885 6.28652
#
# Compressibility (1/GPa) = 0.02265426
#
# Stress axis : x y z
#
# Youngs Moduli (GPa) = 63.06262 119.56604 89.10505
#
# Poissons Ratio (x) = 0.16884 0.28574
# Poissons Ratio (y) = 0.08905 0.15822
# Poissons Ratio (z) = 0.20223 0.21231
#
# Static dielectric constant tensor:
#      x y z
#    x 1.373110 0.194590 -0.543090 
#    y 0.194590 2.109690 0.092910 
#    z -0.543090 0.092910 1.619920 
# 
# From -- ./inp_files/7230.got.cif
#   From: 2010.05.17/outbox.cif.g08.bks.cpg/sg2_4_cif.got.tgz:7230.got - 2010.06.03 11:33:40.
