data_PCOD9071473
_publ_section_title
;
Structure prediction by ZEFSAII (Michael W. Deem and Ramdas Pophale) SiO2 
 PCOD9071473
Probable space group: P -1
;
_chemical_formula_sum "Si O2"
_cell_formula_units_Z 14
_cell_length_a 12.289608
_cell_length_b 15.094440
_cell_length_c 11.946054
_cell_angle_alpha 153.006921
_cell_angle_beta 146.655782
_cell_angle_gamma 39.921518
_cell_volume 550.608335
_symmetry_space_group_name_H-M "P -1"
_symmetry_group_IT_number 2
_symmetry_cell_setting 'triclinic'
loop_
_space_group_symop_operation_xyz
x,y,z
-x,-y,-z
loop_
_atom_site_type_symbol
_atom_site_label
_atom_site_fract_x
_atom_site_fract_y
_atom_site_fract_z
Si Si1 0.515649 0.769137 0.282346
Si Si2 0.252065 0.759706 0.842901
Si Si3 0.922238 0.505176 0.311818
Si Si4 0.404561 0.420079 0.215449
Si Si5 0.534568 0.225027 0.489778
Si Si6 0.110868 0.096455 0.976340
Si Si7 0.883682 0.895986 0.379936
O O1 0.718607 0.642105 0.280402
O O2 0.489367 0.739473 0.358108
O O3 0.500000 0.000000 0.500000
O O4 0.344061 0.704493 0.980945
O O5 0.430668 0.728643 0.872764
O O6 0.088214 0.613994 0.512117
O O7 0.161795 0.985894 0.012963
O O8 0.000000 0.500000 0.500000
O O9 0.945394 0.278629 0.040489
O O10 0.500000 0.500000 0.500000
O O11 0.383052 0.599088 0.310598
O O12 0.203164 0.314367 0.945028
O O13 0.685606 0.037537 0.389567
O O14 0.315167 0.180398 0.207997
O O15 0.031195 0.924034 0.641063
O O16 0.000000 0.000000 0.500000
#
# Coordination Sequence:
#
# PCOD9071473 Si02
#       7
#     2   2   2   2   2   2   2
#     4  12  26  50  82 124 172 219 270 337 414 488
#     4  12  28  48  79 118 169 215 272 341 410 489
#     4  12  27  47  79 118 161 219 275 328 401 499
#     4  12  28  54  85 118 161 217 279 347 415 490
#     4  12  27  54  83 118 171 215 273 341 418 485
#     4  12  27  51  78 118 162 217 273 331 411 485
#     4  12  31  52  84 119 159 217 279 348 414 495
#
# _framework density 25.426421000000001
#
# number of rings (size 3 to 8) (size 9 to 14) (size 15 to 20)
#    0.000    0.000    5.714    0.857   10.000    4.000 
#    0.000    0.000    0.000    0.000    0.000    0.000 
#    0.000    0.000    0.000    0.000    0.000    0.000 
#
# Total GULP energy -78447.312461 kJ/mol
# GULP energy per Si atom -5603.379462 kJ/mol
# Density = 2.536855 g / cm^3
# Si number density = 25.426421 Si / 1000 Ang^3
#
#
#
# Elastic Constant Matrix: (Units=GPa)
#
#
# Indices 1 2 3 4 5 6 
#
# 1 98.4546 21.1199 56.7527 -16.2957 16.2956 20.5004
# 2 21.1199 152.7649 51.8816 3.9989 9.9847 10.4678
# 3 56.7527 51.8816 185.9878 -8.1968 30.3347 21.8512
# 4 -16.2957 3.9989 -8.1968 43.8407 2.3065 10.1893
# 5 16.2956 9.9847 30.3347 2.3065 41.4700 -2.8335
# 6 20.5004 10.4678 21.8512 10.1893 -2.8335 49.8682
#
#
#
# Elastic Compliance Matrix: (Units=1/GPa)
#
#
# Indices 1 2 3 4 5 6 
#
# 1 0.015098 -0.000632 -0.002568 0.006983 -0.004744 -0.006645
# 2 -0.000632 0.007318 -0.001858 -0.001192 -0.000104 -0.000224
# 3 -0.002568 -0.001858 0.007771 0.001489 -0.004483 -0.002518
# 4 0.006983 -0.001192 0.001489 0.028275 -0.005760 -0.009378
# 5 -0.004744 -0.000104 -0.004483 -0.005760 0.030069 0.006822
# 6 -0.006645 -0.000224 -0.002518 -0.009378 0.006822 0.026239
#
#
# Mechanical properties :
#
#
# Convention : Reuss Voigt Hill
#
# Bulk Modulus (GPa) = 49.82562 77.41284 63.61923
# Shear Modulus (GPa) = 38.00086 47.53266 42.76676
#
# Velocity S-wave (km/s) = 3.87012 4.32837 4.10565
# Velocity P-wave (km/s) = 6.29357 7.44927 6.89568
#
# Compressibility (1/GPa) = 0.02006999
#
# Stress axis : x y z
#
# Youngs Moduli (GPa) = 66.23494 136.65561 128.67935
#
# Poissons Ratio (x) = 0.08643 0.33049
# Poissons Ratio (y) = 0.04189 0.23903
# Poissons Ratio (z) = 0.17011 0.25385
#
# Static dielectric constant tensor:
#      x y z
#    x 2.018990 0.031910 -0.006270 
#    y 0.031910 2.046230 -0.016110 
#    z -0.006270 -0.016110 2.099240 
# 
# From -- ./inp_files/433591.got.cif
#   From: 2010.05.17/outbox.cif.g08.bks.cpg/sg2_217_cif.got.tgz:433591.got - 2010.06.03 11:33:40.
