data_PCOD9071732
_publ_section_title
;
Structure prediction by ZEFSAII (Michael W. Deem and Ramdas Pophale) SiO2 
 PCOD9071732
Probable space group: P -1
;
_chemical_formula_sum "Si O2"
_cell_formula_units_Z 16
_cell_length_a 8.511771
_cell_length_b 21.062203
_cell_length_c 5.595367
_cell_angle_alpha 88.244165
_cell_angle_beta 72.395713
_cell_angle_gamma 136.624349
_cell_volume 606.686827
_symmetry_space_group_name_H-M "P -1"
_symmetry_group_IT_number 2
_symmetry_cell_setting 'triclinic'
loop_
_space_group_symop_operation_xyz
x,y,z
-x,-y,-z
loop_
_atom_site_type_symbol
_atom_site_label
_atom_site_fract_x
_atom_site_fract_y
_atom_site_fract_z
Si Si1 0.665407 0.104983 0.788632
Si Si2 0.473833 0.592583 0.011999
Si Si3 0.976062 0.359540 0.273339
Si Si4 0.709953 0.884794 0.120417
Si Si5 0.712204 0.884893 0.619582
Si Si6 0.498063 0.423033 0.500603
Si Si7 0.226206 0.831182 0.767808
Si Si8 0.106027 0.603342 0.192203
O O1 0.483794 0.112768 0.819916
O O2 0.758362 0.115736 0.472639
O O3 0.852654 0.175020 0.922173
O O4 0.500000 0.000000 0.000000
O O5 0.617089 0.634404 0.192367
O O6 0.284814 0.596102 0.111380
O O7 0.271629 0.472600 0.120480
O O8 0.615971 0.633845 0.689352
O O9 0.935183 0.273730 0.263783
O O10 0.864725 0.347535 0.583173
O O11 0.855565 0.351141 0.084594
O O12 0.676849 0.838506 0.390548
O O13 0.675204 0.837951 0.892457
O O14 0.000000 0.000000 0.000000
O O15 0.509788 0.882904 0.683294
O O16 0.000000 0.000000 0.500000
O O17 0.500000 0.500000 0.500000
O O18 0.801517 0.492727 0.347590
#
# Coordination Sequence:
#
# PCOD9071732 Si02
#       8
#     2   2   2   2   2   2   2   2
#     4  10  19  31  46  69  94 119 156 202 245 292
#     4  10  19  33  51  76 106 137 172 216 254 296
#     4  10  18  30  49  74 101 130 167 212 256 300
#     4   8  14  25  42  63  84 109 142 185 226 272
#     4   8  14  25  41  63  87 112 144 188 231 275
#     4  10  18  29  48  77 101 130 175 217 249 293
#     4  10  19  30  47  74  98 124 162 208 250 296
#     4  10  19  33  52  76 104 137 171 214 256 298
#
# _framework density 26.372748000000001
#
# number of rings (size 3 to 8) (size 9 to 14) (size 15 to 20)
#    0.000    2.500    0.000    5.250    0.000    0.000 
#    0.000    0.000    0.000    0.000    0.000  182.000 
#    0.000    0.000    0.000    0.000    0.000    0.000 
#
# Total GULP energy -89378.258416 kJ/mol
# GULP energy per Si atom -5586.141151 kJ/mol
# Density = 2.631272 g / cm^3
# Si number density = 26.372748 Si / 1000 Ang^3
#
#
#
# Elastic Constant Matrix: (Units=GPa)
#
#
# Indices 1 2 3 4 5 6 
#
# 1 94.2122 36.6589 64.5927 10.8684 12.8118 16.0551
# 2 36.6589 89.9910 36.1712 19.0578 11.1277 21.7320
# 3 64.5927 36.1712 298.2594 54.2506 63.9222 17.1381
# 4 10.8684 19.0578 54.2506 48.2560 12.9205 9.9827
# 5 12.8118 11.1277 63.9222 12.9205 50.2738 5.9119
# 6 16.0551 21.7320 17.1381 9.9827 5.9119 31.9427
#
#
#
# Elastic Compliance Matrix: (Units=1/GPa)
#
#
# Indices 1 2 3 4 5 6 
#
# 1 0.014676 -0.004506 -0.003071 0.002412 0.000965 -0.003596
# 2 -0.004506 0.015418 0.000417 -0.003817 -0.000982 -0.007074
# 3 -0.003071 0.000417 0.006069 -0.004855 -0.005850 0.000603
# 4 0.002412 -0.003817 -0.004855 0.028209 -0.000285 -0.004774
# 5 0.000965 -0.000982 -0.005850 -0.000285 0.027573 -0.001692
# 6 -0.003596 -0.007074 0.000603 -0.004774 -0.001692 0.039408
#
#
# Mechanical properties :
#
#
# Convention : Reuss Voigt Hill
#
# Bulk Modulus (GPa) = 45.77736 84.14534 64.96135
# Shear Modulus (GPa) = 32.68947 49.09716 40.89332
#
# Velocity S-wave (km/s) = 3.52450 4.31938 3.94203
# Velocity P-wave (km/s) = 5.82737 7.53999 6.73831
#
# Compressibility (1/GPa) = 0.02184486
#
# Stress axis : x y z
#
# Youngs Moduli (GPa) = 68.13673 64.85845 164.76096
#
# Poissons Ratio (x) = 0.29225 0.50594
# Poissons Ratio (y) = 0.30703 -0.06874
# Poissons Ratio (z) = 0.20923 -0.02706
#
# Static dielectric constant tensor:
#      x y z
#    x 2.032100 0.052260 -0.034200 
#    y 0.052260 2.108930 -0.016260 
#    z -0.034200 -0.016260 2.280120 
# 
# From -- ./inp_files/43392.got.cif
#   From: 2010.05.17/outbox.cif.g08.bks.cpg/sg2_22_cif.got.tgz:43392.got - 2010.06.03 11:33:40.
