data_PCOD9071512
_publ_section_title
;
Structure prediction by ZEFSAII (Michael W. Deem and Ramdas Pophale) SiO2 
 PCOD9071512
Probable space group: P -1
;
_chemical_formula_sum "Si O2"
_cell_formula_units_Z 12
_cell_length_a 11.143506
_cell_length_b 9.247741
_cell_length_c 11.884078
_cell_angle_alpha 134.180014
_cell_angle_beta 35.606944
_cell_angle_gamma 140.363348
_cell_volume 446.517526
_symmetry_space_group_name_H-M "P -1"
_symmetry_group_IT_number 2
_symmetry_cell_setting 'triclinic'
loop_
_space_group_symop_operation_xyz
x,y,z
-x,-y,-z
loop_
_atom_site_type_symbol
_atom_site_label
_atom_site_fract_x
_atom_site_fract_y
_atom_site_fract_z
Si Si1 0.172004 0.398343 0.785418
Si Si2 0.725782 0.246476 0.494975
Si Si3 0.531964 0.774496 0.850453
Si Si4 0.034198 0.018204 0.118357
Si Si5 0.414359 0.767789 0.164808
Si Si6 0.064574 0.287216 0.548980
O O1 0.423537 0.617961 0.739003
O O2 0.129080 0.205146 0.804664
O O3 0.114953 0.310615 0.655247
O O4 0.000000 0.500000 0.000000
O O5 0.945761 0.199387 0.318007
O O6 0.812645 0.450282 0.449194
O O7 0.500000 0.000000 0.500000
O O8 0.652743 0.324923 0.708234
O O9 0.395497 0.631677 0.989722
O O10 0.799160 0.829005 0.677731
O O11 0.500000 0.000000 0.000000
O O12 0.214288 0.841754 0.334813
O O13 0.303400 0.069930 0.959608
O O14 0.000000 0.000000 0.000000
#
# Coordination Sequence:
#
# PCOD9071512 Si02
#       6
#     2   2   2   2   2   2
#     4  12  26  53  83 117 162 214 271 334 407 490
#     4  12  27  49  80 117 162 215 270 335 404 487
#     4  12  29  49  81 120 162 211 268 341 406 483
#     4  12  27  50  81 116 162 215 273 329 407 485
#     4  12  28  48  81 112 169 202 278 327 409 471
#     4  12  29  52  82 121 163 213 276 332 415 484
#
# _framework density 26.874645999999998
#
# number of rings (size 3 to 8) (size 9 to 14) (size 15 to 20)
#    0.000    0.000    3.333    5.000    4.667    2.000 
#    0.000    0.000    0.000    0.000    0.000    0.000 
#    0.000    0.000    0.000    0.000    0.000    0.000 
#
# Total GULP energy -67233.731231 kJ/mol
# GULP energy per Si atom -5602.810936 kJ/mol
# Density = 2.681348 g / cm^3
# Si number density = 26.874646 Si / 1000 Ang^3
#
#
#
# Elastic Constant Matrix: (Units=GPa)
#
#
# Indices 1 2 3 4 5 6 
#
# 1 164.4538 72.7971 55.4729 -11.6244 -7.2847 -2.3073
# 2 72.7971 190.2175 53.9414 6.6509 -5.4373 -13.9168
# 3 55.4729 53.9414 190.9006 -20.0931 -23.2214 -14.0877
# 4 -11.6244 6.6509 -20.0931 38.0391 -7.2804 -7.4041
# 5 -7.2847 -5.4373 -23.2214 -7.2804 67.2766 -19.9719
# 6 -2.3073 -13.9168 -14.0877 -7.4041 -19.9719 55.6031
#
#
#
# Elastic Compliance Matrix: (Units=1/GPa)
#
#
# Indices 1 2 3 4 5 6 
#
# 1 0.007894 -0.002752 -0.001251 0.002256 0.000372 -0.000244
# 2 -0.002752 0.006849 -0.001393 -0.002674 -0.000280 0.000791
# 3 -0.001251 -0.001393 0.007261 0.005116 0.003852 0.003504
# 4 0.002256 -0.002674 0.005116 0.033169 0.007733 0.007915
# 5 0.000372 -0.000280 0.003852 0.007733 0.019731 0.009038
# 6 -0.000244 0.000791 0.003504 0.007915 0.009038 0.023360
#
#
# Mechanical properties :
#
#
# Convention : Reuss Voigt Hill
#
# Bulk Modulus (GPa) = 89.19795 101.11051 95.15423
# Shear Modulus (GPa) = 44.32902 56.40780 50.36841
#
# Velocity S-wave (km/s) = 4.06578 4.58637 4.33390
# Velocity P-wave (km/s) = 7.43661 8.10870 7.77992
#
# Compressibility (1/GPa) = 0.01121102
#
# Stress axis : x y z
#
# Youngs Moduli (GPa) = 126.68390 146.01449 137.72070
#
# Poissons Ratio (x) = 0.40186 0.17235
# Poissons Ratio (y) = 0.34866 0.19178
# Poissons Ratio (z) = 0.15854 0.20333
#
# Static dielectric constant tensor:
#      x y z
#    x 2.242620 0.041650 -0.031990 
#    y 0.041650 2.200950 -0.064270 
#    z -0.031990 -0.064270 2.056040 
# 
# From -- ./inp_files/526950.got.cif
#   From: 2010.05.17/outbox.cif.g08.bks.cpg/sg2_264_cif.got.tgz:526950.got - 2010.06.03 11:33:40.
