data_PCOD9071136
_publ_section_title
;
Structure prediction by ZEFSAII (Michael W. Deem and Ramdas Pophale) SiO2 
 PCOD9071136
Probable space group: P -1
;
_chemical_formula_sum "Si O2"
_cell_formula_units_Z 8
_cell_length_a 11.599103
_cell_length_b 8.881630
_cell_length_c 16.912762
_cell_angle_alpha 33.756253
_cell_angle_beta 18.718315
_cell_angle_gamma 32.603340
_cell_volume 295.553450
_symmetry_space_group_name_H-M "P -1"
_symmetry_group_IT_number 2
_symmetry_cell_setting 'triclinic'
loop_
_space_group_symop_operation_xyz
x,y,z
-x,-y,-z
loop_
_atom_site_type_symbol
_atom_site_label
_atom_site_fract_x
_atom_site_fract_y
_atom_site_fract_z
Si Si1 0.135196 0.767521 0.629206
Si Si2 0.649953 0.243789 0.331185
Si Si3 0.778736 0.314172 0.047783
Si Si4 0.193838 0.355373 0.298852
O O1 0.500000 0.500000 0.500000
O O2 0.110963 0.830452 0.711766
O O3 0.214967 0.027167 0.419118
O O4 0.833505 0.621733 0.856836
O O5 0.873970 0.300245 0.085058
O O6 0.244805 0.482286 0.502484
O O7 0.500000 0.000000 0.500000
O O8 0.346597 0.352399 0.291355
O O9 0.000000 0.000000 0.000000
O O10 0.500000 0.500000 0.000000
#
# Coordination Sequence:
#
# PCOD9071136 Si02
#       4
#     2   2   2   2
#     4  12  26  48  78 110 150 199 249 305 378 443
#     4  12  26  48  77 110 152 197 249 309 373 444
#     4  12  25  51  75 109 151 195 248 315 368 440
#     4  12  27  48  77 109 154 197 249 306 376 442
#
# _framework density 27.067861000000001
#
# number of rings (size 3 to 8) (size 9 to 14) (size 15 to 20)
#    0.000    0.000    5.000    4.500    0.000    5.000 
#    0.000    0.000    0.000    0.000    0.000    0.000 
#    0.000    0.000    0.000    0.000    0.000    0.000 
#
# Total GULP energy -44604.711315 kJ/mol
# GULP energy per Si atom -5575.588914 kJ/mol
# Density = 2.700625 g / cm^3
# Si number density = 27.067861 Si / 1000 Ang^3
#
#
#
# Elastic Constant Matrix: (Units=GPa)
#
#
# Indices 1 2 3 4 5 6 
#
# 1 164.2195 17.6625 55.8629 -11.5287 -13.0099 19.5406
# 2 17.6625 178.0071 81.3682 -47.3630 9.6655 6.3882
# 3 55.8629 81.3682 149.1832 -54.1995 -7.8492 13.7253
# 4 -11.5287 -47.3630 -54.1995 72.1460 2.5692 -3.4721
# 5 -13.0099 9.6655 -7.8492 2.5692 70.3750 -2.0980
# 6 19.5406 6.3882 13.7253 -3.4721 -2.0980 30.7306
#
#
#
# Elastic Compliance Matrix: (Units=1/GPa)
#
#
# Indices 1 2 3 4 5 6 
#
# 1 0.007502 0.000463 -0.003046 -0.000989 0.000914 -0.003555
# 2 0.000463 0.008039 -0.003664 0.002646 -0.001528 -0.000134
# 3 -0.003046 -0.003664 0.012357 0.006256 0.001029 -0.002044
# 4 -0.000989 0.002646 0.006256 0.020138 -0.000598 -0.000481
# 5 0.000914 -0.001528 0.001029 -0.000598 0.014731 0.000215
# 6 -0.003555 -0.000134 -0.002044 -0.000481 0.000215 0.035703
#
#
# Mechanical properties :
#
#
# Convention : Reuss Voigt Hill
#
# Bulk Modulus (GPa) = 64.92225 89.02189 76.97207
# Shear Modulus (GPa) = 43.06675 57.08474 50.07574
#
# Velocity S-wave (km/s) = 3.99314 4.59731 4.30584
# Velocity P-wave (km/s) = 6.73033 7.81922 7.29512
#
# Compressibility (1/GPa) = 0.01540304
#
# Stress axis : x y z
#
# Youngs Moduli (GPa) = 133.30362 124.39722 80.92367
#
# Poissons Ratio (x) = -0.05755 0.24646
# Poissons Ratio (y) = -0.06167 0.29653
# Poissons Ratio (z) = 0.40599 0.45584
#
# Static dielectric constant tensor:
#      x y z
#    x 2.462150 -0.123620 0.477630 
#    y -0.123620 2.112560 -0.184320 
#    z 0.477630 -0.184320 2.803380 
# 
# From -- ./inp_files/16947.got.cif
#   From: 2010.05.17/outbox.cif.g08.bks.cpg/sg2_9_cif.got.tgz:16947.got - 2010.06.03 11:33:40.
