data_PCOD9071289
_publ_section_title
;
Structure prediction by ZEFSAII (Michael W. Deem and Ramdas Pophale) SiO2 
 PCOD9071289
Probable space group: P -1
;
_chemical_formula_sum "Si O2"
_cell_formula_units_Z 13
_cell_length_a 9.199661
_cell_length_b 9.369664
_cell_length_c 22.330457
_cell_angle_alpha 156.089617
_cell_angle_beta 40.537268
_cell_angle_gamma 135.702785
_cell_volume 505.444018
_symmetry_space_group_name_H-M "P -1"
_symmetry_group_IT_number 2
_symmetry_cell_setting 'triclinic'
loop_
_space_group_symop_operation_xyz
x,y,z
-x,-y,-z
loop_
_atom_site_type_symbol
_atom_site_label
_atom_site_fract_x
_atom_site_fract_y
_atom_site_fract_z
Si Si1 0.195117 0.840508 0.918267
Si Si2 0.594839 0.167823 0.596270
Si Si3 0.150053 0.143391 0.226444
Si Si4 0.336505 0.802240 0.646805
Si Si5 0.493574 0.107212 0.828324
Si Si6 0.021614 0.935218 0.318452
Si Si7 0.500000 0.000000 0.000000
O O1 0.092689 0.444325 0.811768
O O2 0.398547 0.836278 0.804897
O O3 0.305632 0.041905 0.018122
O O4 0.000000 0.000000 0.000000
O O5 0.619447 0.594883 0.762625
O O6 0.500000 0.000000 0.500000
O O7 0.458964 0.983196 0.620908
O O8 0.850534 0.094541 0.478221
O O9 0.925590 0.253688 0.308413
O O10 0.278103 0.811976 0.037641
O O11 0.090831 0.136352 0.312272
O O12 0.500000 0.500000 0.500000
O O13 0.340730 0.053644 0.798756
O O14 0.749510 0.063408 0.716618
O O15 0.500000 0.500000 0.000000
#
# Coordination Sequence:
#
# PCOD9071289 Si02
#       7
#     2   2   2   2   2   2   1
#     4  12  26  48  74 113 157 208 264 325 400 482
#     4  12  27  48  79 111 151 201 268 321 398 479
#     4  12  28  48  78 114 156 202 266 329 401 482
#     4  12  29  50  81 116 157 211 268 332 405 479
#     4  12  27  47  75 112 160 202 259 328 406 472
#     4  12  26  47  78 106 156 206 257 331 393 471
#     4  12  28  46  80 112 156 204 272 318 408 482
#
# _framework density 25.71996
#
# number of rings (size 3 to 8) (size 9 to 14) (size 15 to 20)
#    0.000    0.000    4.615    4.154    4.308    4.308 
#    0.000    0.000    0.000    0.000    0.000    0.000 
#    0.000    0.000    0.000    0.000    0.000    0.000 
#
# Total GULP energy -72516.791888 kJ/mol
# GULP energy per Si atom -5578.214761 kJ/mol
# Density = 2.566142 g / cm^3
# Si number density = 25.719960 Si / 1000 Ang^3
#
#
#
# Elastic Constant Matrix: (Units=GPa)
#
#
# Indices 1 2 3 4 5 6 
#
# 1 161.4046 60.5022 49.4153 14.3863 6.8984 18.7304
# 2 60.5022 162.1322 39.4984 -16.0654 5.8735 10.6049
# 3 49.4153 39.4984 79.1388 -15.1613 -6.7288 6.1985
# 4 14.3863 -16.0654 -15.1613 47.7564 14.3074 -0.9809
# 5 6.8984 5.8735 -6.7288 14.3074 64.4589 -17.9161
# 6 18.7304 10.6049 6.1985 -0.9809 -17.9161 49.6686
#
#
#
# Elastic Compliance Matrix: (Units=1/GPa)
#
#
# Indices 1 2 3 4 5 6 
#
# 1 0.009759 -0.002557 -0.005705 -0.005365 -0.001021 -0.002896
# 2 -0.002557 0.008033 -0.001826 0.003379 -0.001696 -0.001068
# 3 -0.005705 -0.001826 0.018415 0.006518 0.001507 0.000915
# 4 -0.005365 0.003379 0.006518 0.027354 -0.005378 -0.000912
# 5 -0.001021 -0.001696 0.001507 -0.005378 0.019177 0.007370
# 6 -0.002896 -0.001068 0.000915 -0.000912 0.007370 0.023980
#
#
# Mechanical properties :
#
#
# Convention : Reuss Voigt Hill
#
# Bulk Modulus (GPa) = 62.38014 77.94527 70.16271
# Shear Modulus (GPa) = 37.81102 49.26077 43.53590
#
# Velocity S-wave (km/s) = 3.83835 4.38113 4.11869
# Velocity P-wave (km/s) = 6.62949 7.48088 7.06802
#
# Compressibility (1/GPa) = 0.01603074
#
# Stress axis : x y z
#
# Youngs Moduli (GPa) = 102.47396 124.48877 54.30451
#
# Poissons Ratio (x) = 0.31830 0.30980
# Poissons Ratio (y) = 0.26201 0.09915
# Poissons Ratio (z) = 0.58461 0.22730
#
# Static dielectric constant tensor:
#      x y z
#    x 2.075600 0.064460 -0.046910 
#    y 0.064460 2.155530 0.112050 
#    z -0.046910 0.112050 1.065010 
# 
# From -- ./inp_files/135887.got.cif
#   From: 2010.05.17/outbox.cif.g08.bks.cpg/sg2_68_cif.got.tgz:135887.got - 2010.06.03 11:33:40.
