data_PCOD9071543
_publ_section_title
;
Structure prediction by ZEFSAII (Michael W. Deem and Ramdas Pophale) SiO2 
 PCOD9071543
Probable space group: P -1
;
_chemical_formula_sum "Si O2"
_cell_formula_units_Z 13
_cell_length_a 14.102267
_cell_length_b 8.133445
_cell_length_c 13.153561
_cell_angle_alpha 104.671878
_cell_angle_beta 158.395631
_cell_angle_gamma 66.179136
_cell_volume 473.544062
_symmetry_space_group_name_H-M "P -1"
_symmetry_group_IT_number 2
_symmetry_cell_setting 'triclinic'
loop_
_space_group_symop_operation_xyz
x,y,z
-x,-y,-z
loop_
_atom_site_type_symbol
_atom_site_label
_atom_site_fract_x
_atom_site_fract_y
_atom_site_fract_z
Si Si1 0.296667 0.430967 0.845864
Si Si2 0.386138 0.782734 0.206634
Si Si3 0.746471 0.087323 0.347273
Si Si4 0.420129 0.630327 0.577689
Si Si5 0.904318 0.855694 0.937659
Si Si6 0.103913 0.230304 0.391783
Si Si7 0.000000 0.500000 0.000000
O O1 0.000000 0.500000 0.500000
O O2 0.181214 0.564397 0.850125
O O3 0.500000 0.500000 0.000000
O O4 0.462510 0.215141 0.017026
O O5 0.469537 0.594783 0.326271
O O6 0.635325 0.722717 0.362410
O O7 0.052174 0.866221 0.846325
O O8 0.384049 0.980217 0.273460
O O9 0.707912 0.239068 0.426882
O O10 0.789863 0.904131 0.425169
O O11 0.000000 0.000000 0.500000
O O12 0.148845 0.699489 0.236454
O O13 0.692149 0.627692 0.787421
O O14 0.879453 0.687117 0.828218
O O15 0.000000 0.000000 0.000000
#
# Coordination Sequence:
#
# PCOD9071543 Si02
#       7
#     2   2   2   2   2   2   1
#     4  12  27  48  77 117 164 222 286 355 428 512
#     4  12  28  50  83 120 168 225 283 360 434 520
#     4  12  27  51  83 121 171 228 292 356 434 523
#     4  12  28  51  80 122 165 227 288 354 436 526
#     4  12  28  50  83 123 170 221 287 361 442 520
#     4  12  27  49  78 116 167 223 284 349 438 510
#     4  12  28  52  82 122 168 220 288 354 446 512
#
# _framework density 27.452567999999999
#
# number of rings (size 3 to 8) (size 9 to 14) (size 15 to 20)
#    0.000    0.000    6.154    2.308    2.154    3.692 
#    0.000    0.000    0.000    0.000    0.000    0.000 
#    0.000    0.000    0.000    0.000    0.000    0.000 
#
# Total GULP energy -72385.308155 kJ/mol
# GULP energy per Si atom -5568.100627 kJ/mol
# Density = 2.739008 g / cm^3
# Si number density = 27.452568 Si / 1000 Ang^3
#
#
#
# Elastic Constant Matrix: (Units=GPa)
#
#
# Indices 1 2 3 4 5 6 
#
# 1 131.9059 38.3918 67.8075 7.5499 10.4798 18.2827
# 2 38.3918 141.7878 50.2986 -44.6753 -12.5694 39.1856
# 3 67.8075 50.2986 183.7278 -4.7794 -12.8362 24.2530
# 4 7.5499 -44.6753 -4.7794 66.0708 16.2910 -13.4831
# 5 10.4798 -12.5694 -12.8362 16.2910 55.8789 4.3636
# 6 18.2827 39.1856 24.2530 -13.4831 4.3636 81.2832
#
#
#
# Elastic Compliance Matrix: (Units=1/GPa)
#
#
# Indices 1 2 3 4 5 6 
#
# 1 0.010462 -0.002593 -0.003341 -0.002656 -0.002506 -0.000412
# 2 -0.002593 0.011539 -0.001502 0.007061 0.000945 -0.003411
# 3 -0.003341 -0.001502 0.007356 -0.000873 0.002310 -0.000988
# 4 -0.002656 0.007061 -0.000873 0.021514 -0.004485 0.001263
# 5 -0.002506 0.000945 0.002310 -0.004485 0.020606 -0.002431
# 6 -0.000412 -0.003411 -0.000988 0.001263 -0.002431 0.014675
#
#
# Mechanical properties :
#
#
# Convention : Reuss Voigt Hill
#
# Bulk Modulus (GPa) = 69.03665 85.60194 77.31930
# Shear Modulus (GPa) = 47.23604 60.70816 53.97210
#
# Velocity S-wave (km/s) = 4.15256 4.70764 4.43878
# Velocity P-wave (km/s) = 6.94218 7.79734 7.38216
#
# Compressibility (1/GPa) = 0.01448506
#
# Stress axis : x y z
#
# Youngs Moduli (GPa) = 95.58833 86.66349 135.93907
#
# Poissons Ratio (x) = 0.22469 0.45416
# Poissons Ratio (y) = 0.24783 0.20421
# Poissons Ratio (z) = 0.31935 0.13018
#
# Static dielectric constant tensor:
#      x y z
#    x 3.452940 -0.506880 0.673150 
#    y -0.506880 1.451060 -0.625030 
#    z 0.673150 -0.625030 2.281190 
# 
# From -- ./inp_files/528771.got.cif
#   From: 2010.05.17/outbox.cif.g08.bks.cpg/sg2_265_cif.got.tgz:528771.got - 2010.06.03 11:33:40.
