data_PCOD9071985
_publ_section_title
;
Structure prediction by ZEFSAII (Michael W. Deem and Ramdas Pophale) SiO2 
 PCOD9071985
Probable space group: P -1
;
_chemical_formula_sum "Si O2"
_cell_formula_units_Z 16
_cell_length_a 20.955446
_cell_length_b 15.401621
_cell_length_c 13.278202
_cell_angle_alpha 154.250672
_cell_angle_beta 30.625835
_cell_angle_gamma 152.317709
_cell_volume 821.835474
_symmetry_space_group_name_H-M "P -1"
_symmetry_group_IT_number 2
_symmetry_cell_setting 'triclinic'
loop_
_space_group_symop_operation_xyz
x,y,z
-x,-y,-z
loop_
_atom_site_type_symbol
_atom_site_label
_atom_site_fract_x
_atom_site_fract_y
_atom_site_fract_z
Si Si1 0.222006 0.054940 0.231468
Si Si2 0.947694 0.927833 0.332947
Si Si3 0.632777 0.190004 0.145954
Si Si4 0.801167 0.765541 0.042712
Si Si5 0.002754 0.205681 0.352825
Si Si6 0.102959 0.463669 0.167135
Si Si7 0.380315 0.679477 0.915632
Si Si8 0.507209 0.527134 0.301520
O O1 0.178127 0.113504 0.460938
O O2 0.367347 0.273019 0.218278
O O3 0.089928 0.998169 0.278294
O O4 0.244730 0.835532 0.988844
O O5 0.973020 0.123978 0.422869
O O6 0.919498 0.714882 0.077653
O O7 0.675061 0.338489 0.141315
O O8 0.549493 0.292930 0.428069
O O9 0.524096 0.925491 0.986222
O O10 0.632598 0.612022 0.136575
O O11 0.871239 0.012757 0.261581
O O12 0.880880 0.645740 0.866867
O O13 0.855593 0.790506 0.880892
O O14 0.009383 0.448187 0.586955
O O15 0.260260 0.677322 0.149628
O O16 0.416027 0.489781 0.715949
#
# Coordination Sequence:
#
# PCOD9071985 Si02
#       8
#     2   2   2   2   2   2   2   2
#     4  10  22  37  51  74 105 137 177 215 250 299
#     4  10  22  37  52  74 104 137 176 217 251 297
#     4  10  18  30  50  73 102 136 167 204 259 313
#     4   9  20  34  54  83 108 130 166 214 260 307
#     4  10  19  35  56  79 106 136 169 210 259 307
#     4  10  18  32  55  78 103 135 169 208 259 309
#     4   9  18  28  46  78 104 127 163 209 257 312
#     4  10  19  33  52  74 104 135 166 210 259 305
#
# _framework density 19.468617999999999
#
# number of rings (size 3 to 8) (size 9 to 14) (size 15 to 20)
#    0.000    2.250    0.000    3.000    0.000    8.000 
#    0.000    3.750    0.000    1.500    0.000    0.000 
#    0.000    0.000    0.000    0.000    0.000    0.000 
#
# Total GULP energy -89189.890964 kJ/mol
# GULP energy per Si atom -5574.368185 kJ/mol
# Density = 1.942431 g / cm^3
# Si number density = 19.468618 Si / 1000 Ang^3
#
#
#
# Elastic Constant Matrix: (Units=GPa)
#
#
# Indices 1 2 3 4 5 6 
#
# 1 29.1148 5.1825 18.8510 2.5762 -7.4948 3.1443
# 2 5.1825 68.7585 15.6449 -20.6494 -2.2949 -3.4281
# 3 18.8510 15.6449 84.2728 2.4537 -21.9438 -7.3691
# 4 2.5762 -20.6494 2.4537 27.8291 -9.2166 -5.2294
# 5 -7.4948 -2.2949 -21.9438 -9.2166 25.2925 -6.0190
# 6 3.1443 -3.4281 -7.3691 -5.2294 -6.0190 12.8464
#
#
#
# Elastic Compliance Matrix: (Units=1/GPa)
#
#
# Indices 1 2 3 4 5 6 
#
# 1 0.050533 -0.011789 -0.019516 -0.029966 -0.026118 -0.051145
# 2 -0.011789 0.030295 0.009538 0.044228 0.035841 0.051238
# 3 -0.019516 0.009538 0.032393 0.035056 0.051235 0.064180
# 4 -0.029966 0.044228 0.035056 0.130720 0.107131 0.142654
# 5 -0.026118 0.035841 0.051235 0.107131 0.157242 0.162631
# 6 -0.051145 0.051238 0.064180 0.142654 0.162631 0.275119
#
#
# Mechanical properties :
#
#
# Convention : Reuss Voigt Hill
#
# Bulk Modulus (GPa) = 14.34971 29.05587 21.70279
# Shear Modulus (GPa) = 6.72888 22.69147 14.71017
#
# Velocity S-wave (km/s) = 1.86112 3.41771 2.75177
# Velocity P-wave (km/s) = 3.46483 5.52550 4.61173
#
# Compressibility (1/GPa) = 0.06968781
#
# Stress axis : x y z
#
# Youngs Moduli (GPa) = 19.78912 33.00857 30.87046
#
# Poissons Ratio (x) = 0.38914 0.60246
# Poissons Ratio (y) = 0.23330 -0.29445
# Poissons Ratio (z) = 0.38620 -0.31484
#
# Static dielectric constant tensor:
#      x y z
#    x 1.694090 -0.010360 -0.015940 
#    y -0.010360 1.728550 -0.006270 
#    z -0.015940 -0.006270 1.710000 
# 
# From -- ./inp_files/71350.got.cif
#   From: 2010.05.17/outbox.cif.g08.bks.cpg/sg2_36_cif.got.tgz:71350.got - 2010.06.03 11:33:40.
