data_PCOD9071703
_publ_section_title
;
Structure prediction by ZEFSAII (Michael W. Deem and Ramdas Pophale) SiO2 
 PCOD9071703
Probable space group: P -1
;
_chemical_formula_sum "Si O2"
_cell_formula_units_Z 12
_cell_length_a 6.779906
_cell_length_b 9.161437
_cell_length_c 9.412813
_cell_angle_alpha 48.539955
_cell_angle_beta 89.863016
_cell_angle_gamma 102.589484
_cell_volume 418.932649
_symmetry_space_group_name_H-M "P -1"
_symmetry_group_IT_number 2
_symmetry_cell_setting 'triclinic'
loop_
_space_group_symop_operation_xyz
x,y,z
-x,-y,-z
loop_
_atom_site_type_symbol
_atom_site_label
_atom_site_fract_x
_atom_site_fract_y
_atom_site_fract_z
Si Si1 0.148542 0.752590 0.254809
Si Si2 0.731503 0.020137 0.458127
Si Si3 0.759918 0.052126 0.133489
Si Si4 0.903722 0.729582 0.825227
Si Si5 0.313152 0.504855 0.601550
Si Si6 0.599788 0.390430 0.885790
O O1 0.251754 0.710607 0.428775
O O2 0.235903 0.606685 0.243826
O O3 0.902032 0.671077 0.316074
O O4 0.228348 0.963254 0.027474
O O5 0.819049 0.907468 0.651073
O O6 0.500000 0.000000 0.500000
O O7 0.738810 0.920713 0.362492
O O8 0.891643 0.243438 0.290186
O O9 0.985745 0.212621 0.062731
O O10 0.578585 0.160953 0.083748
O O11 0.723591 0.532690 0.917313
O O12 0.500000 0.500000 0.500000
O O13 0.413040 0.461827 0.777724
#
# Coordination Sequence:
#
# PCOD9071703 Si02
#       6
#     2   2   2   2   2   2
#     4   8  17  29  47  70  98 122 152 198 231 278
#     4   9  19  33  47  64  97 136 158 184 231 283
#     4   8  17  31  48  71  97 122 158 193 229 277
#     4   9  18  33  45  70 102 123 156 193 233 279
#     4   9  16  30  45  73  97 122 152 192 246 275
#     4   9  17  29  50  73  97 121 155 197 232 279
#
# _framework density 28.644221000000002
#
# number of rings (size 3 to 8) (size 9 to 14) (size 15 to 20)
#    2.000    1.333    0.000    0.500    0.000    2.667 
#    0.000    1.667    0.000    1.000    0.000    7.000 
#    0.000    0.000    0.000    0.000    0.000    0.000 
#
# Total GULP energy -66826.768770 kJ/mol
# GULP energy per Si atom -5568.897398 kJ/mol
# Density = 2.857903 g / cm^3
# Si number density = 28.644221 Si / 1000 Ang^3
#
#
#
# Elastic Constant Matrix: (Units=GPa)
#
#
# Indices 1 2 3 4 5 6 
#
# 1 207.8339 54.5058 65.3828 26.0933 12.5201 41.2907
# 2 54.5058 90.4820 21.6123 16.0596 13.4852 27.7755
# 3 65.3828 21.6123 95.9953 31.8852 38.1099 1.4092
# 4 26.0933 16.0596 31.8852 34.0409 11.2661 5.8355
# 5 12.5201 13.4852 38.1099 11.2661 70.8301 20.7234
# 6 41.2907 27.7755 1.4092 5.8355 20.7234 45.8238
#
#
#
# Elastic Compliance Matrix: (Units=1/GPa)
#
#
# Indices 1 2 3 4 5 6 
#
# 1 0.009553 -0.001637 -0.008987 0.001579 0.006239 -0.010361
# 2 -0.001637 0.015227 -0.001367 -0.003647 0.000953 -0.007679
# 3 -0.008987 -0.001367 0.028511 -0.016893 -0.015892 0.017388
# 4 0.001579 -0.003647 -0.016893 0.045429 0.004136 -0.006349
# 5 0.006239 0.000953 -0.015892 0.004136 0.025991 -0.017991
# 6 -0.010361 -0.007679 0.017388 -0.006349 -0.017991 0.044224
#
#
# Mechanical properties :
#
#
# Convention : Reuss Voigt Hill
#
# Bulk Modulus (GPa) = 34.12078 75.25702 54.68890
# Shear Modulus (GPa) = 24.66866 46.99298 35.83082
#
# Velocity S-wave (km/s) = 2.93782 4.05479 3.54063
# Velocity P-wave (km/s) = 4.84206 6.94636 5.98738
#
# Compressibility (1/GPa) = 0.02930766
#
# Stress axis : x y z
#
# Youngs Moduli (GPa) = 104.68401 65.67137 35.07441
#
# Poissons Ratio (x) = 0.10752 0.31521
# Poissons Ratio (y) = 0.17140 0.04795
# Poissons Ratio (z) = 0.94080 0.08979
#
# Static dielectric constant tensor:
#      x y z
#    x 2.174210 -0.043790 0.009360 
#    y -0.043790 2.303160 -0.137110 
#    z 0.009360 -0.137110 2.392920 
# 
# From -- ./inp_files/363583.got.cif
#   From: 2010.05.17/outbox.cif.g08.bks.cpg/sg2_182_cif.got.tgz:363583.got - 2010.06.03 11:33:40.
