data_PCOD9071607
_publ_section_title
;
Structure prediction by ZEFSAII (Michael W. Deem and Ramdas Pophale) SiO2 
 PCOD9071607
Probable space group: P -1
;
_chemical_formula_sum "Si O2"
_cell_formula_units_Z 10
_cell_length_a 7.775190
_cell_length_b 11.552178
_cell_length_c 8.984595
_cell_angle_alpha 40.417356
_cell_angle_beta 112.043974
_cell_angle_gamma 84.679728
_cell_volume 376.711560
_symmetry_space_group_name_H-M "P -1"
_symmetry_group_IT_number 2
_symmetry_cell_setting 'triclinic'
loop_
_space_group_symop_operation_xyz
x,y,z
-x,-y,-z
loop_
_atom_site_type_symbol
_atom_site_label
_atom_site_fract_x
_atom_site_fract_y
_atom_site_fract_z
Si Si1 0.679430 0.417959 0.299929
Si Si2 0.873649 0.710726 0.533890
Si Si3 0.034098 0.693864 0.202509
Si Si4 0.529850 0.108351 0.545124
Si Si5 0.806416 0.138400 0.169571
O O1 0.842096 0.307856 0.608609
O O2 0.616922 0.255250 0.393828
O O3 0.158022 0.576156 0.772497
O O4 0.443668 0.661037 0.035217
O O5 0.872291 0.562535 0.550667
O O6 0.715048 0.736970 0.592633
O O7 0.780760 0.969331 0.235489
O O8 0.114435 0.758810 0.021011
O O9 0.748616 0.887915 0.924904
O O10 0.500000 0.000000 0.500000
O O11 0.000000 0.000000 0.500000
#
# Coordination Sequence:
#
# PCOD9071607 Si02
#       5
#     2   2   2   2   2
#     4  12  28  53  82 119 166 209 273 336 403 484
#     4  12  28  48  85 114 166 207 271 327 414 466
#     4  12  27  53  81 121 164 212 268 338 403 481
#     4  12  28  49  82 118 164 212 269 329 408 481
#     4  12  28  49  81 118 162 216 268 329 407 481
#
# _framework density 26.545507000000001
#
# number of rings (size 3 to 8) (size 9 to 14) (size 15 to 20)
#    0.000    0.000    4.000    4.200    2.800    4.000 
#    0.000    0.000    0.000    0.000    0.000    0.000 
#    0.000    0.000    0.000    0.000    0.000    0.000 
#
# Total GULP energy -56152.638328 kJ/mol
# GULP energy per Si atom -5615.263833 kJ/mol
# Density = 2.648509 g / cm^3
# Si number density = 26.545507 Si / 1000 Ang^3
#
#
#
# Elastic Constant Matrix: (Units=GPa)
#
#
# Indices 1 2 3 4 5 6 
#
# 1 199.8374 74.8037 51.1462 -0.3896 20.7521 -17.4375
# 2 74.8037 199.7821 59.9222 -8.5773 17.1930 9.6637
# 3 51.1462 59.9222 156.3591 15.0167 26.6613 -17.7512
# 4 -0.3896 -8.5773 15.0167 59.7546 -3.6411 5.9114
# 5 20.7521 17.1930 26.6613 -3.6411 48.5375 -17.9787
# 6 -17.4375 9.6637 -17.7512 5.9114 -17.9787 67.4624
#
#
#
# Elastic Compliance Matrix: (Units=1/GPa)
#
#
# Indices 1 2 3 4 5 6 
#
# 1 0.006228 -0.002061 -0.000905 -0.000226 -0.000918 0.001442
# 2 -0.002061 0.006712 -0.002152 0.001671 -0.001116 -0.002504
# 3 -0.000905 -0.002152 0.008511 -0.002814 -0.003094 0.001736
# 4 -0.000226 0.001671 -0.002814 0.017994 0.001589 -0.002192
# 5 -0.000918 -0.001116 -0.003094 0.001589 0.025328 0.005719
# 6 0.001442 -0.002504 0.001736 -0.002192 0.005719 0.017727
#
#
# Mechanical properties :
#
#
# Convention : Reuss Voigt Hill
#
# Bulk Modulus (GPa) = 89.17634 103.08030 96.12832
# Shear Modulus (GPa) = 51.82663 59.82467 55.82565
#
# Velocity S-wave (km/s) = 4.42336 4.75243 4.59084
# Velocity P-wave (km/s) = 7.73012 8.30843 8.02449
#
# Compressibility (1/GPa) = 0.01121374
#
# Stress axis : x y z
#
# Youngs Moduli (GPa) = 160.56709 148.99637 117.48823
#
# Poissons Ratio (x) = 0.30704 0.10638
# Poissons Ratio (y) = 0.33089 0.25289
# Poissons Ratio (z) = 0.14538 0.32071
#
# Static dielectric constant tensor:
#      x y z
#    x 2.079390 0.008430 -0.007200 
#    y 0.008430 2.005330 -0.011580 
#    z -0.007200 -0.011580 2.066460 
# 
# From -- ./inp_files/160837.got.cif
#   From: 2010.05.17/outbox.cif.g08.bks.cpg/sg2_81_cif.got.tgz:160837.got - 2010.06.03 11:33:40.
