data_PCOD9071196
_publ_section_title
;
Structure prediction by ZEFSAII (Michael W. Deem and Ramdas Pophale) SiO2 
 PCOD9071196
Probable space group: P -1
;
_chemical_formula_sum "Si O2"
_cell_formula_units_Z 12
_cell_length_a 8.339934
_cell_length_b 7.874882
_cell_length_c 17.989679
_cell_angle_alpha 45.719902
_cell_angle_beta 130.074623
_cell_angle_gamma 145.897936
_cell_volume 467.862421
_symmetry_space_group_name_H-M "P -1"
_symmetry_group_IT_number 2
_symmetry_cell_setting 'triclinic'
loop_
_space_group_symop_operation_xyz
x,y,z
-x,-y,-z
loop_
_atom_site_type_symbol
_atom_site_label
_atom_site_fract_x
_atom_site_fract_y
_atom_site_fract_z
Si Si1 0.432236 0.146771 0.727867
Si Si2 0.026432 0.642552 0.383641
Si Si3 0.725151 0.398714 0.991322
Si Si4 0.835314 0.119115 0.925064
Si Si5 0.430411 0.385408 0.246932
Si Si6 0.116883 0.316193 0.394678
O O1 0.652801 0.095985 0.812406
O O2 0.470854 0.302115 0.772731
O O3 0.578700 0.464405 0.623256
O O4 0.127996 0.844964 0.693150
O O5 0.000000 0.500000 0.500000
O O6 0.715026 0.449550 0.313571
O O7 0.163308 0.565810 0.390330
O O8 0.189062 0.022834 0.320343
O O9 0.675700 0.601246 0.868254
O O10 0.000000 0.500000 0.000000
O O11 0.880740 0.509724 0.083570
O O12 0.396769 0.072936 0.016334
O O13 0.000000 0.000000 0.000000
O O14 0.000000 0.000000 0.500000
#
# Coordination Sequence:
#
# PCOD9071196 Si02
#       6
#     2   2   2   2   2   2
#     4  12  26  46  75 106 147 194 243 303 375 438
#     4  12  27  48  74 107 143 188 247 308 370 444
#     4  12  26  48  75 109 150 201 251 300 369 443
#     4  12  28  46  74 110 155 196 249 308 369 444
#     4  12  26  45  76 106 146 192 247 305 365 442
#     4  12  27  48  74 105 146 189 243 306 377 445
#
# _framework density 25.648567
#
# number of rings (size 3 to 8) (size 9 to 14) (size 15 to 20)
#    0.000    0.000    1.667    8.000    9.333    0.000 
#    0.000    0.000    0.000    0.000    0.000    0.000 
#    0.000    0.000    0.000    0.000    0.000    0.000 
#
# Total GULP energy -66969.543269 kJ/mol
# GULP energy per Si atom -5580.795272 kJ/mol
# Density = 2.559019 g / cm^3
# Si number density = 25.648567 Si / 1000 Ang^3
#
#
#
# Elastic Constant Matrix: (Units=GPa)
#
#
# Indices 1 2 3 4 5 6 
#
# 1 63.8914 21.1491 16.4603 -2.7582 2.7585 1.4390
# 2 21.1491 145.3796 22.6611 16.0782 0.1073 6.2731
# 3 16.4603 22.6611 164.0634 -0.1012 -3.3081 3.7206
# 4 -2.7582 16.0782 -0.1012 42.3308 10.4505 -2.2770
# 5 2.7585 0.1073 -3.3081 10.4505 33.2108 4.7171
# 6 1.4390 6.2731 3.7206 -2.2770 4.7171 44.9127
#
#
#
# Elastic Compliance Matrix: (Units=1/GPa)
#
#
# Indices 1 2 3 4 5 6 
#
# 1 0.017084 -0.002577 -0.001413 0.002711 -0.002451 0.000324
# 2 -0.002577 0.007820 -0.000766 -0.003557 0.001413 -0.001275
# 3 -0.001413 -0.000766 0.006370 -0.000014 0.000825 -0.000463
# 4 0.002711 -0.003557 -0.000014 0.027596 -0.009295 0.002786
# 5 -0.002451 0.001413 0.000825 -0.009295 0.033916 -0.004221
# 6 0.000324 -0.001275 -0.000463 0.002786 -0.004221 0.023056
#
#
# Mechanical properties :
#
#
# Convention : Reuss Voigt Hill
#
# Bulk Modulus (GPa) = 45.95342 54.87505 50.41423
# Shear Modulus (GPa) = 37.70473 44.96178 41.33326
#
# Velocity S-wave (km/s) = 3.83829 4.19142 4.01873
# Velocity P-wave (km/s) = 6.13178 6.69817 6.42122
#
# Compressibility (1/GPa) = 0.02176117
#
# Stress axis : x y z
#
# Youngs Moduli (GPa) = 58.53355 127.87199 156.98697
#
# Poissons Ratio (x) = 0.32953 0.22185
# Poissons Ratio (y) = 0.15084 0.12032
# Poissons Ratio (z) = 0.08272 0.09800
#
# Static dielectric constant tensor:
#      x y z
#    x 2.231930 -0.043970 -0.056880 
#    y -0.043970 1.981300 -0.040640 
#    z -0.056880 -0.040640 2.025970 
# 
# From -- ./inp_files/179664.got.cif
#   From: 2010.05.17/outbox.cif.g08.bks.cpg/sg2_90_cif.got.tgz:179664.got - 2010.06.03 11:33:40.
