data_PCOD9071874
_publ_section_title
;
Structure prediction by ZEFSAII (Michael W. Deem and Ramdas Pophale) SiO2 
 PCOD9071874
Probable space group: P -1
;
_chemical_formula_sum "Si O2"
_cell_formula_units_Z 15
_cell_length_a 8.806684
_cell_length_b 12.399205
_cell_length_c 11.751534
_cell_angle_alpha 148.955006
_cell_angle_beta 118.971522
_cell_angle_gamma 78.393843
_cell_volume 509.817545
_symmetry_space_group_name_H-M "P -1"
_symmetry_group_IT_number 2
_symmetry_cell_setting 'triclinic'
loop_
_space_group_symop_operation_xyz
x,y,z
-x,-y,-z
loop_
_atom_site_type_symbol
_atom_site_label
_atom_site_fract_x
_atom_site_fract_y
_atom_site_fract_z
Si Si1 0.138092 0.313674 0.132225
Si Si2 0.283337 0.928326 0.817223
Si Si3 0.688783 0.766925 0.318012
Si Si4 0.859878 0.126490 0.051656
Si Si5 0.500000 0.500000 0.500000
Si Si6 0.452017 0.046566 0.753434
Si Si7 0.864773 0.621135 0.055041
Si Si8 0.419725 0.407266 0.648675
O O1 0.281398 0.187756 0.081581
O O2 0.320187 0.567813 0.453368
O O3 0.064732 0.238527 0.910895
O O4 0.968649 0.288136 0.129707
O O5 0.279048 0.927908 0.678047
O O6 0.500000 0.000000 0.000000
O O7 0.141810 0.781690 0.738341
O O8 0.730159 0.773277 0.473811
O O9 0.500000 0.500000 0.000000
O O10 0.628597 0.951634 0.401836
O O11 0.848129 0.751997 0.278799
O O12 0.633152 0.996536 0.805817
O O13 0.000000 0.000000 0.000000
O O14 0.387972 0.415206 0.510785
O O15 0.549293 0.329243 0.070376
O O16 0.636420 0.431098 0.774158
O O17 0.000000 0.500000 0.000000
#
# Coordination Sequence:
#
# PCOD9071874 Si02
#       8
#     2   2   2   2   1   2   2   2
#     4  10  18  30  45  73  98 126 150 195 237 282
#     4   9  15  29  47  66  94 121 158 197 241 274
#     4   8  15  26  42  67  90 125 151 184 242 286
#     4   9  19  26  44  73  98 116 159 201 241 270
#     4  10  18  34  48  62 104 134 158 180 230 300
#     4   9  14  29  47  67  99 120 151 200 240 285
#     4   9  16  25  45  68  98 118 145 198 245 282
#     4   9  18  29  46  67  93 134 155 178 235 297
#
# _framework density 29.422291000000001
#
# number of rings (size 3 to 8) (size 9 to 14) (size 15 to 20)
#    0.000    3.200    4.000    0.000    5.600    0.000 
#    0.000    0.667    0.000    0.000    0.000    9.333 
#    0.000    0.667    0.000    0.000    0.000    0.000 
#
# Total GULP energy -83566.514088 kJ/mol
# GULP energy per Si atom -5571.100939 kJ/mol
# Density = 2.935532 g / cm^3
# Si number density = 29.422291 Si / 1000 Ang^3
#
#
#
# Elastic Constant Matrix: (Units=GPa)
#
#
# Indices 1 2 3 4 5 6 
#
# 1 220.7841 87.0066 45.7440 -39.6250 -12.5532 51.8340
# 2 87.0066 196.4539 37.7906 -48.0173 -21.8153 31.4030
# 3 45.7440 37.7906 107.7013 -26.2796 -1.3204 13.2846
# 4 -39.6250 -48.0173 -26.2796 44.0295 20.9513 -1.8454
# 5 -12.5532 -21.8153 -1.3204 20.9513 42.2422 -27.9922
# 6 51.8340 31.4030 13.2846 -1.8454 -27.9922 85.7163
#
#
#
# Elastic Compliance Matrix: (Units=1/GPa)
#
#
# Indices 1 2 3 4 5 6 
#
# 1 0.007534 -0.000984 -0.000101 0.008513 -0.006564 -0.006140
# 2 -0.000984 0.007853 0.000168 0.008898 -0.002612 -0.002970
# 3 -0.000101 0.000168 0.012391 0.011044 -0.007847 -0.004246
# 4 0.008513 0.008898 0.011044 0.064049 -0.038398 -0.021280
# 5 -0.006564 -0.002612 -0.007847 -0.038398 0.054486 0.023109
# 6 -0.006140 -0.002970 -0.004246 -0.021280 0.023109 0.024214
#
#
# Mechanical properties :
#
#
# Convention : Reuss Voigt Hill
#
# Bulk Modulus (GPa) = 38.54342 96.22464 67.38403
# Shear Modulus (GPa) = 27.62288 58.02414 42.82351
#
# Velocity S-wave (km/s) = 3.06738 4.44567 3.81921
# Velocity P-wave (km/s) = 5.06691 7.68945 6.51157
#
# Compressibility (1/GPa) = 0.02594477
#
# Stress axis : x y z
#
# Youngs Moduli (GPa) = 132.72883 127.33796 80.70237
#
# Poissons Ratio (x) = 0.12530 0.00812
# Poissons Ratio (y) = 0.13060 -0.01353
# Poissons Ratio (z) = 0.01335 -0.02135
#
# Static dielectric constant tensor:
#      x y z
#    x 2.345900 -0.150960 -0.317440 
#    y -0.150960 2.142940 -0.951500 
#    z -0.317440 -0.951500 -0.464120 
# 
# From -- ./inp_files/388310.got.cif
#   From: 2010.05.17/outbox.cif.g08.bks.cpg/sg2_195_cif.got.tgz:388310.got - 2010.06.03 11:33:40.
