data_PCOD9071410
_publ_section_title
;
Structure prediction by ZEFSAII (Michael W. Deem and Ramdas Pophale) SiO2 
 PCOD9071410
Probable space group: P -1
;
_chemical_formula_sum "Si O2"
_cell_formula_units_Z 16
_cell_length_a 5.624102
_cell_length_b 10.910115
_cell_length_c 11.523259
_cell_angle_alpha 112.517951
_cell_angle_beta 97.200017
_cell_angle_gamma 90.321341
_cell_volume 646.895948
_symmetry_space_group_name_H-M "P -1"
_symmetry_group_IT_number 2
_symmetry_cell_setting 'triclinic'
loop_
_space_group_symop_operation_xyz
x,y,z
-x,-y,-z
loop_
_atom_site_type_symbol
_atom_site_label
_atom_site_fract_x
_atom_site_fract_y
_atom_site_fract_z
Si Si1 0.105113 0.650874 0.351280
Si Si2 0.600149 0.904339 0.722571
Si Si3 0.296582 0.679614 0.864730
Si Si4 0.439215 0.407839 0.786534
Si Si5 0.774994 0.043468 0.574838
Si Si6 0.631195 0.370413 0.421861
Si Si7 0.892004 0.849068 0.942252
Si Si8 0.407054 0.169185 0.877146
O O1 0.316154 0.575496 0.269284
O O2 0.183292 0.799358 0.369638
O O3 0.135517 0.630212 0.483206
O O4 0.824359 0.621858 0.298553
O O5 0.506894 0.770257 0.604582
O O6 0.686567 0.860568 0.837261
O O7 0.795471 0.978256 0.679052
O O8 0.419145 0.020902 0.775242
O O9 0.392101 0.551998 0.889715
O O10 0.340376 0.644914 0.719847
O O11 0.026257 0.721523 0.862269
O O12 0.406620 0.802665 0.994529
O O13 0.456902 0.281553 0.825775
O O14 0.500000 0.000000 0.500000
O O15 0.000000 0.000000 0.500000
O O16 0.500000 0.500000 0.500000
O O17 0.835130 0.818600 0.061859
O O18 0.000000 0.000000 0.000000
#
# Coordination Sequence:
#
# PCOD9071410 Si02
#       8
#     2   2   2   2   2   2   2   2
#     4  12  28  52  75 121 158 215 267 324 403 479
#     4  12  26  49  78 115 159 208 264 337 399 482
#     4  12  28  51  78 117 155 215 268 334 403 481
#     4  12  30  50  85 114 166 207 268 334 401 481
#     4  12  27  47  78 113 154 208 267 327 393 467
#     4  12  27  49  80 109 164 210 265 325 399 484
#     4  12  27  45  78 116 155 204 266 333 407 477
#     4  12  27  53  78 116 157 208 272 333 409 472
#
# _framework density 24.733501
#
# number of rings (size 3 to 8) (size 9 to 14) (size 15 to 20)
#    0.000    0.000    6.250    2.250    8.750    1.000 
#    0.000    0.000    0.000    0.000    0.000    0.000 
#    0.000    0.000    0.000    0.000    0.000    0.000 
#
# Total GULP energy -89305.898443 kJ/mol
# GULP energy per Si atom -5581.618653 kJ/mol
# Density = 2.467721 g / cm^3
# Si number density = 24.733501 Si / 1000 Ang^3
#
#
#
# Elastic Constant Matrix: (Units=GPa)
#
#
# Indices 1 2 3 4 5 6 
#
# 1 92.4232 23.7365 53.9125 1.9742 -3.2589 -7.6665
# 2 23.7365 112.9988 50.3011 15.2476 -33.3368 -14.0679
# 3 53.9125 50.3011 114.0791 9.7094 -8.8264 -8.9022
# 4 1.9742 15.2476 9.7094 60.9175 -5.4475 -4.9238
# 5 -3.2589 -33.3368 -8.8264 -5.4475 44.8807 6.2884
# 6 -7.6665 -14.0679 -8.9022 -4.9238 6.2884 35.1559
#
#
#
# Elastic Compliance Matrix: (Units=1/GPa)
#
#
# Indices 1 2 3 4 5 6 
#
# 1 0.015059 -0.000053 -0.007064 0.000743 -0.000478 0.001664
# 2 -0.000053 0.014468 -0.005299 -0.001752 0.009130 0.002558
# 3 -0.007064 -0.005299 0.014394 -0.000881 -0.001750 0.000173
# 4 0.000743 -0.001752 -0.000881 0.017136 0.000441 0.001559
# 5 -0.000478 0.009130 -0.001750 0.000441 0.029021 -0.002023
# 6 0.001664 0.002558 0.000173 0.001559 -0.002023 0.030455
#
#
# Mechanical properties :
#
#
# Convention : Reuss Voigt Hill
#
# Bulk Modulus (GPa) = 52.38669 63.93346 58.16008
# Shear Modulus (GPa) = 32.95368 40.96087 36.95727
#
# Velocity S-wave (km/s) = 3.65410 4.07392 3.86971
# Velocity P-wave (km/s) = 6.24737 6.93067 6.59787
#
# Compressibility (1/GPa) = 0.01908882
#
# Stress axis : x y z
#
# Youngs Moduli (GPa) = 66.40479 69.11825 69.47388
#
# Poissons Ratio (x) = 0.00367 0.49075
# Poissons Ratio (y) = 0.00352 0.36816
# Poissons Ratio (z) = 0.46907 0.36628
#
# Static dielectric constant tensor:
#      x y z
#    x 2.200760 0.057150 -0.002570 
#    y 0.057150 2.010690 0.022620 
#    z -0.002570 0.022620 2.007990 
# 
# From -- ./inp_files/365247.got.cif
#   From: 2010.05.17/outbox.cif.g08.bks.cpg/sg2_183_cif.got.tgz:365247.got - 2010.06.03 11:33:40.
