data_PCOD9071891
_publ_section_title
;
Structure prediction by ZEFSAII (Michael W. Deem and Ramdas Pophale) SiO2 
 PCOD9071891
Probable space group: P -1
;
_chemical_formula_sum "Si O2"
_cell_formula_units_Z 16
_cell_length_a 21.117925
_cell_length_b 5.501245
_cell_length_c 7.999241
_cell_angle_alpha 68.458544
_cell_angle_beta 118.035640
_cell_angle_gamma 78.328129
_cell_volume 678.783622
_symmetry_space_group_name_H-M "P -1"
_symmetry_group_IT_number 2
_symmetry_cell_setting 'triclinic'
loop_
_space_group_symop_operation_xyz
x,y,z
-x,-y,-z
loop_
_atom_site_type_symbol
_atom_site_label
_atom_site_fract_x
_atom_site_fract_y
_atom_site_fract_z
Si Si1 0.593493 0.873077 0.094050
Si Si2 0.492385 0.702452 0.601432
Si Si3 0.248664 0.697601 0.989634
Si Si4 0.105755 0.191941 0.834002
Si Si5 0.333799 0.023360 0.200366
Si Si6 0.637558 0.312154 0.141973
Si Si7 0.055673 0.776912 0.485986
Si Si8 0.947734 0.845671 0.894030
O O1 0.628615 0.527032 0.225302
O O2 0.631787 0.015374 0.230882
O O3 0.620487 0.939408 0.923952
O O4 0.500000 0.000000 0.000000
O O5 0.500000 0.500000 0.500000
O O6 0.500000 0.000000 0.500000
O O7 0.397017 0.849075 0.466774
O O8 0.557573 0.511859 0.871090
O O9 0.279096 0.351094 0.116058
O O10 0.290658 0.830283 0.137819
O O11 0.281862 0.751995 0.842033
O O12 0.155726 0.902786 0.861303
O O13 0.118493 0.462081 0.713381
O O14 0.010218 0.291097 0.677756
O O15 0.119343 0.131164 0.062395
O O16 0.087207 0.955814 0.363674
O O17 0.000000 0.000000 0.500000
O O18 0.000000 0.500000 0.000000
O O19 0.000000 0.000000 0.000000
#
# Coordination Sequence:
#
# PCOD9071891 Si02
#       8
#     2   2   2   2   2   2   2   2
#     4  10  18  30  47  71 101 133 177 225 268 314
#     4  12  16  31  53  75 102 128 175 234 278 300
#     4  10  20  33  52  77 109 142 187 226 282 351
#     4  10  22  36  60  89 117 161 192 238 297 346
#     4  10  20  33  52  81 103 141 186 232 271 340
#     4  10  19  32  50  79  99 137 182 227 273 327
#     4  10  20  37  60  92 116 150 203 241 284 343
#     4  10  20  36  59  89 121 145 193 247 282 337
#
# _framework density 23.571580000000001
#
# number of rings (size 3 to 8) (size 9 to 14) (size 15 to 20)
#    0.000    1.750    6.250    0.375    1.750    0.000 
#    0.000    0.000    0.000   12.000    0.000    0.000 
#    0.000    0.000    0.000    0.000    0.000    0.000 
#
# Total GULP energy -89165.549488 kJ/mol
# GULP energy per Si atom -5572.846843 kJ/mol
# Density = 2.351793 g / cm^3
# Si number density = 23.571580 Si / 1000 Ang^3
#
#
#
# Elastic Constant Matrix: (Units=GPa)
#
#
# Indices 1 2 3 4 5 6 
#
# 1 72.2644 32.8073 40.5152 -9.2253 -5.8029 -13.9259
# 2 32.8073 206.7529 34.5592 -34.9393 -13.3216 -1.2671
# 3 40.5152 34.5592 81.5598 -16.9326 -26.3886 -6.5080
# 4 -9.2253 -34.9393 -16.9326 31.0903 4.0856 6.7114
# 5 -5.8029 -13.3216 -26.3886 4.0856 36.0503 3.0140
# 6 -13.9259 -1.2671 -6.5080 6.7114 3.0140 48.7855
#
#
#
# Elastic Compliance Matrix: (Units=1/GPa)
#
#
# Indices 1 2 3 4 5 6 
#
# 1 0.021815 -0.002331 -0.012098 -0.003064 -0.006306 0.005364
# 2 -0.002331 0.006397 0.000215 0.006738 0.001507 -0.001491
# 3 -0.012098 0.000215 0.024801 0.008615 0.015501 -0.002282
# 4 -0.003064 0.006738 0.008615 0.044292 0.003774 -0.005877
# 5 -0.006306 0.001507 0.015501 0.003774 0.038416 -0.002586
# 6 0.005364 -0.001491 -0.002282 -0.005877 -0.002586 0.022654
#
#
# Mechanical properties :
#
#
# Convention : Reuss Voigt Hill
#
# Bulk Modulus (GPa) = 40.67343 64.03785 52.35564
# Shear Modulus (GPa) = 25.64131 40.03158 32.83644
#
# Velocity S-wave (km/s) = 3.30177 4.12551 3.73641
# Velocity P-wave (km/s) = 5.64166 7.06537 6.39327
#
# Compressibility (1/GPa) = 0.02458607
#
# Stress axis : x y z
#
# Youngs Moduli (GPa) = 45.84050 156.31523 40.32066
#
# Poissons Ratio (x) = 0.36432 0.48778
# Poissons Ratio (y) = 0.10684 -0.00865
# Poissons Ratio (z) = 0.55456 -0.03355
#
# Static dielectric constant tensor:
#      x y z
#    x 2.310230 0.026250 -0.351260 
#    y 0.026250 2.094710 0.239770 
#    z -0.351260 0.239770 1.397790 
# 
# From -- ./inp_files/340145.got.cif
#   From: 2010.05.17/outbox.cif.g08.bks.cpg/sg2_171_cif.got.tgz:340145.got - 2010.06.03 11:33:40.
