data_PCOD9071859
_publ_section_title
;
Structure prediction by ZEFSAII (Michael W. Deem and Ramdas Pophale) SiO2 
 PCOD9071859
Probable space group: P -1
;
_chemical_formula_sum "Si O2"
_cell_formula_units_Z 16
_cell_length_a 9.000000
_cell_length_b 18.000000
_cell_length_c 21.000000
_cell_angle_alpha 20.000000
_cell_angle_beta 120.000000
_cell_angle_gamma 130.000000
_cell_volume 818.070593
_symmetry_space_group_name_H-M "P -1"
_symmetry_group_IT_number 2
_symmetry_cell_setting 'triclinic'
loop_
_space_group_symop_operation_xyz
x,y,z
-x,-y,-z
loop_
_atom_site_type_symbol
_atom_site_label
_atom_site_fract_x
_atom_site_fract_y
_atom_site_fract_z
Si Si1 0.864534 0.100743 0.646875
Si Si2 0.322098 0.318940 0.558121
Si Si3 0.783873 0.310455 0.229039
Si Si4 0.258148 0.779581 0.942907
Si Si5 0.507140 0.090000 0.618737
Si Si6 0.323381 0.389631 0.354641
Si Si7 0.557568 0.513972 0.075337
Si Si8 0.138224 0.043355 0.386076
O O1 0.750368 0.227189 0.545361
O O2 0.108419 0.271078 0.574375
O O3 0.842206 0.035097 0.618779
O O4 0.732908 0.817969 0.883351
O O5 0.500000 0.500000 0.500000
O O6 0.366748 0.444084 0.395649
O O7 0.282030 0.030168 0.780243
O O8 0.674570 0.370087 0.213549
O O9 0.620395 0.143461 0.272802
O O10 0.832085 0.119960 0.424859
O O11 0.005104 0.574166 0.039490
O O12 0.411379 0.929516 0.794127
O O13 0.306873 0.601930 0.140478
O O14 0.479898 0.326240 0.412831
O O15 0.105423 0.083289 0.555081
O O16 0.330602 0.349345 0.192569
O O17 0.500000 0.500000 0.000000
#
# Coordination Sequence:
#
# PCOD9071859 Si02
#       8
#     2   2   2   2   2   2   2   2
#     4  10  20  36  53  84 109 142 190 237 280 316
#     4  10  21  42  69  82  99 137 191 247 287 326
#     4  11  19  32  52  80 115 158 189 217 261 319
#     4  10  22  39  55  82 119 152 183 225 272 331
#     4  11  22  33  54  83 121 155 181 214 270 339
#     4   9  22  40  54  83 119 148 184 224 272 337
#     4  10  17  28  49  77 109 146 183 232 263 309
#     4   9  19  32  52  74 112 153 190 227 255 315
#
# _framework density 19.558214
#
# number of rings (size 3 to 8) (size 9 to 14) (size 15 to 20)
#    0.000    2.000    3.750    0.750    1.750    4.500 
#    0.000    2.500    0.000    1.500    0.000    0.000 
#    0.000    0.000    0.000    0.000    0.000    0.000 
#
# Total GULP energy -89082.625089 kJ/mol
# GULP energy per Si atom -5567.664068 kJ/mol
# Density = 1.951370 g / cm^3
# Si number density = 19.558214 Si / 1000 Ang^3
#
#
#
# Elastic Constant Matrix: (Units=GPa)
#
#
# Indices 1 2 3 4 5 6 
#
# 1 108.8118 34.9883 15.0898 -6.9057 10.2447 30.3543
# 2 34.9883 72.2873 20.0173 -1.1606 -1.9138 22.8861
# 3 15.0898 20.0173 55.5208 14.1161 1.9641 9.8119
# 4 -6.9057 -1.1606 14.1161 14.3363 6.3648 0.3687
# 5 10.2447 -1.9138 1.9641 6.3648 20.3595 -0.2081
# 6 30.3543 22.8861 9.8119 0.3687 -0.2081 -1.6204
#
#
#
# Elastic Compliance Matrix: (Units=1/GPa)
#
#
# Indices 1 2 3 4 5 6 
#
# 1 0.009223 -0.008859 -0.005455 0.012461 -0.008653 0.018561
# 2 -0.008859 0.015287 -0.005686 -0.000847 0.006856 0.014456
# 3 -0.005455 -0.005686 0.031474 -0.039065 0.011364 -0.002260
# 4 0.012461 -0.000847 -0.039065 0.133147 -0.043992 0.020865
# 5 -0.008653 0.006856 0.011364 -0.043992 0.066619 -0.015024
# 6 0.018561 0.014456 -0.002260 0.020865 -0.015024 -0.072259
#
#
# Mechanical properties :
#
#
# Convention : Reuss Voigt Hill
#
# Bulk Modulus (GPa) = 62.56337 41.86784 52.21560
# Shear Modulus (GPa) = 21.85143 17.71670 19.78407
#
# Velocity S-wave (km/s) = 3.34616 3.01299 3.18393
# Velocity P-wave (km/s) = 6.85469 5.79287 6.34603
#
# Compressibility (1/GPa) = 0.01598379
#
# Stress axis : x y z
#
# Youngs Moduli (GPa) = 108.42490 65.41444 31.77268
#
# Poissons Ratio (x) = 0.57951 0.17332
# Poissons Ratio (y) = 0.96054 0.18066
# Poissons Ratio (z) = 0.59146 0.37194
#
# Static dielectric constant tensor:
#      x y z
#    x 1.894840 0.047250 0.053720 
#    y 0.047250 1.715120 0.003620 
#    z 0.053720 0.003620 1.722150 
# 
# From -- ./inp_files/270595.got.cif
#   From: 2010.05.17/outbox.ucp.g08.bks.cvg/sg2_136_cif.got.tgz:270595.got - 2010.06.11 11:32:03.
