data_PCOD9071069
_publ_section_title
;
Structure prediction by ZEFSAII (Michael W. Deem and Ramdas Pophale) SiO2 
 PCOD9071069
Probable space group: P -1
;
_chemical_formula_sum "Si O2"
_cell_formula_units_Z 12
_cell_length_a 9.003825
_cell_length_b 26.680049
_cell_length_c 24.113092
_cell_angle_alpha 170.123625
_cell_angle_beta 34.459344
_cell_angle_gamma 148.281711
_cell_volume 516.456393
_symmetry_space_group_name_H-M "P -1"
_symmetry_group_IT_number 2
_symmetry_cell_setting 'triclinic'
loop_
_space_group_symop_operation_xyz
x,y,z
-x,-y,-z
loop_
_atom_site_type_symbol
_atom_site_label
_atom_site_fract_x
_atom_site_fract_y
_atom_site_fract_z
Si Si1 0.747816 0.390736 0.118119
Si Si2 0.805134 0.195033 0.763295
Si Si3 0.213230 0.067322 0.173084
Si Si4 0.941298 0.322923 0.091650
Si Si5 0.668032 0.978333 0.369898
Si Si6 0.109074 0.226561 0.159923
O O1 0.447505 0.397464 0.234174
O O2 0.786744 0.167638 0.912008
O O3 0.729255 0.273607 0.933550
O O4 0.034521 0.711159 0.383448
O O5 0.521839 0.031942 0.636168
O O6 0.000000 0.000000 0.500000
O O7 0.000000 0.500000 0.000000
O O8 0.180288 0.402191 0.560399
O O9 0.110182 0.865790 0.040891
O O10 0.025163 0.952122 0.050204
O O11 0.500000 0.000000 0.000000
O O12 0.259635 0.336814 0.996296
O O13 0.500000 0.000000 0.500000
O O14 0.000000 0.500000 0.500000
O O15 0.000000 0.000000 0.000000
#
# Coordination Sequence:
#
# PCOD9071069 Si02
#       6
#     2   2   2   2   2   2
#     4  12  28  49  80 113 158 208 264 323 401 465
#     4  12  29  49  78 116 157 209 265 326 397 470
#     4  12  25  49  79 113 153 209 259 327 401 466
#     4  12  26  47  76 111 155 203 263 319 396 466
#     4  12  27  52  79 116 162 210 267 329 394 474
#     4  12  28  50  78 115 159 201 263 329 392 474
#
# _framework density 23.235261999999999
#
# number of rings (size 3 to 8) (size 9 to 14) (size 15 to 20)
#    0.000    0.000    3.333    5.500    4.667    1.333 
#    0.000    0.000    0.000    0.000    0.000    0.000 
#    0.000    0.000    0.000    0.000    0.000    0.000 
#
# Total GULP energy -67030.934559 kJ/mol
# GULP energy per Si atom -5585.911213 kJ/mol
# Density = 2.318238 g / cm^3
# Si number density = 23.235262 Si / 1000 Ang^3
#
#
#
# Elastic Constant Matrix: (Units=GPa)
#
#
# Indices 1 2 3 4 5 6 
#
# 1 251.2552 95.3537 88.9318 -10.5255 7.5932 -10.0920
# 2 95.3537 185.8439 82.3686 -24.8843 -2.6129 0.2412
# 3 88.9318 82.3686 147.4764 -27.5254 -27.1837 -6.0370
# 4 -10.5255 -24.8843 -27.5254 46.3967 -0.0661 -4.6409
# 5 7.5932 -2.6129 -27.1837 -0.0661 59.4956 -5.5657
# 6 -10.0920 0.2412 -6.0370 -4.6409 -5.5657 66.4487
#
#
#
# Elastic Compliance Matrix: (Units=1/GPa)
#
#
# Indices 1 2 3 4 5 6 
#
# 1 0.005806 -0.001805 -0.003175 -0.001507 -0.002244 0.000307
# 2 -0.001805 0.007968 -0.003198 0.001912 -0.000929 -0.000538
# 3 -0.003175 -0.003198 0.012669 0.005246 0.006206 0.001566
# 4 -0.001507 0.001912 0.005246 0.025580 0.002914 0.002271
# 5 -0.002244 -0.000929 0.006206 0.002914 0.020090 0.002113
# 6 0.000307 -0.000538 0.001566 0.002271 0.002113 0.015576
#
#
# Mechanical properties :
#
#
# Convention : Reuss Voigt Hill
#
# Bulk Modulus (GPa) = 99.15390 124.20930 111.68160
# Shear Modulus (GPa) = 46.55131 55.66295 51.10713
#
# Velocity S-wave (km/s) = 4.48088 4.89982 4.69502
# Velocity P-wave (km/s) = 8.33892 9.25118 8.80687
#
# Compressibility (1/GPa) = 0.01008533
#
# Stress axis : x y z
#
# Youngs Moduli (GPa) = 172.23308 125.49694 78.93390
#
# Poissons Ratio (x) = 0.22658 0.25063
# Poissons Ratio (y) = 0.31097 0.25245
# Poissons Ratio (z) = 0.54688 0.40136
#
# Static dielectric constant tensor:
#      x y z
#    x 1.551160 -0.013080 0.208950 
#    y -0.013080 1.907520 0.047260 
#    z 0.208950 0.047260 1.826670 
# 
# From -- ./inp_files/608831.got.cif
#   From: 2010.05.17/outbox.cif.g08.bks.cpg/sg2_305_cif.got.tgz:608831.got - 2010.06.03 11:33:40.
