data_PCOD9071675
_publ_section_title
;
Structure prediction by ZEFSAII (Michael W. Deem and Ramdas Pophale) SiO2 
 PCOD9071675
Probable space group: P -1
;
_chemical_formula_sum "Si O2"
_cell_formula_units_Z 14
_cell_length_a 13.681943
_cell_length_b 10.083106
_cell_length_c 7.956567
_cell_angle_alpha 128.277349
_cell_angle_beta 136.864804
_cell_angle_gamma 42.642854
_cell_volume 500.239506
_symmetry_space_group_name_H-M "P -1"
_symmetry_group_IT_number 2
_symmetry_cell_setting 'triclinic'
loop_
_space_group_symop_operation_xyz
x,y,z
-x,-y,-z
loop_
_atom_site_type_symbol
_atom_site_label
_atom_site_fract_x
_atom_site_fract_y
_atom_site_fract_z
Si Si1 0.756789 0.084106 0.606453
Si Si2 0.852397 0.237786 0.173625
Si Si3 0.552158 0.281982 0.967342
Si Si4 0.424714 0.198324 0.414637
Si Si5 0.786888 0.351094 0.627989
Si Si6 0.882844 0.724381 0.103344
Si Si7 0.247067 0.417001 0.896597
O O1 0.596409 0.067053 0.424114
O O2 0.719444 0.215358 0.497827
O O3 0.764651 0.191189 0.872153
O O4 0.950098 0.910564 0.699963
O O5 0.827510 0.453534 0.267428
O O6 0.750066 0.205529 0.168000
O O7 0.484251 0.186056 0.671343
O O8 0.443282 0.307682 0.014682
O O9 0.500000 0.500000 0.000000
O O10 0.341377 0.435498 0.450176
O O11 0.275671 0.168443 0.138215
O O12 0.971507 0.228635 0.680123
O O13 0.808719 0.422857 0.898337
O O14 0.812757 0.717890 0.194228
O O15 0.000000 0.500000 0.000000
#
# Coordination Sequence:
#
# PCOD9071675 Si02
#       7
#     2   2   2   2   2   2   2
#     4   9  15  25  45  66  87 113 144 182 215 254
#     4   8  15  25  40  66  91 112 141 176 222 257
#     4   9  16  26  43  67  92 113 139 183 223 256
#     4   9  16  27  46  69  86 111 151 183 214 255
#     4   9  17  30  47  66  87 114 149 183 214 253
#     4   8  16  30  46  65  87 113 149 183 213 253
#     4   8  14  27  46  62  85 115 141 177 217 256
#
# _framework density 27.986595999999999
#
# number of rings (size 3 to 8) (size 9 to 14) (size 15 to 20)
#    0.000    3.714    0.000    1.286    0.000    2.286 
#    0.000    6.429    0.000   45.429    0.000    0.000 
#    0.000    4.571    0.000    0.000    0.000    1.143 
#
# Total GULP energy -78106.908803 kJ/mol
# GULP energy per Si atom -5579.064914 kJ/mol
# Density = 2.792290 g / cm^3
# Si number density = 27.986596 Si / 1000 Ang^3
#
#
#
# Elastic Constant Matrix: (Units=GPa)
#
#
# Indices 1 2 3 4 5 6 
#
# 1 240.0382 45.8483 62.2568 -16.4638 36.4936 -37.6621
# 2 45.8483 70.8330 42.6401 -27.2967 13.4194 -22.1977
# 3 62.2568 42.6401 135.8674 -17.7420 47.0730 -10.6431
# 4 -16.4638 -27.2967 -17.7420 37.2997 -9.5867 10.2030
# 5 36.4936 13.4194 47.0730 -9.5867 40.6361 -12.9196
# 6 -37.6621 -22.1977 -10.6431 10.2030 -12.9196 47.9695
#
#
#
# Elastic Compliance Matrix: (Units=1/GPa)
#
#
# Indices 1 2 3 4 5 6 
#
# 1 0.005551 -0.002058 -0.000894 -0.000892 -0.002625 0.002690
# 2 -0.002058 0.026824 -0.007641 0.014919 0.007925 0.008063
# 3 -0.000894 -0.007641 0.015190 -0.001587 -0.016200 -0.004893
# 4 -0.000892 0.014919 -0.001587 0.038426 0.006605 -0.000543
# 5 -0.002625 0.007925 -0.016200 0.006605 0.047677 0.009448
# 6 0.002690 0.008063 -0.004893 -0.000543 0.009448 0.028264
#
#
# Mechanical properties :
#
#
# Convention : Reuss Voigt Hill
#
# Bulk Modulus (GPa) = 37.90921 83.13656 60.52288
# Shear Modulus (GPa) = 26.05359 44.91393 35.48376
#
# Velocity S-wave (km/s) = 3.05443 4.01039 3.56460
# Velocity P-wave (km/s) = 5.10042 7.15644 6.21405
#
# Compressibility (1/GPa) = 0.02637881
#
# Stress axis : x y z
#
# Youngs Moduli (GPa) = 180.14841 37.27938 65.83253
#
# Poissons Ratio (x) = 0.07673 0.05884
# Poissons Ratio (y) = 0.37079 0.50304
# Poissons Ratio (z) = 0.16102 0.28486
#
# Static dielectric constant tensor:
#      x y z
#    x 2.316250 0.078370 0.009910 
#    y 0.078370 2.326430 0.123220 
#    z 0.009910 0.123220 2.290370 
# 
# From -- ./inp_files/311835.got.cif
#   From: 2010.05.17/outbox.cif.g08.bks.cpg/sg2_156_cif.got.tgz:311835.got - 2010.06.03 11:33:40.
