data_PCOD9071682
_publ_section_title
;
Structure prediction by ZEFSAII (Michael W. Deem and Ramdas Pophale) SiO2 
 PCOD9071682
Probable space group: P -1
;
_chemical_formula_sum "Si O2"
_cell_formula_units_Z 14
_cell_length_a 10.451694
_cell_length_b 14.975391
_cell_length_c 17.391455
_cell_angle_alpha 20.070450
_cell_angle_beta 69.531767
_cell_angle_gamma 59.552626
_cell_volume 728.273104
_symmetry_space_group_name_H-M "P -1"
_symmetry_group_IT_number 2
_symmetry_cell_setting 'triclinic'
loop_
_space_group_symop_operation_xyz
x,y,z
-x,-y,-z
loop_
_atom_site_type_symbol
_atom_site_label
_atom_site_fract_x
_atom_site_fract_y
_atom_site_fract_z
Si Si1 0.388619 0.735510 0.264927
Si Si2 0.221799 0.197800 0.260097
Si Si3 0.103380 0.896957 0.284563
Si Si4 0.857350 0.585011 0.064092
Si Si5 0.675437 0.587812 0.237910
Si Si6 0.744498 0.263586 0.106176
Si Si7 0.569590 0.214772 0.322359
O O1 0.500000 0.500000 0.500000
O O2 0.212704 0.782635 0.276177
O O3 0.506083 0.606988 0.269668
O O4 0.363478 0.067261 0.018648
O O5 0.245381 0.221859 0.145419
O O6 0.345907 0.881727 0.534763
O O7 0.236729 0.466299 0.080142
O O8 0.034410 0.300970 0.227716
O O9 0.198713 0.635158 0.541952
O O10 0.108946 0.188288 0.078072
O O11 0.913206 0.018575 0.225841
O O12 0.764567 0.488052 0.218215
O O13 0.703974 0.128326 0.297796
O O14 0.583924 0.435105 0.946707
O O15 0.500000 0.000000 0.500000
#
# Coordination Sequence:
#
# PCOD9071682 Si02
#       7
#     2   2   2   2   2   2   2
#     4   8  15  26  40  59  83 107 135 168 202 245
#     4   9  17  28  40  59  88 116 142 168 196 239
#     4   9  16  26  41  63  86 108 137 169 204 246
#     4   9  17  26  39  62  89 116 140 162 197 246
#     4   9  15  25  40  58  85 113 133 163 205 244
#     4   9  17  28  43  60  80 110 144 174 205 237
#     4   9  17  29  42  56  79 109 143 180 207 232
#
# _framework density 19.223557
#
# number of rings (size 3 to 8) (size 9 to 14) (size 15 to 20)
#    0.000    3.143    0.000    0.857    0.000    2.286 
#    0.000    4.286    0.000    0.000    0.000    1.000 
#    0.000   49.143    0.000    3.714    0.000    1.000 
#
# Total GULP energy -77934.508903 kJ/mol
# GULP energy per Si atom -5566.750636 kJ/mol
# Density = 1.917980 g / cm^3
# Si number density = 19.223557 Si / 1000 Ang^3
#
#
#
# Elastic Constant Matrix: (Units=GPa)
#
#
# Indices 1 2 3 4 5 6 
#
# 1 46.7555 34.0191 26.6559 10.1002 7.3177 -22.2861
# 2 34.0191 106.6350 34.8840 31.8583 7.2927 -48.6788
# 3 26.6559 34.8840 58.5513 20.9644 3.3451 -18.7312
# 4 10.1002 31.8583 20.9644 35.0311 2.6004 -8.2523
# 5 7.3177 7.2927 3.3451 2.6004 28.8812 -2.5663
# 6 -22.2861 -48.6788 -18.7312 -8.2523 -2.5663 36.4498
#
#
#
# Elastic Compliance Matrix: (Units=1/GPa)
#
#
# Indices 1 2 3 4 5 6 
#
# 1 0.036416 -0.001044 -0.011237 0.001164 -0.006442 0.014907
# 2 -0.001044 0.035388 0.000961 -0.022375 -0.003050 0.041835
# 3 -0.011237 0.000961 0.028197 -0.013175 0.001058 0.005995
# 4 0.001164 -0.022375 -0.013175 0.050671 0.000145 -0.024458
# 5 -0.006442 -0.003050 0.001058 0.000145 0.036459 -0.004869
# 6 0.014907 0.041835 0.005995 -0.024458 -0.004869 0.089621
#
#
# Mechanical properties :
#
#
# Convention : Reuss Voigt Hill
#
# Bulk Modulus (GPa) = 12.92636 44.78443 28.85539
# Shear Modulus (GPa) = 15.37625 27.83126 21.60376
#
# Velocity S-wave (km/s) = 2.83126 3.80908 3.35597
# Velocity P-wave (km/s) = 4.17455 6.53397 5.48268
#
# Compressibility (1/GPa) = 0.07736133
#
# Stress axis : x y z
#
# Youngs Moduli (GPa) = 27.46081 28.25841 35.46516
#
# Poissons Ratio (x) = 0.02950 0.39850
# Poissons Ratio (y) = 0.02867 -0.03409
# Poissons Ratio (z) = 0.30856 -0.02716
#
# Static dielectric constant tensor:
#      x y z
#    x 1.677720 -0.045100 -0.001500 
#    y -0.045100 1.732690 -0.007860 
#    z -0.001500 -0.007860 1.692370 
# 
# From -- ./inp_files/63500.got.cif
#   From: 2010.05.17/outbox.cif.g08.bks.cpg/sg2_32_cif.got.tgz:63500.got - 2010.06.03 11:33:40.
