data_PCOD9071412
_publ_section_title
;
Structure prediction by ZEFSAII (Michael W. Deem and Ramdas Pophale) SiO2 
 PCOD9071412
Probable space group: P -1
;
_chemical_formula_sum "Si O2"
_cell_formula_units_Z 13
_cell_length_a 15.759239
_cell_length_b 5.623757
_cell_length_c 13.972162
_cell_angle_alpha 97.005951
_cell_angle_beta 150.720159
_cell_angle_gamma 73.497037
_cell_volume 559.387317
_symmetry_space_group_name_H-M "P -1"
_symmetry_group_IT_number 2
_symmetry_cell_setting 'triclinic'
loop_
_space_group_symop_operation_xyz
x,y,z
-x,-y,-z
loop_
_atom_site_type_symbol
_atom_site_label
_atom_site_fract_x
_atom_site_fract_y
_atom_site_fract_z
Si Si1 0.421686 0.418022 0.212251
Si Si2 0.033983 0.020486 0.645519
Si Si3 0.462152 0.655488 0.069315
Si Si4 0.062116 0.735958 0.108275
Si Si5 0.500000 0.500000 0.500000
Si Si6 0.711381 0.892688 0.431395
Si Si7 0.985830 0.575820 0.216917
O O1 0.493056 0.477539 0.184256
O O2 0.446434 0.570553 0.335423
O O3 0.550956 0.119193 0.340508
O O4 0.204215 0.468535 0.990157
O O5 0.873283 0.963941 0.542920
O O6 0.020472 0.301732 0.679090
O O7 0.245303 0.837638 0.867396
O O8 0.000000 0.000000 0.500000
O O9 0.600902 0.805135 0.234979
O O10 0.500000 0.500000 0.000000
O O11 0.282461 0.621494 0.319088
O O12 0.992436 0.775246 0.151353
O O13 0.000000 0.500000 0.000000
O O14 0.000000 0.000000 0.000000
O O15 0.826905 0.673782 0.609687
#
# Coordination Sequence:
#
# PCOD9071412 Si02
#       7
#     2   2   2   2   1   2   2
#     4  12  27  50  78 113 153 210 264 331 402 482
#     4  12  27  46  77 113 155 205 259 329 401 479
#     4  12  27  47  77 115 154 203 266 321 400 486
#     4  12  30  51  82 119 160 211 271 338 405 487
#     4  12  28  50  82 114 160 208 274 330 414 474
#     4  12  26  49  79 106 160 203 259 328 400 475
#     4  12  27  51  77 113 155 206 265 329 400 483
#
# _framework density 23.239709000000001
#
# number of rings (size 3 to 8) (size 9 to 14) (size 15 to 20)
#    0.000    0.000    4.615    4.615    8.615    4.308 
#    0.000    0.000    0.000    0.000    0.000    0.000 
#    0.000    0.000    0.000    0.000    0.000    0.000 
#
# Total GULP energy -72500.297438 kJ/mol
# GULP energy per Si atom -5576.945957 kJ/mol
# Density = 2.318681 g / cm^3
# Si number density = 23.239709 Si / 1000 Ang^3
#
#
#
# Elastic Constant Matrix: (Units=GPa)
#
#
# Indices 1 2 3 4 5 6 
#
# 1 74.8208 -7.2681 25.0518 17.6472 -13.9068 1.1051
# 2 -7.2681 48.0732 36.8575 -1.3275 -0.1655 4.0974
# 3 25.0518 36.8575 165.2162 9.0466 21.4738 8.9392
# 4 17.6472 -1.3275 9.0466 35.4606 -2.9061 1.1321
# 5 -13.9068 -0.1655 21.4738 -2.9061 63.7952 -3.6729
# 6 1.1051 4.0974 8.9392 1.1321 -3.6729 23.8530
#
#
#
# Elastic Compliance Matrix: (Units=1/GPa)
#
#
# Indices 1 2 3 4 5 6 
#
# 1 0.018037 0.005799 -0.004349 -0.007259 0.005134 0.000933
# 2 0.005799 0.027554 -0.007449 0.000407 0.003767 -0.001650
# 3 -0.004349 -0.007449 0.009097 -0.000699 -0.004208 -0.002543
# 4 -0.007259 0.000407 -0.000699 0.032042 0.000057 -0.000984
# 5 0.005134 0.003767 -0.004208 0.000057 0.018426 0.003527
# 6 0.000933 -0.001650 -0.002543 -0.000984 0.003527 0.043706
#
#
# Mechanical properties :
#
#
# Convention : Reuss Voigt Hill
#
# Bulk Modulus (GPa) = 23.42447 44.15473 33.78960
# Shear Modulus (GPa) = 28.55671 40.18636 34.37154
#
# Velocity S-wave (km/s) = 3.50921 4.16289 3.84995
# Velocity P-wave (km/s) = 5.14984 6.49208 5.85952
#
# Compressibility (1/GPa) = 0.04269040
#
# Stress axis : x y z
#
# Youngs Moduli (GPa) = 55.44081 36.29216 109.93152
#
# Poissons Ratio (x) = -0.21046 0.47809
# Poissons Ratio (y) = -0.32150 0.81886
# Poissons Ratio (z) = 0.24111 0.27034
#
# Static dielectric constant tensor:
#      x y z
#    x 1.843600 0.017340 -0.030030 
#    y 0.017340 1.999930 -0.001610 
#    z -0.030030 -0.001610 1.841660 
# 
# From -- ./inp_files/77626.got.cif
#   From: 2010.05.17/outbox.cif.g08.bks.cpg/sg2_39_cif.got.tgz:77626.got - 2010.06.03 11:33:40.
