data_PCOD9071168
_publ_section_title
;
Structure prediction by ZEFSAII (Michael W. Deem and Ramdas Pophale) SiO2 
 PCOD9071168
Probable space group: P -1
;
_chemical_formula_sum "Si O2"
_cell_formula_units_Z 14
_cell_length_a 26.588491
_cell_length_b 13.081016
_cell_length_c 5.035055
_cell_angle_alpha 93.391917
_cell_angle_beta 99.538452
_cell_angle_gamma 155.824752
_cell_volume 603.762637
_symmetry_space_group_name_H-M "P -1"
_symmetry_group_IT_number 2
_symmetry_cell_setting 'triclinic'
loop_
_space_group_symop_operation_xyz
x,y,z
-x,-y,-z
loop_
_atom_site_type_symbol
_atom_site_label
_atom_site_fract_x
_atom_site_fract_y
_atom_site_fract_z
Si Si1 0.389711 0.528350 0.389260
Si Si2 0.318779 0.807828 0.237417
Si Si3 0.878761 0.854551 0.782476
Si Si4 0.672342 0.312751 0.252370
Si Si5 0.967441 0.643703 0.127980
Si Si6 0.612576 0.618034 0.116112
Si Si7 0.930189 0.266882 0.281437
O O1 0.248010 0.331675 0.175046
O O2 0.365941 0.400776 0.586688
O O3 0.522511 0.850866 0.634742
O O4 0.436388 0.558352 0.168125
O O5 0.319603 0.740816 0.487303
O O6 0.202325 0.678903 0.141016
O O7 0.267203 0.637633 0.931083
O O8 0.774350 0.602834 0.436142
O O9 0.000000 0.000000 0.000000
O O10 0.968519 0.123833 0.828035
O O11 0.500000 0.000000 0.000000
O O12 0.046796 0.714118 0.005683
O O13 0.988461 0.664741 0.460436
O O14 0.763732 0.944624 0.178385
O O15 0.500000 0.500000 0.000000
O O16 0.000000 0.500000 0.500000
#
# Coordination Sequence:
#
# PCOD9071168 Si02
#       7
#     2   2   2   2   2   2   2
#     4  12  27  48  75 107 154 192 251 309 370 458
#     4  12  27  45  72 107 148 199 251 302 371 437
#     4  12  26  49  75 110 157 209 246 308 367 449
#     4  12  26  44  70 106 150 195 251 301 361 430
#     4  12  27  48  73 110 150 197 248 306 377 455
#     4  12  27  49  77 109 143 193 247 314 390 446
#     4  12  27  49  76 107 148 185 251 319 380 442
#
# _framework density 23.187919999999998
#
# number of rings (size 3 to 8) (size 9 to 14) (size 15 to 20)
#    0.000    0.000    5.714    3.000    4.000    1.714 
#    0.000    0.000    0.000    0.000    0.000    0.000 
#    0.000    0.000    0.000    0.000    0.000    0.000 
#
# Total GULP energy -78310.238012 kJ/mol
# GULP energy per Si atom -5593.588429 kJ/mol
# Density = 2.313514 g / cm^3
# Si number density = 23.187920 Si / 1000 Ang^3
#
#
#
# Elastic Constant Matrix: (Units=GPa)
#
#
# Indices 1 2 3 4 5 6 
#
# 1 117.1630 19.6332 29.9171 1.7133 -0.1819 7.1173
# 2 19.6332 78.5056 14.9305 9.1363 -0.3606 3.5072
# 3 29.9171 14.9305 100.6831 -3.0348 2.5053 15.3833
# 4 1.7133 9.1363 -3.0348 54.1917 4.0810 -6.5485
# 5 -0.1819 -0.3606 2.5053 4.0810 51.9119 15.2895
# 6 7.1173 3.5072 15.3833 -6.5485 15.2895 41.2652
#
#
#
# Elastic Compliance Matrix: (Units=1/GPa)
#
#
# Indices 1 2 3 4 5 6 
#
# 1 0.009522 -0.001850 -0.002458 -0.000246 0.000379 -0.000748
# 2 -0.001850 0.013813 -0.001445 -0.002514 0.000637 -0.000951
# 3 -0.002458 -0.001445 0.011466 0.000459 0.000526 -0.003850
# 4 -0.000246 -0.002514 0.000459 0.019638 -0.002837 0.004253
# 5 0.000379 0.000637 0.000526 -0.002837 0.022105 -0.008956
# 6 -0.000748 -0.000951 -0.003850 0.004253 -0.008956 0.029872
#
#
# Mechanical properties :
#
#
# Convention : Reuss Voigt Hill
#
# Bulk Modulus (GPa) = 42.92609 47.25702 45.09156
# Shear Modulus (GPa) = 39.78161 44.93183 42.35672
#
# Velocity S-wave (km/s) = 4.14650 4.40674 4.27859
# Velocity P-wave (km/s) = 6.44027 6.80564 6.62547
#
# Compressibility (1/GPa) = 0.02329586
#
# Stress axis : x y z
#
# Youngs Moduli (GPa) = 105.01611 72.39306 87.21742
#
# Poissons Ratio (x) = 0.13395 0.21435
# Poissons Ratio (y) = 0.19431 0.12602
# Poissons Ratio (z) = 0.25809 0.10460
#
# Static dielectric constant tensor:
#      x y z
#    x 1.911730 0.020120 0.000960 
#    y 0.020120 1.865730 0.007720 
#    z 0.000960 0.007720 1.869740 
# 
# From -- ./inp_files/101582.got.cif
#   From: 2010.05.17/outbox.cif.g08.bks.cpg/sg2_51_cif.got.tgz:101582.got - 2010.06.03 11:33:40.
