data_PCOD9071779
_publ_section_title
;
Structure prediction by ZEFSAII (Michael W. Deem and Ramdas Pophale) SiO2 
 PCOD9071779
Probable space group: P -1
;
_chemical_formula_sum "Si O2"
_cell_formula_units_Z 15
_cell_length_a 6.903597
_cell_length_b 7.681495
_cell_length_c 10.933769
_cell_angle_alpha 79.088788
_cell_angle_beta 83.792804
_cell_angle_gamma 105.371696
_cell_volume 541.240468
_symmetry_space_group_name_H-M "P -1"
_symmetry_group_IT_number 2
_symmetry_cell_setting 'triclinic'
loop_
_space_group_symop_operation_xyz
x,y,z
-x,-y,-z
loop_
_atom_site_type_symbol
_atom_site_label
_atom_site_fract_x
_atom_site_fract_y
_atom_site_fract_z
Si Si1 0.797829 0.719145 0.740401
Si Si2 0.347438 0.942266 0.864154
Si Si3 0.828163 0.642337 0.210196
Si Si4 0.403213 0.278139 0.574660
Si Si5 0.278104 0.527034 0.018182
Si Si6 0.000000 0.000000 0.500000
Si Si7 0.371356 0.754093 0.647329
Si Si8 0.802191 0.023250 0.891968
O O1 0.796042 0.529667 0.831550
O O2 0.970758 0.832383 0.622760
O O3 0.579852 0.717873 0.696030
O O4 0.823220 0.848260 0.840410
O O5 0.331708 0.900550 0.726940
O O6 0.581604 0.039120 0.865733
O O7 0.295945 0.734690 0.952660
O O8 0.208771 0.017927 0.956098
O O9 0.647011 0.711872 0.278632
O O10 0.794962 0.444400 0.304540
O O11 0.033675 0.800674 0.196351
O O12 0.830352 0.592374 0.073933
O O13 0.500000 0.500000 0.500000
O O14 0.572696 0.198899 0.505143
O O15 0.187735 0.152224 0.549254
O O16 0.500000 0.500000 0.000000
#
# Coordination Sequence:
#
# PCOD9071779 Si02
#       8
#     2   2   2   2   2   1   2   2
#     4  10  18  33  51  73 100 137 170 211 266 307
#     4   9  19  33  49  71 108 139 167 213 264 310
#     4  10  18  29  50  77 104 129 176 214 254 314
#     4   9  17  29  47  76 104 131 175 219 261 303
#     4  11  19  34  49  73 110 138 165 215 276 309
#     4  10  18  32  52  72 102 140 174 224 256 310
#     4   8  16  29  47  70 101 133 165 207 258 303
#     4  10  18  31  49  78 102 133 177 212 252 313
#
# _framework density 27.714113999999999
#
# number of rings (size 3 to 8) (size 9 to 14) (size 15 to 20)
#    0.000    2.400    5.333    0.000    0.000    2.667 
#    0.000    0.000    0.000    0.800    0.000    2.800 
#    0.000    0.400    0.000    0.000    0.000    0.000 
#
# Total GULP energy -83579.367816 kJ/mol
# GULP energy per Si atom -5571.957854 kJ/mol
# Density = 2.765104 g / cm^3
# Si number density = 27.714114 Si / 1000 Ang^3
#
#
#
# Elastic Constant Matrix: (Units=GPa)
#
#
# Indices 1 2 3 4 5 6 
#
# 1 71.5796 26.7155 32.2025 -13.6993 -5.1274 18.7077
# 2 26.7155 139.0912 24.4671 -4.5356 -8.3200 24.6640
# 3 32.2025 24.4671 205.2706 -22.6326 -19.6811 5.9468
# 4 -13.6993 -4.5356 -22.6326 54.3960 1.8188 -18.7455
# 5 -5.1274 -8.3200 -19.6811 1.8188 43.2731 -2.5167
# 6 18.7077 24.6640 5.9468 -18.7455 -2.5167 47.3820
#
#
#
# Elastic Compliance Matrix: (Units=1/GPa)
#
#
# Indices 1 2 3 4 5 6 
#
# 1 0.017276 -0.002012 -0.002118 0.001619 0.000347 -0.004849
# 2 -0.002012 0.008414 -0.000648 -0.001501 0.000912 -0.004049
# 3 -0.002118 -0.000648 0.005694 0.002207 0.002206 0.001449
# 4 0.001619 -0.001501 0.002207 0.022614 0.000471 0.008836
# 5 0.000347 0.000912 0.002206 0.000471 0.024343 0.000591
# 6 -0.004849 -0.004049 0.001449 0.008836 0.000591 0.028472
#
#
# Mechanical properties :
#
#
# Convention : Reuss Voigt Hill
#
# Bulk Modulus (GPa) = 45.81430 64.74574 55.28002
# Shear Modulus (GPa) = 40.43783 51.18066 45.80925
#
# Velocity S-wave (km/s) = 3.82397 4.30203 4.07002
# Velocity P-wave (km/s) = 6.00532 6.93465 6.48665
#
# Compressibility (1/GPa) = 0.02182724
#
# Stress axis : x y z
#
# Youngs Moduli (GPa) = 57.88222 118.85509 175.62351
#
# Poissons Ratio (x) = 0.23918 0.37200
# Poissons Ratio (y) = 0.11648 0.11378
# Poissons Ratio (z) = 0.12260 0.07700
#
# Static dielectric constant tensor:
#      x y z
#    x 2.278240 -0.075220 -0.022040 
#    y -0.075220 2.266300 0.043950 
#    z -0.022040 0.043950 2.261790 
# 
# From -- ./inp_files/376099.got.cif
#   From: 2010.05.17/outbox.cif.g08.bks.cpg/sg2_189_cif.got.tgz:376099.got - 2010.06.03 11:33:40.
