data_PCOD9071636
_publ_section_title
;
Structure prediction by ZEFSAII (Michael W. Deem and Ramdas Pophale) SiO2 
 PCOD9071636
Probable space group: P -1
;
_chemical_formula_sum "Si O2"
_cell_formula_units_Z 14
_cell_length_a 23.120585
_cell_length_b 6.805204
_cell_length_c 8.209061
_cell_angle_alpha 54.878399
_cell_angle_beta 41.191340
_cell_angle_gamma 35.943386
_cell_volume 497.379937
_symmetry_space_group_name_H-M "P -1"
_symmetry_group_IT_number 2
_symmetry_cell_setting 'triclinic'
loop_
_space_group_symop_operation_xyz
x,y,z
-x,-y,-z
loop_
_atom_site_type_symbol
_atom_site_label
_atom_site_fract_x
_atom_site_fract_y
_atom_site_fract_z
Si Si1 0.916754 0.442395 0.510141
Si Si2 0.361963 0.188740 0.766120
Si Si3 0.525360 0.185050 0.964455
Si Si4 0.715109 0.952026 0.461429
Si Si5 0.714679 0.408443 0.552849
Si Si6 0.037570 0.949876 0.726520
Si Si7 0.148694 0.309421 0.003355
O O1 0.794992 0.798945 0.530078
O O2 0.932275 0.237386 0.418896
O O3 0.914113 0.319795 0.751842
O O4 0.042571 0.350940 0.283138
O O5 0.291545 0.538616 0.653173
O O6 0.274920 0.136747 0.911014
O O7 0.500000 0.000000 0.500000
O O8 0.386494 0.088603 0.949825
O O9 0.580831 0.256359 0.675342
O O10 0.500000 0.000000 0.000000
O O11 0.400557 0.505824 0.165365
O O12 0.703925 0.703524 0.516934
O O13 0.794163 0.930207 0.165210
O O14 0.851296 0.078032 0.467990
O O15 0.064715 0.696315 0.927388
#
# Coordination Sequence:
#
# PCOD9071636 Si02
#       7
#     2   2   2   2   2   2   2
#     4   9  15  25  43  65  88 114 143 174 207 246
#     4   8  14  25  41  61  84 112 143 174 212 254
#     4   9  14  23  41  63  84 108 142 178 213 254
#     4   8  14  23  38  63  86 107 139 174 207 245
#     4   7  13  24  40  60  83 109 139 173 207 248
#     4   8  14  25  43  66  87 109 145 177 202 245
#     4   9  16  27  43  64  87 112 144 176 208 249
#
# _framework density 28.147496
#
# number of rings (size 3 to 8) (size 9 to 14) (size 15 to 20)
#    0.000    4.286    0.000    2.571    0.000    0.000 
#    0.000    0.714    0.000   12.000    0.000   24.000 
#    0.000    1.143    0.000    0.000    0.000    0.000 
#
# Total GULP energy -77940.636747 kJ/mol
# GULP energy per Si atom -5567.188339 kJ/mol
# Density = 2.808343 g / cm^3
# Si number density = 28.147496 Si / 1000 Ang^3
#
#
#
# Elastic Constant Matrix: (Units=GPa)
#
#
# Indices 1 2 3 4 5 6 
#
# 1 145.0649 34.1339 24.7096 -11.9837 4.3203 -28.7564
# 2 34.1339 124.4708 43.0049 -18.8481 13.8615 -51.7493
# 3 24.7096 43.0049 168.2031 10.6757 8.5354 -14.9002
# 4 -11.9837 -18.8481 10.6757 49.6134 -5.3245 17.8176
# 5 4.3203 13.8615 8.5354 -5.3245 32.3978 -0.9291
# 6 -28.7564 -51.7493 -14.9002 17.8176 -0.9291 55.8429
#
#
#
# Elastic Compliance Matrix: (Units=1/GPa)
#
#
# Indices 1 2 3 4 5 6 
#
# 1 0.007830 -0.000363 -0.000790 0.000705 -0.000472 0.003252
# 2 -0.000363 0.014953 -0.002458 0.001044 -0.005169 0.012595
# 3 -0.000790 -0.002458 0.006922 -0.002740 -0.001116 0.000018
# 4 0.000705 0.001044 -0.002740 0.024282 0.003969 -0.007082
# 5 -0.000472 -0.005169 -0.001116 0.003969 0.033914 -0.006033
# 6 0.003252 0.012595 0.000018 -0.007082 -0.006033 0.033418
#
#
# Mechanical properties :
#
#
# Convention : Reuss Voigt Hill
#
# Bulk Modulus (GPa) = 44.47781 71.27060 57.87420
# Shear Modulus (GPa) = 36.75507 49.96352 43.35929
#
# Velocity S-wave (km/s) = 3.61751 4.21772 3.92909
# Velocity P-wave (km/s) = 5.76927 7.00673 6.41789
#
# Compressibility (1/GPa) = 0.02248312
#
# Stress axis : x y z
#
# Youngs Moduli (GPa) = 127.70633 66.87670 144.46907
#
# Poissons Ratio (x) = 0.02427 0.11417
# Poissons Ratio (y) = 0.04634 0.35510
# Poissons Ratio (z) = 0.10092 0.16438
#
# Static dielectric constant tensor:
#      x y z
#    x 2.335500 0.180760 -0.024520 
#    y 0.180760 2.354050 -0.004950 
#    z -0.024520 -0.004950 2.285120 
# 
# From -- ./inp_files/264757.got.cif
#   From: 2010.05.17/outbox.cif.g08.bks.cpg/sg2_133_cif.got.tgz:264757.got - 2010.06.03 11:33:40.
