data_PCOD9071698
_publ_section_title
;
Structure prediction by ZEFSAII (Michael W. Deem and Ramdas Pophale) SiO2 
 PCOD9071698
Probable space group: P -1
;
_chemical_formula_sum "Si O2"
_cell_formula_units_Z 16
_cell_length_a 22.384854
_cell_length_b 8.090715
_cell_length_c 8.728313
_cell_angle_alpha 112.289409
_cell_angle_beta 59.680066
_cell_angle_gamma 146.704974
_cell_volume 746.031899
_symmetry_space_group_name_H-M "P -1"
_symmetry_group_IT_number 2
_symmetry_cell_setting 'triclinic'
loop_
_space_group_symop_operation_xyz
x,y,z
-x,-y,-z
loop_
_atom_site_type_symbol
_atom_site_label
_atom_site_fract_x
_atom_site_fract_y
_atom_site_fract_z
Si Si1 0.455374 0.549878 0.453361
Si Si2 0.221524 0.652075 0.972481
Si Si3 0.915921 0.437495 0.478458
Si Si4 0.883288 0.468598 0.225510
Si Si5 0.005461 0.096259 0.271934
Si Si6 0.343185 0.039062 0.236098
Si Si7 0.346551 0.818391 0.446738
Si Si8 0.254306 0.374750 0.629916
O O1 0.500000 0.500000 0.500000
O O2 0.330332 0.373571 0.596427
O O3 0.549528 0.901524 0.477037
O O4 0.434669 0.388623 0.271956
O O5 0.320857 0.930697 0.054676
O O6 0.111428 0.358229 0.112835
O O7 0.168697 0.681123 0.926698
O O8 0.264743 0.569625 0.793612
O O9 0.928005 0.422400 0.276870
O O10 0.784275 0.150998 0.612457
O O11 0.000000 0.500000 0.500000
O O12 0.955477 0.726846 0.559326
O O13 0.769693 0.313080 0.404727
O O14 0.974591 0.822401 0.215080
O O15 0.883675 0.935508 0.322193
O O16 0.370830 0.931320 0.280353
O O17 0.311473 0.546956 0.450906
#
# Coordination Sequence:
#
# PCOD9071698 Si02
#       8
#     2   2   2   2   2   2   2   2
#     4  10  19  33  53  75  99 132 170 213 253 294
#     4   9  18  33  53  78 106 133 163 211 257 300
#     4  10  18  29  48  74 103 135 169 203 246 303
#     4   9  17  31  50  73  99 133 170 206 248 297
#     4   9  17  31  51  75 101 132 167 208 248 296
#     4   9  18  33  50  71 103 133 165 210 256 297
#     4   8  17  32  52  73  95 130 175 212 244 292
#     4  10  18  32  54  77  98 130 172 207 248 305
#
# _framework density 21.446804
#
# number of rings (size 3 to 8) (size 9 to 14) (size 15 to 20)
#    0.000    3.000    0.000    3.000    0.000    1.000 
#    0.000    7.500    0.000   22.500    0.000    3.500 
#    0.000    0.000    0.000    0.000    0.000    0.000 
#
# Total GULP energy -89085.318994 kJ/mol
# GULP energy per Si atom -5567.832437 kJ/mol
# Density = 2.139799 g / cm^3
# Si number density = 21.446804 Si / 1000 Ang^3
#
#
#
# Elastic Constant Matrix: (Units=GPa)
#
#
# Indices 1 2 3 4 5 6 
#
# 1 92.1278 14.9608 21.1037 6.8959 13.5424 11.3303
# 2 14.9608 89.5768 17.3369 26.1168 10.3483 20.6923
# 3 21.1037 17.3369 57.1503 24.2955 26.4483 5.6132
# 4 6.8959 26.1168 24.2955 32.6406 12.4650 9.7408
# 5 13.5424 10.3483 26.4483 12.4650 33.3484 3.3759
# 6 11.3303 20.6923 5.6132 9.7408 3.3759 20.2451
#
#
#
# Elastic Compliance Matrix: (Units=1/GPa)
#
#
# Indices 1 2 3 4 5 6 
#
# 1 0.012878 -0.000600 -0.004612 0.004105 -0.002220 -0.006920
# 2 -0.000600 0.016973 0.000962 -0.010246 -0.000718 -0.012229
# 3 -0.004612 0.000962 0.036606 -0.020770 -0.020181 0.004807
# 4 0.004105 -0.010246 -0.020770 0.058492 -0.002482 -0.013796
# 5 -0.002220 -0.000718 -0.020181 -0.002482 0.047966 0.000768
# 6 -0.006920 -0.012229 0.004807 -0.013796 0.000768 0.070944
#
#
# Mechanical properties :
#
#
# Convention : Reuss Voigt Hill
#
# Bulk Modulus (GPa) = 17.25391 38.40643 27.83017
# Shear Modulus (GPa) = 18.40420 29.61038 24.00729
#
# Velocity S-wave (km/s) = 2.93257 3.71973 3.34935
# Velocity P-wave (km/s) = 4.41917 6.03284 5.28792
#
# Compressibility (1/GPa) = 0.05795787
#
# Stress axis : x y z
#
# Youngs Moduli (GPa) = 77.64890 58.91772 27.31821
#
# Poissons Ratio (x) = 0.03536 0.12598
# Poissons Ratio (y) = 0.04660 -0.02628
# Poissons Ratio (z) = 0.35808 -0.05669
#
# Static dielectric constant tensor:
#      x y z
#    x 1.876970 -0.047270 0.031880 
#    y -0.047270 1.875180 0.034430 
#    z 0.031880 0.034430 1.810830 
# 
# From -- ./inp_files/352251.got.cif
#   From: 2010.05.17/outbox.cif.g08.bks.cpg/sg2_177_cif.got.tgz:352251.got - 2010.06.03 11:33:40.
