data_PCOD9071126
_publ_section_title
;
Structure prediction by ZEFSAII (Michael W. Deem and Ramdas Pophale) SiO2 
 PCOD9071126
Probable space group: P -1
;
_chemical_formula_sum "Si O2"
_cell_formula_units_Z 14
_cell_length_a 9.374447
_cell_length_b 12.163784
_cell_length_c 9.836520
_cell_angle_alpha 133.130670
_cell_angle_beta 97.842639
_cell_angle_gamma 114.700950
_cell_volume 573.457615
_symmetry_space_group_name_H-M "P -1"
_symmetry_group_IT_number 2
_symmetry_cell_setting 'triclinic'
loop_
_space_group_symop_operation_xyz
x,y,z
-x,-y,-z
loop_
_atom_site_type_symbol
_atom_site_label
_atom_site_fract_x
_atom_site_fract_y
_atom_site_fract_z
Si Si1 0.784497 0.547674 0.773180
Si Si2 0.274711 0.638284 0.683051
Si Si3 0.014739 0.761090 0.489266
Si Si4 0.276039 0.155756 0.049417
Si Si5 0.350703 0.531889 0.007187
Si Si6 0.225124 0.901627 0.049146
Si Si7 0.548707 0.988395 0.345449
O O1 0.749723 0.422706 0.528549
O O2 0.705739 0.654072 0.807200
O O3 0.695163 0.453163 0.830639
O O4 0.028989 0.731570 0.972182
O O5 0.502380 0.758506 0.856635
O O6 0.114222 0.430443 0.580290
O O7 0.763218 0.214364 0.167331
O O8 0.214283 0.832874 0.509944
O O9 0.853676 0.667990 0.268476
O O10 0.115432 0.974245 0.764862
O O11 0.207933 0.050401 0.101473
O O12 0.456515 0.750562 0.129588
O O13 0.500000 0.500000 0.000000
O O14 0.421692 0.006251 0.248921
O O15 0.500000 0.000000 0.500000
#
# Coordination Sequence:
#
# PCOD9071126 Si02
#       7
#     2   2   2   2   2   2   2
#     4  12  28  48  79 116 156 203 260 323 388 460
#     4  12  26  48  78 115 152 200 257 321 390 452
#     4  12  25  50  81 105 159 198 261 315 385 458
#     4  12  27  49  76 116 155 201 259 316 392 454
#     4  12  29  54  78 112 158 208 257 314 395 464
#     4  12  26  47  77 117 157 203 257 317 392 457
#     4  12  29  48  77 116 155 206 262 317 381 466
#
# _framework density 24.413312000000001
#
# number of rings (size 3 to 8) (size 9 to 14) (size 15 to 20)
#    0.000    0.000    4.286    4.286    4.000    4.571 
#    0.000    0.000    0.000    0.000    0.000    0.000 
#    0.000    0.000    0.000    0.000    0.000    0.000 
#
# Total GULP energy -78483.247180 kJ/mol
# GULP energy per Si atom -5605.946227 kJ/mol
# Density = 2.435775 g / cm^3
# Si number density = 24.413312 Si / 1000 Ang^3
#
#
#
# Elastic Constant Matrix: (Units=GPa)
#
#
# Indices 1 2 3 4 5 6 
#
# 1 90.7151 38.7966 35.5785 -2.7211 31.1821 12.3769
# 2 38.7966 167.1873 62.5380 -9.8111 2.7090 29.1539
# 3 35.5785 62.5380 135.9415 -23.5766 35.4178 11.5862
# 4 -2.7211 -9.8111 -23.5766 48.7634 7.8529 3.4628
# 5 31.1821 2.7090 35.4178 7.8529 35.4293 0.0238
# 6 12.3769 29.1539 11.5862 3.4628 0.0238 46.0282
#
#
#
# Elastic Compliance Matrix: (Units=1/GPa)
#
#
# Indices 1 2 3 4 5 6 
#
# 1 0.020018 -0.004890 0.004435 0.006266 -0.023065 -0.003862
# 2 -0.004890 0.009552 -0.005944 -0.002635 0.010101 -0.003046
# 3 0.004435 -0.005944 0.017085 0.011199 -0.023009 -0.002559
# 4 0.006266 -0.002635 0.011199 0.029824 -0.023116 -0.005067
# 5 -0.023065 0.010101 -0.023009 -0.023116 0.075873 0.007296
# 6 -0.003862 -0.003046 -0.002559 -0.005067 0.007296 0.025715
#
#
# Mechanical properties :
#
#
# Convention : Reuss Voigt Hill
#
# Bulk Modulus (GPa) = 29.53380 74.18554 51.85967
# Shear Modulus (GPa) = 24.73421 43.17291 33.95356
#
# Velocity S-wave (km/s) = 3.18645 4.20982 3.73336
# Velocity P-wave (km/s) = 5.06573 7.35414 6.31447
#
# Compressibility (1/GPa) = 0.03385951
#
# Stress axis : x y z
#
# Youngs Moduli (GPa) = 49.95437 104.68855 58.53233
#
# Poissons Ratio (x) = 0.51188 -0.25962
# Poissons Ratio (y) = 0.24425 0.34789
# Poissons Ratio (z) = -0.22157 0.62223
#
# Static dielectric constant tensor:
#      x y z
#    x 1.917400 -0.011870 -0.020700 
#    y -0.011870 1.932880 0.019020 
#    z -0.020700 0.019020 2.003810 
# 
# From -- ./inp_files/270935.got.cif
#   From: 2010.05.17/outbox.cif.g08.bks.cpg/sg2_136_cif.got.tgz:270935.got - 2010.06.03 11:33:40.
