data_PCOD9071892
_publ_section_title
;
Structure prediction by ZEFSAII (Michael W. Deem and Ramdas Pophale) SiO2 
 PCOD9071892
Probable space group: P -1
;
_chemical_formula_sum "Si O2"
_cell_formula_units_Z 16
_cell_length_a 9.000000
_cell_length_b 15.000000
_cell_length_c 15.000000
_cell_angle_alpha 120.000000
_cell_angle_beta 40.000000
_cell_angle_gamma 140.000000
_cell_volume 817.999524
_symmetry_space_group_name_H-M "P -1"
_symmetry_group_IT_number 2
_symmetry_cell_setting 'triclinic'
loop_
_space_group_symop_operation_xyz
x,y,z
-x,-y,-z
loop_
_atom_site_type_symbol
_atom_site_label
_atom_site_fract_x
_atom_site_fract_y
_atom_site_fract_z
Si Si1 0.172540 0.340346 0.089439
Si Si2 0.847303 0.007522 0.661220
Si Si3 0.810838 0.432555 0.334268
Si Si4 0.423640 0.926849 0.316412
Si Si5 0.507124 0.283968 0.580683
Si Si6 0.945145 0.219770 0.320264
Si Si7 0.740647 0.750875 0.631424
Si Si8 0.515200 0.720003 0.201209
O O1 0.888841 0.336835 0.224448
O O2 0.161915 0.293199 0.169927
O O3 0.500000 0.500000 0.000000
O O4 0.201500 0.258434 0.963660
O O5 0.607843 0.019943 0.736342
O O6 0.147932 0.143932 0.646058
O O7 0.709378 0.865897 0.704267
O O8 0.000000 0.000000 0.500000
O O9 0.642822 0.391596 0.488263
O O10 0.561857 0.389598 0.351164
O O11 0.162108 0.587233 0.257856
O O12 0.553237 0.851163 0.224321
O O13 0.060193 0.817724 0.463811
O O14 0.651430 0.056889 0.345426
O O15 0.759439 0.267193 0.454429
O O16 0.498396 0.311850 0.702774
O O17 0.173184 0.258151 0.314422
#
# Coordination Sequence:
#
# PCOD9071892 Si02
#       8
#     2   2   2   2   2   2   2   2
#     4   9  22  44  60  79 117 162 198 232 287 355
#     4  10  17  32  56  86 119 148 179 241 296 336
#     4  10  21  39  60  82 117 160 194 236 293 348
#     4  11  20  35  58  91 123 143 189 245 298 331
#     4  11  18  35  60  88 111 150 197 242 286 341
#     4  11  20  36  65  88 110 158 197 234 290 353
#     4  11  19  35  60  93 114 147 198 243 283 348
#     4  11  23  37  56  86 123 151 195 244 286 341
#
# _framework density 19.559913999999999
#
# number of rings (size 3 to 8) (size 9 to 14) (size 15 to 20)
#    0.000    1.500    6.250    2.250    0.000    1.000 
#    0.000    3.750    0.000    3.000    0.000    0.000 
#    0.000    0.000    0.000    0.000    0.000    0.000 
#
# Total GULP energy -89128.304597 kJ/mol
# GULP energy per Si atom -5570.519037 kJ/mol
# Density = 1.951539 g / cm^3
# Si number density = 19.559914 Si / 1000 Ang^3
#
#
#
# Elastic Constant Matrix: (Units=GPa)
#
#
# Indices 1 2 3 4 5 6 
#
# 1 126.9138 16.0458 28.0779 4.8720 10.9084 32.5527
# 2 16.0458 14.3793 -1.2570 -1.6031 4.9765 14.4434
# 3 28.0779 -1.2570 79.6474 17.0431 17.7949 -2.1883
# 4 4.8720 -1.6031 17.0431 17.0228 2.6993 -11.8001
# 5 10.9084 4.9765 17.7949 2.6993 16.9835 3.3549
# 6 32.5527 14.4434 -2.1883 -11.8001 3.3549 29.8500
#
#
#
# Elastic Compliance Matrix: (Units=1/GPa)
#
#
# Indices 1 2 3 4 5 6 
#
# 1 0.016685 0.017487 0.000558 -0.029069 -0.004375 -0.037616
# 2 0.017487 0.233149 0.033305 -0.126565 -0.060214 -0.172707
# 3 0.000558 0.033305 0.025991 -0.037377 -0.026144 -0.026656
# 4 -0.029069 -0.126565 -0.037377 0.204065 0.029385 0.167568
# 5 -0.004375 -0.060214 -0.026144 0.029385 0.095565 0.032865
# 6 -0.037616 -0.172707 -0.026656 0.167568 0.032865 0.218684
#
#
# Mechanical properties :
#
#
# Convention : Reuss Voigt Hill
#
# Bulk Modulus (GPa) = 2.64182 34.07487 18.35834
# Shear Modulus (GPa) = 6.11536 24.64284 15.37910
#
# Velocity S-wave (km/s) = 1.77010 3.55331 2.80707
# Velocity P-wave (km/s) = 2.35186 5.85604 4.46231
#
# Compressibility (1/GPa) = 0.37852667
#
# Stress axis : x y z
#
# Youngs Moduli (GPa) = 59.93325 4.28910 38.47469
#
# Poissons Ratio (x) = -0.07500 -0.02147
# Poissons Ratio (y) = -1.04805 -1.28142
# Poissons Ratio (z) = -0.03345 -0.14285
#
# Static dielectric constant tensor:
#      x y z
#    x 1.707130 -0.051430 0.016030 
#    y -0.051430 1.777880 0.019270 
#    z 0.016030 0.019270 1.666580 
# 
# From -- ./inp_files/204320.got.cif
#   From: 2010.05.17/outbox.ucp.g08.bks.cvg/sg2_103_cif.got.tgz:204320.got - 2010.06.11 11:32:03.
