data_PCOD9071932
_publ_section_title
;
Structure prediction by ZEFSAII (Michael W. Deem and Ramdas Pophale) SiO2 
 PCOD9071932
Probable space group: P -1
;
_chemical_formula_sum "Si O2"
_cell_formula_units_Z 15
_cell_length_a 13.177727
_cell_length_b 5.183782
_cell_length_c 24.932023
_cell_angle_alpha 92.347388
_cell_angle_beta 149.428531
_cell_angle_gamma 77.335677
_cell_volume 806.793745
_symmetry_space_group_name_H-M "P -1"
_symmetry_group_IT_number 2
_symmetry_cell_setting 'triclinic'
loop_
_space_group_symop_operation_xyz
x,y,z
-x,-y,-z
loop_
_atom_site_type_symbol
_atom_site_label
_atom_site_fract_x
_atom_site_fract_y
_atom_site_fract_z
Si Si1 0.791427 0.129563 0.629506
Si Si2 0.348897 0.285513 0.371446
Si Si3 0.000000 0.500000 0.500000
Si Si4 0.157589 0.979959 0.714841
Si Si5 0.235683 0.913195 0.130376
Si Si6 0.161302 0.979189 0.522985
Si Si7 0.647358 0.628812 0.244963
Si Si8 0.643794 0.624370 0.749547
O O1 0.603600 0.160672 0.500259
O O2 0.745481 0.433506 0.634808
O O3 0.751189 0.933236 0.654720
O O4 0.027662 0.007595 0.710842
O O5 0.308917 0.351560 0.291314
O O6 0.164130 0.285562 0.528166
O O7 0.192926 0.417982 0.631889
O O8 0.304223 0.669890 0.762168
O O9 0.962871 0.073792 0.583913
O O10 0.288556 0.178994 0.766372
O O11 0.412219 0.775578 0.163464
O O12 0.271012 0.681361 0.190337
O O13 0.274144 0.176568 0.175513
O O14 0.000000 0.000000 0.000000
O O15 0.385755 0.752772 0.636113
O O16 0.000000 0.000000 0.500000
#
# Coordination Sequence:
#
# PCOD9071932 Si02
#       8
#     2   2   1   2   2   2   2   2
#     4  10  20  36  53  85 125 157 193 241 288 358
#     4  10  21  36  55  83 120 161 201 235 287 361
#     4  10  18  30  48  78 120 144 178 230 270 352
#     4  11  21  33  56  85 120 160 182 231 301 346
#     4  12  26  43  60  86 121 160 205 254 292 349
#     4  11  19  31  49  83 120 154 189 224 279 362
#     4  11  22  34  55  86 117 152 193 233 290 366
#     4  12  23  39  62  84 115 166 201 242 300 348
#
# _framework density 18.592112
#
# number of rings (size 3 to 8) (size 9 to 14) (size 15 to 20)
#    0.000    1.067    4.000    4.400    0.000    0.000 
#    0.000    0.000    0.000    0.000    0.000   18.667 
#    0.000    0.000    0.000    0.000    0.000    0.000 
#
# Total GULP energy -83538.811968 kJ/mol
# GULP energy per Si atom -5569.254131 kJ/mol
# Density = 1.854980 g / cm^3
# Si number density = 18.592112 Si / 1000 Ang^3
#
#
#
# Elastic Constant Matrix: (Units=GPa)
#
#
# Indices 1 2 3 4 5 6 
#
# 1 93.5775 -2.7027 14.7974 -7.4917 9.1161 1.1678
# 2 -2.7027 47.4655 1.0986 -3.7270 9.1067 16.8084
# 3 14.7974 1.0986 47.1982 -9.1467 14.0194 -5.2963
# 4 -7.4917 -3.7270 -9.1467 15.2226 -2.4215 -1.1272
# 5 9.1161 9.1067 14.0194 -2.4215 18.5705 -5.9484
# 6 1.1678 16.8084 -5.2963 -1.1272 -5.9484 27.5660
#
#
#
# Elastic Compliance Matrix: (Units=1/GPa)
#
#
# Indices 1 2 3 4 5 6 
#
# 1 0.012256 0.004523 -0.001097 0.004762 -0.008422 -0.005110
# 2 0.004523 0.039021 0.006060 0.007711 -0.034519 -0.029954
# 3 -0.001097 0.006060 0.031610 0.015792 -0.024981 -0.002320
# 4 0.004762 0.007711 0.015792 0.078112 -0.007982 -0.000398
# 5 -0.008422 -0.034519 -0.024981 -0.007982 0.105216 0.038983
# 6 -0.005110 -0.029954 -0.002320 -0.000398 0.038983 0.062707
#
#
# Mechanical properties :
#
#
# Convention : Reuss Voigt Hill
#
# Bulk Modulus (GPa) = 9.81748 23.84755 16.83251
# Shear Modulus (GPa) = 14.53900 23.94167 19.24034
#
# Velocity S-wave (km/s) = 2.79946 3.59239 3.22042
# Velocity P-wave (km/s) = 3.96752 5.48285 4.78554
#
# Compressibility (1/GPa) = 0.10185917
#
# Stress axis : x y z
#
# Youngs Moduli (GPa) = 81.59383 25.62746 31.63550
#
# Poissons Ratio (x) = -0.11590 0.03469
# Poissons Ratio (y) = -0.36902 -0.19172
# Poissons Ratio (z) = 0.08948 -0.15531
#
# Static dielectric constant tensor:
#      x y z
#    x 1.681290 0.022370 0.000890 
#    y 0.022370 1.648450 -0.024850 
#    z 0.000890 -0.024850 1.603010 
# 
# From -- ./inp_files/592535.got.cif
#   From: 2010.05.17/outbox.cif.g08.bks.cpg/sg2_297_cif.got.tgz:592535.got - 2010.06.03 11:33:40.
