data_PCOD9071626
_publ_section_title
;
Structure prediction by ZEFSAII (Michael W. Deem and Ramdas Pophale) SiO2 
 PCOD9071626
Probable space group: P -1
;
_chemical_formula_sum "Si O2"
_cell_formula_units_Z 10
_cell_length_a 4.553059
_cell_length_b 6.021843
_cell_length_c 14.878731
_cell_angle_alpha 115.852113
_cell_angle_beta 99.667214
_cell_angle_gamma 85.619475
_cell_volume 361.900905
_symmetry_space_group_name_H-M "P -1"
_symmetry_group_IT_number 2
_symmetry_cell_setting 'triclinic'
loop_
_space_group_symop_operation_xyz
x,y,z
-x,-y,-z
loop_
_atom_site_type_symbol
_atom_site_label
_atom_site_fract_x
_atom_site_fract_y
_atom_site_fract_z
Si Si1 0.882946 0.991645 0.255187
Si Si2 0.167035 0.812419 0.406835
Si Si3 0.009864 0.792451 0.887765
Si Si4 0.249160 0.505954 0.592804
Si Si5 0.524982 0.475370 0.889233
O O1 0.695271 0.213502 0.332073
O O2 0.045107 0.077437 0.187275
O O3 0.647429 0.773636 0.188114
O O4 0.144421 0.933058 0.330522
O O5 0.935695 0.589640 0.348704
O O6 0.527160 0.315391 0.565170
O O7 0.000000 0.000000 0.500000
O O8 0.842665 0.546743 0.874281
O O9 0.348232 0.706958 0.880507
O O10 0.000000 0.000000 0.000000
O O11 0.000000 0.500000 0.500000
O O12 0.500000 0.500000 0.000000
#
# Coordination Sequence:
#
# PCOD9071626 Si02
#       5
#     2   2   2   2   2
#     4  12  30  50  88 120 178 228 286 366 430 510
#     4  12  28  53  84 126 172 226 291 354 434 519
#     4  12  28  53  82 122 167 226 293 354 429 511
#     4  12  28  53  84 126 172 226 291 354 434 519
#     4  12  28  53  82 122 167 226 293 354 429 511
#
# _framework density 27.631874
#
# number of rings (size 3 to 8) (size 9 to 14) (size 15 to 20)
#    0.000    0.000    4.000    3.600    0.000    9.600 
#    0.000    0.000    0.000    0.000    0.000    0.000 
#    0.000    0.000    0.000    0.000    0.000    0.000 
#
# Total GULP energy -55968.826209 kJ/mol
# GULP energy per Si atom -5596.882621 kJ/mol
# Density = 2.756898 g / cm^3
# Si number density = 27.631874 Si / 1000 Ang^3
#
#
#
# Elastic Constant Matrix: (Units=GPa)
#
#
# Indices 1 2 3 4 5 6 
#
# 1 162.8307 69.5295 67.9492 1.1109 -3.9055 -25.6282
# 2 69.5295 171.6116 112.3368 -10.4780 6.4207 -1.0988
# 3 67.9492 112.3368 224.5545 -7.0974 10.8231 -12.6887
# 4 1.1109 -10.4780 -7.0974 76.2148 5.5555 1.5651
# 5 -3.9055 6.4207 10.8231 5.5555 30.8364 -1.3137
# 6 -25.6282 -1.0988 -12.6887 1.5651 -1.3137 78.0072
#
#
#
# Elastic Compliance Matrix: (Units=1/GPa)
#
#
# Indices 1 2 3 4 5 6 
#
# 1 0.008229 -0.002718 -0.001122 -0.000815 0.002257 0.002537
# 2 -0.002718 0.009645 -0.003991 0.001112 -0.001214 -0.001449
# 3 -0.001122 -0.003991 0.006918 0.000226 -0.001752 0.000667
# 4 -0.000815 0.001112 0.000226 0.013527 -0.002874 -0.000535
# 5 0.002257 -0.001214 -0.001752 -0.002874 0.034146 0.001072
# 6 0.002537 -0.001449 0.000667 -0.000535 0.001072 0.013770
#
#
# Mechanical properties :
#
#
# Convention : Reuss Voigt Hill
#
# Bulk Modulus (GPa) = 109.50821 117.62531 113.56676
# Shear Modulus (GPa) = 47.64707 57.62379 52.63543
#
# Velocity S-wave (km/s) = 4.15704 4.57158 4.36923
# Velocity P-wave (km/s) = 7.92202 8.39803 8.16350
#
# Compressibility (1/GPa) = 0.00913174
#
# Stress axis : x y z
#
# Youngs Moduli (GPa) = 121.52346 103.68562 144.54452
#
# Poissons Ratio (x) = 0.28179 0.16212
# Poissons Ratio (y) = 0.33026 0.57683
# Poissons Ratio (z) = 0.13630 0.41378
#
# Static dielectric constant tensor:
#      x y z
#    x 2.127730 -0.019720 0.016890 
#    y -0.019720 2.415390 -0.015950 
#    z 0.016890 -0.015950 2.135830 
# 
# From -- ./inp_files/8241.got.cif
#   From: 2010.05.17/outbox.cif.g08.bks.cpg/sg2_5_cif.got.tgz:8241.got - 2010.06.03 11:33:40.
