data_PCOD9071857
_publ_section_title
;
Structure prediction by ZEFSAII (Michael W. Deem and Ramdas Pophale) SiO2 
 PCOD9071857
Probable space group: P -1
;
_chemical_formula_sum "Si O2"
_cell_formula_units_Z 16
_cell_length_a 9.153362
_cell_length_b 12.088257
_cell_length_c 14.917454
_cell_angle_alpha 74.128032
_cell_angle_beta 145.133490
_cell_angle_gamma 88.378381
_cell_volume 806.098624
_symmetry_space_group_name_H-M "P -1"
_symmetry_group_IT_number 2
_symmetry_cell_setting 'triclinic'
loop_
_space_group_symop_operation_xyz
x,y,z
-x,-y,-z
loop_
_atom_site_type_symbol
_atom_site_label
_atom_site_fract_x
_atom_site_fract_y
_atom_site_fract_z
Si Si1 0.976587 0.746797 0.107143
Si Si2 0.586700 0.746273 0.422827
Si Si3 0.174098 0.154135 0.787669
Si Si4 0.195163 0.035663 0.158928
Si Si5 0.185787 0.348895 0.631645
Si Si6 0.069035 0.508756 0.821466
Si Si7 0.176864 0.910398 0.864939
Si Si8 0.424367 0.635928 0.033725
O O1 0.300489 0.728519 0.269512
O O2 0.861905 0.812981 0.132246
O O3 0.982343 0.607539 0.140386
O O4 0.789706 0.847021 0.912795
O O5 0.752628 0.715215 0.419392
O O6 0.790021 0.636617 0.619068
O O7 0.473507 0.899212 0.349991
O O8 0.034775 0.286248 0.632871
O O9 0.059926 0.051301 0.729775
O O10 0.511124 0.103243 0.943298
O O11 0.023296 0.081063 0.154977
O O12 0.000000 0.000000 0.000000
O O13 0.476743 0.335456 0.827754
O O14 0.000000 0.500000 0.500000
O O15 0.290052 0.444874 0.863138
O O16 0.240153 0.559646 0.961150
O O17 0.246221 0.781699 0.872082
#
# Coordination Sequence:
#
# PCOD9071857 Si02
#       8
#     2   2   2   2   2   2   2   2
#     4  11  19  35  58  90 114 151 195 236 289 342
#     4  11  22  36  58  89 122 142 192 247 292 328
#     4  10  18  29  58  84 109 141 197 239 271 333
#     4  10  19  33  56  84 119 145 182 247 294 326
#     4  11  20  36  56  88 113 148 191 243 282 329
#     4  11  22  38  57  85 117 161 187 232 290 354
#     4  10  18  34  55  83 109 148 198 227 281 338
#     4  10  21  37  60  79 117 157 192 229 287 351
#
# _framework density 19.848689
#
# number of rings (size 3 to 8) (size 9 to 14) (size 15 to 20)
#    0.000    1.500    6.250    3.375    1.750    0.000 
#    0.000    3.125    2.750    2.250    0.000    0.000 
#    0.000    0.000    0.000    0.000    0.000    0.000 
#
# Total GULP energy -89131.486219 kJ/mol
# GULP energy per Si atom -5570.717889 kJ/mol
# Density = 1.980351 g / cm^3
# Si number density = 19.848689 Si / 1000 Ang^3
#
#
#
# Elastic Constant Matrix: (Units=GPa)
#
#
# Indices 1 2 3 4 5 6 
#
# 1 82.9668 22.0314 25.9738 -27.3917 -3.5909 10.3811
# 2 22.0314 99.9645 49.3200 -39.3428 -4.1343 25.9743
# 3 25.9738 49.3200 62.0509 -40.4897 -3.5782 15.6309
# 4 -27.3917 -39.3428 -40.4897 39.1927 2.7993 -3.7794
# 5 -3.5909 -4.1343 -3.5782 2.7993 18.5266 -13.1501
# 6 10.3811 25.9743 15.6309 -3.7794 -13.1501 36.5085
#
#
#
# Elastic Compliance Matrix: (Units=1/GPa)
#
#
# Indices 1 2 3 4 5 6 
#
# 1 0.017329 0.004289 0.005768 0.021767 -0.004939 -0.009974
# 2 0.004289 0.023942 0.001713 0.027696 -0.012255 -0.020534
# 3 0.005768 0.001713 0.066321 0.072645 -0.018155 -0.030273
# 4 0.021767 0.027696 0.072645 0.140817 -0.036216 -0.055464
# 5 -0.004939 -0.012255 -0.018155 -0.036216 0.083688 0.044291
# 6 -0.009974 -0.020534 -0.030273 -0.055464 0.044291 0.068009
#
#
# Mechanical properties :
#
#
# Convention : Reuss Voigt Hill
#
# Bulk Modulus (GPa) = 7.62585 48.84809 28.23697
# Shear Modulus (GPa) = 11.89696 28.68934 20.29315
#
# Velocity S-wave (km/s) = 2.45089 3.80597 3.20096
# Velocity P-wave (km/s) = 3.44375 6.63156 5.28379
#
# Compressibility (1/GPa) = 0.13113300
#
# Stress axis : x y z
#
# Youngs Moduli (GPa) = 57.70740 41.76773 15.07819
#
# Poissons Ratio (x) = -0.17914 -0.08698
# Poissons Ratio (y) = -0.24750 -0.02584
# Poissons Ratio (z) = -0.33288 -0.07157
#
# Static dielectric constant tensor:
#      x y z
#    x 1.705570 0.024050 -0.030560 
#    y 0.024050 1.766490 -0.110070 
#    z -0.030560 -0.110070 1.845930 
# 
# From -- ./inp_files/354171.got.cif
#   From: 2010.05.17/outbox.cif.g08.bks.cpg/sg2_178_cif.got.tgz:354171.got - 2010.06.03 11:33:40.
