data_PCOD9071137
_publ_section_title
;
Structure prediction by ZEFSAII (Michael W. Deem and Ramdas Pophale) SiO2 
 PCOD9071137
Probable space group: P -1
;
_chemical_formula_sum "Si O2"
_cell_formula_units_Z 12
_cell_length_a 9.643943
_cell_length_b 9.382280
_cell_length_c 10.310434
_cell_angle_alpha 41.148332
_cell_angle_beta 88.540430
_cell_angle_gamma 112.809720
_cell_volume 482.205874
_symmetry_space_group_name_H-M "P -1"
_symmetry_group_IT_number 2
_symmetry_cell_setting 'triclinic'
loop_
_space_group_symop_operation_xyz
x,y,z
-x,-y,-z
loop_
_atom_site_type_symbol
_atom_site_label
_atom_site_fract_x
_atom_site_fract_y
_atom_site_fract_z
Si Si1 0.161530 0.580702 0.314947
Si Si2 0.333254 0.035479 0.187866
Si Si3 0.467956 0.547369 0.320403
Si Si4 0.071055 0.042011 0.323942
Si Si5 0.467570 0.830175 0.490672
Si Si6 0.937920 0.732307 0.093218
O O1 0.351055 0.649263 0.245323
O O2 0.077701 0.674934 0.155960
O O3 0.184943 0.730144 0.345729
O O4 0.050812 0.257460 0.531083
O O5 0.264871 0.121472 0.246924
O O6 0.485147 0.022777 0.243304
O O7 0.375520 0.225285 0.933981
O O8 0.500000 0.500000 0.500000
O O9 0.407851 0.259304 0.459194
O O10 0.061195 0.218717 0.094927
O O11 0.000000 0.000000 0.500000
O O12 0.263528 0.545177 0.683979
O O13 0.500000 0.000000 0.500000
O O14 0.000000 0.000000 0.000000
#
# Coordination Sequence:
#
# PCOD9071137 Si02
#       6
#     2   2   2   2   2   2
#     4  12  26  45  84 114 149 206 277 322 394 470
#     4  12  25  51  76 113 158 209 265 330 394 480
#     4  12  28  48  76 117 156 207 265 322 398 483
#     4  12  28  47  78 117 156 203 270 330 399 467
#     4  12  28  49  80 112 164 212 256 329 415 461
#     4  12  25  51  85 112 156 217 269 327 394 478
#
# _framework density 24.885636000000002
#
# number of rings (size 3 to 8) (size 9 to 14) (size 15 to 20)
#    0.000    0.000    6.667    2.000    4.667    2.667 
#    0.000    0.000    0.000    0.000    0.000    0.000 
#    0.000    0.000    0.000    0.000    0.000    0.000 
#
# Total GULP energy -66932.703206 kJ/mol
# GULP energy per Si atom -5577.725267 kJ/mol
# Density = 2.482899 g / cm^3
# Si number density = 24.885636 Si / 1000 Ang^3
#
#
#
# Elastic Constant Matrix: (Units=GPa)
#
#
# Indices 1 2 3 4 5 6 
#
# 1 135.5675 24.4489 43.3513 16.9594 28.0648 -16.3561
# 2 24.4489 86.1035 33.8347 18.2472 1.5386 -16.4872
# 3 43.3513 33.8347 151.9756 38.4460 25.7777 -4.3119
# 4 16.9594 18.2472 38.4460 36.2707 -4.4464 -0.6586
# 5 28.0648 1.5386 25.7777 -4.4464 46.7632 11.0799
# 6 -16.3561 -16.4872 -4.3119 -0.6586 11.0799 32.7673
#
#
#
# Elastic Compliance Matrix: (Units=1/GPa)
#
#
# Indices 1 2 3 4 5 6 
#
# 1 0.011113 -0.000085 0.000374 -0.006563 -0.009546 0.008650
# 2 -0.000085 0.015022 -0.001011 -0.006597 -0.002426 0.008071
# 3 0.000374 -0.001011 0.011550 -0.012905 -0.008704 0.003882
# 4 -0.006563 -0.006597 -0.012905 0.049749 0.019272 -0.013810
# 5 -0.009546 -0.002426 -0.008704 0.019272 0.038507 -0.019764
# 6 0.008650 0.008071 0.003882 -0.013810 -0.019764 0.045813
#
#
# Mechanical properties :
#
#
# Convention : Reuss Voigt Hill
#
# Bulk Modulus (GPa) = 27.59324 64.10181 45.84753
# Shear Modulus (GPa) = 26.98662 41.29436 34.14049
#
# Velocity S-wave (km/s) = 3.29663 4.07795 3.70793
# Velocity P-wave (km/s) = 5.05989 6.92729 6.06588
#
# Compressibility (1/GPa) = 0.03624075
#
# Stress axis : x y z
#
# Youngs Moduli (GPa) = 89.98512 66.56898 86.58238
#
# Poissons Ratio (x) = 0.00564 -0.03236
# Poissons Ratio (y) = 0.00762 0.08753
# Poissons Ratio (z) = -0.03363 0.06730
#
# Static dielectric constant tensor:
#      x y z
#    x 2.207120 0.027660 -0.111530 
#    y 0.027660 1.933370 -0.028030 
#    z -0.111530 -0.028030 1.984460 
# 
# From -- ./inp_files/236739.got.cif
#   From: 2010.05.17/outbox.cif.g08.bks.cpg/sg2_119_cif.got.tgz:236739.got - 2010.06.03 11:33:40.
