data_PCOD9071189
_publ_section_title
;
Structure prediction by ZEFSAII (Michael W. Deem and Ramdas Pophale) SiO2 
 PCOD9071189
Probable space group: P -1
;
_chemical_formula_sum "Si O2"
_cell_formula_units_Z 14
_cell_length_a 5.490675
_cell_length_b 24.666342
_cell_length_c 27.404639
_cell_angle_alpha 9.863740
_cell_angle_beta 106.853077
_cell_angle_gamma 107.220808
_cell_volume 607.270485
_symmetry_space_group_name_H-M "P -1"
_symmetry_group_IT_number 2
_symmetry_cell_setting 'triclinic'
loop_
_space_group_symop_operation_xyz
x,y,z
-x,-y,-z
loop_
_atom_site_type_symbol
_atom_site_label
_atom_site_fract_x
_atom_site_fract_y
_atom_site_fract_z
Si Si1 0.956947 0.622583 0.834448
Si Si2 0.389257 0.145375 0.569862
Si Si3 0.913865 0.325756 0.960010
Si Si4 0.277040 0.386749 0.762998
Si Si5 0.368969 0.389824 0.987908
Si Si6 0.538513 0.879939 0.163516
Si Si7 0.007179 0.055541 0.792405
O O1 0.656424 0.541693 0.875929
O O2 0.179602 0.478680 0.941700
O O3 0.000000 0.000000 0.500000
O O4 0.000000 0.500000 0.000000
O O5 0.244151 0.376000 0.323193
O O6 0.511295 0.347089 0.443224
O O7 0.199368 0.881333 0.818088
O O8 0.589088 0.976722 0.697290
O O9 0.201060 0.460946 0.867493
O O10 0.885855 0.096670 0.114846
O O11 0.080587 0.599156 0.534066
O O12 0.357391 0.099751 0.988684
O O13 0.203165 0.208658 0.967016
O O14 0.500000 0.500000 0.500000
O O15 0.805550 0.935995 0.157828
O O16 0.500000 0.000000 0.000000
#
# Coordination Sequence:
#
# PCOD9071189 Si02
#       7
#     2   2   2   2   2   2   2
#     4  12  30  54  80 114 166 212 256 314 376 460
#     4  12  27  46  78 116 155 194 253 325 397 456
#     4  12  27  46  78 116 155 194 253 325 397 456
#     4  12  26  45  74 107 147 190 249 325 391 448
#     4  12  28  52  84 118 154 210 268 314 390 468
#     4  12  28  46  70  98 146 206 256 302 378 480
#     4  12  26  45  74 107 147 190 249 325 391 448
#
# _framework density 23.053975000000001
#
# number of rings (size 3 to 8) (size 9 to 14) (size 15 to 20)
#    0.000    0.000    4.286    4.286    4.000    5.714 
#    0.000    0.000    0.000    0.000    0.000    0.000 
#    0.000    0.000    0.000    0.000    0.000    0.000 
#
# Total GULP energy -78219.528701 kJ/mol
# GULP energy per Si atom -5587.109193 kJ/mol
# Density = 2.300150 g / cm^3
# Si number density = 23.053975 Si / 1000 Ang^3
#
#
#
# Elastic Constant Matrix: (Units=GPa)
#
#
# Indices 1 2 3 4 5 6 
#
# 1 132.4754 30.7178 98.3887 -38.0982 12.7667 8.8748
# 2 30.7178 502.8304 -386.1623 329.2632 91.9087 -264.2317
# 3 98.3887 -386.1623 659.5529 -387.2487 -78.7934 273.4675
# 4 -38.0982 329.2632 -387.2487 338.4042 82.5669 -243.9870
# 5 12.7667 91.9087 -78.7934 82.5669 70.5938 -56.4934
# 6 8.8748 -264.2317 273.4675 -243.9870 -56.4934 217.0674
#
#
#
# Elastic Compliance Matrix: (Units=1/GPa)
#
#
# Indices 1 2 3 4 5 6 
#
# 1 0.012231 -0.004059 -0.002934 0.004841 -0.003670 0.002741
# 2 -0.004059 0.007602 0.001493 -0.003555 -0.000637 0.003379
# 3 -0.002934 0.001493 0.005499 0.005046 -0.000798 0.000473
# 4 0.004841 -0.003555 0.005046 0.028403 -0.008836 0.018744
# 5 -0.003670 -0.000637 -0.000798 -0.008836 0.022051 -0.003812
# 6 0.002741 0.003379 0.000473 0.018744 -0.003812 0.028087
#
#
# Mechanical properties :
#
#
# Convention : Reuss Voigt Hill
#
# Bulk Modulus (GPa) = 69.77184 86.74969 78.26076
# Shear Modulus (GPa) = 41.78863 228.67404 135.23133
#
# Velocity S-wave (km/s) = 4.26213 9.97026 7.66720
# Velocity P-wave (km/s) = 7.38589 13.04807 10.60197
#
# Compressibility (1/GPa) = 0.01433243
#
# Stress axis : x y z
#
# Youngs Moduli (GPa) = 81.76144 131.53733 181.86165
#
# Poissons Ratio (x) = 0.53386 0.53352
# Poissons Ratio (y) = 0.33184 -0.27145
# Poissons Ratio (z) = 0.23986 -0.19633
#
# Static dielectric constant tensor:
#      x y z
#    x 1.991190 -0.018210 0.016490 
#    y -0.018210 1.976050 -0.037020 
#    z 0.016490 -0.037020 1.874210 
# 
# From -- ./inp_files/615925.got.cif
#   From: 2010.05.17/outbox.cif.g08.bks.cpg/sg2_308_cif.got.tgz:615925.got - 2010.06.03 11:33:40.
