data_PCOD9071628
_publ_section_title
;
Structure prediction by ZEFSAII (Michael W. Deem and Ramdas Pophale) SiO2 
 PCOD9071628
Probable space group: P -1
;
_chemical_formula_sum "Si O2"
_cell_formula_units_Z 10
_cell_length_a 9.663636
_cell_length_b 7.447557
_cell_length_c 6.785278
_cell_angle_alpha 119.204284
_cell_angle_beta 116.659890
_cell_angle_gamma 61.467138
_cell_volume 359.382841
_symmetry_space_group_name_H-M "P -1"
_symmetry_group_IT_number 2
_symmetry_cell_setting 'triclinic'
loop_
_space_group_symop_operation_xyz
x,y,z
-x,-y,-z
loop_
_atom_site_type_symbol
_atom_site_label
_atom_site_fract_x
_atom_site_fract_y
_atom_site_fract_z
Si Si1 0.582369 0.399705 0.204079
Si Si2 0.842132 0.613691 0.603652
Si Si3 0.810218 0.013899 0.354239
Si Si4 0.233302 0.428322 0.045568
Si Si5 0.820514 0.097715 0.839358
O O1 0.684393 0.551686 0.410359
O O2 0.425455 0.372094 0.198331
O O3 0.722286 0.160721 0.189537
O O4 0.500000 0.500000 0.000000
O O5 0.000000 0.500000 0.500000
O O6 0.779602 0.874032 0.724631
O O7 0.874276 0.525886 0.800183
O O8 0.745292 0.129689 0.581280
O O9 0.784769 0.782519 0.188809
O O10 0.000000 0.000000 0.500000
O O11 0.194760 0.646997 0.009663
O O12 0.000000 0.000000 0.000000
#
# Coordination Sequence:
#
# PCOD9071628 Si02
#       5
#     2   2   2   2   2
#     4  12  29  55  87 129 180 229 289 366 443 517
#     4  12  29  54  86 125 174 232 299 361 435 527
#     4  12  28  54  89 127 175 228 296 357 430 537
#     4  12  30  56  88 126 180 230 291 366 443 515
#     4  12  30  49  87 126 173 226 295 360 440 512
#
# _framework density 27.825479999999999
#
# number of rings (size 3 to 8) (size 9 to 14) (size 15 to 20)
#    0.000    0.000    2.000    4.800   14.000    2.400 
#    0.000    0.000    0.000    0.000    0.000    0.000 
#    0.000    0.000    0.000    0.000    0.000    0.000 
#
# Total GULP energy -55745.839334 kJ/mol
# GULP energy per Si atom -5574.583933 kJ/mol
# Density = 2.776215 g / cm^3
# Si number density = 27.825480 Si / 1000 Ang^3
#
#
#
# Elastic Constant Matrix: (Units=GPa)
#
#
# Indices 1 2 3 4 5 6 
#
# 1 131.8279 53.4807 55.9485 14.6104 18.9225 -0.5779
# 2 53.4807 251.4736 89.7762 13.8981 35.6220 39.1193
# 3 55.9485 89.7762 243.6353 32.2617 41.5960 10.5890
# 4 14.6104 13.8981 32.2617 79.6125 19.7561 14.7606
# 5 18.9225 35.6220 41.5960 19.7561 54.1925 3.9178
# 6 -0.5779 39.1193 10.5890 14.7606 3.9178 38.8252
#
#
#
# Elastic Compliance Matrix: (Units=1/GPa)
#
#
# Indices 1 2 3 4 5 6 
#
# 1 0.009085 -0.001720 -0.001276 -0.001149 -0.000842 0.002738
# 2 -0.001720 0.006031 -0.001349 0.001544 -0.002452 -0.006074
# 3 -0.001276 -0.001349 0.005451 -0.001239 -0.002441 0.000571
# 4 -0.001149 0.001544 -0.001239 0.015423 -0.004807 -0.006613
# 5 -0.000842 -0.002452 -0.002441 -0.004807 0.023800 0.002550
# 6 0.002738 -0.006074 0.000571 -0.006613 0.002550 0.034018
#
#
# Mechanical properties :
#
#
# Convention : Reuss Voigt Hill
#
# Bulk Modulus (GPa) = 84.19715 113.92754 99.06234
# Shear Modulus (GPa) = 46.96766 63.04147 55.00456
#
# Velocity S-wave (km/s) = 4.11291 4.76500 4.45091
# Velocity P-wave (km/s) = 7.27182 8.44429 7.87989
#
# Compressibility (1/GPa) = 0.01187689
#
# Stress axis : x y z
#
# Youngs Moduli (GPa) = 110.07286 165.81584 183.46525
#
# Poissons Ratio (x) = 0.28517 0.23405
# Poissons Ratio (y) = 0.18930 0.24753
# Poissons Ratio (z) = 0.14042 0.22372
#
# Static dielectric constant tensor:
#      x y z
#    x 2.744870 -0.315310 -0.235520 
#    y -0.315310 2.371180 0.183690 
#    z -0.235520 0.183690 2.312990 
# 
# From -- ./inp_files/230113.got.cif
#   From: 2010.05.17/outbox.cif.g08.bks.cpg/sg2_116_cif.got.tgz:230113.got - 2010.06.03 11:33:40.
