data_PCOD9071466
_publ_section_title
;
Structure prediction by ZEFSAII (Michael W. Deem and Ramdas Pophale) SiO2 
 PCOD9071466
Probable space group: P -1
;
_chemical_formula_sum "Si O2"
_cell_formula_units_Z 13
_cell_length_a 15.461271
_cell_length_b 15.488599
_cell_length_c 5.133795
_cell_angle_alpha 75.830081
_cell_angle_beta 113.714242
_cell_angle_gamma 151.966751
_cell_volume 511.373784
_symmetry_space_group_name_H-M "P -1"
_symmetry_group_IT_number 2
_symmetry_cell_setting 'triclinic'
loop_
_space_group_symop_operation_xyz
x,y,z
-x,-y,-z
loop_
_atom_site_type_symbol
_atom_site_label
_atom_site_fract_x
_atom_site_fract_y
_atom_site_fract_z
Si Si1 0.929002 0.495116 0.661732
Si Si2 0.466631 0.079398 0.402546
Si Si3 0.000000 0.000000 0.000000
Si Si4 0.100671 0.809693 0.815621
Si Si5 0.720237 0.543969 0.854361
Si Si6 0.717858 0.652762 0.261336
Si Si7 0.299117 0.103113 0.517565
O O1 0.689918 0.304619 0.499161
O O2 0.000000 0.500000 0.500000
O O3 0.033425 0.676977 0.639770
O O4 0.000000 0.500000 0.000000
O O5 0.356632 0.056208 0.487340
O O6 0.500000 0.000000 0.500000
O O7 0.318960 0.965589 0.066663
O O8 0.126676 0.144314 0.796318
O O9 0.182859 0.076959 0.218264
O O10 0.918368 0.657419 0.914655
O O11 0.139425 0.940381 0.663038
O O12 0.717598 0.627098 0.586576
O O13 0.507749 0.318432 0.718062
O O14 0.752587 0.596963 0.153630
O O15 0.500000 0.500000 0.000000
#
# Coordination Sequence:
#
# PCOD9071466 Si02
#       7
#     2   2   1   2   2   2   2
#     4  12  28  50  82 121 167 219 275 352 421 496
#     4  12  27  51  81 119 164 218 283 340 424 499
#     4  12  26  50  80 116 166 210 282 332 418 484
#     4  12  28  49  83 119 168 218 280 348 418 499
#     4  12  28  50  78 118 165 216 279 336 420 489
#     4  12  27  49  78 113 160 218 270 346 406 493
#     4  12  28  49  81 120 164 224 276 347 413 503
#
# _framework density 25.421719
#
# number of rings (size 3 to 8) (size 9 to 14) (size 15 to 20)
#    0.000    0.000    6.154    2.308    4.308    3.077 
#    0.000    0.000    0.000    0.000    0.000    0.000 
#    0.000    0.000    0.000    0.000    0.000    0.000 
#
# Total GULP energy -72510.836926 kJ/mol
# GULP energy per Si atom -5577.756687 kJ/mol
# Density = 2.536386 g / cm^3
# Si number density = 25.421719 Si / 1000 Ang^3
#
#
#
# Elastic Constant Matrix: (Units=GPa)
#
#
# Indices 1 2 3 4 5 6 
#
# 1 107.0981 23.6600 40.8867 6.7794 5.4979 2.2748
# 2 23.6600 191.9005 48.5025 17.7344 7.8179 -6.5777
# 3 40.8867 48.5025 129.8042 12.2004 31.2585 -4.6319
# 4 6.7794 17.7344 12.2004 36.4315 4.2045 9.7143
# 5 5.4979 7.8179 31.2585 4.2045 46.1091 -0.3380
# 6 2.2748 -6.5777 -4.6319 9.7143 -0.3380 40.0395
#
#
#
# Elastic Compliance Matrix: (Units=1/GPa)
#
#
# Indices 1 2 3 4 5 6 
#
# 1 0.010765 -0.000483 -0.003489 -0.000480 0.001200 -0.000968
# 2 -0.000483 0.006032 -0.001948 -0.002649 0.000607 0.001441
# 3 -0.003489 -0.001948 0.011400 -0.001860 -0.006801 0.001591
# 4 -0.000480 -0.002649 -0.001860 0.031815 -0.001195 -0.008352
# 5 0.001200 0.000607 -0.006801 -0.001195 0.026159 -0.000244
# 6 -0.000968 0.001441 0.001591 -0.008352 -0.000244 0.027475
#
#
# Mechanical properties :
#
#
# Convention : Reuss Voigt Hill
#
# Bulk Modulus (GPa) = 61.13209 72.76682 66.94945
# Shear Modulus (GPa) = 38.18567 45.56627 41.87597
#
# Velocity S-wave (km/s) = 3.87988 4.23829 4.06304
# Velocity P-wave (km/s) = 6.64611 7.25512 6.95728
#
# Compressibility (1/GPa) = 0.01635802
#
# Stress axis : x y z
#
# Youngs Moduli (GPa) = 92.89162 165.77429 87.72021
#
# Poissons Ratio (x) = 0.08010 0.30604
# Poissons Ratio (y) = 0.04488 0.17085
# Poissons Ratio (z) = 0.32408 0.32288
#
# Static dielectric constant tensor:
#      x y z
#    x 2.394070 0.236070 0.055540 
#    y 0.236070 2.170420 0.018620 
#    z 0.055540 0.018620 1.960190 
# 
# From -- ./inp_files/96941.got.cif
#   From: 2010.05.17/outbox.cif.g08.bks.cpg/sg2_49_cif.got.tgz:96941.got - 2010.06.03 11:33:40.
