data_PCOD9071269
_publ_section_title
;
Structure prediction by ZEFSAII (Michael W. Deem and Ramdas Pophale) SiO2 
 PCOD9071269
Probable space group: P -1
;
_chemical_formula_sum "Si O2"
_cell_formula_units_Z 10
_cell_length_a 10.950546
_cell_length_b 20.267370
_cell_length_c 12.791222
_cell_angle_alpha 157.522073
_cell_angle_beta 21.780102
_cell_angle_gamma 154.731225
_cell_volume 380.719676
_symmetry_space_group_name_H-M "P -1"
_symmetry_group_IT_number 2
_symmetry_cell_setting 'triclinic'
loop_
_space_group_symop_operation_xyz
x,y,z
-x,-y,-z
loop_
_atom_site_type_symbol
_atom_site_label
_atom_site_fract_x
_atom_site_fract_y
_atom_site_fract_z
Si Si1 0.245020 0.854738 0.794042
Si Si2 0.989626 0.693061 0.194486
Si Si3 0.744554 0.761892 0.712179
Si Si4 0.958321 0.784015 0.132602
Si Si5 0.210178 0.434829 0.407625
O O1 0.570304 0.782835 0.418931
O O2 0.910122 0.691326 0.782194
O O3 0.196806 0.896534 0.014854
O O4 0.274110 0.033624 0.965821
O O5 0.953220 0.759632 0.437217
O O6 0.044220 0.832030 0.256890
O O7 0.623207 0.540249 0.237089
O O8 0.338786 0.640141 0.839585
O O9 0.885373 0.696315 0.607480
O O10 0.024275 0.588821 0.784951
#
# Coordination Sequence:
#
# PCOD9071269 Si02
#       5
#     2   2   2   2   2
#     4  12  28  47  73 107 144 183 235 296 353 410
#     4  12  26  47  75 104 142 188 239 284 351 424
#     4  12  28  47  73 107 144 183 235 296 353 410
#     4  12  26  47  75 104 142 188 239 284 351 424
#     4  12  27  48  77 102 142 190 240 284 349 426
#
# _framework density 26.266044000000001
#
# number of rings (size 3 to 8) (size 9 to 14) (size 15 to 20)
#    0.000    0.000    4.000    4.200    5.600    4.800 
#    0.000    4.000    0.000    0.000    0.000    0.000 
#    0.000    0.000    0.000    0.000    0.000    0.000 
#
# Total GULP energy -56118.173390 kJ/mol
# GULP energy per Si atom -5611.817339 kJ/mol
# Density = 2.620626 g / cm^3
# Si number density = 26.266044 Si / 1000 Ang^3
#
#
#
# Elastic Constant Matrix: (Units=GPa)
#
#
# Indices 1 2 3 4 5 6 
#
# 1 141.7170 36.4411 45.4852 7.0092 -3.2100 -35.5961
# 2 36.4411 80.5688 32.2253 -2.4714 -1.0421 -10.5718
# 3 45.4852 32.2253 129.5180 -20.4661 -9.8544 -23.2723
# 4 7.0092 -2.4714 -20.4661 42.6715 -16.3049 1.0108
# 5 -3.2100 -1.0421 -9.8544 -16.3049 54.1193 10.0005
# 6 -35.5961 -10.5718 -23.2723 1.0108 10.0005 51.6526
#
#
#
# Elastic Compliance Matrix: (Units=1/GPa)
#
#
# Indices 1 2 3 4 5 6 
#
# 1 0.010284 -0.002987 -0.002650 -0.004129 -0.002245 0.005798
# 2 -0.002987 0.014817 -0.002713 -0.000094 -0.000382 -0.000172
# 3 -0.002650 -0.002713 0.010995 0.006861 0.003536 0.001753
# 4 -0.004129 -0.000094 0.006861 0.031664 0.011009 -0.002524
# 5 -0.002245 -0.000382 0.003536 0.011009 0.023173 -0.004734
# 6 0.005798 -0.000172 0.001753 -0.002524 -0.004734 0.025076
#
#
# Mechanical properties :
#
#
# Convention : Reuss Voigt Hill
#
# Bulk Modulus (GPa) = 51.55289 64.45634 58.00462
# Shear Modulus (GPa) = 35.92610 45.53216 40.72913
#
# Velocity S-wave (km/s) = 3.70236 4.16805 3.94209
# Velocity P-wave (km/s) = 6.16007 6.91061 6.54611
#
# Compressibility (1/GPa) = 0.01939755
#
# Stress axis : x y z
#
# Youngs Moduli (GPa) = 97.23413 67.48919 90.95208
#
# Poissons Ratio (x) = 0.20156 0.24104
# Poissons Ratio (y) = 0.29040 0.24673
# Poissons Ratio (z) = 0.25769 0.18308
#
# Static dielectric constant tensor:
#      x y z
#    x 2.024650 -0.032380 0.004280 
#    y -0.032380 2.083450 0.060520 
#    z 0.004280 0.060520 2.043790 
# 
# From -- ./inp_files/420759.got.cif
#   From: 2010.05.17/outbox.cif.g08.bks.cpg/sg2_211_cif.got.tgz:420759.got - 2010.06.03 11:33:40.
