data_PCOD9071119
_publ_section_title
;
Structure prediction by ZEFSAII (Michael W. Deem and Ramdas Pophale) SiO2 
 PCOD9071119
Probable space group: P -1
;
_chemical_formula_sum "Si O2"
_cell_formula_units_Z 13
_cell_length_a 8.963386
_cell_length_b 5.802043
_cell_length_c 15.559184
_cell_angle_alpha 117.304871
_cell_angle_beta 53.743302
_cell_angle_gamma 126.119140
_cell_volume 519.495423
_symmetry_space_group_name_H-M "P -1"
_symmetry_group_IT_number 2
_symmetry_cell_setting 'triclinic'
loop_
_space_group_symop_operation_xyz
x,y,z
-x,-y,-z
loop_
_atom_site_type_symbol
_atom_site_label
_atom_site_fract_x
_atom_site_fract_y
_atom_site_fract_z
Si Si1 0.758354 0.164004 0.645595
Si Si2 0.503022 0.478805 0.174006
Si Si3 0.372904 0.583445 0.705029
Si Si4 0.500000 0.000000 0.000000
Si Si5 0.719788 0.994022 0.440233
Si Si6 0.794553 0.838050 0.984729
Si Si7 0.970094 0.359827 0.259143
O O1 0.639129 0.366463 0.727780
O O2 0.941852 0.318710 0.676157
O O3 0.601464 0.839806 0.668295
O O4 0.811403 0.141330 0.524888
O O5 0.659395 0.551276 0.212785
O O6 0.627900 0.598517 0.063225
O O7 0.405132 0.137871 0.129726
O O8 0.340295 0.342347 0.604850
O O9 0.214897 0.708310 0.755817
O O10 0.683167 0.015163 0.009838
O O11 0.500000 0.000000 0.500000
O O12 0.877123 0.155863 0.337860
O O13 0.856861 0.680477 0.860563
O O14 0.000000 0.000000 0.000000
#
# Coordination Sequence:
#
# PCOD9071119 Si02
#       7
#     2   2   2   1   2   2   2
#     4  12  26  49  77 113 156 199 268 324 386 476
#     4  12  26  48  75 111 154 201 259 321 385 469
#     4  12  26  48  79 112 152 216 249 323 411 456
#     4  12  26  46  82 104 154 216 248 318 398 448
#     4  12  25  50  79 109 160 201 262 335 392 472
#     4  12  27  50  75 116 161 202 269 324 390 479
#     4  12  28  48  77 117 155 204 268 326 389 484
#
# _framework density 25.024281999999999
#
# number of rings (size 3 to 8) (size 9 to 14) (size 15 to 20)
#    0.000    0.000    4.615    5.077    2.154    5.538 
#    0.000    0.000    0.000    0.000    0.000    0.000 
#    0.000    0.000    0.000    0.000    0.000    0.000 
#
# Total GULP energy -72576.228674 kJ/mol
# GULP energy per Si atom -5582.786821 kJ/mol
# Density = 2.496733 g / cm^3
# Si number density = 25.024282 Si / 1000 Ang^3
#
#
#
# Elastic Constant Matrix: (Units=GPa)
#
#
# Indices 1 2 3 4 5 6 
#
# 1 131.6256 18.8502 29.7586 -12.2592 28.4707 5.0499
# 2 18.8502 69.7564 39.9511 1.2846 5.1539 16.6940
# 3 29.7586 39.9511 166.8927 1.9719 33.6451 -12.0960
# 4 -12.2592 1.2846 1.9719 41.9466 4.4718 6.4488
# 5 28.4707 5.1539 33.6451 4.4718 34.6388 9.5521
# 6 5.0499 16.6940 -12.0960 6.4488 9.5521 34.3159
#
#
#
# Elastic Compliance Matrix: (Units=1/GPa)
#
#
# Indices 1 2 3 4 5 6 
#
# 1 0.010309 -0.003481 0.001261 0.003739 -0.010442 0.002825
# 2 -0.003481 0.023697 -0.008945 0.000032 0.012921 -0.017772
# 3 0.001261 -0.008945 0.011727 -0.000269 -0.014475 0.012380
# 4 0.003739 0.000032 -0.000269 0.026122 -0.005040 -0.004167
# 5 -0.010442 0.012921 -0.014475 -0.005040 0.057077 -0.024792
# 6 0.002825 -0.017772 0.012380 -0.004167 -0.024792 0.049419
#
#
# Mechanical properties :
#
#
# Convention : Reuss Voigt Hill
#
# Bulk Modulus (GPa) = 42.73141 60.59940 51.66541
# Shear Modulus (GPa) = 23.98274 40.82790 32.40532
#
# Velocity S-wave (km/s) = 3.09913 4.04360 3.60245
# Velocity P-wave (km/s) = 5.46984 6.78747 6.16397
#
# Compressibility (1/GPa) = 0.02340199
#
# Stress axis : x y z
#
# Youngs Moduli (GPa) = 96.99982 42.19876 85.27383
#
# Poissons Ratio (x) = 0.14691 -0.10751
# Poissons Ratio (y) = 0.33769 0.76279
# Poissons Ratio (z) = -0.12229 0.37748
#
# Static dielectric constant tensor:
#      x y z
#    x 2.026860 -0.071980 -0.008080 
#    y -0.071980 1.919910 0.050340 
#    z -0.008080 0.050340 1.959730 
# 
# From -- ./inp_files/28588.got.cif
#   From: 2010.05.17/outbox.cif.g08.bks.cpg/sg2_15_cif.got.tgz:28588.got - 2010.06.03 11:33:40.
