data_PCOD9071186
_publ_section_title
;
Structure prediction by ZEFSAII (Michael W. Deem and Ramdas Pophale) SiO2 
 PCOD9071186
Probable space group: P -1
;
_chemical_formula_sum "Si O2"
_cell_formula_units_Z 16
_cell_length_a 7.968522
_cell_length_b 22.909605
_cell_length_c 23.478075
_cell_angle_alpha 167.770711
_cell_angle_beta 52.870085
_cell_angle_gamma 127.530247
_cell_volume 719.114172
_symmetry_space_group_name_H-M "P -1"
_symmetry_group_IT_number 2
_symmetry_cell_setting 'triclinic'
loop_
_space_group_symop_operation_xyz
x,y,z
-x,-y,-z
loop_
_atom_site_type_symbol
_atom_site_label
_atom_site_fract_x
_atom_site_fract_y
_atom_site_fract_z
Si Si1 0.900437 0.518196 0.308112
Si Si2 0.544997 0.925384 0.626983
Si Si3 0.775251 0.103147 0.633687
Si Si4 0.281630 0.340626 0.131537
Si Si5 0.716859 0.666571 0.135313
Si Si6 0.068709 0.909426 0.206890
Si Si7 0.467579 0.610151 0.548407
Si Si8 0.238206 0.138627 0.077140
O O1 0.679403 0.577520 0.437999
O O2 0.060167 0.424076 0.232996
O O3 0.996259 0.806485 0.534898
O O4 0.871629 0.288196 0.044936
O O5 0.460710 0.602118 0.338356
O O6 0.628695 0.019305 0.637550
O O7 0.732870 0.005675 0.710676
O O8 0.352062 0.093665 0.843771
O O9 0.688641 0.931770 0.432542
O O10 0.807823 0.430112 0.928737
O O11 0.000000 0.000000 0.500000
O O12 0.271776 0.237431 0.099736
O O13 0.877312 0.757026 0.137696
O O14 0.500000 0.500000 0.000000
O O15 0.500000 0.500000 0.500000
O O16 0.282170 0.405413 0.362349
O O17 0.399436 0.918334 0.852086
O O18 0.000000 0.000000 0.000000
#
# Coordination Sequence:
#
# PCOD9071186 Si02
#       8
#     2   2   2   2   2   2   2   2
#     4  12  27  46  71 104 144 184 236 284 352 415
#     4  12  26  45  73  99 141 184 237 292 354 416
#     4  12  26  48  70 102 134 187 237 293 354 427
#     4  12  27  46  71 107 140 186 235 290 344 414
#     4  12  28  46  71 100 142 181 237 294 362 418
#     4  12  26  46  71 101 140 189 232 293 355 419
#     4  12  26  48  76 108 146 188 229 284 346 413
#     4  12  26  48  77 108 146 186 234 283 341 412
#
# _framework density 22.249597000000001
#
# number of rings (size 3 to 8) (size 9 to 14) (size 15 to 20)
#    0.000    0.000    1.250    9.000    7.000    2.000 
#    0.000    0.000    0.000    0.000    0.000    0.000 
#    0.000    0.000    0.000    0.000    0.000    0.000 
#
# Total GULP energy -89727.390093 kJ/mol
# GULP energy per Si atom -5607.961881 kJ/mol
# Density = 2.219896 g / cm^3
# Si number density = 22.249597 Si / 1000 Ang^3
#
#
#
# Elastic Constant Matrix: (Units=GPa)
#
#
# Indices 1 2 3 4 5 6 
#
# 1 83.1647 2.9854 -16.2103 1.5922 -5.1809 -10.6997
# 2 2.9854 85.4797 -27.1587 6.4536 4.5973 -54.7439
# 3 -16.2103 -27.1587 44.8389 -0.4858 0.4794 -60.2337
# 4 1.5922 6.4536 -0.4858 37.4820 -6.4742 -3.9352
# 5 -5.1809 4.5973 0.4794 -6.4742 44.9411 14.4198
# 6 -10.6997 -54.7439 -60.2337 -3.9352 14.4198 -6.6279
#
#
#
# Elastic Compliance Matrix: (Units=1/GPa)
#
#
# Indices 1 2 3 4 5 6 
#
# 1 0.012013 -0.001827 0.000307 -0.000029 0.002258 -0.002163
# 2 -0.001827 0.006556 -0.004677 -0.001589 0.000841 -0.005926
# 3 0.000307 -0.004677 0.006152 0.000467 0.003715 -0.009971
# 4 -0.000029 -0.001589 0.000467 0.027720 0.003866 0.000879
# 5 0.002258 0.000841 0.003715 0.003866 0.022325 0.001925
# 6 -0.002163 -0.005926 -0.009971 0.000879 0.001925 -0.004160
#
#
# Mechanical properties :
#
#
# Convention : Reuss Voigt Hill
#
# Bulk Modulus (GPa) = 81.12045 14.74624 47.93334
# Shear Modulus (GPa) = 57.39987 32.08352 44.74170
#
# Velocity S-wave (km/s) = 5.08470 3.80146 4.48917
# Velocity P-wave (km/s) = 8.42678 5.09021 6.96135
#
# Compressibility (1/GPa) = 0.01232735
#
# Stress axis : x y z
#
# Youngs Moduli (GPa) = 83.24559 152.53389 162.55402
#
# Poissons Ratio (x) = 0.27861 -0.04985
# Poissons Ratio (y) = 0.15205 0.76021
# Poissons Ratio (z) = -0.02553 0.71335
#
# Static dielectric constant tensor:
#      x y z
#    x 1.828510 0.011190 -0.008350 
#    y 0.011190 1.705430 -0.007600 
#    z -0.008350 -0.007600 1.769230 
# 
# From -- ./inp_files/608760.got.cif
#   From: 2010.05.17/outbox.cif.g08.bks.cpg/sg2_305_cif.got.tgz:608760.got - 2010.06.03 11:33:40.
