data_PCOD9071202
_publ_section_title
;
Structure prediction by ZEFSAII (Michael W. Deem and Ramdas Pophale) SiO2 
 PCOD9071202
Probable space group: P -1
;
_chemical_formula_sum "Si O2"
_cell_formula_units_Z 12
_cell_length_a 8.360097
_cell_length_b 9.850249
_cell_length_c 8.806208
_cell_angle_alpha 60.461649
_cell_angle_beta 106.007651
_cell_angle_gamma 65.033976
_cell_volume 451.701486
_symmetry_space_group_name_H-M "P -1"
_symmetry_group_IT_number 2
_symmetry_cell_setting 'triclinic'
loop_
_space_group_symop_operation_xyz
x,y,z
-x,-y,-z
loop_
_atom_site_type_symbol
_atom_site_label
_atom_site_fract_x
_atom_site_fract_y
_atom_site_fract_z
Si Si1 0.995540 0.043904 0.801607
Si Si2 0.508264 0.182466 0.894750
Si Si3 0.929506 0.478520 0.216131
Si Si4 0.833998 0.971968 0.536164
Si Si5 0.277726 0.510572 0.398545
Si Si6 0.406911 0.434397 0.139287
O O1 0.900970 0.953605 0.738728
O O2 0.827521 0.296510 0.619279
O O3 0.255612 0.920624 0.907975
O O4 0.000000 0.000000 0.000000
O O5 0.294305 0.378225 0.822024
O O6 0.458101 0.289215 0.656102
O O7 0.500000 0.000000 0.000000
O O8 0.068277 0.539637 0.271727
O O9 0.819814 0.505582 0.010072
O O10 0.101282 0.227838 0.415127
O O11 0.585011 0.184123 0.334410
O O12 0.000000 0.000000 0.500000
O O13 0.374140 0.514823 0.259917
O O14 0.500000 0.500000 0.000000
#
# Coordination Sequence:
#
# PCOD9071202 Si02
#       6
#     2   2   2   2   2   2
#     4  12  28  48  77 113 156 200 257 318 381 456
#     4  12  28  50  80 113 155 205 255 314 391 458
#     4  12  27  49  79 112 156 202 253 320 386 456
#     4  12  26  45  76 112 152 198 256 315 380 453
#     4  12  29  50  76 116 155 200 263 316 380 465
#     4  12  28  49  78 110 154 206 257 316 388 455
#
# _framework density 26.566217999999999
#
# number of rings (size 3 to 8) (size 9 to 14) (size 15 to 20)
#    0.000    0.000    3.333    5.000    7.000    2.000 
#    0.000    0.000    0.000    0.000    0.000    0.000 
#    0.000    0.000    0.000    0.000    0.000    0.000 
#
# Total GULP energy -67191.054451 kJ/mol
# GULP energy per Si atom -5599.254538 kJ/mol
# Density = 2.650575 g / cm^3
# Si number density = 26.566218 Si / 1000 Ang^3
#
#
#
# Elastic Constant Matrix: (Units=GPa)
#
#
# Indices 1 2 3 4 5 6 
#
# 1 109.8148 43.6705 43.8584 -4.3465 34.3103 8.3570
# 2 43.6705 167.1450 39.6244 -29.4447 -4.6021 -10.8314
# 3 43.8584 39.6244 162.7057 -16.4533 14.1361 -4.1825
# 4 -4.3465 -29.4447 -16.4533 59.3927 -5.4052 1.5159
# 5 34.3103 -4.6021 14.1361 -5.4052 42.9579 7.2882
# 6 8.3570 -10.8314 -4.1825 1.5159 7.2882 45.3355
#
#
#
# Elastic Compliance Matrix: (Units=1/GPa)
#
#
# Indices 1 2 3 4 5 6 
#
# 1 0.015749 -0.004513 -0.002421 -0.002816 -0.012256 -0.002140
# 2 -0.004513 0.008302 -0.000787 0.003971 0.004944 0.001815
# 3 -0.002421 -0.000787 0.007196 0.001355 -0.000511 0.000959
# 4 -0.002816 0.003971 0.001355 0.019392 0.004635 0.000199
# 5 -0.012256 0.004944 -0.000511 0.004635 0.034747 -0.002347
# 6 -0.002140 0.001815 0.000959 0.000199 -0.002347 0.023345
#
#
# Mechanical properties :
#
#
# Convention : Reuss Voigt Hill
#
# Bulk Modulus (GPa) = 63.26936 77.10804 70.18870
# Shear Modulus (GPa) = 38.62768 50.37136 44.49952
#
# Velocity S-wave (km/s) = 3.81729 4.35911 4.09717
# Velocity P-wave (km/s) = 6.58000 7.37724 6.98999
#
# Compressibility (1/GPa) = 0.01580544
#
# Stress axis : x y z
#
# Youngs Moduli (GPa) = 63.49741 120.45604 138.95955
#
# Poissons Ratio (x) = 0.54362 0.33643
# Poissons Ratio (y) = 0.28657 0.10930
# Poissons Ratio (z) = 0.15373 0.09475
#
# Static dielectric constant tensor:
#      x y z
#    x 2.178760 -0.303300 -0.273000 
#    y -0.303300 1.817010 0.224860 
#    z -0.273000 0.224860 2.434380 
# 
# From -- ./inp_files/153490.got.cif
#   From: 2010.05.17/outbox.cif.g08.bks.cpg/sg2_77_cif.got.tgz:153490.got - 2010.06.03 11:33:40.
