data_PCOD9071917
_publ_section_title
;
Structure prediction by ZEFSAII (Michael W. Deem and Ramdas Pophale) SiO2 
 PCOD9071917
Probable space group: P -1
;
_chemical_formula_sum "Si O2"
_cell_formula_units_Z 16
_cell_length_a 17.412798
_cell_length_b 5.329612
_cell_length_c 9.858809
_cell_angle_alpha 104.984686
_cell_angle_beta 69.062246
_cell_angle_gamma 124.271472
_cell_volume 704.204674
_symmetry_space_group_name_H-M "P -1"
_symmetry_group_IT_number 2
_symmetry_cell_setting 'triclinic'
loop_
_space_group_symop_operation_xyz
x,y,z
-x,-y,-z
loop_
_atom_site_type_symbol
_atom_site_label
_atom_site_fract_x
_atom_site_fract_y
_atom_site_fract_z
Si Si1 0.662620 0.138816 0.131974
Si Si2 0.292757 0.439003 0.167100
Si Si3 0.880040 0.602307 0.613691
Si Si4 0.918972 0.206460 0.165492
Si Si5 0.389348 0.435144 0.822093
Si Si6 0.603764 0.876884 0.845644
Si Si7 0.111446 0.958051 0.537710
Si Si8 0.121680 0.440802 0.983955
O O1 0.640282 0.387106 0.233854
O O2 0.768523 0.302847 0.022249
O O3 0.645863 0.909712 0.229899
O O4 0.592734 0.948923 0.022207
O O5 0.180953 0.330771 0.230881
O O6 0.328399 0.263231 0.213721
O O7 0.349465 0.799118 0.211555
O O8 0.327978 0.408577 0.992357
O O9 0.858008 0.259445 0.585469
O O10 0.995112 0.799980 0.581737
O O11 0.852478 0.716359 0.508675
O O12 0.870124 0.080987 0.323060
O O13 0.895548 0.430027 0.129285
O O14 0.891830 0.892361 0.062559
O O15 0.035987 0.400850 0.128091
O O16 0.500905 0.636826 0.816148
#
# Coordination Sequence:
#
# PCOD9071917 Si02
#       8
#     2   2   2   2   2   2   2   2
#     4  10  18  30  48  71 104 138 167 206 235 325
#     4  10  18  30  48  71 104 138 167 206 235 325
#     4  10  21  35  51  80  98 135 192 204 256 321
#     4  10  21  37  53  70 107 138 170 235 258 287
#     4  10  19  31  48  77 111 139 160 204 269 320
#     4  10  19  31  48  77 111 139 160 204 269 320
#     4  10  21  37  53  70 107 138 170 235 258 287
#     4  10  21  35  51  80  98 135 192 204 256 321
#
# _framework density 22.720666000000001
#
# number of rings (size 3 to 8) (size 9 to 14) (size 15 to 20)
#    0.000    2.000    0.000    6.000    3.500    0.000 
#    9.000    0.000    0.000    0.000    0.000    0.000 
#    0.000  116.000    0.000    0.000    0.000    0.000 
#
# Total GULP energy -89249.975496 kJ/mol
# GULP energy per Si atom -5578.123469 kJ/mol
# Density = 2.266895 g / cm^3
# Si number density = 22.720666 Si / 1000 Ang^3
#
#
#
# Elastic Constant Matrix: (Units=GPa)
#
#
# Indices 1 2 3 4 5 6 
#
# 1 96.8596 48.2382 16.1447 -1.9817 -22.6296 -28.3806
# 2 48.2382 116.3548 -7.1696 -9.8237 -5.8862 -38.7443
# 3 16.1447 -7.1696 27.8906 -0.2430 -2.9064 -7.9280
# 4 -1.9817 -9.8237 -0.2430 11.2397 -6.7290 1.3900
# 5 -22.6296 -5.8862 -2.9064 -6.7290 26.5403 -0.9294
# 6 -28.3806 -38.7443 -7.9280 1.3900 -0.9294 45.7423
#
#
#
# Elastic Compliance Matrix: (Units=1/GPa)
#
#
# Indices 1 2 3 4 5 6 
#
# 1 0.021067 -0.005318 -0.009593 0.008911 0.018237 0.007004
# 2 -0.005318 0.017624 0.012092 0.016241 0.005284 0.013338
# 3 -0.009593 0.012092 0.048429 0.010058 0.002791 0.012435
# 4 0.008911 0.016241 0.010058 0.130239 0.045953 0.018005
# 5 0.018237 0.005284 0.002791 0.045953 0.066926 0.016238
# 6 0.007004 0.013338 0.012435 0.018005 0.016238 0.039442
#
#
# Mechanical properties :
#
#
# Convention : Reuss Voigt Hill
#
# Bulk Modulus (GPa) = 12.27255 39.50351 25.88803
# Shear Modulus (GPa) = 14.02425 28.96391 21.49408
#
# Velocity S-wave (km/s) = 2.48714 3.57428 3.07907
# Velocity P-wave (km/s) = 3.69608 5.87012 4.90507
#
# Compressibility (1/GPa) = 0.08148267
#
# Stress axis : x y z
#
# Youngs Moduli (GPa) = 47.46781 56.74078 20.64884
#
# Poissons Ratio (x) = 0.30174 0.19808
# Poissons Ratio (y) = 0.25243 -0.24969
# Poissons Ratio (z) = 0.45535 -0.68612
#
# Static dielectric constant tensor:
#      x y z
#    x 1.957990 -0.072920 0.020690 
#    y -0.072920 1.922120 0.001950 
#    z 0.020690 0.001950 1.873610 
# 
# From -- ./inp_files/459575.got.cif
#   From: 2010.05.17/outbox.cif.g08.bks.cpg/sg2_230_cif.got.tgz:459575.got - 2010.06.03 11:33:40.
