data_PCOD9071749
_publ_section_title
;
Structure prediction by ZEFSAII (Michael W. Deem and Ramdas Pophale) SiO2 
 PCOD9071749
Probable space group: P -1
;
_chemical_formula_sum "Si O2"
_cell_formula_units_Z 14
_cell_length_a 22.514546
_cell_length_b 5.227102
_cell_length_c 9.552300
_cell_angle_alpha 122.826800
_cell_angle_beta 34.416973
_cell_angle_gamma 127.444223
_cell_volume 502.405045
_symmetry_space_group_name_H-M "P -1"
_symmetry_group_IT_number 2
_symmetry_cell_setting 'triclinic'
loop_
_space_group_symop_operation_xyz
x,y,z
-x,-y,-z
loop_
_atom_site_type_symbol
_atom_site_label
_atom_site_fract_x
_atom_site_fract_y
_atom_site_fract_z
Si Si1 0.882669 0.700168 0.135671
Si Si2 0.427101 0.482971 0.400060
Si Si3 0.812415 0.285270 0.429797
Si Si4 0.531790 0.097768 0.804815
Si Si5 0.307949 0.369261 0.060794
Si Si6 0.007749 0.641967 0.373387
Si Si7 0.315590 0.757846 0.928243
O O1 0.856923 0.487380 0.262773
O O2 0.799854 0.906323 0.336357
O O3 0.892820 0.453220 0.924242
O O4 0.000000 0.000000 0.000000
O O5 0.392719 0.127716 0.431807
O O6 0.367771 0.688684 0.663198
O O7 0.420260 0.561069 0.270467
O O8 0.562321 0.606491 0.202138
O O9 0.710153 0.390840 0.715742
O O10 0.903177 0.441268 0.420137
O O11 0.417218 0.930528 0.890937
O O12 0.500000 0.000000 0.000000
O O13 0.259247 0.430965 0.026383
O O14 0.250081 0.006978 0.119926
O O15 0.000000 0.500000 0.500000
O O16 0.000000 0.000000 0.500000
#
# Coordination Sequence:
#
# PCOD9071749 Si02
#       7
#     2   2   2   2   2   2   2
#     4  10  20  37  58  83 107 142 186 218 260 333
#     4  10  19  34  54  76 102 143 187 226 263 314
#     4  11  21  36  59  84 111 147 186 227 270 326
#     4  10  18  29  49  75  99 127 171 226 270 313
#     4  10  19  32  55  81 105 136 186 232 265 307
#     4  11  21  36  60  86 111 141 176 222 274 329
#     4  10  19  34  55  77 102 142 187 227 264 314
#
# _framework density 27.865963000000001
#
# number of rings (size 3 to 8) (size 9 to 14) (size 15 to 20)
#    0.000    1.714    0.000    9.857    0.000    0.000 
#    0.000    0.000    0.000   44.571    0.000    0.000 
#    0.000    0.000    0.000    0.000    0.000    0.000 
#
# Total GULP energy -78307.838572 kJ/mol
# GULP energy per Si atom -5593.417041 kJ/mol
# Density = 2.780254 g / cm^3
# Si number density = 27.865963 Si / 1000 Ang^3
#
#
#
# Elastic Constant Matrix: (Units=GPa)
#
#
# Indices 1 2 3 4 5 6 
#
# 1 99.5218 71.2914 48.1972 -6.0548 19.1311 -33.1204
# 2 71.2914 205.5037 80.1085 23.5875 13.8965 -73.8353
# 3 48.1972 80.1085 214.1283 16.9101 25.9808 -34.1644
# 4 -6.0548 23.5875 16.9101 62.1172 -10.7532 5.8204
# 5 19.1311 13.8965 25.9808 -10.7532 50.8860 -9.8883
# 6 -33.1204 -73.8353 -34.1644 5.8204 -9.8883 74.1113
#
#
#
# Elastic Compliance Matrix: (Units=1/GPa)
#
#
# Indices 1 2 3 4 5 6 
#
# 1 0.014974 -0.004408 -0.001442 0.002933 -0.002872 0.001023
# 2 -0.004408 0.010344 -0.001199 -0.004793 0.000018 0.008161
# 3 -0.001442 -0.001199 0.006000 -0.001809 -0.002432 0.000745
# 4 0.002933 -0.004793 -0.001809 0.019940 0.004316 -0.005288
# 5 -0.002872 0.000018 -0.002432 0.004316 0.022945 0.000336
# 6 0.001023 0.008161 0.000745 -0.005288 0.000336 0.022885
#
#
# Mechanical properties :
#
#
# Convention : Reuss Voigt Hill
#
# Bulk Modulus (GPa) = 58.06831 102.03868 80.05350
# Shear Modulus (GPa) = 42.76227 58.72668 50.74448
#
# Velocity S-wave (km/s) = 3.92161 4.59570 4.27197
# Velocity P-wave (km/s) = 6.43343 8.05343 7.28858
#
# Compressibility (1/GPa) = 0.01722110
#
# Stress axis : x y z
#
# Youngs Moduli (GPa) = 66.78020 96.67508 166.66970
#
# Poissons Ratio (x) = 0.42614 0.24026
# Poissons Ratio (y) = 0.29436 0.19986
# Poissons Ratio (z) = 0.09627 0.11593
#
# Static dielectric constant tensor:
#      x y z
#    x 2.431010 0.150190 -0.095280 
#    y 0.150190 2.447350 0.080250 
#    z -0.095280 0.080250 2.271640 
# 
# From -- ./inp_files/355853.got.cif
#   From: 2010.05.17/outbox.cif.g08.bks.cpg/sg2_178_cif.got.tgz:355853.got - 2010.06.03 11:33:40.
