data_PCOD9071150
_publ_section_title
;
Structure prediction by ZEFSAII (Michael W. Deem and Ramdas Pophale) SiO2 
 PCOD9071150
Probable space group: P -1
;
_chemical_formula_sum "Si O2"
_cell_formula_units_Z 13
_cell_length_a 9.937283
_cell_length_b 8.710303
_cell_length_c 8.374075
_cell_angle_alpha 72.948552
_cell_angle_beta 46.527671
_cell_angle_gamma 67.909860
_cell_volume 486.761114
_symmetry_space_group_name_H-M "P -1"
_symmetry_group_IT_number 2
_symmetry_cell_setting 'triclinic'
loop_
_space_group_symop_operation_xyz
x,y,z
-x,-y,-z
loop_
_atom_site_type_symbol
_atom_site_label
_atom_site_fract_x
_atom_site_fract_y
_atom_site_fract_z
Si Si1 0.111480 0.842290 0.553986
Si Si2 0.775008 0.562458 0.191027
Si Si3 0.474404 0.196406 0.914339
Si Si4 0.705218 0.228664 0.244484
Si Si5 0.000000 0.000000 0.000000
Si Si6 0.289759 0.196718 0.589530
Si Si7 0.856075 0.659844 0.647948
O O1 0.138072 0.865746 0.717283
O O2 0.979712 0.718286 0.666519
O O3 0.319927 0.786370 0.319814
O O4 0.000000 0.000000 0.500000
O O5 0.679186 0.417748 0.256086
O O6 0.755535 0.611830 0.375552
O O7 0.661336 0.732289 0.147217
O O8 0.000000 0.500000 0.000000
O O9 0.355612 0.324699 0.105964
O O10 0.500000 0.000000 0.000000
O O11 0.518908 0.161832 0.418360
O O12 0.839284 0.169455 0.003420
O O13 0.828408 0.901940 0.179845
O O14 0.209246 0.199867 0.476595
O O15 0.000000 0.500000 0.500000
#
# Coordination Sequence:
#
# PCOD9071150 Si02
#       7
#     2   2   2   2   1   2   2
#     4  12  26  49  80 113 158 217 263 325 405 488
#     4  12  25  51  85 114 155 214 274 329 396 486
#     4  12  28  50  81 114 159 215 266 325 405 490
#     4  12  27  49  81 114 154 213 274 326 395 480
#     4  12  28  44  76 114 162 192 264 326 404 458
#     4  12  27  49  77 114 155 205 264 336 391 471
#     4  12  29  49  77 117 164 200 264 339 408 471
#
# _framework density 26.707146999999999
#
# number of rings (size 3 to 8) (size 9 to 14) (size 15 to 20)
#    0.000    0.000    4.615    4.615    2.154    5.538 
#    0.000    0.000    0.000    0.000    0.000    0.000 
#    0.000    0.000    0.000    0.000    0.000    0.000 
#
# Total GULP energy -72419.691583 kJ/mol
# GULP energy per Si atom -5570.745506 kJ/mol
# Density = 2.664636 g / cm^3
# Si number density = 26.707147 Si / 1000 Ang^3
#
#
#
# Elastic Constant Matrix: (Units=GPa)
#
#
# Indices 1 2 3 4 5 6 
#
# 1 144.9924 48.2956 40.3693 -19.7126 -35.9015 -15.4787
# 2 48.2956 117.4656 28.9413 0.6914 -29.9833 -10.0847
# 3 40.3693 28.9413 137.9598 18.2312 -60.7107 -13.7180
# 4 -19.7126 0.6914 18.2312 54.3646 -17.2922 -8.3098
# 5 -35.9015 -29.9833 -60.7107 -17.2922 65.2756 -4.1827
# 6 -15.4787 -10.0847 -13.7180 -8.3098 -4.1827 49.8959
#
#
#
# Elastic Compliance Matrix: (Units=1/GPa)
#
#
# Indices 1 2 3 4 5 6 
#
# 1 0.010839 -0.002308 -0.000085 0.006901 0.006945 0.004604
# 2 -0.002308 0.010619 0.000482 0.000553 0.004332 0.002018
# 3 -0.000085 0.000482 0.013317 0.000369 0.012970 0.004881
# 4 0.006901 0.000553 0.000369 0.025641 0.011672 0.007603
# 5 0.006945 0.004332 0.012970 0.011672 0.037030 0.011644
# 6 0.004604 0.002018 0.004881 0.007603 0.011644 0.025462
#
#
# Mechanical properties :
#
#
# Convention : Reuss Voigt Hill
#
# Bulk Modulus (GPa) = 32.30910 70.62558 51.46734
# Shear Modulus (GPa) = 36.48360 52.76134 44.62247
#
# Velocity S-wave (km/s) = 3.70004 4.44954 4.09198
# Velocity P-wave (km/s) = 5.51158 7.27322 6.45280
#
# Compressibility (1/GPa) = 0.03095104
#
# Stress axis : x y z
#
# Youngs Moduli (GPa) = 92.26137 94.16955 75.09414
#
# Poissons Ratio (x) = 0.21734 0.00642
# Poissons Ratio (y) = 0.21293 -0.03617
# Poissons Ratio (z) = 0.00788 -0.04535
#
# Static dielectric constant tensor:
#      x y z
#    x 2.071700 -0.083930 -0.012810 
#    y -0.083930 2.183730 -0.105740 
#    z -0.012810 -0.105740 1.908790 
# 
# From -- ./inp_files/157033.got.cif
#   From: 2010.05.17/outbox.cif.g08.bks.cpg/sg2_79_cif.got.tgz:157033.got - 2010.06.03 11:33:40.
