data_PCOD9071391
_publ_section_title
;
Structure prediction by ZEFSAII (Michael W. Deem and Ramdas Pophale) SiO2 
 PCOD9071391
Probable space group: P -1
;
_chemical_formula_sum "Si O2"
_cell_formula_units_Z 13
_cell_length_a 9.901678
_cell_length_b 8.430926
_cell_length_c 13.617308
_cell_angle_alpha 132.303691
_cell_angle_beta 40.919392
_cell_angle_gamma 119.940735
_cell_volume 550.580565
_symmetry_space_group_name_H-M "P -1"
_symmetry_group_IT_number 2
_symmetry_cell_setting 'triclinic'
loop_
_space_group_symop_operation_xyz
x,y,z
-x,-y,-z
loop_
_atom_site_type_symbol
_atom_site_label
_atom_site_fract_x
_atom_site_fract_y
_atom_site_fract_z
Si Si1 0.428595 0.981455 0.640461
Si Si2 0.326890 0.181096 0.157107
Si Si3 0.006769 0.996645 0.112641
Si Si4 0.440084 0.596643 0.177931
Si Si5 0.293321 0.384311 0.602408
Si Si6 0.983039 0.775216 0.472245
Si Si7 0.000000 0.500000 0.000000
O O1 0.209006 0.877175 0.701074
O O2 0.500000 0.000000 0.500000
O O3 0.607040 0.853745 0.544954
O O4 0.409216 0.214505 0.797206
O O5 0.443534 0.403406 0.172529
O O6 0.167147 0.193787 0.339667
O O7 0.196036 0.121266 0.107587
O O8 0.500000 0.000000 0.000000
O O9 0.001102 0.761282 0.070741
O O10 0.000000 0.000000 0.000000
O O11 0.207509 0.688616 0.342702
O O12 0.500000 0.500000 0.000000
O O13 0.500000 0.500000 0.500000
O O14 0.119273 0.386181 0.615766
O O15 0.179355 0.445190 0.792583
O O16 0.000000 0.000000 0.500000
#
# Coordination Sequence:
#
# PCOD9071391 Si02
#       7
#     2   2   2   2   2   2   1
#     4  12  26  49  74 108 156 202 266 337 408 481
#     4  12  30  50  78 114 161 211 272 339 412 493
#     4  12  28  49  81 117 157 212 279 334 410 502
#     4  12  28  49  77 111 155 211 263 335 414 486
#     4  12  29  48  82 117 158 214 278 338 412 500
#     4  12  26  51  74 111 159 207 269 328 415 489
#     4  12  28  52  82 116 168 210 276 346 414 480
#
# _framework density 23.611443000000001
#
# number of rings (size 3 to 8) (size 9 to 14) (size 15 to 20)
#    0.000    0.000    3.077    5.077   15.077    0.000 
#    0.000    0.000    0.000    0.000    0.000    0.000 
#    0.000    0.000    0.000    0.000    0.000    0.000 
#
# Total GULP energy -72445.719168 kJ/mol
# GULP energy per Si atom -5572.747628 kJ/mol
# Density = 2.355770 g / cm^3
# Si number density = 23.611443 Si / 1000 Ang^3
#
#
#
# Elastic Constant Matrix: (Units=GPa)
#
#
# Indices 1 2 3 4 5 6 
#
# 1 104.3398 7.0905 12.5850 2.9795 -3.7556 14.9815
# 2 7.0905 124.3331 41.6628 -2.7189 11.3854 -9.6295
# 3 12.5850 41.6628 133.7343 -21.7760 -1.2735 -0.9821
# 4 2.9795 -2.7189 -21.7760 52.0165 -10.6895 -0.7469
# 5 -3.7556 11.3854 -1.2735 -10.6895 47.2662 -0.3417
# 6 14.9815 -9.6295 -0.9821 -0.7469 -0.3417 32.4206
#
#
#
# Elastic Compliance Matrix: (Units=1/GPa)
#
#
# Indices 1 2 3 4 5 6 
#
# 1 0.010543 -0.000775 -0.000937 -0.000957 0.000745 -0.005144
# 2 -0.000775 0.009593 -0.003127 -0.001279 -0.002724 0.003054
# 3 -0.000937 -0.003127 0.009230 0.004136 0.001862 -0.000101
# 4 -0.000957 -0.001279 0.004136 0.022051 0.005336 0.000752
# 5 0.000745 -0.002724 0.001862 0.005336 0.023124 -0.000730
# 6 -0.005144 0.003054 -0.000101 0.000752 -0.000730 0.034136
#
#
# Mechanical properties :
#
#
# Convention : Reuss Voigt Hill
#
# Bulk Modulus (GPa) = 50.79502 53.89819 52.34661
# Shear Modulus (GPa) = 40.02616 46.41191 43.21903
#
# Velocity S-wave (km/s) = 4.12175 4.43838 4.28299
# Velocity P-wave (km/s) = 6.64916 7.01016 6.83204
#
# Compressibility (1/GPa) = 0.01968697
#
# Stress axis : x y z
#
# Youngs Moduli (GPa) = 94.85324 104.24159 108.33722
#
# Poissons Ratio (x) = 0.08076 0.10155
# Poissons Ratio (y) = 0.07349 0.33882
# Poissons Ratio (z) = 0.08891 0.32602
#
# Static dielectric constant tensor:
#      x y z
#    x 1.841070 0.027770 0.012100 
#    y 0.027770 1.883960 0.063680 
#    z 0.012100 0.063680 1.805300 
# 
# From -- ./inp_files/380501.got.cif
#   From: 2010.05.17/outbox.cif.g08.bks.cpg/sg2_191_cif.got.tgz:380501.got - 2010.06.03 11:33:40.
