data_PCOD9071775
_publ_section_title
;
Structure prediction by ZEFSAII (Michael W. Deem and Ramdas Pophale) SiO2 
 PCOD9071775
Probable space group: P -1
;
_chemical_formula_sum "Si O2"
_cell_formula_units_Z 14
_cell_length_a 11.823311
_cell_length_b 9.401524
_cell_length_c 7.863072
_cell_angle_alpha 87.049425
_cell_angle_beta 107.647283
_cell_angle_gamma 132.201584
_cell_volume 602.499314
_symmetry_space_group_name_H-M "P -1"
_symmetry_group_IT_number 2
_symmetry_cell_setting 'triclinic'
loop_
_space_group_symop_operation_xyz
x,y,z
-x,-y,-z
loop_
_atom_site_type_symbol
_atom_site_label
_atom_site_fract_x
_atom_site_fract_y
_atom_site_fract_z
Si Si1 0.950294 0.408956 0.728798
Si Si2 0.318516 0.017858 0.736968
Si Si3 0.953932 0.759373 0.427427
Si Si4 0.612864 0.184612 0.410821
Si Si5 0.121307 0.819059 0.965346
Si Si6 0.908632 0.877122 0.728912
Si Si7 0.430308 0.287128 0.455530
O O1 0.072492 0.404603 0.683318
O O2 0.798061 0.339540 0.555536
O O3 0.044625 0.620793 0.837801
O O4 0.863944 0.237010 0.840567
O O5 0.138313 0.885810 0.576122
O O6 0.383361 0.911181 0.747243
O O7 0.277519 0.003087 0.917807
O O8 0.420213 0.204440 0.644649
O O9 0.861182 0.736156 0.554238
O O10 0.960762 0.902019 0.299111
O O11 0.535601 0.275529 0.379651
O O12 0.500000 0.000000 0.500000
O O13 0.989703 0.838483 0.902197
O O14 0.749160 0.836136 0.699482
O O15 0.500000 0.500000 0.500000
#
# Coordination Sequence:
#
# PCOD9071775 Si02
#       7
#     2   2   2   2   2   2   2
#     4  10  20  33  52  77 102 136 170 206 253 298
#     4   8  17  33  50  72  98 129 168 210 250 289
#     4   8  16  31  51  73  98 127 166 211 254 296
#     4   9  18  34  53  73  99 135 174 205 243 299
#     4  10  20  33  51  77 107 130 165 214 257 300
#     4   9  17  31  50  75 101 127 164 212 259 296
#     4  10  18  29  50  75  98 127 166 208 246 295
#
# _framework density 23.236540999999999
#
# number of rings (size 3 to 8) (size 9 to 14) (size 15 to 20)
#    0.000    2.857    0.000    2.571    0.000    6.857 
#    0.000    2.857    0.000    1.714    0.000   20.000 
#    0.000    0.000    0.000    0.000    0.000    0.000 
#
# Total GULP energy -78122.601808 kJ/mol
# GULP energy per Si atom -5580.185843 kJ/mol
# Density = 2.318365 g / cm^3
# Si number density = 23.236541 Si / 1000 Ang^3
#
#
#
# Elastic Constant Matrix: (Units=GPa)
#
#
# Indices 1 2 3 4 5 6 
#
# 1 146.9783 28.5747 30.4819 -12.5107 -0.3905 -40.4433
# 2 28.5747 85.2972 23.4457 -19.8532 0.5330 -24.0153
# 3 30.4819 23.4457 74.4675 -32.7434 -5.1541 -4.5769
# 4 -12.5107 -19.8532 -32.7434 36.9761 -0.6423 -0.9284
# 5 -0.3905 0.5330 -5.1541 -0.6423 23.2555 -9.3627
# 6 -40.4433 -24.0153 -4.5769 -0.9284 -9.3627 36.8289
#
#
#
# Elastic Compliance Matrix: (Units=1/GPa)
#
#
# Indices 1 2 3 4 5 6 
#
# 1 0.011324 0.001708 -0.002603 0.002910 0.005580 0.014717
# 2 0.001708 0.017941 -0.000479 0.010274 0.005949 0.015287
# 3 -0.002603 -0.000479 0.024259 0.020514 0.006746 0.002077
# 4 0.002910 0.010274 0.020514 0.052357 0.012641 0.016978
# 5 0.005580 0.005949 0.006746 0.012641 0.054918 0.025125
# 6 0.014717 0.015287 0.002077 0.016978 0.025125 0.060355
#
#
# Mechanical properties :
#
#
# Convention : Reuss Voigt Hill
#
# Bulk Modulus (GPa) = 19.69405 52.41639 36.05522
# Shear Modulus (GPa) = 20.76181 34.36149 27.56165
#
# Velocity S-wave (km/s) = 2.99239 3.84965 3.44777
# Velocity P-wave (km/s) = 4.52029 6.50895 5.60355
#
# Compressibility (1/GPa) = 0.05077676
#
# Stress axis : x y z
#
# Youngs Moduli (GPa) = 88.31171 55.73755 41.22115
#
# Poissons Ratio (x) = -0.09520 0.10728
# Poissons Ratio (y) = -0.15083 0.01975
# Poissons Ratio (z) = 0.22983 0.02671
#
# Static dielectric constant tensor:
#      x y z
#    x 1.926560 0.007840 -0.052320 
#    y 0.007840 1.944130 0.019580 
#    z -0.052320 0.019580 1.915270 
# 
# From -- ./inp_files/167527.got.cif
#   From: 2010.05.17/outbox.cif.g08.bks.cpg/sg2_84_cif.got.tgz:167527.got - 2010.06.03 11:33:40.
