data_PCOD9071058
_publ_section_title
;
Structure prediction by ZEFSAII (Michael W. Deem and Ramdas Pophale) SiO2 
 PCOD9071058
Probable space group: P -1
;
_chemical_formula_sum "Si O2"
_cell_formula_units_Z 12
_cell_length_a 12.613312
_cell_length_b 8.940898
_cell_length_c 8.748418
_cell_angle_alpha 143.938345
_cell_angle_beta 104.336843
_cell_angle_gamma 61.101666
_cell_volume 488.472157
_symmetry_space_group_name_H-M "P -1"
_symmetry_group_IT_number 2
_symmetry_cell_setting 'triclinic'
loop_
_space_group_symop_operation_xyz
x,y,z
-x,-y,-z
loop_
_atom_site_type_symbol
_atom_site_label
_atom_site_fract_x
_atom_site_fract_y
_atom_site_fract_z
Si Si1 0.829231 0.784281 0.115307
Si Si2 0.450050 0.950066 0.781425
Si Si3 0.085514 0.759663 0.536582
Si Si4 0.628025 0.487765 0.990330
Si Si5 0.292585 0.439576 0.600086
Si Si6 0.812332 0.881601 0.520462
O O1 0.684682 0.025027 0.219441
O O2 0.838947 0.688725 0.217219
O O3 0.909377 0.952314 0.275181
O O4 0.867302 0.507621 0.789795
O O5 0.411595 0.216193 0.868944
O O6 0.570698 0.676455 0.523293
O O7 0.500000 0.000000 0.000000
O O8 0.179715 0.640135 0.614691
O O9 0.943644 0.839752 0.591191
O O10 0.702317 0.432895 0.129738
O O11 0.500000 0.500000 0.000000
O O12 0.718846 0.206036 0.692194
O O13 0.263951 0.183084 0.431431
#
# Coordination Sequence:
#
# PCOD9071058 Si02
#       6
#     2   2   2   2   2   2
#     4  12  27  51  77 114 152 204 258 314 377 453
#     4  12  25  49  77 111 152 197 260 318 380 449
#     4  12  30  49  79 115 154 207 254 311 383 457
#     4  12  26  47  77 112 151 201 254 318 386 451
#     4  12  27  47  75 114 153 199 255 318 385 454
#     4  12  27  50  77 107 156 200 257 315 381 458
#
# _framework density 24.566393000000001
#
# number of rings (size 3 to 8) (size 9 to 14) (size 15 to 20)
#    0.000    0.000    5.000    4.000    7.000    1.333 
#    0.000    0.000    0.000    0.000    0.000    0.000 
#    0.000    0.000    0.000    0.000    0.000    0.000 
#
# Total GULP energy -67190.941863 kJ/mol
# GULP energy per Si atom -5599.245155 kJ/mol
# Density = 2.451048 g / cm^3
# Si number density = 24.566393 Si / 1000 Ang^3
#
#
#
# Elastic Constant Matrix: (Units=GPa)
#
#
# Indices 1 2 3 4 5 6 
#
# 1 123.8269 3.1313 28.9858 8.4767 7.0121 -38.8625
# 2 3.1313 105.8139 30.4303 -9.6455 -4.3387 -27.8570
# 3 28.9858 30.4303 103.4037 -12.5809 -1.1764 -7.3033
# 4 8.4767 -9.6455 -12.5809 39.6460 -4.4191 -0.4437
# 5 7.0121 -4.3387 -1.1764 -4.4191 33.1600 6.6000
# 6 -38.8625 -27.8570 -7.3033 -0.4437 6.6000 44.6329
#
#
#
# Elastic Compliance Matrix: (Units=1/GPa)
#
#
# Indices 1 2 3 4 5 6 
#
# 1 0.014661 0.004453 -0.004891 -0.004137 -0.006356 0.015643
# 2 0.004453 0.013750 -0.004347 0.000975 -0.001553 0.011987
# 3 -0.004891 -0.004347 0.012486 0.004171 0.002511 -0.005259
# 4 -0.004137 0.000975 0.004171 0.028247 0.005480 -0.002840
# 5 -0.006356 -0.001553 0.002511 0.005480 0.034329 -0.011114
# 6 0.015643 0.011987 -0.005259 -0.002840 -0.011114 0.044262
#
#
# Mechanical properties :
#
#
# Convention : Reuss Voigt Hill
#
# Bulk Modulus (GPa) = 31.92151 50.90437 41.41294
# Shear Modulus (GPa) = 29.80674 41.52092 35.66383
#
# Velocity S-wave (km/s) = 3.48704 4.11561 3.81429
# Velocity P-wave (km/s) = 5.40692 6.58410 6.02433
#
# Compressibility (1/GPa) = 0.03132684
#
# Stress axis : x y z
#
# Youngs Moduli (GPa) = 68.20964 72.72751 80.09084
#
# Poissons Ratio (x) = -0.32388 0.39172
# Poissons Ratio (y) = -0.30376 0.34817
# Poissons Ratio (z) = 0.33361 0.31616
#
# Static dielectric constant tensor:
#      x y z
#    x 2.010780 0.027670 0.004810 
#    y 0.027670 1.884730 -0.005630 
#    z 0.004810 -0.005630 2.050250 
# 
# From -- ./inp_files/81766.got.cif
#   From: 2010.05.17/outbox.cif.g08.bks.cpg/sg2_41_cif.got.tgz:81766.got - 2010.06.03 11:33:40.
