data_PCOD9071101
_publ_section_title
;
Structure prediction by ZEFSAII (Michael W. Deem and Ramdas Pophale) SiO2 
 PCOD9071101
Probable space group: P -1
;
_chemical_formula_sum "Si O2"
_cell_formula_units_Z 12
_cell_length_a 9.588805
_cell_length_b 15.683876
_cell_length_c 14.480646
_cell_angle_alpha 151.220616
_cell_angle_beta 141.020255
_cell_angle_gamma 28.181171
_cell_volume 495.030984
_symmetry_space_group_name_H-M "P -1"
_symmetry_group_IT_number 2
_symmetry_cell_setting 'triclinic'
loop_
_space_group_symop_operation_xyz
x,y,z
-x,-y,-z
loop_
_atom_site_type_symbol
_atom_site_label
_atom_site_fract_x
_atom_site_fract_y
_atom_site_fract_z
Si Si1 0.843144 0.086230 0.669641
Si Si2 0.874368 0.435351 0.651944
Si Si3 0.319906 0.907670 0.081799
Si Si4 0.189397 0.321056 0.513958
Si Si5 0.881055 0.429933 0.950247
Si Si6 0.658630 0.077685 0.104245
O O1 0.487340 0.263327 0.648543
O O2 0.952696 0.184959 0.751177
O O3 0.984875 0.817664 0.473590
O O4 0.003636 0.065715 0.827988
O O5 0.532074 0.649441 0.704844
O O6 0.967053 0.402579 0.561744
O O7 0.024494 0.524757 0.864192
O O8 0.324677 0.065187 0.304502
O O9 0.533155 0.636393 0.959758
O O10 0.385612 0.935922 0.038744
O O11 0.000000 0.000000 0.000000
O O12 0.000000 0.500000 0.500000
O O13 0.000000 0.500000 0.000000
O O14 0.500000 0.000000 0.000000
#
# Coordination Sequence:
#
# PCOD9071101 Si02
#       6
#     2   2   2   2   2   2
#     4  12  27  47  82 109 153 207 252 317 389 445
#     4  12  26  51  76 114 157 194 261 316 380 462
#     4  12  26  48  75 109 157 197 254 318 380 456
#     4  12  28  50  76 118 154 198 262 316 382 464
#     4  12  26  50  74 113 154 200 255 318 383 455
#     4  12  25  50  76 111 154 203 254 318 382 456
#
# _framework density 24.240905999999999
#
# number of rings (size 3 to 8) (size 9 to 14) (size 15 to 20)
#    0.000    0.000    5.000    4.000    2.333    1.333 
#    6.000    0.000    0.000    0.000    0.000    0.000 
#    0.000    0.000    0.000    0.000    0.000    0.000 
#
# Total GULP energy -67102.133310 kJ/mol
# GULP energy per Si atom -5591.844443 kJ/mol
# Density = 2.418573 g / cm^3
# Si number density = 24.240906 Si / 1000 Ang^3
#
#
#
# Elastic Constant Matrix: (Units=GPa)
#
#
# Indices 1 2 3 4 5 6 
#
# 1 131.7927 24.0694 48.8258 12.9542 -10.3716 14.1063
# 2 24.0694 160.4506 20.0400 -7.7608 13.0474 -5.4781
# 3 48.8258 20.0400 105.0392 11.5296 11.7524 10.5921
# 4 12.9542 -7.7608 11.5296 51.2303 9.7619 9.6845
# 5 -10.3716 13.0474 11.7524 9.7619 45.8352 -1.3377
# 6 14.1063 -5.4781 10.5921 9.6845 -1.3377 30.7555
#
#
#
# Elastic Compliance Matrix: (Units=1/GPa)
#
#
# Indices 1 2 3 4 5 6 
#
# 1 0.010373 -0.001539 -0.004511 -0.002173 0.004329 -0.002606
# 2 -0.001539 0.006884 -0.000667 0.001770 -0.002470 0.001497
# 3 -0.004511 -0.000667 0.012489 -0.000569 -0.003980 -0.002345
# 4 -0.002173 0.001770 -0.000569 0.022695 -0.005855 -0.005893
# 5 0.004329 -0.002470 -0.003980 -0.005855 0.025823 0.001912
# 6 -0.002606 0.001497 -0.002345 -0.005893 0.001912 0.036722
#
#
# Mechanical properties :
#
#
# Convention : Reuss Voigt Hill
#
# Bulk Modulus (GPa) = 61.30426 64.79477 63.04952
# Shear Modulus (GPa) = 37.35293 45.85401 41.60347
#
# Velocity S-wave (km/s) = 3.92969 4.35397 4.14726
# Velocity P-wave (km/s) = 6.77750 7.21551 6.99993
#
# Compressibility (1/GPa) = 0.01631208
#
# Stress axis : x y z
#
# Youngs Moduli (GPa) = 96.40275 145.26132 80.07196
#
# Poissons Ratio (x) = 0.22352 0.36123
# Poissons Ratio (y) = 0.14834 0.05341
# Poissons Ratio (z) = 0.43490 0.09689
#
# Static dielectric constant tensor:
#      x y z
#    x 1.852190 -0.077690 -0.052350 
#    y -0.077690 1.963710 -0.005200 
#    z -0.052350 -0.005200 2.182110 
# 
# From -- ./inp_files/505988.got.cif
#   From: 2010.05.17/outbox.cif.g08.bks.cpg/sg2_253_cif.got.tgz:505988.got - 2010.06.03 11:33:40.
