data_PCOD9071215
_publ_section_title
;
Structure prediction by ZEFSAII (Michael W. Deem and Ramdas Pophale) SiO2 
 PCOD9071215
Probable space group: P -1
;
_chemical_formula_sum "Si O2"
_cell_formula_units_Z 10
_cell_length_a 5.420439
_cell_length_b 21.976316
_cell_length_c 21.937353
_cell_angle_alpha 12.933514
_cell_angle_beta 136.017691
_cell_angle_gamma 135.719825
_cell_volume 404.363139
_symmetry_space_group_name_H-M "P -1"
_symmetry_group_IT_number 2
_symmetry_cell_setting 'triclinic'
loop_
_space_group_symop_operation_xyz
x,y,z
-x,-y,-z
loop_
_atom_site_type_symbol
_atom_site_label
_atom_site_fract_x
_atom_site_fract_y
_atom_site_fract_z
Si Si1 0.661841 0.922903 0.371493
Si Si2 0.429043 0.224688 0.218517
Si Si3 0.477481 0.436502 0.894484
Si Si4 0.420394 0.019817 0.038456
Si Si5 0.300912 0.414171 0.404186
O O1 0.713035 0.699140 0.652239
O O2 0.517324 0.725707 0.483924
O O3 0.028998 0.107411 0.241698
O O4 0.420772 0.166518 0.106075
O O5 0.500000 0.000000 0.500000
O O6 0.500000 0.500000 0.000000
O O7 0.619440 0.304431 0.110226
O O8 0.102917 0.563734 0.711358
O O9 0.632442 0.784857 0.334815
O O10 0.500000 0.000000 0.000000
O O11 0.561027 0.293407 0.831909
O O12 0.000000 0.000000 0.000000
#
# Coordination Sequence:
#
# PCOD9071215 Si02
#       5
#     2   2   2   2   2
#     4  12  26  46  76 107 142 203 256 304 386 450
#     4  12  26  46  68 108 154 186 252 318 372 456
#     4  12  26  46  76 107 142 203 256 304 386 450
#     4  12  29  50  78 117 156 202 252 319 400 456
#     4  12  27  50  76 105 154 190 252 317 362 478
#
# _framework density 24.730248
#
# number of rings (size 3 to 8) (size 9 to 14) (size 15 to 20)
#    0.000    0.000    0.000   10.800    8.400    4.800 
#    0.000    0.000    0.000    0.000    0.000    0.000 
#    0.000    0.000    0.000    0.000    0.000    0.000 
#
# Total GULP energy -55891.807894 kJ/mol
# GULP energy per Si atom -5589.180789 kJ/mol
# Density = 2.467396 g / cm^3
# Si number density = 24.730248 Si / 1000 Ang^3
#
#
#
# Elastic Constant Matrix: (Units=GPa)
#
#
# Indices 1 2 3 4 5 6 
#
# 1 116.0069 44.8619 93.9066 -22.3981 -4.0530 -38.8615
# 2 44.8619 86.4779 78.5265 -33.7096 -4.1873 -33.4843
# 3 93.9066 78.5265 359.6983 -61.5738 -8.4858 -87.3911
# 4 -22.3981 -33.7096 -61.5738 85.5946 -15.9274 20.9561
# 5 -4.0530 -4.1873 -8.4858 -15.9274 60.0731 -5.0729
# 6 -38.8615 -33.4843 -87.3911 20.9561 -5.0729 75.5788
#
#
#
# Elastic Compliance Matrix: (Units=1/GPa)
#
#
# Indices 1 2 3 4 5 6 
#
# 1 0.012429 -0.003801 -0.001749 -0.000074 0.000539 0.002741
# 2 -0.003801 0.017954 -0.001217 0.004808 0.002387 0.003420
# 3 -0.001749 -0.001217 0.004715 0.001806 0.001246 0.003596
# 4 -0.000074 0.004808 0.001806 0.015707 0.004762 0.000145
# 5 0.000539 0.002387 0.001246 0.004762 0.018515 0.002697
# 6 0.002741 0.003420 0.003596 0.000145 0.002697 0.020454
#
#
# Mechanical properties :
#
#
# Convention : Reuss Voigt Hill
#
# Bulk Modulus (GPa) = 46.37416 110.75259 78.56337
# Shear Modulus (GPa) = 45.25067 67.24184 56.24626
#
# Velocity S-wave (km/s) = 4.28222 5.22007 4.77423
# Velocity P-wave (km/s) = 6.57591 9.01186 7.88848
#
# Compressibility (1/GPa) = 0.02156373
#
# Stress axis : x y z
#
# Youngs Moduli (GPa) = 80.46003 55.69664 212.10828
#
# Poissons Ratio (x) = 0.21169 0.37096
# Poissons Ratio (y) = 0.30580 0.25819
# Poissons Ratio (z) = 0.14072 0.06780
#
# Static dielectric constant tensor:
#      x y z
#    x 2.045570 0.016020 -0.009720 
#    y 0.016020 1.962820 0.045500 
#    z -0.009720 0.045500 1.861000 
# 
# From -- ./inp_files/95834.got.cif
#   From: 2010.05.17/outbox.cif.g08.bks.cpg/sg2_48_cif.got.tgz:95834.got - 2010.06.03 11:33:40.
