data_PCOD9071676
_publ_section_title
;
Structure prediction by ZEFSAII (Michael W. Deem and Ramdas Pophale) SiO2 
 PCOD9071676
Probable space group: P -1
;
_chemical_formula_sum "Si O2"
_cell_formula_units_Z 16
_cell_length_a 12.014214
_cell_length_b 7.157957
_cell_length_c 11.831070
_cell_angle_alpha 91.639098
_cell_angle_beta 145.215105
_cell_angle_gamma 89.956752
_cell_volume 579.747206
_symmetry_space_group_name_H-M "P -1"
_symmetry_group_IT_number 2
_symmetry_cell_setting 'triclinic'
loop_
_space_group_symop_operation_xyz
x,y,z
-x,-y,-z
loop_
_atom_site_type_symbol
_atom_site_label
_atom_site_fract_x
_atom_site_fract_y
_atom_site_fract_z
Si Si1 0.802286 0.306361 0.932216
Si Si2 0.249521 0.221185 0.623973
Si Si3 0.672549 0.345458 0.053953
Si Si4 0.544860 0.236755 0.420880
Si Si5 0.366227 0.203783 0.489185
Si Si6 0.558529 0.164349 0.181308
Si Si7 0.155549 0.234186 0.780287
Si Si8 0.047511 0.692541 0.167985
O O1 0.576458 0.293709 0.705009
O O2 0.916955 0.211070 0.923353
O O3 0.782237 0.237409 0.043369
O O4 0.903601 0.512737 0.027361
O O5 0.216467 0.258479 0.464301
O O6 0.094879 0.228408 0.597443
O O7 0.323477 0.011757 0.687235
O O8 0.443545 0.341415 0.827082
O O9 0.671793 0.273421 0.179318
O O10 0.766156 0.552463 0.135926
O O11 0.364271 0.255439 0.356015
O O12 0.509519 0.264912 0.260021
O O13 0.733545 0.363041 0.615740
O O14 0.609526 0.021470 0.489215
O O15 0.346968 0.112637 0.950417
O O16 0.020164 0.196626 0.775175
#
# Coordination Sequence:
#
# PCOD9071676 Si02
#       8
#     2   2   2   2   2   2   2   2
#     4   8  15  29  50  68  88 125 167 192 225 288
#     4   9  16  28  49  71  93 125 167 200 229 282
#     4   9  16  28  49  71  93 125 167 200 229 282
#     4   9  17  30  49  72  95 124 161 200 242 287
#     4   8  15  29  50  68  88 125 167 192 225 288
#     4  10  18  29  48  72  97 126 162 201 238 284
#     4  10  18  29  48  72  97 126 162 201 238 284
#     4   9  17  30  49  72  95 124 161 200 242 287
#
# _framework density 27.598237000000001
#
# number of rings (size 3 to 8) (size 9 to 14) (size 15 to 20)
#    0.000    3.000    0.000    3.000    0.000    0.000 
#    0.000    5.000    0.000   75.000    0.000   10.500 
#    0.000    0.000    0.000    0.000    0.000    0.000 
#
# Total GULP energy -89351.138349 kJ/mol
# GULP energy per Si atom -5584.446147 kJ/mol
# Density = 2.753542 g / cm^3
# Si number density = 27.598237 Si / 1000 Ang^3
#
#
#
# Elastic Constant Matrix: (Units=GPa)
#
#
# Indices 1 2 3 4 5 6 
#
# 1 293.1797 41.6382 61.6791 -17.0007 -78.9098 22.3511
# 2 41.6382 63.0757 25.1443 -6.4109 -29.0264 21.8024
# 3 61.6791 25.1443 87.7651 7.6598 -3.4120 7.0942
# 4 -17.0007 -6.4109 7.6598 23.5808 3.9409 -7.8580
# 5 -78.9098 -29.0264 -3.4120 3.9409 60.2875 -3.2235
# 6 22.3511 21.8024 7.0942 -7.8580 -3.2235 30.4485
#
#
#
# Elastic Compliance Matrix: (Units=1/GPa)
#
#
# Indices 1 2 3 4 5 6 
#
# 1 0.008100 0.005465 -0.006834 0.005673 0.012182 -0.005514
# 2 0.005465 0.035637 -0.011891 0.006206 0.022012 -0.022827
# 3 -0.006834 -0.011891 0.019671 -0.010840 -0.012591 0.004818
# 4 0.005673 0.006206 -0.010840 0.053378 0.006760 0.008409
# 5 0.012182 0.022012 -0.012591 0.006760 0.041137 -0.015670
# 6 -0.005514 -0.022827 0.004818 0.008409 -0.015670 0.052624
#
#
# Mechanical properties :
#
#
# Convention : Reuss Voigt Hill
#
# Bulk Modulus (GPa) = 27.10934 77.88262 52.49598
# Shear Modulus (GPa) = 20.05089 43.90062 31.97576
#
# Velocity S-wave (km/s) = 2.69834 3.99269 3.40754
# Velocity P-wave (km/s) = 4.42179 7.03824 5.87746
#
# Compressibility (1/GPa) = 0.03688765
#
# Stress axis : x y z
#
# Youngs Moduli (GPa) = 123.44917 28.06041 50.83600
#
# Poissons Ratio (x) = -0.15336 0.34744
# Poissons Ratio (y) = -0.67468 0.60451
# Poissons Ratio (z) = 0.84370 0.33368
#
# Static dielectric constant tensor:
#      x y z
#    x 2.227770 -0.061580 -0.046470 
#    y -0.061580 2.158510 0.007640 
#    z -0.046470 0.007640 2.155980 
# 
# From -- ./inp_files/415021.got.cif
#   From: 2010.05.17/outbox.cif.g08.bks.cpg/sg2_208_cif.got.tgz:415021.got - 2010.06.03 11:33:40.
