data_PCOD9071701
_publ_section_title
;
Structure prediction by ZEFSAII (Michael W. Deem and Ramdas Pophale) SiO2 
 PCOD9071701
Probable space group: P -1
;
_chemical_formula_sum "Si O2"
_cell_formula_units_Z 16
_cell_length_a 13.529171
_cell_length_b 8.437614
_cell_length_c 7.109286
_cell_angle_alpha 121.451499
_cell_angle_beta 78.089039
_cell_angle_gamma 86.725001
_cell_volume 664.078295
_symmetry_space_group_name_H-M "P -1"
_symmetry_group_IT_number 2
_symmetry_cell_setting 'triclinic'
loop_
_space_group_symop_operation_xyz
x,y,z
-x,-y,-z
loop_
_atom_site_type_symbol
_atom_site_label
_atom_site_fract_x
_atom_site_fract_y
_atom_site_fract_z
Si Si1 0.852328 0.565263 0.383413
Si Si2 0.635804 0.522765 0.513922
Si Si3 0.983123 0.222881 0.649655
Si Si4 0.815716 0.574092 0.946176
Si Si5 0.569395 0.061966 0.728379
Si Si6 0.984039 0.790213 0.929280
Si Si7 0.392633 0.291244 0.752956
Si Si8 0.429563 0.805772 0.808474
O O1 0.744459 0.581201 0.541060
O O2 0.926114 0.715418 0.468117
O O3 0.828082 0.576111 0.173258
O O4 0.923889 0.365794 0.287962
O O5 0.615737 0.562223 0.322337
O O6 0.536848 0.658117 0.724632
O O7 0.634395 0.300126 0.374732
O O8 0.875537 0.364481 0.734074
O O9 0.998422 0.252410 0.882558
O O10 0.000000 0.000000 0.500000
O O11 0.693197 0.630967 0.012103
O O12 0.874193 0.724430 0.914667
O O13 0.508235 0.242194 0.754296
O O14 0.627159 0.901033 0.465398
O O15 0.474310 0.970200 0.788668
O O16 0.624629 0.116259 0.927016
O O17 0.000000 0.000000 0.000000
#
# Coordination Sequence:
#
# PCOD9071701 Si02
#       8
#     2   2   2   2   2   2   2   2
#     4   8  16  32  51  70  99 137 167 198 248 310
#     4   9  17  32  51  69  98 136 169 204 252 301
#     4   9  17  33  54  73  99 132 168 208 252 304
#     4   8  16  32  50  69 100 136 164 199 250 307
#     4   9  18  32  50  73  99 130 169 211 250 298
#     4   9  17  31  50  72  99 130 162 198 247 301
#     4   9  17  32  51  70  97 133 169 206 248 297
#     4   9  18  32  49  72 101 131 165 210 258 297
#
# _framework density 24.093541999999999
#
# number of rings (size 3 to 8) (size 9 to 14) (size 15 to 20)
#    0.000    3.250    0.000    1.500    0.000    1.500 
#    0.000   23.750    0.000    0.000    0.000    0.000 
#    0.000    0.000    0.000    0.000    0.000    0.000 
#
# Total GULP energy -89188.917649 kJ/mol
# GULP energy per Si atom -5574.307353 kJ/mol
# Density = 2.403870 g / cm^3
# Si number density = 24.093542 Si / 1000 Ang^3
#
#
#
# Elastic Constant Matrix: (Units=GPa)
#
#
# Indices 1 2 3 4 5 6 
#
# 1 71.9519 26.9330 20.7192 7.6559 -26.7626 14.3412
# 2 26.9330 105.9783 24.6498 15.2305 -12.1405 9.1428
# 3 20.7192 24.6498 86.3503 -8.3494 -14.9788 11.3718
# 4 7.6559 15.2305 -8.3494 44.3065 -3.8559 9.9081
# 5 -26.7626 -12.1405 -14.9788 -3.8559 26.9150 -8.5152
# 6 14.3412 9.1428 11.3718 9.9081 -8.5152 15.8259
#
#
#
# Elastic Compliance Matrix: (Units=1/GPa)
#
#
# Indices 1 2 3 4 5 6 
#
# 1 0.024344 -0.003155 -0.000125 0.000821 0.019637 -0.010096
# 2 -0.003155 0.011468 -0.003056 -0.004215 0.000083 0.001114
# 3 -0.000125 -0.003056 0.015382 0.006826 0.004556 -0.010996
# 4 0.000821 -0.004215 0.006826 0.030094 0.000058 -0.022024
# 5 0.019637 0.000083 0.004556 0.000058 0.063354 0.012935
# 6 -0.010096 0.001114 -0.010996 -0.022024 0.012935 0.100342
#
#
# Mechanical properties :
#
#
# Convention : Reuss Voigt Hill
#
# Bulk Modulus (GPa) = 25.96032 45.43160 35.69596
# Shear Modulus (GPa) = 18.48450 30.20804 24.34627
#
# Velocity S-wave (km/s) = 2.77284 3.54472 3.18227
# Velocity P-wave (km/s) = 4.58800 5.97082 5.32449
#
# Compressibility (1/GPa) = 0.03852032
#
# Stress axis : x y z
#
# Youngs Moduli (GPa) = 41.07754 87.20099 65.01205
#
# Poissons Ratio (x) = 0.27513 0.00814
# Poissons Ratio (y) = 0.12960 0.19870
# Poissons Ratio (z) = 0.00514 0.26652
#
# Static dielectric constant tensor:
#      x y z
#    x 2.014430 0.027730 0.147090 
#    y 0.027730 1.960980 0.051930 
#    z 0.147090 0.051930 2.276880 
# 
# From -- ./inp_files/299641.got.cif
#   From: 2010.05.17/outbox.cif.g08.bks.cpg/sg2_150_cif.got.tgz:299641.got - 2010.06.03 11:33:40.
