data_PCOD9071349
_publ_section_title
;
Structure prediction by ZEFSAII (Michael W. Deem and Ramdas Pophale) SiO2 
 PCOD9071349
Probable space group: P -1
;
_chemical_formula_sum "Si O2"
_cell_formula_units_Z 14
_cell_length_a 11.672238
_cell_length_b 5.309076
_cell_length_c 14.628219
_cell_angle_alpha 77.058211
_cell_angle_beta 40.967785
_cell_angle_gamma 85.006523
_cell_volume 574.434161
_symmetry_space_group_name_H-M "P -1"
_symmetry_group_IT_number 2
_symmetry_cell_setting 'triclinic'
loop_
_space_group_symop_operation_xyz
x,y,z
-x,-y,-z
loop_
_atom_site_type_symbol
_atom_site_label
_atom_site_fract_x
_atom_site_fract_y
_atom_site_fract_z
Si Si1 0.875460 0.499438 0.382236
Si Si2 0.516334 0.448124 0.684919
Si Si3 0.132079 0.139603 0.332973
Si Si4 0.150710 0.931697 0.135078
Si Si5 0.650654 0.237036 0.379772
Si Si6 0.521352 0.147455 0.173632
Si Si7 0.980380 0.209414 0.072132
O O1 0.724485 0.558535 0.538613
O O2 0.762336 0.297813 0.399414
O O3 0.035399 0.386247 0.344543
O O4 0.974220 0.729415 0.243403
O O5 0.424048 0.512941 0.640155
O O6 0.441034 0.626689 0.792294
O O7 0.495064 0.144404 0.749168
O O8 0.330273 0.185922 0.245950
O O9 0.147998 0.989526 0.239517
O O10 0.000000 0.000000 0.500000
O O11 0.326838 0.836584 0.996443
O O12 0.116700 0.178088 0.074366
O O13 0.786867 0.151636 0.232747
O O14 0.500000 0.000000 0.500000
O O15 0.000000 0.500000 0.000000
O O16 0.000000 0.000000 0.000000
#
# Coordination Sequence:
#
# PCOD9071349 Si02
#       7
#     2   2   2   2   2   2   2
#     4  12  27  49  80 113 161 210 267 331 402 465
#     4  12  27  50  77 116 160 208 267 324 399 472
#     4  12  27  52  82 113 161 211 270 330 392 471
#     4  12  28  49  78 120 158 208 271 325 400 474
#     4  12  26  49  78 117 155 207 266 331 393 475
#     4  12  29  50  81 117 159 210 264 327 394 473
#     4  12  26  48  77 113 162 207 251 320 400 474
#
# _framework density 24.37181
#
# number of rings (size 3 to 8) (size 9 to 14) (size 15 to 20)
#    0.000    0.000    2.857    6.000    4.000    4.000 
#    0.000    0.000    0.000    0.000    0.000    0.000 
#    0.000    0.000    0.000    0.000    0.000    0.000 
#
# Total GULP energy -78486.763417 kJ/mol
# GULP energy per Si atom -5606.197387 kJ/mol
# Density = 2.431634 g / cm^3
# Si number density = 24.371810 Si / 1000 Ang^3
#
#
#
# Elastic Constant Matrix: (Units=GPa)
#
#
# Indices 1 2 3 4 5 6 
#
# 1 116.6507 42.0013 36.1886 -3.3344 6.5369 -9.6574
# 2 42.0013 121.6788 53.6515 -0.4935 11.9861 -16.6992
# 3 36.1886 53.6515 209.5396 22.1741 -7.5658 3.2217
# 4 -3.3344 -0.4935 22.1741 50.0609 2.7184 0.3678
# 5 6.5369 11.9861 -7.5658 2.7184 45.5429 8.3297
# 6 -9.6574 -16.6992 3.2217 0.3678 8.3297 42.7191
#
#
#
# Elastic Compliance Matrix: (Units=1/GPa)
#
#
# Indices 1 2 3 4 5 6 
#
# 1 0.010151 -0.002558 -0.001310 0.001294 -0.001381 0.001652
# 2 -0.002558 0.011444 -0.002859 0.001395 -0.004099 0.004898
# 3 -0.001310 -0.002859 0.006175 -0.002973 0.002575 -0.002356
# 4 0.001294 0.001395 -0.002973 0.021523 -0.002584 0.001381
# 5 -0.001381 -0.004099 0.002575 -0.002584 0.025093 -0.006979
# 6 0.001652 0.004898 -0.002356 0.001381 -0.006979 0.027223
#
#
# Mechanical properties :
#
#
# Convention : Reuss Voigt Hill
#
# Bulk Modulus (GPa) = 69.86262 79.06133 74.46197
# Shear Modulus (GPa) = 41.72388 48.73310 45.22849
#
# Velocity S-wave (km/s) = 4.14209 4.47650 4.31254
# Velocity P-wave (km/s) = 7.18355 7.69603 7.44420
#
# Compressibility (1/GPa) = 0.01431381
#
# Stress axis : x y z
#
# Youngs Moduli (GPa) = 98.50860 87.38388 161.95492
#
# Poissons Ratio (x) = 0.22356 0.21222
# Poissons Ratio (y) = 0.25202 0.46307
# Poissons Ratio (z) = 0.12908 0.24985
#
# Static dielectric constant tensor:
#      x y z
#    x 1.951690 -0.032620 0.054840 
#    y -0.032620 1.912140 0.012320 
#    z 0.054840 0.012320 1.970200 
# 
# From -- ./inp_files/510793.got.cif
#   From: 2010.05.17/outbox.cif.g08.bks.cpg/sg2_256_cif.got.tgz:510793.got - 2010.06.03 11:33:40.
