data_PCOD9071045
_publ_section_title
;
Structure prediction by ZEFSAII (Michael W. Deem and Ramdas Pophale) SiO2 
 PCOD9071045
Probable space group: P -1
;
_chemical_formula_sum "Si O2"
_cell_formula_units_Z 14
_cell_length_a 18.496200
_cell_length_b 9.127868
_cell_length_c 8.160725
_cell_angle_alpha 110.698000
_cell_angle_beta 59.293984
_cell_angle_gamma 149.908129
_cell_volume 581.338953
_symmetry_space_group_name_H-M "P -1"
_symmetry_group_IT_number 2
_symmetry_cell_setting 'triclinic'
loop_
_space_group_symop_operation_xyz
x,y,z
-x,-y,-z
loop_
_atom_site_type_symbol
_atom_site_label
_atom_site_fract_x
_atom_site_fract_y
_atom_site_fract_z
Si Si1 0.288376 0.640237 0.406575
Si Si2 0.662963 0.841640 0.882234
Si Si3 0.176816 0.798345 0.482759
Si Si4 0.161043 0.333126 0.774795
Si Si5 0.326130 0.289046 0.668152
Si Si6 0.397384 0.890016 0.914076
Si Si7 0.200172 0.206241 0.104994
O O1 0.235451 0.716528 0.413088
O O2 0.208830 0.496669 0.617318
O O3 0.244872 0.419437 0.258391
O O4 0.479810 0.951571 0.311545
O O5 0.800146 0.954708 0.853699
O O6 0.714590 0.936788 0.670808
O O7 0.500000 0.500000 0.000000
O O8 0.644569 0.994810 0.004169
O O9 0.000000 0.500000 0.500000
O O10 0.203996 0.948324 0.670483
O O11 0.247838 0.302185 0.655136
O O12 0.236197 0.540045 0.926361
O O13 0.969844 0.027058 0.872990
O O14 0.500000 0.500000 0.500000
O O15 0.326831 0.369755 0.878666
O O16 0.500000 0.000000 0.000000
#
# Coordination Sequence:
#
# PCOD9071045 Si02
#       7
#     2   2   2   2   2   2   2
#     4  12  25  49  76 110 154 206 258 319 389 465
#     4  12  26  47  79 110 155 208 260 311 393 472
#     4  12  27  47  76 111 156 199 258 325 385 456
#     4  12  28  48  78 114 156 204 264 325 389 466
#     4  12  28  47  74 114 156 203 260 318 392 468
#     4  12  26  47  77 109 154 204 259 320 386 462
#     4  12  27  49  80 112 158 207 258 323 398 459
#
# _framework density 24.082336000000002
#
# number of rings (size 3 to 8) (size 9 to 14) (size 15 to 20)
#    0.000    0.000    2.857    6.429    6.000    0.571 
#    0.000    0.000    0.000    0.000    0.000    0.000 
#    0.000    0.000    0.000    0.000    0.000    0.000 
#
# Total GULP energy -78349.520855 kJ/mol
# GULP energy per Si atom -5596.394347 kJ/mol
# Density = 2.402752 g / cm^3
# Si number density = 24.082336 Si / 1000 Ang^3
#
#
#
# Elastic Constant Matrix: (Units=GPa)
#
#
# Indices 1 2 3 4 5 6 
#
# 1 208.6621 66.3279 42.5236 12.7675 -24.3137 -12.8834
# 2 66.3279 149.1843 31.2238 7.7337 -14.6999 11.4812
# 3 42.5236 31.2238 72.0034 -1.3708 10.6811 -4.1537
# 4 12.7675 7.7337 -1.3708 38.2829 -7.3923 -5.7157
# 5 -24.3137 -14.6999 10.6811 -7.3923 44.7267 2.8712
# 6 -12.8834 11.4812 -4.1537 -5.7157 2.8712 46.3059
#
#
#
# Elastic Compliance Matrix: (Units=1/GPa)
#
#
# Indices 1 2 3 4 5 6 
#
# 1 0.006732 -0.001968 -0.003577 -0.001031 0.003589 0.001690
# 2 -0.001968 0.008846 -0.003281 -0.001241 0.002632 -0.003351
# 3 -0.003577 -0.003281 0.018669 0.001416 -0.007384 0.002126
# 4 -0.001031 -0.001241 0.001416 0.027869 0.003082 0.003397
# 5 0.003589 0.002632 -0.007384 0.003082 0.027552 -0.001644
# 6 0.001690 -0.003351 0.002126 0.003397 -0.001644 0.023609
#
#
# Mechanical properties :
#
#
# Convention : Reuss Voigt Hill
#
# Bulk Modulus (GPa) = 60.25951 78.88896 69.57423
# Shear Modulus (GPa) = 36.64058 45.18140 40.91099
#
# Velocity S-wave (km/s) = 3.90484 4.33612 4.12612
# Velocity P-wave (km/s) = 6.73847 7.60910 7.18698
#
# Compressibility (1/GPa) = 0.01659489
#
# Stress axis : x y z
#
# Youngs Moduli (GPa) = 148.53363 113.04201 53.56563
#
# Poissons Ratio (x) = 0.22243 0.19162
# Poissons Ratio (y) = 0.29226 0.17577
# Poissons Ratio (z) = 0.53134 0.37094
#
# Static dielectric constant tensor:
#      x y z
#    x 1.941970 0.003250 0.060780 
#    y 0.003250 1.932430 0.021580 
#    z 0.060780 0.021580 2.032560 
# 
# From -- ./inp_files/329285.got.cif
#   From: 2010.05.17/outbox.cif.g08.bks.cpg/sg2_165_cif.got.tgz:329285.got - 2010.06.03 11:33:40.
