data_PCOD9071708
_publ_section_title
;
Structure prediction by ZEFSAII (Michael W. Deem and Ramdas Pophale) SiO2 
 PCOD9071708
Probable space group: P -1
;
_chemical_formula_sum "Si O2"
_cell_formula_units_Z 16
_cell_length_a 6.495440
_cell_length_b 18.607582
_cell_length_c 18.436777
_cell_angle_alpha 164.132310
_cell_angle_beta 93.734198
_cell_angle_gamma 83.846539
_cell_volume 599.817043
_symmetry_space_group_name_H-M "P -1"
_symmetry_group_IT_number 2
_symmetry_cell_setting 'triclinic'
loop_
_space_group_symop_operation_xyz
x,y,z
-x,-y,-z
loop_
_atom_site_type_symbol
_atom_site_label
_atom_site_fract_x
_atom_site_fract_y
_atom_site_fract_z
Si Si1 0.033778 0.815916 0.227814
Si Si2 0.489530 0.370466 0.060469
Si Si3 0.432690 0.179503 0.406499
Si Si4 0.086372 0.872676 0.687629
Si Si5 0.230611 0.643754 0.204809
Si Si6 0.004562 0.414403 0.147555
Si Si7 0.701981 0.744397 0.681435
Si Si8 0.219874 0.799900 0.777926
O O1 0.216786 0.775448 0.252697
O O2 0.916142 0.122092 0.524650
O O3 0.868373 0.627767 0.067696
O O4 0.097971 0.687703 0.026859
O O5 0.609625 0.532708 0.277045
O O6 0.446504 0.543749 0.154048
O O7 0.248610 0.389840 0.102510
O O8 0.570188 0.056858 0.765189
O O9 0.675623 0.157051 0.365206
O O10 0.317442 0.153474 0.302353
O O11 0.970392 0.702890 0.464103
O O12 0.104158 0.769542 0.669918
O O13 0.004197 0.185421 0.984804
O O14 0.462153 0.772563 0.730747
O O15 0.788629 0.435034 0.393549
O O16 0.813386 0.918783 0.908863
#
# Coordination Sequence:
#
# PCOD9071708 Si02
#       8
#     2   2   2   2   2   2   2   2
#     4   9  15  21  27  33  39  44  48  53  59  65
#     4   9  14  20  26  32  38  43  49  54  59  65
#     4   9  15  20  26  32  37  43  49  55  60  65
#     4   9  15  20  26  32  37  43  49  55  60  65
#     4   9  15  21  27  33  39  44  48  53  59  65
#     4   9  14  20  26  32  38  43  49  54  59  65
#     4   9  15  21  26  31  37  43  49  55  61  66
#     4   9  15  21  26  31  37  43  49  55  61  66
#
# _framework density 26.674800000000001
#
# number of rings (size 3 to 8) (size 9 to 14) (size 15 to 20)
#    0.000    3.000    0.000    5.250    0.000    6.000 
#    0.000    0.000    0.000    0.000    0.000    0.000 
#    0.000    0.000    0.000    0.000    0.000    0.000 
#
# Total GULP energy -89517.383119 kJ/mol
# GULP energy per Si atom -5594.836445 kJ/mol
# Density = 2.661409 g / cm^3
# Si number density = 26.674800 Si / 1000 Ang^3
#
#
#
# Elastic Constant Matrix: (Units=GPa)
#
#
# Indices 1 2 3 4 5 6 
#
# 1 53.0151 15.9154 12.7102 -11.8004 -0.3300 0.8070
# 2 15.9154 174.0524 61.2702 -7.9898 1.5561 -17.9027
# 3 12.7102 61.2702 162.1560 4.5167 -18.5848 -5.7904
# 4 -11.8004 -7.9898 4.5167 44.3981 -6.6665 0.2687
# 5 -0.3300 1.5561 -18.5848 -6.6665 45.8371 -12.5597
# 6 0.8070 -17.9027 -5.7904 0.2687 -12.5597 36.9677
#
#
#
# Elastic Compliance Matrix: (Units=1/GPa)
#
#
# Indices 1 2 3 4 5 6 
#
# 1 0.020810 -0.001324 -0.001319 0.005449 0.000094 -0.001310
# 2 -0.001324 0.007123 -0.002548 0.001125 -0.000308 0.002966
# 3 -0.001319 -0.002548 0.007688 -0.001095 0.003349 0.001145
# 4 0.005449 0.001125 -0.001095 0.024805 0.003512 0.001267
# 5 0.000094 -0.000308 0.003349 0.003512 0.026233 0.009260
# 6 -0.001310 0.002966 0.001145 0.001267 0.009260 0.031832
#
#
# Mechanical properties :
#
#
# Convention : Reuss Voigt Hill
#
# Bulk Modulus (GPa) = 39.62160 63.22391 51.42275
# Shear Modulus (GPa) = 36.42015 45.39578 40.90797
#
# Velocity S-wave (km/s) = 3.69906 4.12979 3.92034
# Velocity P-wave (km/s) = 5.75585 6.81861 6.30965
#
# Compressibility (1/GPa) = 0.02523876
#
# Stress axis : x y z
#
# Youngs Moduli (GPa) = 48.05495 140.38892 130.06759
#
# Poissons Ratio (x) = 0.18589 0.17151
# Poissons Ratio (y) = 0.06363 0.33146
# Poissons Ratio (z) = 0.06337 0.35776
#
# Static dielectric constant tensor:
#      x y z
#    x 2.391050 -0.068870 -0.012820 
#    y -0.068870 2.047650 -0.023150 
#    z -0.012820 -0.023150 1.911520 
# 
# From -- ./inp_files/618820.got.cif
#   From: 2010.05.17/outbox.cif.g08.bks.cpg/sg2_310_cif.got.tgz:618820.got - 2010.06.03 11:33:40.
