data_PCOD9071379
_publ_section_title
;
Structure prediction by ZEFSAII (Michael W. Deem and Ramdas Pophale) SiO2 
 PCOD9071379
Probable space group: P -1
;
_chemical_formula_sum "Si O2"
_cell_formula_units_Z 12
_cell_length_a 10.050932
_cell_length_b 5.337006
_cell_length_c 11.381065
_cell_angle_alpha 120.525538
_cell_angle_beta 68.196993
_cell_angle_gamma 111.963704
_cell_volume 474.973632
_symmetry_space_group_name_H-M "P -1"
_symmetry_group_IT_number 2
_symmetry_cell_setting 'triclinic'
loop_
_space_group_symop_operation_xyz
x,y,z
-x,-y,-z
loop_
_atom_site_type_symbol
_atom_site_label
_atom_site_fract_x
_atom_site_fract_y
_atom_site_fract_z
Si Si1 0.139131 0.695875 0.570089
Si Si2 0.615036 0.189878 0.677607
Si Si3 0.779069 0.313701 0.868152
Si Si4 0.550813 0.330872 0.116975
Si Si5 0.622242 0.351475 0.366349
Si Si6 0.956514 0.919497 0.860632
O O1 0.267987 0.814446 0.462434
O O2 0.221809 0.524467 0.594919
O O3 0.000000 0.500000 0.500000
O O4 0.085297 0.934196 0.726334
O O5 0.680899 0.092083 0.752954
O O6 0.584253 0.511940 0.791295
O O7 0.452233 0.993469 0.659945
O O8 0.882247 0.565773 0.814546
O O9 0.858344 0.131659 0.888390
O O10 0.675492 0.479189 0.017566
O O11 0.623597 0.355358 0.226994
O O12 0.500000 0.000000 0.000000
O O13 0.500000 0.500000 0.500000
O O14 0.000000 0.000000 0.000000
#
# Coordination Sequence:
#
# PCOD9071379 Si02
#       6
#     2   2   2   2   2   2
#     4  12  28  51  79 115 165 211 265 338 411 487
#     4  12  27  49  79 121 157 210 276 336 406 485
#     4  12  27  48  83 115 159 215 271 334 404 483
#     4  12  26  48  82 115 162 209 278 339 404 478
#     4  12  28  49  81 118 158 210 277 334 408 484
#     4  12  29  52  79 118 164 213 273 330 414 490
#
# _framework density 25.264558999999998
#
# number of rings (size 3 to 8) (size 9 to 14) (size 15 to 20)
#    0.000    0.000    5.000    3.500    7.000    2.000 
#    0.000    0.000    0.000    0.000    0.000    0.000 
#    0.000    0.000    0.000    0.000    0.000    0.000 
#
# Total GULP energy -67169.011781 kJ/mol
# GULP energy per Si atom -5597.417648 kJ/mol
# Density = 2.520706 g / cm^3
# Si number density = 25.264559 Si / 1000 Ang^3
#
#
#
# Elastic Constant Matrix: (Units=GPa)
#
#
# Indices 1 2 3 4 5 6 
#
# 1 175.0178 26.1828 70.5391 -7.4424 30.8965 -13.4634
# 2 26.1828 84.1207 25.8112 -8.4114 -0.4870 -11.8228
# 3 70.5391 25.8112 205.8905 -32.1841 8.1287 -4.0228
# 4 -7.4424 -8.4114 -32.1841 51.4136 -2.5485 -1.8498
# 5 30.8965 -0.4870 8.1287 -2.5485 59.2246 -10.7032
# 6 -13.4634 -11.8228 -4.0228 -1.8498 -10.7032 28.5131
#
#
#
# Elastic Compliance Matrix: (Units=1/GPa)
#
#
# Indices 1 2 3 4 5 6 
#
# 1 0.007568 -0.001552 -0.002356 -0.000759 -0.003443 0.001256
# 2 -0.001552 0.013632 -0.000874 0.001771 0.002151 0.005719
# 3 -0.002356 -0.000874 0.006294 0.003473 0.000474 -0.000183
# 4 -0.000759 0.001771 0.003473 0.021974 0.001388 0.002813
# 5 -0.003443 0.002151 0.000474 0.001388 0.019942 0.006909
# 6 0.001256 0.005719 -0.000183 0.002813 0.006909 0.040786
#
#
# Mechanical properties :
#
#
# Convention : Reuss Voigt Hill
#
# Bulk Modulus (GPa) = 55.77083 78.89949 67.33516
# Shear Modulus (GPa) = 39.76569 50.66331 45.21450
#
# Velocity S-wave (km/s) = 3.97163 4.48293 4.23500
# Velocity P-wave (km/s) = 6.56921 7.62185 7.11502
#
# Compressibility (1/GPa) = 0.01793052
#
# Stress axis : x y z
#
# Youngs Moduli (GPa) = 132.14059 73.35644 158.87242
#
# Poissons Ratio (x) = 0.11383 0.37436
# Poissons Ratio (y) = 0.20505 0.13880
# Poissons Ratio (z) = 0.31137 0.06409
#
# Static dielectric constant tensor:
#      x y z
#    x 2.059890 0.056620 0.026030 
#    y 0.056620 2.164650 0.064960 
#    z 0.026030 0.064960 1.989770 
# 
# From -- ./inp_files/83060.got.cif
#   From: 2010.05.17/outbox.cif.g08.bks.cpg/sg2_42_cif.got.tgz:83060.got - 2010.06.03 11:33:40.
