data_PCOD9071600
_publ_section_title
;
Structure prediction by ZEFSAII (Michael W. Deem and Ramdas Pophale) SiO2 
 PCOD9071600
Probable space group: P -1
;
_chemical_formula_sum "Si O2"
_cell_formula_units_Z 10
_cell_length_a 4.815877
_cell_length_b 7.844266
_cell_length_c 16.443504
_cell_angle_alpha 134.060595
_cell_angle_beta 53.994928
_cell_angle_gamma 116.668534
_cell_volume 360.255149
_symmetry_space_group_name_H-M "P -1"
_symmetry_group_IT_number 2
_symmetry_cell_setting 'triclinic'
loop_
_space_group_symop_operation_xyz
x,y,z
-x,-y,-z
loop_
_atom_site_type_symbol
_atom_site_label
_atom_site_fract_x
_atom_site_fract_y
_atom_site_fract_z
Si Si1 0.137957 0.525651 0.893030
Si Si2 0.180523 0.146398 0.627995
Si Si3 0.337624 0.152188 0.277702
Si Si4 0.347357 0.169462 0.005975
Si Si5 0.155297 0.530042 0.622244
O O1 0.266971 0.308001 0.747032
O O2 0.281890 0.753309 0.730907
O O3 0.000000 0.500000 0.000000
O O4 0.806105 0.592594 0.922296
O O5 0.089785 0.311096 0.622175
O O6 0.500000 0.000000 0.500000
O O7 0.873989 0.960300 0.647507
O O8 0.500000 0.500000 0.500000
O O9 0.145290 0.375598 0.349771
O O10 0.377597 0.942591 0.137436
O O11 0.554202 0.263388 0.081642
O O12 0.000000 0.000000 0.000000
#
# Coordination Sequence:
#
# PCOD9071600 Si02
#       5
#     2   2   2   2   2
#     4  12  27  52  80 117 164 213 280 335 412 505
#     4  12  29  52  86 119 166 225 273 345 422 484
#     4  12  28  53  82 120 165 215 278 346 415 493
#     4  12  27  52  82 117 165 214 273 350 416 487
#     4  12  28  52  79 122 165 213 282 337 413 511
#
# _framework density 27.758106000000002
#
# number of rings (size 3 to 8) (size 9 to 14) (size 15 to 20)
#    0.000    0.000    4.000    4.200    0.000    7.200 
#    0.000    0.000    0.000    0.000    0.000    0.000 
#    0.000    0.000    0.000    0.000    0.000    0.000 
#
# Total GULP energy -56113.869996 kJ/mol
# GULP energy per Si atom -5611.387000 kJ/mol
# Density = 2.769493 g / cm^3
# Si number density = 27.758106 Si / 1000 Ang^3
#
#
#
# Elastic Constant Matrix: (Units=GPa)
#
#
# Indices 1 2 3 4 5 6 
#
# 1 148.1183 63.6873 36.9180 -7.8845 2.3809 -4.0801
# 2 63.6873 176.4619 37.6933 -28.0117 -17.1611 19.2364
# 3 36.9180 37.6933 186.2735 4.2872 -21.1697 -6.4885
# 4 -7.8845 -28.0117 4.2872 43.2489 4.1413 0.1432
# 5 2.3809 -17.1611 -21.1697 4.1413 64.1542 -2.4688
# 6 -4.0801 19.2364 -6.4885 0.1432 -2.4688 56.2088
#
#
#
# Elastic Compliance Matrix: (Units=1/GPa)
#
#
# Indices 1 2 3 4 5 6 
#
# 1 0.008441 -0.003147 -0.001144 -0.000251 -0.001459 0.001494
# 2 -0.003147 0.008285 -0.001096 0.004764 0.001543 -0.003135
# 3 -0.001144 -0.001096 0.006112 -0.001712 0.001918 0.001086
# 4 -0.000251 0.004764 -0.001712 0.026440 -0.001063 -0.001960
# 5 -0.001459 0.001543 0.001918 -0.001063 0.016769 0.000327
# 6 0.001494 -0.003135 0.001086 -0.001960 0.000327 0.019117
#
#
# Mechanical properties :
#
#
# Convention : Reuss Voigt Hill
#
# Bulk Modulus (GPa) = 82.89275 87.49453 85.19364
# Shear Modulus (GPa) = 50.02114 57.55941 53.79027
#
# Velocity S-wave (km/s) = 4.24965 4.55863 4.40685
# Velocity P-wave (km/s) = 7.34892 7.70045 7.52674
#
# Compressibility (1/GPa) = 0.01206378
#
# Stress axis : x y z
#
# Youngs Moduli (GPa) = 118.47339 120.70474 163.60411
#
# Poissons Ratio (x) = 0.37980 0.18719
# Poissons Ratio (y) = 0.37278 0.17936
# Poissons Ratio (z) = 0.13555 0.13233
#
# Static dielectric constant tensor:
#      x y z
#    x 2.071650 0.083680 0.017690 
#    y 0.083680 2.282050 -0.004340 
#    z 0.017690 -0.004340 2.226780 
# 
# From -- ./inp_files/324600.got.cif
#   From: 2010.05.17/outbox.cif.g08.bks.cpg/sg2_163_cif.got.tgz:324600.got - 2010.06.03 11:33:40.
