data_PCOD9071385
_publ_section_title
;
Structure prediction by ZEFSAII (Michael W. Deem and Ramdas Pophale) SiO2 
 PCOD9071385
Probable space group: P -1
;
_chemical_formula_sum "Si O2"
_cell_formula_units_Z 13
_cell_length_a 5.122386
_cell_length_b 11.604045
_cell_length_c 9.044054
_cell_angle_alpha 110.517326
_cell_angle_beta 98.499261
_cell_angle_gamma 102.966137
_cell_volume 475.303633
_symmetry_space_group_name_H-M "P -1"
_symmetry_group_IT_number 2
_symmetry_cell_setting 'triclinic'
loop_
_space_group_symop_operation_xyz
x,y,z
-x,-y,-z
loop_
_atom_site_type_symbol
_atom_site_label
_atom_site_fract_x
_atom_site_fract_y
_atom_site_fract_z
Si Si1 0.908917 0.172521 0.203287
Si Si2 0.379051 0.255456 0.519108
Si Si3 0.738844 0.568820 0.163564
Si Si4 0.500000 0.000000 0.500000
Si Si5 0.757784 0.917683 0.201851
Si Si6 0.719370 0.403671 0.373706
Si Si7 0.862324 0.236978 0.910769
O O1 0.719358 0.256812 0.281101
O O2 0.137379 0.187897 0.355135
O O3 0.776696 0.019619 0.117021
O O4 0.010565 0.236708 0.081871
O O5 0.294465 0.311975 0.687920
O O6 0.537949 0.153445 0.525657
O O7 0.528453 0.382214 0.492970
O O8 0.711620 0.460403 0.236253
O O9 0.012914 0.635587 0.118480
O O10 0.500000 0.500000 0.000000
O O11 0.292382 0.015210 0.622342
O O12 0.040547 0.877191 0.212578
O O13 0.464897 0.805764 0.107530
O O14 0.000000 0.500000 0.500000
#
# Coordination Sequence:
#
# PCOD9071385 Si02
#       7
#     2   2   2   1   2   2   2
#     4  12  28  51  82 114 164 215 271 345 424 500
#     4  12  27  53  80 120 162 215 280 341 425 496
#     4  12  29  52  81 118 170 221 280 342 409 500
#     4  12  26  48  88 114 164 200 278 340 420 480
#     4  12  28  51  82 121 164 212 276 348 427 489
#     4  12  28  49  80 115 159 219 277 336 411 501
#     4  12  30  51  82 121 169 213 279 345 418 495
#
# _framework density 27.350939
#
# number of rings (size 3 to 8) (size 9 to 14) (size 15 to 20)
#    0.000    0.000    4.615    3.231   10.769    1.846 
#    0.000    0.000    0.000    0.000    0.000    0.000 
#    0.000    0.000    0.000    0.000    0.000    0.000 
#
# Total GULP energy -72577.245268 kJ/mol
# GULP energy per Si atom -5582.865021 kJ/mol
# Density = 2.728869 g / cm^3
# Si number density = 27.350939 Si / 1000 Ang^3
#
#
#
# Elastic Constant Matrix: (Units=GPa)
#
#
# Indices 1 2 3 4 5 6 
#
# 1 73.7706 39.1843 27.4076 -14.1616 4.1845 10.8726
# 2 39.1843 206.6176 36.0736 -42.2480 2.7539 12.0478
# 3 27.4076 36.0736 132.4217 -31.5136 5.4418 7.9037
# 4 -14.1616 -42.2480 -31.5136 50.2434 -0.3763 -12.3056
# 5 4.1845 2.7539 5.4418 -0.3763 48.0724 0.7712
# 6 10.8726 12.0478 7.9037 -12.3056 0.7712 68.1225
#
#
#
# Elastic Compliance Matrix: (Units=1/GPa)
#
#
# Indices 1 2 3 4 5 6 
#
# 1 0.016154 -0.002410 -0.002404 0.000581 -0.000963 -0.001757
# 2 -0.002410 0.006236 -0.000129 0.004511 -0.000099 0.000113
# 3 -0.002404 -0.000129 0.009320 0.005116 -0.000802 0.000259
# 4 0.000581 0.004511 0.005116 0.027938 -0.000727 0.003571
# 5 -0.000963 -0.000099 -0.000802 -0.000727 0.020978 -0.000104
# 6 -0.001757 0.000113 0.000259 0.003571 -0.000104 0.015556
#
#
# Mechanical properties :
#
#
# Convention : Reuss Voigt Hill
#
# Bulk Modulus (GPa) = 45.82195 68.68235 57.25215
# Shear Modulus (GPa) = 44.11381 53.96395 49.03888
#
# Velocity S-wave (km/s) = 4.02043 4.44669 4.23892
# Velocity P-wave (km/s) = 6.19205 7.17844 6.70341
#
# Compressibility (1/GPa) = 0.02182360
#
# Stress axis : x y z
#
# Youngs Moduli (GPa) = 61.90472 160.34698 107.30087
#
# Poissons Ratio (x) = 0.38637 0.25797
# Poissons Ratio (y) = 0.14917 0.01389
# Poissons Ratio (z) = 0.14883 0.02075
#
# Static dielectric constant tensor:
#      x y z
#    x 2.043570 -0.184050 0.147310 
#    y -0.184050 2.431080 0.057570 
#    z 0.147310 0.057570 2.054110 
# 
# From -- ./inp_files/131035.got.cif
#   From: 2010.05.17/outbox.cif.g08.bks.cpg/sg2_66_cif.got.tgz:131035.got - 2010.06.03 11:33:40.
