data_PCOD9071160
_publ_section_title
;
Structure prediction by ZEFSAII (Michael W. Deem and Ramdas Pophale) SiO2 
 PCOD9071160
Probable space group: P -1
;
_chemical_formula_sum "Si O2"
_cell_formula_units_Z 10
_cell_length_a 7.017310
_cell_length_b 6.771535
_cell_length_c 8.635089
_cell_angle_alpha 59.297460
_cell_angle_beta 106.366713
_cell_angle_gamma 92.741442
_cell_volume 336.208536
_symmetry_space_group_name_H-M "P -1"
_symmetry_group_IT_number 2
_symmetry_cell_setting 'triclinic'
loop_
_space_group_symop_operation_xyz
x,y,z
-x,-y,-z
loop_
_atom_site_type_symbol
_atom_site_label
_atom_site_fract_x
_atom_site_fract_y
_atom_site_fract_z
Si Si1 0.216584 0.586098 0.977342
Si Si2 0.683097 0.843498 0.017705
Si Si3 0.356809 0.429458 0.402525
Si Si4 0.908111 0.891787 0.339483
Si Si5 0.651244 0.080078 0.585823
O O1 0.307798 0.576179 0.175842
O O2 0.303200 0.035825 0.190542
O O3 0.000000 0.500000 0.000000
O O4 0.195625 0.843207 0.799894
O O5 0.395866 0.641394 0.460198
O O6 0.673977 0.582107 0.061041
O O7 0.876595 0.826670 0.178146
O O8 0.500000 0.000000 0.000000
O O9 0.194951 0.303520 0.515371
O O10 0.420663 0.167192 0.421223
O O11 0.131907 0.899523 0.443638
#
# Coordination Sequence:
#
# PCOD9071160 Si02
#       5
#     2   2   2   2   2
#     4  12  28  54  89 126 171 232 294 354 440 527
#     4  12  26  53  84 128 176 233 287 362 437 528
#     4  12  29  55  85 129 173 229 297 364 437 524
#     4  12  29  56  88 124 178 229 290 370 436 517
#     4  12  25  53  83 125 175 222 296 359 431 530
#
# _framework density 29.743444
#
# number of rings (size 3 to 8) (size 9 to 14) (size 15 to 20)
#    0.000    0.000    6.000    1.800    2.800    4.800 
#    3.600    2.000    0.000    0.000    0.000    0.000 
#    0.000    0.000    0.000    0.000    0.000    0.000 
#
# Total GULP energy -56051.902472 kJ/mol
# GULP energy per Si atom -5605.190247 kJ/mol
# Density = 2.967575 g / cm^3
# Si number density = 29.743444 Si / 1000 Ang^3
#
#
#
# Elastic Constant Matrix: (Units=GPa)
#
#
# Indices 1 2 3 4 5 6 
#
# 1 172.2258 80.1190 119.5568 13.2985 -3.6146 31.3177
# 2 80.1190 297.4740 95.1495 2.9381 13.3844 24.3472
# 3 119.5568 95.1495 251.9459 41.6916 -6.5188 29.0176
# 4 13.2985 2.9381 41.6916 79.8755 4.5781 4.7819
# 5 -3.6146 13.3844 -6.5188 4.5781 48.9238 3.4756
# 6 31.3177 24.3472 29.0176 4.7819 3.4756 71.1305
#
#
#
# Elastic Compliance Matrix: (Units=1/GPa)
#
#
# Indices 1 2 3 4 5 6 
#
# 1 0.009382 -0.001147 -0.003842 0.000585 0.000599 -0.002239
# 2 -0.001147 0.004119 -0.001119 0.000729 -0.001399 -0.000429
# 3 -0.003842 -0.001119 0.006792 -0.002901 0.001239 -0.000562
# 4 0.000585 0.000729 -0.002901 0.014026 -0.001843 -0.000177
# 5 0.000599 -0.001399 0.001239 -0.001843 0.021290 -0.001207
# 6 -0.002239 -0.000429 -0.000562 -0.000177 -0.001207 0.015491
#
#
# Mechanical properties :
#
#
# Convention : Reuss Voigt Hill
#
# Bulk Modulus (GPa) = 123.81648 145.69960 134.75804
# Shear Modulus (GPa) = 58.13381 68.44065 63.28723
#
# Velocity S-wave (km/s) = 4.42578 4.80211 4.61778
# Velocity P-wave (km/s) = 8.23621 8.93526 8.59285
#
# Compressibility (1/GPa) = 0.00807647
#
# Stress axis : x y z
#
# Youngs Moduli (GPa) = 106.58960 242.75857 147.23957
#
# Poissons Ratio (x) = 0.27853 0.56571
# Poissons Ratio (y) = 0.12230 0.16471
# Poissons Ratio (z) = 0.40953 0.27157
#
# Static dielectric constant tensor:
#      x y z
#    x 2.309920 -0.095340 0.071920 
#    y -0.095340 2.604850 0.081370 
#    z 0.071920 0.081370 2.090160 
# 
# From -- ./inp_files/148959.got.cif
#   From: 2010.05.17/outbox.cif.g08.bks.cpg/sg2_75_cif.got.tgz:148959.got - 2010.06.03 11:33:40.
