data_PCOD9071195
_publ_section_title
;
Structure prediction by ZEFSAII (Michael W. Deem and Ramdas Pophale) SiO2 
 PCOD9071195
Probable space group: P -1
;
_chemical_formula_sum "Si O2"
_cell_formula_units_Z 12
_cell_length_a 9.680643
_cell_length_b 28.812074
_cell_length_c 26.381152
_cell_angle_alpha 170.935509
_cell_angle_beta 151.582688
_cell_angle_gamma 28.379905
_cell_volume 545.383980
_symmetry_space_group_name_H-M "P -1"
_symmetry_group_IT_number 2
_symmetry_cell_setting 'triclinic'
loop_
_space_group_symop_operation_xyz
x,y,z
-x,-y,-z
loop_
_atom_site_type_symbol
_atom_site_label
_atom_site_fract_x
_atom_site_fract_y
_atom_site_fract_z
Si Si1 0.385888 0.741265 0.151382
Si Si2 0.970329 0.343740 0.874796
Si Si3 0.836313 0.019805 0.914769
Si Si4 0.717020 0.219739 0.288388
Si Si5 0.432946 0.587689 0.359073
Si Si6 0.979548 0.749449 0.474028
O O1 0.500000 0.000000 0.500000
O O2 0.229798 0.936652 0.265078
O O3 0.656643 0.493556 0.956574
O O4 0.171155 0.548494 0.903495
O O5 0.000000 0.000000 0.500000
O O6 0.000000 0.500000 0.000000
O O7 0.220947 0.417447 0.073251
O O8 0.579308 0.817464 0.620030
O O9 0.063122 0.905482 0.820402
O O10 0.687069 0.351250 0.210521
O O11 0.000000 0.000000 0.000000
O O12 0.500000 0.500000 0.500000
O O13 0.903425 0.278835 0.461645
O O14 0.500000 0.000000 0.000000
O O15 0.237785 0.745975 0.512534
#
# Coordination Sequence:
#
# PCOD9071195 Si02
#       6
#     2   2   2   2   2   2
#     4  12  26  47  73 106 146 196 242 290 354 427
#     4  12  28  45  71 106 151 189 240 295 356 425
#     4  12  26  46  74 104 143 184 236 297 364 427
#     4  12  26  48  73 104 141 184 240 298 356 428
#     4  12  26  46  71 105 144 188 237 292 363 422
#     4  12  26  45  76 105 144 191 245 294 354 427
#
# _framework density 22.002846999999999
#
# number of rings (size 3 to 8) (size 9 to 14) (size 15 to 20)
#    0.000    0.000    1.667    8.000    9.333    0.000 
#    0.000    0.000    0.000    0.000    0.000    0.000 
#    0.000    0.000    0.000    0.000    0.000    0.000 
#
# Total GULP energy -67239.399901 kJ/mol
# GULP energy per Si atom -5603.283325 kJ/mol
# Density = 2.195277 g / cm^3
# Si number density = 22.002847 Si / 1000 Ang^3
#
#
#
# Elastic Constant Matrix: (Units=GPa)
#
#
# Indices 1 2 3 4 5 6 
#
# 1 159.2506 36.6755 54.8480 -5.3908 -1.2634 -13.7714
# 2 36.6755 119.0646 37.2329 12.9802 -14.2397 9.0133
# 3 54.8480 37.2329 119.7106 19.4252 9.2164 -11.0010
# 4 -5.3908 12.9802 19.4252 40.3561 9.9535 -0.6976
# 5 -1.2634 -14.2397 9.2164 9.9535 53.5112 0.3010
# 6 -13.7714 9.0133 -11.0010 -0.6976 0.3010 46.0803
#
#
#
# Elastic Compliance Matrix: (Units=1/GPa)
#
#
# Indices 1 2 3 4 5 6 
#
# 1 0.008256 -0.002048 -0.003504 0.003589 -0.000426 0.002089
# 2 -0.002048 0.010944 -0.002498 -0.003634 0.003989 -0.003430
# 3 -0.003504 -0.002498 0.011876 -0.004875 -0.001899 0.002215
# 4 0.003589 -0.003634 -0.004875 0.030191 -0.005665 0.001114
# 5 -0.000426 0.003989 -0.001899 -0.005665 0.021129 -0.001585
# 6 0.002089 -0.003430 0.002215 0.001114 -0.001585 0.023553
#
#
# Mechanical properties :
#
#
# Convention : Reuss Voigt Hill
#
# Bulk Modulus (GPa) = 66.76703 72.83762 69.80233
# Shear Modulus (GPa) = 39.35751 45.94083 42.64917
#
# Velocity S-wave (km/s) = 4.23395 4.57437 4.40744
# Velocity P-wave (km/s) = 7.36969 7.81507 7.59565
#
# Compressibility (1/GPa) = 0.01497745
#
# Stress axis : x y z
#
# Youngs Moduli (GPa) = 121.11681 91.37582 84.20026
#
# Poissons Ratio (x) = 0.18714 0.29500
# Poissons Ratio (y) = 0.24805 0.21034
# Poissons Ratio (z) = 0.42434 0.22826
#
# Static dielectric constant tensor:
#      x y z
#    x 1.581390 -0.121880 0.026440 
#    y -0.121880 1.775920 -0.048530 
#    z 0.026440 -0.048530 1.787030 
# 
# From -- ./inp_files/201241.got.cif
#   From: 2010.05.17/outbox.cif.g08.bks.cpg/sg2_101_cif.got.tgz:201241.got - 2010.06.03 11:33:40.
