data_PCOD9071702
_publ_section_title
;
Structure prediction by ZEFSAII (Michael W. Deem and Ramdas Pophale) SiO2 
 PCOD9071702
Probable space group: P -1
;
_chemical_formula_sum "Si O2"
_cell_formula_units_Z 12
_cell_length_a 7.512399
_cell_length_b 11.385497
_cell_length_c 16.164670
_cell_angle_alpha 158.610392
_cell_angle_beta 53.808142
_cell_angle_gamma 124.408278
_cell_volume 406.401206
_symmetry_space_group_name_H-M "P -1"
_symmetry_group_IT_number 2
_symmetry_cell_setting 'triclinic'
loop_
_space_group_symop_operation_xyz
x,y,z
-x,-y,-z
loop_
_atom_site_type_symbol
_atom_site_label
_atom_site_fract_x
_atom_site_fract_y
_atom_site_fract_z
Si Si1 0.805355 0.235284 0.189803
Si Si2 0.691472 0.259143 0.653531
Si Si3 0.644424 0.646736 0.660164
Si Si4 0.296435 0.582286 0.987735
Si Si5 0.735108 0.686612 0.364378
Si Si6 0.987741 0.015645 0.283984
O O1 0.725601 0.432041 0.420622
O O2 0.555631 0.113382 0.147001
O O3 0.868575 0.485612 0.262004
O O4 0.000000 0.000000 0.000000
O O5 0.557718 0.567629 0.916753
O O6 0.500000 0.000000 0.500000
O O7 0.770282 0.066093 0.585507
O O8 0.852708 0.275144 0.541509
O O9 0.517052 0.395669 0.590414
O O10 0.126713 0.147068 0.253401
O O11 0.242208 0.469261 0.833919
O O12 0.177065 0.297141 0.887465
O O13 0.172436 0.910399 0.232451
#
# Coordination Sequence:
#
# PCOD9071702 Si02
#       6
#     2   2   2   2   2   2
#     4   9  19  37  51  70  99 133 165 210 253 282
#     4   8  16  33  48  71 103 134 155 192 249 294
#     4   9  19  34  52  74 100 126 171 213 237 284
#     4   9  18  34  51  74 107 134 156 191 253 304
#     4   8  16  34  52  72  99 131 162 207 242 291
#     4   9  17  32  51  75 105 130 159 205 240 292
#
# _framework density 29.527471999999999
#
# number of rings (size 3 to 8) (size 9 to 14) (size 15 to 20)
#    1.000    2.667    0.000    0.000    0.000    2.000 
#   15.000   10.833    0.000    5.000    0.000    0.000 
#    0.000    0.000    0.000    0.000    0.000    0.000 
#
# Total GULP energy -67016.194688 kJ/mol
# GULP energy per Si atom -5584.682891 kJ/mol
# Density = 2.946027 g / cm^3
# Si number density = 29.527472 Si / 1000 Ang^3
#
#
#
# Elastic Constant Matrix: (Units=GPa)
#
#
# Indices 1 2 3 4 5 6 
#
# 1 71.0139 43.7546 45.0993 -2.7728 -16.9859 -1.4118
# 2 43.7546 168.3810 52.1820 -3.2720 -23.6246 44.9953
# 3 45.0993 52.1820 200.7174 8.4616 -58.9062 3.1148
# 4 -2.7728 -3.2720 8.4616 52.8348 2.2725 -20.4977
# 5 -16.9859 -23.6246 -58.9062 2.2725 62.4796 1.7968
# 6 -1.4118 44.9953 3.1148 -20.4977 1.7968 68.7286
#
#
#
# Elastic Compliance Matrix: (Units=1/GPa)
#
#
# Indices 1 2 3 4 5 6 
#
# 1 0.019681 -0.005394 -0.003229 0.003166 0.000007 0.005026
# 2 -0.005394 0.009651 -0.000487 -0.002488 0.002021 -0.007202
# 3 -0.003229 -0.000487 0.007816 -0.002071 0.006408 -0.000887
# 4 0.003166 -0.002488 -0.002071 0.022763 -0.003110 0.008658
# 5 0.000007 0.002021 0.006408 -0.003110 0.023016 -0.003143
# 6 0.005026 -0.007202 -0.000887 0.008658 -0.003143 0.022073
#
#
# Mechanical properties :
#
#
# Convention : Reuss Voigt Hill
#
# Bulk Modulus (GPa) = 52.83405 80.24266 66.53835
# Shear Modulus (GPa) = 38.60056 56.74703 47.67379
#
# Velocity S-wave (km/s) = 3.61955 4.38863 4.02251
# Velocity P-wave (km/s) = 5.94981 7.27425 6.64511
#
# Compressibility (1/GPa) = 0.01892719
#
# Stress axis : x y z
#
# Youngs Moduli (GPa) = 50.80967 103.61109 127.94309
#
# Poissons Ratio (x) = 0.55889 0.41317
# Poissons Ratio (y) = 0.27407 0.06235
# Poissons Ratio (z) = 0.16408 0.05049
#
# Static dielectric constant tensor:
#      x y z
#    x 2.528770 0.073330 -0.080600 
#    y 0.073330 2.287100 0.019970 
#    z -0.080600 0.019970 2.544390 
# 
# From -- ./inp_files/594567.got.cif
#   From: 2010.05.17/outbox.cif.g08.bks.cpg/sg2_298_cif.got.tgz:594567.got - 2010.06.03 11:33:40.
