data_PCOD9071005
_publ_section_title
;
Structure prediction by ZEFSAII (Michael W. Deem and Ramdas Pophale) SiO2 
 PCOD9071005
Probable space group: P -1
;
_chemical_formula_sum "Si O2"
_cell_formula_units_Z 13
_cell_length_a 8.903896
_cell_length_b 8.893610
_cell_length_c 8.758411
_cell_angle_alpha 102.474116
_cell_angle_beta 57.170904
_cell_angle_gamma 112.906566
_cell_volume 536.822143
_symmetry_space_group_name_H-M "P -1"
_symmetry_group_IT_number 2
_symmetry_cell_setting 'triclinic'
loop_
_space_group_symop_operation_xyz
x,y,z
-x,-y,-z
loop_
_atom_site_type_symbol
_atom_site_label
_atom_site_fract_x
_atom_site_fract_y
_atom_site_fract_z
Si Si1 0.500000 0.500000 0.500000
Si Si2 0.012661 0.678091 0.469865
Si Si3 0.919627 0.155432 0.861880
Si Si4 0.714842 0.768225 0.835604
Si Si5 0.412221 0.762074 0.794949
Si Si6 0.690864 0.718238 0.161721
Si Si7 0.591003 0.088638 0.622763
O O1 0.432718 0.659334 0.614343
O O2 0.593843 0.578999 0.304132
O O3 0.044804 0.730927 0.285330
O O4 0.191182 0.804754 0.484596
O O5 0.000000 0.500000 0.500000
O O6 0.819009 0.708696 0.627681
O O7 0.118783 0.173244 0.834995
O O8 0.814624 0.963181 0.846501
O O9 0.791216 0.222165 0.059678
O O10 0.496945 0.717081 0.894466
O O11 0.743480 0.679065 0.954625
O O12 0.559919 0.943351 0.726617
O O13 0.539096 0.807682 0.232091
O O14 0.500000 0.000000 0.500000
#
# Coordination Sequence:
#
# PCOD9071005 Si02
#       7
#     1   2   2   2   2   2   2
#     4  12  30  48  72 110 154 196 246 322 384 448
#     4  12  30  48  77 115 159 200 256 318 388 451
#     4  12  26  51  78 112 150 203 254 315 380 463
#     4  12  26  49  78 111 148 201 257 311 379 460
#     4  12  27  50  78 109 151 202 256 316 382 456
#     4  12  28  46  77 112 151 196 255 315 382 455
#     4  12  25  48  79 110 153 207 257 312 381 460
#
# _framework density 24.216586
#
# number of rings (size 3 to 8) (size 9 to 14) (size 15 to 20)
#    0.000    0.000    4.615    4.154    8.615    1.231 
#    0.000    0.000    0.000    0.000    0.000    0.000 
#    0.000    0.000    0.000    0.000    0.000    0.000 
#
# Total GULP energy -72527.708020 kJ/mol
# GULP energy per Si atom -5579.054463 kJ/mol
# Density = 2.416147 g / cm^3
# Si number density = 24.216586 Si / 1000 Ang^3
#
#
#
# Elastic Constant Matrix: (Units=GPa)
#
#
# Indices 1 2 3 4 5 6 
#
# 1 41.6952 -19.1216 2.2817 9.1600 7.4791 -14.2495
# 2 -19.1216 83.6261 23.5035 -19.9495 -1.6156 -21.7255
# 3 2.2817 23.5035 76.8431 -32.6646 -2.6765 8.9446
# 4 9.1600 -19.9495 -32.6646 20.4852 -27.9502 16.2284
# 5 7.4791 -1.6156 -2.6765 -27.9502 36.9660 10.6798
# 6 -14.2495 -21.7255 8.9446 16.2284 10.6798 9.1376
#
#
#
# Elastic Compliance Matrix: (Units=1/GPa)
#
#
# Indices 1 2 3 4 5 6 
#
# 1 0.022431 0.009483 0.005289 0.020658 0.011102 0.002686
# 2 0.009483 0.023977 0.000631 0.022986 0.011753 0.016619
# 3 0.005289 0.000631 0.009971 -0.002724 -0.005698 0.011484
# 4 0.020658 0.022986 -0.002724 0.023857 0.001571 0.045325
# 5 0.011102 0.011753 -0.005698 0.001571 0.018441 0.026491
# 6 0.002686 0.016619 0.011484 0.045325 0.026491 0.030439
#
#
# Mechanical properties :
#
#
# Convention : Reuss Voigt Hill
#
# Bulk Modulus (GPa) = 11.47005 23.94351 17.70678
# Shear Modulus (GPa) = 39.25480 26.35116 32.80298
#
# Velocity S-wave (km/s) = 4.03052 3.30228 3.68444
# Velocity P-wave (km/s) = 5.13876 4.94457 5.04260
#
# Compressibility (1/GPa) = 0.08718360
#
# Stress axis : x y z
#
# Youngs Moduli (GPa) = 44.58020 41.70643 100.29541
#
# Poissons Ratio (x) = -0.39551 -0.53042
# Poissons Ratio (y) = -0.42276 -0.06324
# Poissons Ratio (z) = -0.23577 -0.02630
#
# Static dielectric constant tensor:
#      x y z
#    x 1.904190 -0.010700 0.038570 
#    y -0.010700 1.951090 -0.010070 
#    z 0.038570 -0.010070 1.969430 
# 
# From -- ./inp_files/152823.got.cif
#   From: 2010.05.17/outbox.cif.g08.bks.cpg/sg2_77_cif.got.tgz:152823.got - 2010.06.03 11:33:40.
