data_PCOD9071769
_publ_section_title
;
Structure prediction by ZEFSAII (Michael W. Deem and Ramdas Pophale) SiO2 
 PCOD9071769
Probable space group: P -1
;
_chemical_formula_sum "Si O2"
_cell_formula_units_Z 16
_cell_length_a 12.420570
_cell_length_b 15.117557
_cell_length_c 11.877342
_cell_angle_alpha 30.649656
_cell_angle_beta 143.074522
_cell_angle_gamma 124.064568
_cell_volume 620.919443
_symmetry_space_group_name_H-M "P -1"
_symmetry_group_IT_number 2
_symmetry_cell_setting 'triclinic'
loop_
_space_group_symop_operation_xyz
x,y,z
-x,-y,-z
loop_
_atom_site_type_symbol
_atom_site_label
_atom_site_fract_x
_atom_site_fract_y
_atom_site_fract_z
Si Si1 0.912750 0.297808 0.233747
Si Si2 0.729384 0.230807 0.480712
Si Si3 0.482386 0.909887 0.200896
Si Si4 0.662428 0.561372 0.213465
Si Si5 0.410803 0.059175 0.204034
Si Si6 0.065792 0.338274 0.075758
Si Si7 0.537232 0.462396 0.439725
Si Si8 0.876242 0.973525 0.694593
O O1 0.941773 0.094442 0.527816
O O2 0.967036 0.292496 0.153632
O O3 0.996280 0.434632 0.218124
O O4 0.681923 0.423052 0.913956
O O5 0.782982 0.369684 0.454348
O O6 0.899095 0.067687 0.728193
O O7 0.625329 0.119206 0.586458
O O8 0.559474 0.369959 0.100529
O O9 0.701537 0.779741 0.572465
O O10 0.385882 0.762891 0.264792
O O11 0.373075 0.065453 0.032695
O O12 0.500000 0.000000 0.000000
O O13 0.654266 0.531848 0.372912
O O14 0.709535 0.746665 0.041095
O O15 0.639955 0.025538 0.442904
O O16 0.036387 0.241373 0.043471
O O17 0.500000 0.500000 0.500000
#
# Coordination Sequence:
#
# PCOD9071769 Si02
#       8
#     2   2   2   2   2   2   2   2
#     4  10  19  36  49  76 103 139 177 213 254 313
#     4  10  19  29  47  74 107 134 170 213 262 308
#     4  10  20  33  50  76 108 137 171 211 261 314
#     4  10  18  30  46  70 102 138 166 210 261 302
#     4  10  18  30  46  73 105 134 169 209 261 306
#     4   9  21  33  53  72 105 138 177 214 255 304
#     4  11  20  32  52  75 108 139 168 214 261 309
#     4  10  18  29  50  71 102 134 169 211 259 299
#
# _framework density 25.768238
#
# number of rings (size 3 to 8) (size 9 to 14) (size 15 to 20)
#    0.000    2.000    3.750    2.625    1.750    1.000 
#    0.000    0.000    0.000    0.000    0.000    3.500 
#    0.000   14.500    0.000    0.000    0.000    0.000 
#
# Total GULP energy -89351.148604 kJ/mol
# GULP energy per Si atom -5584.446788 kJ/mol
# Density = 2.570959 g / cm^3
# Si number density = 25.768238 Si / 1000 Ang^3
#
#
#
# Elastic Constant Matrix: (Units=GPa)
#
#
# Indices 1 2 3 4 5 6 
#
# 1 88.4629 45.1943 29.5118 -8.5370 -0.3353 -23.9154
# 2 45.1943 111.7336 47.8379 -31.3374 14.6204 -42.4097
# 3 29.5118 47.8379 80.1523 -14.2286 4.8636 -4.2382
# 4 -8.5370 -31.3374 -14.2286 41.1592 -9.2567 12.0552
# 5 -0.3353 14.6204 4.8636 -9.2567 38.5306 -4.8535
# 6 -23.9154 -42.4097 -4.2382 12.0552 -4.8535 55.3710
#
#
#
# Elastic Compliance Matrix: (Units=1/GPa)
#
#
# Indices 1 2 3 4 5 6 
#
# 1 0.015424 -0.004044 -0.003501 -0.001731 0.002181 0.003865
# 2 -0.004044 0.022061 -0.009330 0.008299 -0.003684 0.012306
# 3 -0.003501 -0.009330 0.019101 0.001029 0.000416 -0.007384
# 4 -0.001731 0.008299 0.001029 0.031820 0.004241 -0.000868
# 5 0.002181 -0.003684 0.000416 0.004241 0.028300 -0.000291
# 6 0.003865 0.012306 -0.007384 -0.000868 -0.000291 0.028753
#
#
# Mechanical properties :
#
#
# Convention : Reuss Voigt Hill
#
# Bulk Modulus (GPa) = 43.79097 58.38188 51.08642
# Shear Modulus (GPa) = 26.76350 37.53247 32.14799
#
# Velocity S-wave (km/s) = 3.22626 3.82060 3.53594
# Velocity P-wave (km/s) = 5.55963 6.49372 6.04474
#
# Compressibility (1/GPa) = 0.02283576
#
# Stress axis : x y z
#
# Youngs Moduli (GPa) = 64.83360 45.32859 52.35343
#
# Poissons Ratio (x) = 0.18332 0.18328
# Poissons Ratio (y) = 0.26220 0.48847
# Poissons Ratio (z) = 0.22697 0.42293
#
# Static dielectric constant tensor:
#      x y z
#    x 2.007440 -0.009470 -0.005210 
#    y -0.009470 2.118630 0.028530 
#    z -0.005210 0.028530 2.031480 
# 
# From -- ./inp_files/284114.got.cif
#   From: 2010.05.17/outbox.cif.g08.bks.cpg/sg2_143_cif.got.tgz:284114.got - 2010.06.03 11:33:40.
