data_PCOD9071761
_publ_section_title
;
Structure prediction by ZEFSAII (Michael W. Deem and Ramdas Pophale) SiO2 
 PCOD9071761
Probable space group: P -1
;
_chemical_formula_sum "Si O2"
_cell_formula_units_Z 16
_cell_length_a 11.571062
_cell_length_b 11.792449
_cell_length_c 9.510003
_cell_angle_alpha 113.853704
_cell_angle_beta 53.769547
_cell_angle_gamma 92.230844
_cell_volume 921.450222
_symmetry_space_group_name_H-M "P -1"
_symmetry_group_IT_number 2
_symmetry_cell_setting 'triclinic'
loop_
_space_group_symop_operation_xyz
x,y,z
-x,-y,-z
loop_
_atom_site_type_symbol
_atom_site_label
_atom_site_fract_x
_atom_site_fract_y
_atom_site_fract_z
Si Si1 0.630608 0.378111 0.689164
Si Si2 0.707236 0.373571 0.212810
Si Si3 0.367224 0.073779 0.526819
Si Si4 0.432712 0.338991 0.583728
Si Si5 0.125148 0.790944 0.768583
Si Si6 0.518460 0.924645 0.096134
Si Si7 0.549554 0.339582 0.039572
Si Si8 0.203882 0.054370 0.901820
O O1 0.496613 0.329836 0.691809
O O2 0.780559 0.295233 0.466961
O O3 0.580038 0.530259 0.765237
O O4 0.623735 0.363788 0.852530
O O5 0.571522 0.352503 0.396358
O O6 0.688628 0.525491 0.283972
O O7 0.852512 0.299833 0.155691
O O8 0.673632 0.318893 0.060681
O O9 0.387262 0.209306 0.526583
O O10 0.230555 0.095094 0.742946
O O11 0.500000 0.000000 0.500000
O O12 0.383654 0.984830 0.332934
O O13 0.196658 0.907235 0.816959
O O14 0.954767 0.857725 0.889151
O O15 0.517905 0.779782 0.990222
O O16 0.665185 0.935092 0.081235
O O17 0.500000 0.000000 0.000000
#
# Coordination Sequence:
#
# PCOD9071761 Si02
#       8
#     2   2   2   2   2   2   2   2
#     4   9  17  30  51  72  97 128 158 202 238 282
#     4   9  17  30  51  73  97 127 159 204 239 280
#     4  10  18  31  51  73  98 127 162 207 242 278
#     4   9  16  29  50  74  95 124 170 204 237 275
#     4  10  19  36  52  69  95 131 171 199 238 290
#     4  11  20  31  50  76 102 123 152 202 252 289
#     4  10  18  29  49  78  99 121 160 197 245 288
#     4  10  21  34  53  72  94 130 168 201 240 294
#
# _framework density 17.363932999999999
#
# number of rings (size 3 to 8) (size 9 to 14) (size 15 to 20)
#    0.000    2.250    0.000    7.500    0.000    0.000 
#    0.000    2.500    0.000    4.500    0.000    0.000 
#    0.000    0.000    0.000    0.000    0.000    0.000 
#
# Total GULP energy -89133.134409 kJ/mol
# GULP energy per Si atom -5570.820901 kJ/mol
# Density = 1.732441 g / cm^3
# Si number density = 17.363933 Si / 1000 Ang^3
#
#
#
# Elastic Constant Matrix: (Units=GPa)
#
#
# Indices 1 2 3 4 5 6 
#
# 1 57.1194 17.4299 32.0263 6.2716 7.1704 -9.9835
# 2 17.4299 71.2781 23.7902 18.8374 -6.5138 -2.8198
# 3 32.0263 23.7902 99.3080 17.6494 2.0519 -10.3115
# 4 6.2716 18.8374 17.6494 27.0404 -5.6245 10.1342
# 5 7.1704 -6.5138 2.0519 -5.6245 25.5370 -4.6111
# 6 -9.9835 -2.8198 -10.3115 10.1342 -4.6111 19.0808
#
#
#
# Elastic Compliance Matrix: (Units=1/GPa)
#
#
# Indices 1 2 3 4 5 6 
#
# 1 0.024620 -0.002902 -0.004786 -0.006283 -0.006554 0.011619
# 2 -0.002902 0.019946 0.000258 -0.016828 0.004258 0.011536
# 3 -0.004786 0.000258 0.015496 -0.014315 -0.000574 0.013373
# 4 -0.006283 -0.016828 -0.014315 0.081586 0.006616 -0.055243
# 5 -0.006554 0.004258 -0.000574 0.006616 0.044327 0.004088
# 6 0.011619 0.011536 0.013373 -0.055243 0.004088 0.097749
#
#
# Mechanical properties :
#
#
# Convention : Reuss Voigt Hill
#
# Bulk Modulus (GPa) = 22.12294 41.57759 31.85026
# Shear Modulus (GPa) = 15.94137 24.62891 20.28514
#
# Velocity S-wave (km/s) = 3.03326 3.77024 3.42165
# Velocity P-wave (km/s) = 5.00359 6.55361 5.83034
#
# Compressibility (1/GPa) = 0.04520195
#
# Stress axis : x y z
#
# Youngs Moduli (GPa) = 40.61801 50.13573 64.53357
#
# Poissons Ratio (x) = 0.14548 0.30886
# Poissons Ratio (y) = 0.11787 -0.01666
# Poissons Ratio (z) = 0.19440 -0.01294
#
# Static dielectric constant tensor:
#      x y z
#    x 1.592320 -0.011930 0.003470 
#    y -0.011930 1.614270 -0.000490 
#    z 0.003470 -0.000490 1.627920 
# 
# From -- ./inp_files/262936.got.cif
#   From: 2010.05.17/outbox.cif.g08.bks.cpg/sg2_132_cif.got.tgz:262936.got - 2010.06.03 11:33:40.
