data_PCOD9071602
_publ_section_title
;
Structure prediction by ZEFSAII (Michael W. Deem and Ramdas Pophale) SiO2 
 PCOD9071602
Probable space group: P -1
;
_chemical_formula_sum "Si O2"
_cell_formula_units_Z 12
_cell_length_a 16.535120
_cell_length_b 4.760845
_cell_length_c 7.103746
_cell_angle_alpha 76.713585
_cell_angle_beta 72.151668
_cell_angle_gamma 56.887039
_cell_volume 444.485618
_symmetry_space_group_name_H-M "P -1"
_symmetry_group_IT_number 2
_symmetry_cell_setting 'triclinic'
loop_
_space_group_symop_operation_xyz
x,y,z
-x,-y,-z
loop_
_atom_site_type_symbol
_atom_site_label
_atom_site_fract_x
_atom_site_fract_y
_atom_site_fract_z
Si Si1 0.499733 0.584166 0.707047
Si Si2 0.792402 0.013643 0.294435
Si Si3 0.005279 0.047277 0.711184
Si Si4 0.372588 0.288382 0.878653
Si Si5 0.117860 0.261434 0.099585
Si Si6 0.707835 0.046420 0.730391
O O1 0.500000 0.500000 0.500000
O O2 0.430877 0.973901 0.743962
O O3 0.288824 0.622689 0.782971
O O4 0.613110 0.414121 0.712098
O O5 0.888149 0.017297 0.300708
O O6 0.748353 0.911035 0.514220
O O7 0.828257 0.763334 0.130132
O O8 0.925460 0.414700 0.788409
O O9 0.203983 0.966215 0.210312
O O10 0.969634 0.812028 0.865725
O O11 0.451859 0.388707 0.873709
O O12 0.326257 0.170673 0.091877
O O13 0.000000 0.000000 0.500000
#
# Coordination Sequence:
#
# PCOD9071602 Si02
#       6
#     2   2   2   2   2   2
#     4  12  27  52  81 116 163 219 266 338 412 482
#     4  12  28  54  86 120 167 217 276 341 409 488
#     4  12  27  53  83 118 165 217 268 337 411 484
#     4  12  28  53  78 121 161 213 276 330 412 483
#     4  12  28  53  78 124 161 215 273 333 412 485
#     4  12  28  51  86 116 167 213 276 337 409 482
#
# _framework density 26.997496999999999
#
# number of rings (size 3 to 8) (size 9 to 14) (size 15 to 20)
#    0.000    0.000    3.333    5.000    0.000    6.667 
#    0.000    0.000    0.000    0.000    0.000    0.000 
#    0.000    0.000    0.000    0.000    0.000    0.000 
#
# Total GULP energy -67459.395550 kJ/mol
# GULP energy per Si atom -5621.616296 kJ/mol
# Density = 2.693605 g / cm^3
# Si number density = 26.997497 Si / 1000 Ang^3
#
#
#
# Elastic Constant Matrix: (Units=GPa)
#
#
# Indices 1 2 3 4 5 6 
#
# 1 118.8162 62.5648 37.8564 18.8931 2.4124 -23.4563
# 2 62.5648 174.0847 56.9004 35.9391 5.1683 -16.8863
# 3 37.8564 56.9004 220.4933 32.8711 0.6058 -15.6541
# 4 18.8931 35.9391 32.8711 50.7251 8.3406 1.7685
# 5 2.4124 5.1683 0.6058 8.3406 46.6597 -7.0120
# 6 -23.4563 -16.8863 -15.6541 1.7685 -7.0120 53.3764
#
#
#
# Elastic Compliance Matrix: (Units=1/GPa)
#
#
# Indices 1 2 3 4 5 6 
#
# 1 0.011314 -0.003126 -0.000576 -0.001880 0.000701 0.003969
# 2 -0.003126 0.008093 -0.000868 -0.004073 0.000168 0.001089
# 3 -0.000576 -0.000868 0.005363 -0.002812 0.000745 0.001236
# 4 -0.001880 -0.004073 -0.002812 0.026055 -0.004738 -0.004425
# 5 0.000701 0.000168 0.000745 -0.004738 0.022774 0.003729
# 6 0.003969 0.001089 0.001236 -0.004425 0.003729 0.021822
#
#
# Mechanical properties :
#
#
# Convention : Reuss Voigt Hill
#
# Bulk Modulus (GPa) = 63.97434 92.00416 77.98925
# Shear Modulus (GPa) = 45.54958 53.89041 49.71999
#
# Velocity S-wave (km/s) = 4.11198 4.47265 4.29610
# Velocity P-wave (km/s) = 6.80385 7.79907 7.31840
#
# Compressibility (1/GPa) = 0.01563127
#
# Stress axis : x y z
#
# Youngs Moduli (GPa) = 88.38721 123.56659 186.46481
#
# Poissons Ratio (x) = 0.38623 0.10736
# Poissons Ratio (y) = 0.27627 0.16180
# Poissons Ratio (z) = 0.05089 0.10722
#
# Static dielectric constant tensor:
#      x y z
#    x 2.082500 -0.020220 0.000170 
#    y -0.020220 2.083840 -0.023020 
#    z 0.000170 -0.023020 2.113330 
# 
# From -- ./inp_files/321234.got.cif
#   From: 2010.05.17/outbox.cif.g08.bks.cpg/sg2_161_cif.got.tgz:321234.got - 2010.06.03 11:33:40.
