data_PCOD9071583
_publ_section_title
;
Structure prediction by ZEFSAII (Michael W. Deem and Ramdas Pophale) SiO2 
 PCOD9071583
Probable space group: P -1
;
_chemical_formula_sum "Si O2"
_cell_formula_units_Z 16
_cell_length_a 11.371303
_cell_length_b 10.910461
_cell_length_c 12.047788
_cell_angle_alpha 65.049561
_cell_angle_beta 52.437028
_cell_angle_gamma 40.424262
_cell_volume 765.701263
_symmetry_space_group_name_H-M "P -1"
_symmetry_group_IT_number 2
_symmetry_cell_setting 'triclinic'
loop_
_space_group_symop_operation_xyz
x,y,z
-x,-y,-z
loop_
_atom_site_type_symbol
_atom_site_label
_atom_site_fract_x
_atom_site_fract_y
_atom_site_fract_z
Si Si1 0.556861 0.916587 0.803763
Si Si2 0.171321 0.430361 0.077395
Si Si3 0.633737 0.548568 0.420398
Si Si4 0.729966 0.768534 0.301512
Si Si5 0.203376 0.993037 0.267824
Si Si6 0.852388 0.726205 0.490558
Si Si7 0.972117 0.311668 0.122789
Si Si8 0.122430 0.750747 0.439061
O O1 0.625615 0.743811 0.904384
O O2 0.622660 0.007096 0.803167
O O3 0.703199 0.816816 0.648619
O O4 0.332156 0.083295 0.813724
O O5 0.965650 0.565506 0.221721
O O6 0.129938 0.334845 0.050294
O O7 0.146788 0.583309 0.963193
O O8 0.500000 0.500000 0.500000
O O9 0.568223 0.746692 0.384688
O O10 0.794813 0.438088 0.269479
O O11 0.735362 0.459548 0.515914
O O12 0.732251 0.809468 0.411738
O O13 0.098349 0.099236 0.170145
O O14 0.031812 0.122582 0.415759
O O15 0.249901 0.804789 0.318764
O O16 0.000000 0.500000 0.500000
O O17 0.989276 0.774602 0.407520
#
# Coordination Sequence:
#
# PCOD9071583 Si02
#       8
#     2   2   2   2   2   2   2   2
#     4  10  19  31  50  76 104 130 169 214 253 300
#     4   9  17  33  51  71 105 137 168 209 250 301
#     4  10  18  29  47  77 109 131 163 208 259 307
#     4  11  20  32  51  77 103 134 173 207 255 302
#     4   8  15  29  48  72  98 130 165 202 254 301
#     4  11  18  33  50  74 102 138 171 207 255 301
#     4   8  16  31  50  71 102 141 165 203 260 300
#     4   9  16  28  48  69 102 135 161 202 253 302
#
# _framework density 20.895878
#
# number of rings (size 3 to 8) (size 9 to 14) (size 15 to 20)
#    0.000    2.500    2.500    2.625    0.000    1.000 
#    0.000   11.250    0.000    0.750    0.000    4.375 
#    0.000    0.000    0.000    0.000    0.000    0.000 
#
# Total GULP energy -89078.789120 kJ/mol
# GULP energy per Si atom -5567.424320 kJ/mol
# Density = 2.084832 g / cm^3
# Si number density = 20.895878 Si / 1000 Ang^3
#
#
#
# Elastic Constant Matrix: (Units=GPa)
#
#
# Indices 1 2 3 4 5 6 
#
# 1 67.0315 16.0892 29.7098 -11.2567 17.0203 -5.6100
# 2 16.0892 78.7330 29.3139 -28.9717 11.8776 -11.5722
# 3 29.7098 29.3139 80.1264 -31.0017 18.4460 -4.7423
# 4 -11.2567 -28.9717 -31.0017 42.1437 -10.5879 10.6711
# 5 17.0203 11.8776 18.4460 -10.5879 24.6509 -8.1125
# 6 -5.6100 -11.5722 -4.7423 10.6711 -8.1125 23.1667
#
#
#
# Elastic Compliance Matrix: (Units=1/GPa)
#
#
# Indices 1 2 3 4 5 6 
#
# 1 0.019788 -0.001261 -0.005454 -0.002198 -0.009700 0.000661
# 2 -0.001261 0.017792 -0.002007 0.009256 -0.001061 0.003536
# 3 -0.005454 -0.002007 0.021644 0.012704 -0.008183 -0.006609
# 4 -0.002198 0.009256 0.012704 0.042379 0.001732 -0.012223
# 5 -0.009700 -0.001061 -0.008183 0.001732 0.059769 0.015578
# 6 0.000661 0.003536 -0.006609 -0.012223 0.015578 0.054824
#
#
# Mechanical properties :
#
#
# Convention : Reuss Voigt Hill
#
# Bulk Modulus (GPa) = 23.93474 41.79072 32.86273
# Shear Modulus (GPa) = 20.19668 28.04412 24.12040
#
# Velocity S-wave (km/s) = 3.11229 3.66743 3.40121
# Velocity P-wave (km/s) = 4.93906 6.16249 5.58438
#
# Compressibility (1/GPa) = 0.04178027
#
# Stress axis : x y z
#
# Youngs Moduli (GPa) = 50.53689 56.20570 46.20175
#
# Poissons Ratio (x) = 0.07090 0.25197
# Poissons Ratio (y) = 0.06375 0.09271
# Poissons Ratio (z) = 0.27561 0.11278
#
# Static dielectric constant tensor:
#      x y z
#    x 1.779350 -0.049310 -0.008040 
#    y -0.049310 1.829800 -0.007770 
#    z -0.008040 -0.007770 1.786780 
# 
# From -- ./inp_files/257579.got.cif
#   From: 2010.05.17/outbox.cif.g08.bks.cpg/sg2_129_cif.got.tgz:257579.got - 2010.06.03 11:33:40.
