data_PCOD9071541
_publ_section_title
;
Structure prediction by ZEFSAII (Michael W. Deem and Ramdas Pophale) SiO2 
 PCOD9071541
Probable space group: P -1
;
_chemical_formula_sum "Si O2"
_cell_formula_units_Z 13
_cell_length_a 9.064101
_cell_length_b 13.974891
_cell_length_c 7.502885
_cell_angle_alpha 74.366904
_cell_angle_beta 34.239365
_cell_angle_gamma 66.540412
_cell_volume 487.252083
_symmetry_space_group_name_H-M "P -1"
_symmetry_group_IT_number 2
_symmetry_cell_setting 'triclinic'
loop_
_space_group_symop_operation_xyz
x,y,z
-x,-y,-z
loop_
_atom_site_type_symbol
_atom_site_label
_atom_site_fract_x
_atom_site_fract_y
_atom_site_fract_z
Si Si1 0.680916 0.761584 0.740554
Si Si2 0.964126 0.315386 0.241462
Si Si3 0.780145 0.282678 0.962181
Si Si4 0.529817 0.500468 0.187342
Si Si5 0.000000 0.500000 0.000000
Si Si6 0.453344 0.001670 0.834018
Si Si7 0.157521 0.870757 0.721625
O O1 0.801734 0.746180 0.824424
O O2 0.946346 0.697012 0.391967
O O3 0.596354 0.880993 0.700252
O O4 0.413845 0.725656 0.004967
O O5 0.750201 0.427292 0.473511
O O6 0.821408 0.230668 0.370307
O O7 0.083809 0.371090 0.941150
O O8 0.593038 0.377395 0.219968
O O9 0.855182 0.175037 0.047760
O O10 0.772934 0.526013 0.038505
O O11 0.500000 0.500000 0.000000
O O12 0.600789 0.079472 0.564714
O O13 0.131061 0.042780 0.087255
O O14 0.500000 0.000000 0.000000
#
# Coordination Sequence:
#
# PCOD9071541 Si02
#       7
#     2   2   2   2   1   2   2
#     4  12  28  49  78 109 154 203 258 320 389 467
#     4  12  28  46  78 110 155 202 259 315 389 471
#     4  12  28  49  76 114 154 199 255 322 394 461
#     4  12  27  48  76 112 159 205 259 320 391 472
#     4  12  28  48  78 114 156 210 266 318 390 480
#     4  12  27  48  79 112 149 200 261 320 388 466
#     4  12  28  48  80 110 152 201 255 325 389 454
#
# _framework density 26.680235
#
# number of rings (size 3 to 8) (size 9 to 14) (size 15 to 20)
#    0.000    0.000    4.615    3.692    6.462    4.923 
#    0.000    0.000    0.000    0.000    0.000    0.000 
#    0.000    0.000    0.000    0.000    0.000    0.000 
#
# Total GULP energy -72616.490225 kJ/mol
# GULP energy per Si atom -5585.883863 kJ/mol
# Density = 2.661951 g / cm^3
# Si number density = 26.680235 Si / 1000 Ang^3
#
#
#
# Elastic Constant Matrix: (Units=GPa)
#
#
# Indices 1 2 3 4 5 6 
#
# 1 139.3043 -13.3998 19.9438 19.7866 -33.2304 -13.5908
# 2 -13.3998 114.4982 -9.9657 25.6009 0.9314 9.9576
# 3 19.9438 -9.9657 92.6640 25.9903 -3.5419 3.6460
# 4 19.7866 25.6009 25.9903 37.3059 -0.7390 -0.5174
# 5 -33.2304 0.9314 -3.5419 -0.7390 24.4343 -0.1703
# 6 -13.5908 9.9576 3.6460 -0.5174 -0.1703 49.5846
#
#
#
# Elastic Compliance Matrix: (Units=1/GPa)
#
#
# Indices 1 2 3 4 5 6 
#
# 1 0.013238 0.003319 0.000709 -0.009402 0.017715 0.002872
# 2 0.003319 0.012775 0.004778 -0.013801 0.004288 -0.002136
# 3 0.000709 0.004778 0.015349 -0.014326 0.002560 -0.002035
# 4 -0.009402 -0.013801 -0.014326 0.051015 -0.012783 0.001736
# 5 0.017715 0.004288 0.002560 -0.012783 0.064867 0.003896
# 6 0.002872 -0.002136 -0.002035 0.001736 0.003896 0.021565
#
#
# Mechanical properties :
#
#
# Convention : Reuss Voigt Hill
#
# Bulk Modulus (GPa) = 16.95632 37.73591 27.34612
# Shear Modulus (GPa) = 27.64674 45.59085 36.61880
#
# Velocity S-wave (km/s) = 3.22254 4.13823 3.70875
# Velocity P-wave (km/s) = 4.49617 6.08340 5.34899
#
# Compressibility (1/GPa) = 0.05897506
#
# Stress axis : x y z
#
# Youngs Moduli (GPa) = 75.54023 78.27940 65.15102
#
# Poissons Ratio (x) = -0.25984 -0.04620
# Poissons Ratio (y) = -0.25074 -0.31131
# Poissons Ratio (z) = -0.05357 -0.37404
#
# Static dielectric constant tensor:
#      x y z
#    x 2.164490 0.058300 -0.046280 
#    y 0.058300 1.957590 0.150580 
#    z -0.046280 0.150580 1.793110 
# 
# From -- ./inp_files/60167.got.cif
#   From: 2010.05.17/outbox.cif.g08.bks.cpg/sg2_31_cif.got.tgz:60167.got - 2010.06.03 11:33:40.
