data_PCOD9071754
_publ_section_title
;
Structure prediction by ZEFSAII (Michael W. Deem and Ramdas Pophale) SiO2 
 PCOD9071754
Probable space group: P -1
;
_chemical_formula_sum "Si O2"
_cell_formula_units_Z 16
_cell_length_a 11.034999
_cell_length_b 9.108997
_cell_length_c 16.079963
_cell_angle_alpha 133.022386
_cell_angle_beta 40.693973
_cell_angle_gamma 132.013918
_cell_volume 730.251695
_symmetry_space_group_name_H-M "P -1"
_symmetry_group_IT_number 2
_symmetry_cell_setting 'triclinic'
loop_
_space_group_symop_operation_xyz
x,y,z
-x,-y,-z
loop_
_atom_site_type_symbol
_atom_site_label
_atom_site_fract_x
_atom_site_fract_y
_atom_site_fract_z
Si Si1 0.657953 0.136171 0.088553
Si Si2 0.828246 0.474586 0.010141
Si Si3 0.644192 0.878567 0.476764
Si Si4 0.041856 0.047280 0.898103
Si Si5 0.088350 0.335858 0.542031
Si Si6 0.783245 0.232286 0.417634
Si Si7 0.705598 0.002505 0.678827
Si Si8 0.833342 0.527742 0.268352
O O1 0.658281 0.276437 0.060002
O O2 0.718092 0.311646 0.199152
O O3 0.453867 0.977394 0.164937
O O4 0.835889 0.039410 0.958796
O O5 0.813521 0.709424 0.096424
O O6 0.000000 0.500000 0.000000
O O7 0.937911 0.429887 0.854626
O O8 0.772887 0.100820 0.456333
O O9 0.612588 0.905819 0.601207
O O10 0.441567 0.798950 0.502170
O O11 0.762483 0.713776 0.340223
O O12 0.128015 0.883145 0.744303
O O13 0.000000 0.000000 0.000000
O O14 0.103146 0.519609 0.540938
O O15 0.201572 0.466435 0.613895
O O16 0.876791 0.208067 0.638944
O O17 0.191292 0.160929 0.399498
#
# Coordination Sequence:
#
# PCOD9071754 Si02
#       8
#     2   2   2   2   2   2   2   2
#     4  10  18  32  54  72  98 131 166 202 240 293
#     4   8  16  29  50  75  97 125 159 201 244 287
#     4  10  20  32  53  76 103 125 163 210 245 295
#     4  10  18  29  49  77 105 125 153 201 250 292
#     4  10  21  34  53  71  99 131 168 207 245 295
#     4  11  20  32  51  80 101 128 162 203 252 294
#     4  10  21  37  50  71  97 135 171 204 246 285
#     4   9  16  33  54  76  96 127 165 203 246 289
#
# _framework density 21.910254999999999
#
# number of rings (size 3 to 8) (size 9 to 14) (size 15 to 20)
#    0.000    2.500    0.000    6.000    0.000    3.500 
#    0.000    1.250    0.000    0.000    0.000    0.000 
#    0.000    0.000    0.000    0.000    0.000    0.000 
#
# Total GULP energy -89289.674779 kJ/mol
# GULP energy per Si atom -5580.604674 kJ/mol
# Density = 2.186039 g / cm^3
# Si number density = 21.910255 Si / 1000 Ang^3
#
#
#
# Elastic Constant Matrix: (Units=GPa)
#
#
# Indices 1 2 3 4 5 6 
#
# 1 30.0317 10.9670 3.8408 5.3432 1.5043 -5.0306
# 2 10.9670 127.7044 38.6407 -4.4357 -23.2538 -20.5880
# 3 3.8408 38.6407 54.1029 -10.0555 -9.8847 -0.5868
# 4 5.3432 -4.4357 -10.0555 26.6918 -8.6715 5.6857
# 5 1.5043 -23.2538 -9.8847 -8.6715 23.3264 0.8575
# 6 -5.0306 -20.5880 -0.5868 5.6857 0.8575 18.4038
#
#
#
# Elastic Compliance Matrix: (Units=1/GPa)
#
#
# Indices 1 2 3 4 5 6 
#
# 1 0.042413 -0.002469 -0.008026 -0.020777 -0.016901 0.015782
# 2 -0.002469 0.015086 -0.008351 0.000217 0.011176 0.015348
# 3 -0.008026 -0.008351 0.030971 0.019916 0.013358 -0.017323
# 4 -0.020777 0.000217 0.019916 0.066522 0.035718 -0.027017
# 5 -0.016901 0.011176 0.013358 0.035718 0.074267 -0.006186
# 6 0.015782 0.015348 -0.017323 -0.027017 -0.006186 0.083902
#
#
# Mechanical properties :
#
#
# Convention : Reuss Voigt Hill
#
# Bulk Modulus (GPa) = 19.69289 35.41512 27.55401
# Shear Modulus (GPa) = 13.59508 24.24377 18.91942
#
# Velocity S-wave (km/s) = 2.49366 3.33002 2.94172
# Velocity P-wave (km/s) = 4.15916 5.56635 4.91339
#
# Compressibility (1/GPa) = 0.05077974
#
# Stress axis : x y z
#
# Youngs Moduli (GPa) = 23.57773 66.28494 32.28778
#
# Poissons Ratio (x) = 0.16364 0.25914
# Poissons Ratio (y) = 0.05821 0.26963
# Poissons Ratio (z) = 0.18923 0.55353
#
# Static dielectric constant tensor:
#      x y z
#    x 1.855760 0.026320 0.014410 
#    y 0.026320 1.888840 -0.042110 
#    z 0.014410 -0.042110 1.799320 
# 
# From -- ./inp_files/274492.got.cif
#   From: 2010.05.17/outbox.cif.g08.bks.cpg/sg2_138_cif.got.tgz:274492.got - 2010.06.03 11:33:40.
