data_PCOD9071528
_publ_section_title
;
Structure prediction by ZEFSAII (Michael W. Deem and Ramdas Pophale) SiO2 
 PCOD9071528
Probable space group: P -1
;
_chemical_formula_sum "Si O2"
_cell_formula_units_Z 11
_cell_length_a 9.686539
_cell_length_b 8.765345
_cell_length_c 11.721734
_cell_angle_alpha 114.660704
_cell_angle_beta 73.534126
_cell_angle_gamma 149.792865
_cell_volume 448.541517
_symmetry_space_group_name_H-M "P -1"
_symmetry_group_IT_number 2
_symmetry_cell_setting 'triclinic'
loop_
_space_group_symop_operation_xyz
x,y,z
-x,-y,-z
loop_
_atom_site_type_symbol
_atom_site_label
_atom_site_fract_x
_atom_site_fract_y
_atom_site_fract_z
Si Si1 0.286141 0.232865 0.060555
Si Si2 0.552354 0.742603 0.330494
Si Si3 0.172609 0.827929 0.106932
Si Si4 0.500000 0.500000 0.500000
Si Si5 0.972596 0.566481 0.646424
Si Si6 0.242486 0.546113 0.724063
O O1 0.390484 0.427484 0.211335
O O2 0.260902 0.016334 0.032847
O O3 0.500000 0.500000 0.000000
O O4 0.000000 0.000000 0.000000
O O5 0.586010 0.723013 0.447661
O O6 0.343109 0.689838 0.345350
O O7 0.832843 0.074861 0.303112
O O8 0.959752 0.714437 0.205888
O O9 0.460675 0.089748 0.187257
O O10 0.000000 0.500000 0.000000
O O11 0.313272 0.462184 0.597862
O O12 0.079539 0.539725 0.704643
O O13 0.000000 0.500000 0.500000
#
# Coordination Sequence:
#
# PCOD9071528 Si02
#       6
#     2   2   2   1   2   2
#     4  12  28  50  77 112 154 206 262 325 395 460
#     4  12  28  48  77 110 156 203 257 322 393 472
#     4  12  29  52  79 115 154 211 268 324 395 467
#     4  12  28  50  80 112 158 200 262 318 396 466
#     4  12  27  47  73 112 152 198 248 315 391 469
#     4  12  28  50  80 112 159 204 262 328 398 469
#
# _framework density 24.523931000000001
#
# number of rings (size 3 to 8) (size 9 to 14) (size 15 to 20)
#    0.000    0.000    3.636    4.364   12.727    1.455 
#    0.000    0.000    0.000    0.000    0.000    0.000 
#    0.000    0.000    0.000    0.000    0.000    0.000 
#
# Total GULP energy -61385.563028 kJ/mol
# GULP energy per Si atom -5580.505730 kJ/mol
# Density = 2.446811 g / cm^3
# Si number density = 24.523931 Si / 1000 Ang^3
#
#
#
# Elastic Constant Matrix: (Units=GPa)
#
#
# Indices 1 2 3 4 5 6 
#
# 1 128.3717 35.5797 14.2780 -2.8250 11.3696 -17.7651
# 2 35.5797 148.6667 22.4622 -11.6278 8.8821 -5.6163
# 3 14.2780 22.4622 37.7163 -5.8935 -1.7638 -6.0026
# 4 -2.8250 -11.6278 -5.8935 48.8366 2.7297 0.0542
# 5 11.3696 8.8821 -1.7638 2.7297 32.7301 0.6120
# 6 -17.7651 -5.6163 -6.0026 0.0542 0.6120 45.0697
#
#
#
# Elastic Compliance Matrix: (Units=1/GPa)
#
#
# Indices 1 2 3 4 5 6 
#
# 1 0.009165 -0.001567 -0.002160 0.000057 -0.002939 0.003169
# 2 -0.001567 0.007931 -0.004021 0.001421 -0.001940 -0.000140
# 3 -0.002160 -0.004021 0.030686 0.002437 0.003242 0.002687
# 4 0.000057 0.001421 0.002437 0.021226 -0.002054 0.000526
# 5 -0.002939 -0.001940 0.003242 -0.002054 0.032473 -0.001407
# 6 0.003169 -0.000140 0.002687 0.000526 -0.001407 0.023796
#
#
# Mechanical properties :
#
#
# Convention : Reuss Voigt Hill
#
# Bulk Modulus (GPa) = 30.97410 51.04384 41.00897
# Shear Modulus (GPa) = 32.99562 41.48959 37.24260
#
# Velocity S-wave (km/s) = 3.67201 4.11761 3.90118
# Velocity P-wave (km/s) = 5.53496 6.59283 6.08692
#
# Compressibility (1/GPa) = 0.03228504
#
# Stress axis : x y z
#
# Youngs Moduli (GPa) = 109.11518 126.09012 32.58777
#
# Poissons Ratio (x) = 0.19761 0.07040
# Poissons Ratio (y) = 0.17100 0.13104
# Poissons Ratio (z) = 0.23571 0.50701
#
# Static dielectric constant tensor:
#      x y z
#    x 1.732690 0.052060 -0.190640 
#    y 0.052060 1.901180 0.080330 
#    z -0.190640 0.080330 1.876210 
# 
# From -- ./inp_files/74615.got.cif
#   From: 2010.05.17/outbox.cif.g08.bks.cpg/sg2_38_cif.got.tgz:74615.got - 2010.06.03 11:33:40.
