data_PCOD9071327
_publ_section_title
;
Structure prediction by ZEFSAII (Michael W. Deem and Ramdas Pophale) SiO2 
 PCOD9071327
Probable space group: P -1
;
_chemical_formula_sum "Si O2"
_cell_formula_units_Z 10
_cell_length_a 15.160651
_cell_length_b 15.526827
_cell_length_c 9.619994
_cell_angle_alpha 142.788495
_cell_angle_beta 133.756296
_cell_angle_gamma 18.664659
_cell_volume 414.458878
_symmetry_space_group_name_H-M "P -1"
_symmetry_group_IT_number 2
_symmetry_cell_setting 'triclinic'
loop_
_space_group_symop_operation_xyz
x,y,z
-x,-y,-z
loop_
_atom_site_type_symbol
_atom_site_label
_atom_site_fract_x
_atom_site_fract_y
_atom_site_fract_z
Si Si1 0.735426 0.668437 0.955516
Si Si2 0.305403 0.602931 0.320006
Si Si3 0.690019 0.761341 0.536066
Si Si4 0.294268 0.478207 0.535899
Si Si5 0.722661 0.240934 0.785813
O O1 0.762088 0.483233 0.814170
O O2 0.670807 0.681841 0.746550
O O3 0.000000 0.500000 0.000000
O O4 0.503104 0.973867 0.206674
O O5 0.500000 0.500000 0.500000
O O6 0.359215 0.548776 0.143500
O O7 0.000000 0.000000 0.500000
O O8 0.763143 0.527455 0.380825
O O9 0.000000 0.500000 0.500000
O O10 0.500000 0.000000 0.500000
O O11 0.603691 0.227644 0.559493
O O12 0.041884 0.857788 0.699409
O O13 0.500000 0.500000 0.000000
#
# Coordination Sequence:
#
# PCOD9071327 Si02
#       5
#     2   2   2   2   2
#     4  12  27  52  84 114 161 215 268 327 400 480
#     4  12  26  49  79 115 154 204 272 327 389 481
#     4  12  29  49  75 114 155 205 266 333 395 467
#     4  12  26  50  75 109 156 205 268 317 397 473
#     4  12  26  48  75 113 156 206 254 334 394 466
#
# _framework density 24.127846999999999
#
# number of rings (size 3 to 8) (size 9 to 14) (size 15 to 20)
#    0.000    0.000    4.000    4.800    5.600    4.800 
#    0.000    0.000    0.000    0.000    0.000    0.000 
#    0.000    0.000    0.000    0.000    0.000    0.000 
#
# Total GULP energy -55700.620188 kJ/mol
# GULP energy per Si atom -5570.062019 kJ/mol
# Density = 2.407293 g / cm^3
# Si number density = 24.127847 Si / 1000 Ang^3
#
#
#
# Elastic Constant Matrix: (Units=GPa)
#
#
# Indices 1 2 3 4 5 6 
#
# 1 259.1221 85.3218 41.6390 -4.1986 -10.0659 31.2433
# 2 85.3218 176.4400 33.5515 6.9126 -0.3042 11.4327
# 3 41.6390 33.5515 101.5351 0.7335 -21.0043 2.7099
# 4 -4.1986 6.9126 0.7335 30.7063 -4.7120 -5.9831
# 5 -10.0659 -0.3042 -21.0043 -4.7120 53.0180 -5.3069
# 6 31.2433 11.4327 2.7099 -5.9831 -5.3069 67.5938
#
#
#
# Elastic Compliance Matrix: (Units=1/GPa)
#
#
# Indices 1 2 3 4 5 6 
#
# 1 0.004994 -0.002096 -0.001243 0.000886 0.000342 -0.001798
# 2 -0.002096 0.007121 -0.001730 -0.002133 -0.001278 -0.000455
# 3 -0.001243 -0.001730 0.011855 0.000804 0.004605 0.000824
# 4 0.000886 -0.002133 0.000804 0.034377 0.003856 0.003265
# 5 0.000342 -0.001278 0.004605 0.003856 0.021275 0.001885
# 6 -0.001798 -0.000455 0.000824 0.003265 0.001885 0.016106
#
#
# Mechanical properties :
#
#
# Convention : Reuss Voigt Hill
#
# Bulk Modulus (GPa) = 72.29906 95.34686 83.82296
# Shear Modulus (GPa) = 45.25846 55.36927 50.31387
#
# Velocity S-wave (km/s) = 4.33572 4.79563 4.57147
# Velocity P-wave (km/s) = 7.42258 8.38256 7.91713
#
# Compressibility (1/GPa) = 0.01383144
#
# Stress axis : x y z
#
# Youngs Moduli (GPa) = 200.25751 140.42665 84.35264
#
# Poissons Ratio (x) = 0.29434 0.10483
# Poissons Ratio (y) = 0.41975 0.14596
# Poissons Ratio (z) = 0.24888 0.24298
#
# Static dielectric constant tensor:
#      x y z
#    x 1.803500 0.084510 0.031330 
#    y 0.084510 1.904040 -0.076340 
#    z 0.031330 -0.076340 1.880150 
# 
# From -- ./inp_files/167276.got.cif
#   From: 2010.05.17/outbox.cif.g08.bks.cpg/sg2_84_cif.got.tgz:167276.got - 2010.06.03 11:33:40.
