data_PCOD9071290
_publ_section_title
;
Structure prediction by ZEFSAII (Michael W. Deem and Ramdas Pophale) SiO2 
 PCOD9071290
Probable space group: P -1
;
_chemical_formula_sum "Si O2"
_cell_formula_units_Z 16
_cell_length_a 16.280035
_cell_length_b 9.532817
_cell_length_c 18.764701
_cell_angle_alpha 35.498814
_cell_angle_beta 146.007355
_cell_angle_gamma 150.865521
_cell_volume 748.188233
_symmetry_space_group_name_H-M "P -1"
_symmetry_group_IT_number 2
_symmetry_cell_setting 'triclinic'
loop_
_space_group_symop_operation_xyz
x,y,z
-x,-y,-z
loop_
_atom_site_type_symbol
_atom_site_label
_atom_site_fract_x
_atom_site_fract_y
_atom_site_fract_z
Si Si1 0.643392 0.644139 0.977559
Si Si2 0.406052 0.163101 0.887209
Si Si3 0.961163 0.225840 0.134799
Si Si4 0.193973 0.708474 0.217561
Si Si5 0.934615 0.513179 0.248976
Si Si6 0.785800 0.870172 0.382967
Si Si7 0.501566 0.321255 0.508242
Si Si8 0.918501 0.208879 0.614527
O O1 0.544402 0.481213 0.897786
O O2 0.761198 0.006875 0.910812
O O3 0.500000 0.500000 0.000000
O O4 0.798487 0.598935 0.115751
O O5 0.294471 0.176219 0.735750
O O6 0.248266 0.945219 0.920678
O O7 0.500000 0.000000 0.000000
O O8 0.098187 0.408818 0.224536
O O9 0.986068 0.964691 0.242619
O O10 0.000000 0.500000 0.000000
O O11 0.394502 0.819024 0.339270
O O12 0.056021 0.616870 0.221942
O O13 0.066410 0.662421 0.349647
O O14 0.797628 0.149719 0.306865
O O15 0.634532 0.565610 0.442305
O O16 0.000000 0.000000 0.500000
O O17 0.500000 0.500000 0.500000
O O18 0.293299 0.059439 0.444791
O O19 0.000000 0.500000 0.500000
#
# Coordination Sequence:
#
# PCOD9071290 Si02
#       8
#     2   2   2   2   2   2   2   2
#     4  12  28  47  73 111 148 194 255 316 370 448
#     4  12  26  47  78 108 147 200 251 312 377 455
#     4  12  26  49  74 107 147 198 247 306 378 449
#     4  12  26  48  73 106 148 195 246 305 377 447
#     4  12  26  49  72 107 154 193 242 321 373 444
#     4  12  26  49  78 111 154 196 251 309 384 453
#     4  12  27  47  78 108 147 197 249 305 376 463
#     4  12  30  47  77 112 154 196 250 315 384 448
#
# _framework density 21.384992
#
# number of rings (size 3 to 8) (size 9 to 14) (size 15 to 20)
#    0.000    0.000    5.000    3.375   10.500    0.500 
#    0.000    0.000    0.000    0.000    0.000    0.000 
#    0.000    0.000    0.000    0.000    0.000    0.000 
#
# Total GULP energy -89374.341832 kJ/mol
# GULP energy per Si atom -5585.896365 kJ/mol
# Density = 2.133632 g / cm^3
# Si number density = 21.384992 Si / 1000 Ang^3
#
#
#
# Elastic Constant Matrix: (Units=GPa)
#
#
# Indices 1 2 3 4 5 6 
#
# 1 75.7436 16.4290 29.3065 5.3997 -0.5016 -4.0809
# 2 16.4290 119.7606 18.5725 9.9435 -9.3131 -11.0871
# 3 29.3065 18.5725 106.8635 -4.8073 8.1119 8.4267
# 4 5.3997 9.9435 -4.8073 52.1760 -5.8359 -1.3103
# 5 -0.5016 -9.3131 8.1119 -5.8359 38.1316 12.7355
# 6 -4.0809 -11.0871 8.4267 -1.3103 12.7355 43.0022
#
#
#
# Elastic Compliance Matrix: (Units=1/GPa)
#
#
# Indices 1 2 3 4 5 6 
#
# 1 0.015311 -0.001127 -0.004228 -0.001721 -0.000094 0.001967
# 2 -0.001127 0.009208 -0.001649 -0.001553 0.001662 0.002051
# 3 -0.004228 -0.001649 0.011201 0.001522 -0.001792 -0.002444
# 4 -0.001721 -0.001553 0.001522 0.020055 0.002694 -0.001049
# 5 -0.000094 0.001662 -0.001792 0.002694 0.030117 -0.008067
# 6 0.001967 0.002051 -0.002444 -0.001049 -0.008067 0.026806
#
#
# Mechanical properties :
#
#
# Convention : Reuss Voigt Hill
#
# Bulk Modulus (GPa) = 46.05843 47.88709 46.97276
# Shear Modulus (GPa) = 37.32875 42.53260 39.93068
#
# Velocity S-wave (km/s) = 4.18252 4.46455 4.32583
# Velocity P-wave (km/s) = 6.70143 7.00126 6.85299
#
# Compressibility (1/GPa) = 0.02171155
#
# Stress axis : x y z
#
# Youngs Moduli (GPa) = 65.31295 108.59661 89.27654
#
# Poissons Ratio (x) = 0.12240 0.37749
# Poissons Ratio (y) = 0.07361 0.14722
# Poissons Ratio (z) = 0.27616 0.17908
#
# Static dielectric constant tensor:
#      x y z
#    x 1.789360 -0.005760 -0.167880 
#    y -0.005760 1.798900 -0.072850 
#    z -0.167880 -0.072850 2.128360 
# 
# From -- ./inp_files/225832.got.cif
#   From: 2010.05.17/outbox.cif.g08.bks.cpg/sg2_113_cif.got.tgz:225832.got - 2010.06.03 11:33:40.
