data_PCOD9071488
_publ_section_title
;
Structure prediction by ZEFSAII (Michael W. Deem and Ramdas Pophale) SiO2 
 PCOD9071488
Probable space group: P -1
;
_chemical_formula_sum "Si O2"
_cell_formula_units_Z 12
_cell_length_a 11.509893
_cell_length_b 8.622489
_cell_length_c 9.225774
_cell_angle_alpha 98.178360
_cell_angle_beta 44.308623
_cell_angle_gamma 121.766249
_cell_volume 499.590716
_symmetry_space_group_name_H-M "P -1"
_symmetry_group_IT_number 2
_symmetry_cell_setting 'triclinic'
loop_
_space_group_symop_operation_xyz
x,y,z
-x,-y,-z
loop_
_atom_site_type_symbol
_atom_site_label
_atom_site_fract_x
_atom_site_fract_y
_atom_site_fract_z
Si Si1 0.272543 0.293612 0.163168
Si Si2 0.330693 0.970170 0.041557
Si Si3 0.319071 0.532339 0.660475
Si Si4 0.072064 0.425860 0.564827
Si Si5 0.568292 0.971749 0.583528
Si Si6 0.025819 0.180917 0.082382
O O1 0.138685 0.310040 0.401920
O O2 0.203201 0.276945 0.058034
O O3 0.266954 0.105129 0.165423
O O4 0.500000 0.500000 0.000000
O O5 0.138550 0.739789 0.183161
O O6 0.470883 0.045544 0.784329
O O7 0.500000 0.000000 0.000000
O O8 0.500000 0.500000 0.500000
O O9 0.241740 0.540505 0.565755
O O10 0.436460 0.734677 0.676548
O O11 0.110134 0.350932 0.908804
O O12 0.000000 0.500000 0.500000
O O13 0.500000 0.000000 0.500000
O O14 0.817803 0.093216 0.354849
O O15 0.000000 0.000000 0.000000
#
# Coordination Sequence:
#
# PCOD9071488 Si02
#       6
#     2   2   2   2   2   2
#     4  12  28  50  80 112 163 209 266 334 402 478
#     4  12  29  49  76 116 159 213 266 325 405 481
#     4  12  28  49  86 121 157 212 274 328 403 481
#     4  12  29  52  80 118 161 209 268 333 407 478
#     4  12  29  49  79 114 163 204 268 333 397 478
#     4  12  26  51  82 116 157 211 269 333 403 475
#
# _framework density 24.019663000000001
#
# number of rings (size 3 to 8) (size 9 to 14) (size 15 to 20)
#    0.000    0.000    1.667    6.500   14.000    1.333 
#    0.000    0.000    0.000    0.000    0.000    0.000 
#    0.000    0.000    0.000    0.000    0.000    0.000 
#
# Total GULP energy -66948.626146 kJ/mol
# GULP energy per Si atom -5579.052179 kJ/mol
# Density = 2.396499 g / cm^3
# Si number density = 24.019663 Si / 1000 Ang^3
#
#
#
# Elastic Constant Matrix: (Units=GPa)
#
#
# Indices 1 2 3 4 5 6 
#
# 1 145.9122 32.6769 29.2214 -7.5144 0.2398 21.9634
# 2 32.6769 97.0686 44.4107 -16.3991 -15.5009 -4.2213
# 3 29.2214 44.4107 145.1955 -6.3813 -8.0795 -3.8745
# 4 -7.5144 -16.3991 -6.3813 52.1039 -2.8923 -2.0544
# 5 0.2398 -15.5009 -8.0795 -2.8923 35.9111 1.6868
# 6 21.9634 -4.2213 -3.8745 -2.0544 1.6868 47.0724
#
#
#
# Elastic Compliance Matrix: (Units=1/GPa)
#
#
# Indices 1 2 3 4 5 6 
#
# 1 0.008291 -0.002708 -0.001022 -0.000015 -0.001260 -0.004151
# 2 -0.002708 0.014445 -0.003311 0.004158 0.005737 0.002262
# 3 -0.001022 -0.003311 0.008142 -0.000140 0.000359 0.000831
# 4 -0.000015 0.004158 -0.000140 0.020715 0.003378 0.001152
# 5 -0.001260 0.005737 0.000359 0.003378 0.030676 0.000180
# 6 -0.004151 0.002262 0.000831 0.001152 0.000180 0.023496
#
#
# Mechanical properties :
#
#
# Convention : Reuss Voigt Hill
#
# Bulk Modulus (GPa) = 59.53699 66.75490 63.14594
# Shear Modulus (GPa) = 39.85843 45.80863 42.83353
#
# Velocity S-wave (km/s) = 4.07800 4.37181 4.22746
# Velocity P-wave (km/s) = 6.85668 7.30313 7.08342
#
# Compressibility (1/GPa) = 0.01679628
#
# Stress axis : x y z
#
# Youngs Moduli (GPa) = 120.61935 69.22600 122.82450
#
# Poissons Ratio (x) = 0.18745 0.12551
# Poissons Ratio (y) = 0.32661 0.40668
# Poissons Ratio (z) = 0.12326 0.22921
#
# Static dielectric constant tensor:
#      x y z
#    x 1.923520 -0.088030 -0.035730 
#    y -0.088030 1.841060 0.031130 
#    z -0.035730 0.031130 2.001640 
# 
# From -- ./inp_files/148684.got.cif
#   From: 2010.05.17/outbox.cif.g08.bks.cpg/sg2_75_cif.got.tgz:148684.got - 2010.06.03 11:33:40.
