data_PCOD9071377
_publ_section_title
;
Structure prediction by ZEFSAII (Michael W. Deem and Ramdas Pophale) SiO2 
 PCOD9071377
Probable space group: P -1
;
_chemical_formula_sum "Si O2"
_cell_formula_units_Z 12
_cell_length_a 5.132526
_cell_length_b 14.562427
_cell_length_c 9.639390
_cell_angle_alpha 118.636043
_cell_angle_beta 75.038891
_cell_angle_gamma 67.116829
_cell_volume 486.648799
_symmetry_space_group_name_H-M "P -1"
_symmetry_group_IT_number 2
_symmetry_cell_setting 'triclinic'
loop_
_space_group_symop_operation_xyz
x,y,z
-x,-y,-z
loop_
_atom_site_type_symbol
_atom_site_label
_atom_site_fract_x
_atom_site_fract_y
_atom_site_fract_z
Si Si1 0.917335 0.130860 0.036219
Si Si2 0.882763 0.748831 0.468799
Si Si3 0.284063 0.865655 0.438970
Si Si4 0.033994 0.486532 0.820470
Si Si5 0.375902 0.213981 0.948005
Si Si6 0.659340 0.360038 0.444688
O O1 0.722039 0.151359 0.936365
O O2 0.688440 0.257450 0.260039
O O3 0.220843 0.139985 0.963898
O O4 0.000000 0.000000 0.000000
O O5 0.498932 0.846520 0.532983
O O6 0.079100 0.603444 0.270332
O O7 0.074370 0.809495 0.448396
O O8 0.964757 0.715709 0.596840
O O9 0.571705 0.795867 0.231098
O O10 0.000000 0.000000 0.500000
O O11 0.401796 0.399521 0.635324
O O12 0.849317 0.629612 0.882382
O O13 0.000000 0.500000 0.000000
O O14 0.500000 0.500000 0.500000
#
# Coordination Sequence:
#
# PCOD9071377 Si02
#       6
#     2   2   2   2   2   2
#     4  12  30  51  78 111 163 212 268 324 397 478
#     4  12  26  49  79 115 154 205 262 328 397 470
#     4  12  28  50  78 113 156 207 267 328 401 472
#     4  12  26  48  81 118 158 199 270 328 399 466
#     4  12  27  50  78 112 156 208 263 335 388 475
#     4  12  27  50  82 118 161 213 261 328 401 475
#
# _framework density 24.658439000000001
#
# number of rings (size 3 to 8) (size 9 to 14) (size 15 to 20)
#    0.000    0.000    5.000    3.000    4.667    4.000 
#    0.000    0.000    0.000    0.000    0.000    0.000 
#    0.000    0.000    0.000    0.000    0.000    0.000 
#
# Total GULP energy -67091.750293 kJ/mol
# GULP energy per Si atom -5590.979191 kJ/mol
# Density = 2.460232 g / cm^3
# Si number density = 24.658439 Si / 1000 Ang^3
#
#
#
# Elastic Constant Matrix: (Units=GPa)
#
#
# Indices 1 2 3 4 5 6 
#
# 1 136.2308 67.9220 34.7923 -9.7800 16.8290 22.4347
# 2 67.9220 201.3820 24.9203 30.5874 30.4166 6.0728
# 3 34.7923 24.9203 64.0276 -12.3043 5.8042 3.6699
# 4 -9.7800 30.5874 -12.3043 47.8316 -5.7097 12.3994
# 5 16.8290 30.4166 5.8042 -5.7097 32.5778 6.5110
# 6 22.4347 6.0728 3.6699 12.3994 6.5110 33.3576
#
#
#
# Elastic Compliance Matrix: (Units=1/GPa)
#
#
# Indices 1 2 3 4 5 6 
#
# 1 0.012808 -0.005281 -0.002892 0.008383 0.002484 -0.010935
# 2 -0.005281 0.010109 -0.002874 -0.011608 -0.009886 0.008272
# 3 -0.002892 -0.002874 0.019661 0.007369 0.002552 -0.002932
# 4 0.008383 -0.011608 0.007369 0.039715 0.016621 -0.022342
# 5 0.002484 -0.009886 0.002552 0.016621 0.044086 -0.014935
# 6 -0.010935 0.008272 -0.002932 -0.022342 -0.014935 0.047369
#
#
# Mechanical properties :
#
#
# Convention : Reuss Voigt Hill
#
# Bulk Modulus (GPa) = 48.81510 72.98995 60.90252
# Shear Modulus (GPa) = 24.67071 41.02045 32.84558
#
# Velocity S-wave (km/s) = 3.16650 4.08308 3.65365
# Velocity P-wave (km/s) = 5.76267 7.20371 6.52311
#
# Compressibility (1/GPa) = 0.02048547
#
# Stress axis : x y z
#
# Youngs Moduli (GPa) = 78.07888 98.91906 50.86203
#
# Poissons Ratio (x) = 0.52235 0.14708
# Poissons Ratio (y) = 0.41230 0.14617
# Poissons Ratio (z) = 0.22579 0.28428
#
# Static dielectric constant tensor:
#      x y z
#    x 2.028370 -0.005870 -0.018410 
#    y -0.005870 2.012380 0.047330 
#    z -0.018410 0.047330 2.053760 
# 
# From -- ./inp_files/134581.got.cif
#   From: 2010.05.17/outbox.cif.g08.bks.cpg/sg2_68_cif.got.tgz:134581.got - 2010.06.03 11:33:40.
