data_PCOD9071279
_publ_section_title
;
Structure prediction by ZEFSAII (Michael W. Deem and Ramdas Pophale) SiO2 
 PCOD9071279
Probable space group: P -1
;
_chemical_formula_sum "Si O2"
_cell_formula_units_Z 14
_cell_length_a 15.962827
_cell_length_b 6.639215
_cell_length_c 25.567023
_cell_angle_alpha 111.275465
_cell_angle_beta 16.702139
_cell_angle_gamma 102.482299
_cell_volume 632.299020
_symmetry_space_group_name_H-M "P -1"
_symmetry_group_IT_number 2
_symmetry_cell_setting 'triclinic'
loop_
_space_group_symop_operation_xyz
x,y,z
-x,-y,-z
loop_
_atom_site_type_symbol
_atom_site_label
_atom_site_fract_x
_atom_site_fract_y
_atom_site_fract_z
Si Si1 0.822801 0.440057 0.835702
Si Si2 0.268265 0.065433 0.020750
Si Si3 0.630427 0.788042 0.134702
Si Si4 0.765034 0.506193 0.687812
Si Si5 0.296324 0.270874 0.439972
Si Si6 0.744012 0.029734 0.397200
Si Si7 0.247598 0.480714 0.803387
O O1 0.690946 0.702196 0.966902
O O2 0.130058 0.359003 0.604191
O O3 0.500000 0.500000 0.000000
O O4 0.973909 0.223157 0.768171
O O5 0.919986 0.134570 0.262841
O O6 0.326222 0.052784 0.922727
O O7 0.516078 0.797806 0.870532
O O8 0.418182 0.652616 0.232934
O O9 0.459092 0.978821 0.303059
O O10 0.000266 0.588730 0.912008
O O11 0.000000 0.500000 0.500000
O O12 0.995442 0.397548 0.590332
O O13 0.571318 0.358922 0.276577
O O14 0.536083 0.213291 0.586193
O O15 0.500000 0.000000 0.500000
O O16 0.000000 0.500000 0.000000
#
# Coordination Sequence:
#
# PCOD9071279 Si02
#       7
#     2   2   2   2   2   2   2
#     4  12  28  47  74 111 150 189 245 312 375 437
#     4  12  26  48  75 106 148 191 249 296 369 453
#     4  12  27  48  75 107 148 197 249 303 368 447
#     4  12  26  47  77 110 146 196 249 304 369 446
#     4  12  26  47  76 111 148 194 245 312 375 432
#     4  12  28  48  75 106 149 199 245 298 371 451
#     4  12  27  48  74 110 150 192 248 311 371 434
#
# _framework density 22.141423
#
# number of rings (size 3 to 8) (size 9 to 14) (size 15 to 20)
#    0.000    0.000    2.857    6.857    8.000    2.286 
#    0.000    0.000    0.000    0.000    0.000    0.000 
#    0.000    0.000    0.000    0.000    0.000    0.000 
#
# Total GULP energy -78262.603574 kJ/mol
# GULP energy per Si atom -5590.185970 kJ/mol
# Density = 2.209103 g / cm^3
# Si number density = 22.141423 Si / 1000 Ang^3
#
#
#
# Elastic Constant Matrix: (Units=GPa)
#
#
# Indices 1 2 3 4 5 6 
#
# 1 77.5727 41.0871 27.5932 -10.4732 -12.6541 3.5426
# 2 41.0871 111.3838 56.5897 -6.5551 -11.0421 7.4818
# 3 27.5932 56.5897 113.1078 -5.4289 10.6934 0.4699
# 4 -10.4732 -6.5551 -5.4289 41.2554 1.3314 -2.8964
# 5 -12.6541 -11.0421 10.6934 1.3314 58.8509 0.8640
# 6 3.5426 7.4818 0.4699 -2.8964 0.8640 30.8614
#
#
#
# Elastic Compliance Matrix: (Units=1/GPa)
#
#
# Indices 1 2 3 4 5 6 
#
# 1 0.017061 -0.004807 -0.001890 0.003182 0.003046 -0.000551
# 2 -0.004807 0.014436 -0.006311 -0.000056 0.002866 -0.002937
# 3 -0.001890 -0.006311 0.012849 0.000456 -0.003961 0.001705
# 4 0.003182 -0.000056 0.000456 0.025240 -0.000010 0.002010
# 5 0.003046 0.002866 -0.003961 -0.000010 0.018927 -0.001515
# 6 -0.000551 -0.002937 0.001705 0.002010 -0.001515 0.033383
#
#
# Mechanical properties :
#
#
# Convention : Reuss Voigt Hill
#
# Bulk Modulus (GPa) = 54.55723 61.40048 57.97885
# Shear Modulus (GPa) = 32.46281 37.97982 35.22132
#
# Velocity S-wave (km/s) = 3.83320 4.14615 3.99274
# Velocity P-wave (km/s) = 6.65470 7.12123 6.89192
#
# Compressibility (1/GPa) = 0.01832938
#
# Stress axis : x y z
#
# Youngs Moduli (GPa) = 58.61275 69.27228 77.82651
#
# Poissons Ratio (x) = 0.33299 0.14710
# Poissons Ratio (y) = 0.28175 0.49118
# Poissons Ratio (z) = 0.11079 0.43719
#
# Static dielectric constant tensor:
#      x y z
#    x 1.615270 -0.119220 0.103170 
#    y -0.119220 1.769610 0.040380 
#    z 0.103170 0.040380 1.828540 
# 
# From -- ./inp_files/72028.got.cif
#   From: 2010.05.17/outbox.cif.g08.bks.cpg/sg2_37_cif.got.tgz:72028.got - 2010.06.03 11:33:40.
