data_PCOD9071169
_publ_section_title
;
Structure prediction by ZEFSAII (Michael W. Deem and Ramdas Pophale) SiO2 
 PCOD9071169
Probable space group: P -1
;
_chemical_formula_sum "Si O2"
_cell_formula_units_Z 9
_cell_length_a 9.116817
_cell_length_b 8.997726
_cell_length_c 8.394583
_cell_angle_alpha 146.991609
_cell_angle_beta 107.061425
_cell_angle_gamma 80.731491
_cell_volume 353.814406
_symmetry_space_group_name_H-M "P -1"
_symmetry_group_IT_number 2
_symmetry_cell_setting 'triclinic'
loop_
_space_group_symop_operation_xyz
x,y,z
-x,-y,-z
loop_
_atom_site_type_symbol
_atom_site_label
_atom_site_fract_x
_atom_site_fract_y
_atom_site_fract_z
Si Si1 0.718169 0.974140 0.590361
Si Si2 0.588620 0.427378 0.166436
Si Si3 0.678052 0.037676 0.271374
Si Si4 0.988906 0.208397 0.323664
Si Si5 0.500000 0.500000 0.500000
O O1 0.585972 0.699704 0.305960
O O2 0.869849 0.839086 0.557109
O O3 0.724127 0.083997 0.511970
O O4 0.674874 0.204189 0.905572
O O5 0.655058 0.537056 0.456916
O O6 0.420638 0.277728 0.055438
O O7 0.554417 0.223372 0.346155
O O8 0.830500 0.105736 0.276773
O O9 0.000000 0.500000 0.500000
O O10 0.000000 0.000000 0.000000
#
# Coordination Sequence:
#
# PCOD9071169 Si02
#       5
#     2   2   2   2   1
#     4  12  27  50  76 112 148 196 244 309 369 441
#     4  12  27  48  76 113 148 193 247 306 369 440
#     4  12  28  47  80 108 154 192 251 301 373 439
#     4  12  29  50  74 108 150 197 248 303 371 438
#     4  12  26  44  72 110 150 188 244 292 372 420
#
# _framework density 25.437065
#
# number of rings (size 3 to 8) (size 9 to 14) (size 15 to 20)
#    0.000    0.000    2.222    6.667    9.333    0.000 
#    0.000    4.444    0.000    0.000    0.000    0.000 
#    0.000    0.000    0.000    0.000    0.000    0.000 
#
# Total GULP energy -50218.711625 kJ/mol
# GULP energy per Si atom -5579.856847 kJ/mol
# Density = 2.537917 g / cm^3
# Si number density = 25.437065 Si / 1000 Ang^3
#
#
#
# Elastic Constant Matrix: (Units=GPa)
#
#
# Indices 1 2 3 4 5 6 
#
# 1 197.8685 84.3180 66.8119 6.7977 -21.4589 23.6398
# 2 84.3180 182.7357 60.9239 12.1517 -25.0525 18.3955
# 3 66.8119 60.9239 158.9253 33.7366 -31.7841 18.6826
# 4 6.7977 12.1517 33.7366 39.2823 -2.7693 0.1871
# 5 -21.4589 -25.0525 -31.7841 -2.7693 38.0803 -8.9618
# 6 23.6398 18.3955 18.6826 0.1871 -8.9618 63.9839
#
#
#
# Elastic Compliance Matrix: (Units=1/GPa)
#
#
# Indices 1 2 3 4 5 6 
#
# 1 0.006918 -0.002423 -0.002038 0.001338 0.000416 -0.001210
# 2 -0.002423 0.007395 -0.001117 -0.000739 0.002380 -0.000569
# 3 -0.002038 -0.001117 0.010640 -0.008001 0.006145 -0.001148
# 4 0.001338 -0.000739 -0.008001 0.032054 -0.003741 0.001437
# 5 0.000416 0.002380 0.006145 -0.003741 0.033402 0.002057
# 6 -0.001210 -0.000569 -0.001148 0.001437 0.002057 0.016859
#
#
# Mechanical properties :
#
#
# Convention : Reuss Voigt Hill
#
# Bulk Modulus (GPa) = 72.47471 107.07079 89.77275
# Shear Modulus (GPa) = 40.64282 50.10100 45.37191
#
# Velocity S-wave (km/s) = 4.00156 4.44284 4.22796
# Velocity P-wave (km/s) = 7.06425 8.27661 7.69434
#
# Compressibility (1/GPa) = 0.01379792
#
# Stress axis : x y z
#
# Youngs Moduli (GPa) = 144.54590 135.21938 93.98888
#
# Poissons Ratio (x) = 0.32761 0.19157
# Poissons Ratio (y) = 0.35021 0.10495
# Poissons Ratio (z) = 0.29461 0.15099
#
# Static dielectric constant tensor:
#      x y z
#    x 2.124570 0.030060 0.062230 
#    y 0.030060 1.664800 0.470170 
#    z 0.062230 0.470170 1.356810 
# 
# From -- ./inp_files/150835.got.cif
#   From: 2010.05.17/outbox.cif.g08.bks.cpg/sg2_76_cif.got.tgz:150835.got - 2010.06.03 11:33:40.
