data_PCOD9071128
_publ_section_title
;
Structure prediction by ZEFSAII (Michael W. Deem and Ramdas Pophale) SiO2 
 PCOD9071128
Probable space group: P -1
;
_chemical_formula_sum "Si O2"
_cell_formula_units_Z 11
_cell_length_a 14.276027
_cell_length_b 8.173896
_cell_length_c 8.677937
_cell_angle_alpha 125.570853
_cell_angle_beta 144.691486
_cell_angle_gamma 52.354180
_cell_volume 455.688660
_symmetry_space_group_name_H-M "P -1"
_symmetry_group_IT_number 2
_symmetry_cell_setting 'triclinic'
loop_
_space_group_symop_operation_xyz
x,y,z
-x,-y,-z
loop_
_atom_site_type_symbol
_atom_site_label
_atom_site_fract_x
_atom_site_fract_y
_atom_site_fract_z
Si Si1 0.457571 0.560963 0.804499
Si Si2 0.069363 0.618922 0.017980
Si Si3 0.586811 0.128490 0.571903
Si Si4 0.651814 0.766575 0.970875
Si Si5 0.000000 0.000000 0.000000
Si Si6 0.139051 0.915123 0.511350
O O1 0.507866 0.364816 0.653488
O O2 0.569986 0.701518 0.974254
O O3 0.262377 0.688909 0.597179
O O4 0.500000 0.500000 0.000000
O O5 0.229020 0.436474 0.071082
O O6 0.074853 0.855862 0.226035
O O7 0.982373 0.744702 0.819258
O O8 0.000000 0.500000 0.000000
O O9 0.502883 0.124751 0.290876
O O10 0.500000 0.000000 0.500000
O O11 0.788988 0.078448 0.815314
O O12 0.758811 0.917922 0.250195
O O13 0.000000 0.000000 0.500000
#
# Coordination Sequence:
#
# PCOD9071128 Si02
#       6
#     2   2   2   2   1   2
#     4  12  27  48  72 113 158 204 264 328 402 471
#     4  12  25  50  81 117 158 209 268 333 407 482
#     4  12  26  49  84 114 159 212 268 331 411 485
#     4  12  25  54  77 109 162 211 254 334 409 470
#     4  12  28  46  84 118 150 214 270 322 406 488
#     4  12  27  45  79 114 153 205 265 323 401 480
#
# _framework density 24.139289000000002
#
# number of rings (size 3 to 8) (size 9 to 14) (size 15 to 20)
#    0.000    0.000    5.455    4.364    2.545    1.455 
#    0.000    1.818    0.000    0.000    0.000    0.000 
#    0.000    0.000    0.000    0.000    0.000    0.000 
#
# Total GULP energy -61265.375503 kJ/mol
# GULP energy per Si atom -5569.579591 kJ/mol
# Density = 2.408435 g / cm^3
# Si number density = 24.139289 Si / 1000 Ang^3
#
#
#
# Elastic Constant Matrix: (Units=GPa)
#
#
# Indices 1 2 3 4 5 6 
#
# 1 195.4319 66.3058 52.9367 -1.8129 22.6051 2.5655
# 2 66.3058 176.1202 58.1477 -5.4308 21.1622 -24.8916
# 3 52.9367 58.1477 120.7410 17.2406 -0.6851 -4.5931
# 4 -1.8129 -5.4308 17.2406 50.6300 -4.0545 6.5151
# 5 22.6051 21.1622 -0.6851 -4.0545 34.8113 4.4753
# 6 2.5655 -24.8916 -4.5931 6.5151 4.4753 73.1657
#
#
#
# Elastic Compliance Matrix: (Units=1/GPa)
#
#
# Indices 1 2 3 4 5 6 
#
# 1 0.006638 -0.001387 -0.002392 0.000728 -0.003337 -0.000715
# 2 -0.001387 0.008332 -0.003511 0.001322 -0.004442 0.002817
# 3 -0.002392 -0.003511 0.011620 -0.004112 0.003467 -0.000227
# 4 0.000728 0.001322 -0.004112 0.021670 0.001404 -0.001850
# 5 -0.003337 -0.004442 0.003467 0.001404 0.034262 -0.003397
# 6 -0.000715 0.002817 -0.000227 -0.001850 -0.003397 0.015009
#
#
# Mechanical properties :
#
#
# Convention : Reuss Voigt Hill
#
# Bulk Modulus (GPa) = 83.27165 94.11927 88.69546
# Shear Modulus (GPa) = 43.06068 52.71495 47.88782
#
# Velocity S-wave (km/s) = 4.22814 4.67817 4.45883
# Velocity P-wave (km/s) = 7.64247 8.26166 7.95809
#
# Compressibility (1/GPa) = 0.01200889
#
# Stress axis : x y z
#
# Youngs Moduli (GPa) = 150.65760 120.02098 86.05537
#
# Poissons Ratio (x) = 0.16643 0.20589
# Poissons Ratio (y) = 0.20891 0.30217
# Poissons Ratio (z) = 0.36045 0.42144
#
# Static dielectric constant tensor:
#      x y z
#    x 2.638420 0.700170 -0.491510 
#    y 0.700170 2.580770 -0.445670 
#    z -0.491510 -0.445670 2.275370 
# 
# From -- ./inp_files/151611.got.cif
#   From: 2010.05.17/outbox.cif.g08.bks.cpg/sg2_76_cif.got.tgz:151611.got - 2010.06.03 11:33:40.
