data_PCOD9071372
_publ_section_title
;
Structure prediction by ZEFSAII (Michael W. Deem and Ramdas Pophale) SiO2 
 PCOD9071372
Probable space group: P -1
;
_chemical_formula_sum "Si O2"
_cell_formula_units_Z 12
_cell_length_a 9.350033
_cell_length_b 8.728572
_cell_length_c 11.485705
_cell_angle_alpha 40.773640
_cell_angle_beta 87.845368
_cell_angle_gamma 66.607090
_cell_volume 504.846686
_symmetry_space_group_name_H-M "P -1"
_symmetry_group_IT_number 2
_symmetry_cell_setting 'triclinic'
loop_
_space_group_symop_operation_xyz
x,y,z
-x,-y,-z
loop_
_atom_site_type_symbol
_atom_site_label
_atom_site_fract_x
_atom_site_fract_y
_atom_site_fract_z
Si Si1 0.217047 0.792306 0.274127
Si Si2 0.679700 0.212516 0.129928
Si Si3 0.482290 0.741962 0.129475
Si Si4 0.928690 0.391838 0.967405
Si Si5 0.141687 0.735474 0.568755
Si Si6 0.855540 0.637148 0.593962
O O1 0.402282 0.687418 0.275676
O O2 0.197112 0.807522 0.405245
O O3 0.158516 0.595024 0.339565
O O4 0.086379 0.119890 0.051840
O O5 0.730477 0.942317 0.361064
O O6 0.500000 0.500000 0.000000
O O7 0.653024 0.169632 0.021051
O O8 0.825350 0.275855 0.095550
O O9 0.676511 0.471929 0.252163
O O10 0.500000 0.000000 0.000000
O O11 0.815044 0.625148 0.738052
O O12 0.000000 0.500000 0.000000
O O13 0.044183 0.586188 0.619953
O O14 0.000000 0.000000 0.500000
#
# Coordination Sequence:
#
# PCOD9071372 Si02
#       6
#     2   2   2   2   2   2
#     4  12  26  50  81 117 158 209 270 329 401 477
#     4  12  29  51  76 115 161 209 266 331 400 472
#     4  12  28  49  76 116 163 205 267 332 395 475
#     4  12  28  49  79 117 158 209 267 329 402 478
#     4  12  26  48  80 115 156 209 263 325 402 477
#     4  12  26  50  81 111 156 211 267 326 399 475
#
# _framework density 23.769593
#
# number of rings (size 3 to 8) (size 9 to 14) (size 15 to 20)
#    0.000    0.000    3.333    5.500    7.000    0.667 
#    3.000    0.000    0.000    0.000    0.000    0.000 
#    0.000    0.000    0.000    0.000    0.000    0.000 
#
# Total GULP energy -67243.323564 kJ/mol
# GULP energy per Si atom -5603.610297 kJ/mol
# Density = 2.371549 g / cm^3
# Si number density = 23.769593 Si / 1000 Ang^3
#
#
#
# Elastic Constant Matrix: (Units=GPa)
#
#
# Indices 1 2 3 4 5 6 
#
# 1 131.4616 74.6724 46.4908 -23.4448 -2.1843 11.1634
# 2 74.6724 155.0501 77.2674 1.5007 -5.4352 7.0401
# 3 46.4908 77.2674 179.0956 6.1546 0.5702 7.1150
# 4 -23.4448 1.5007 6.1546 42.5494 -4.9316 4.3524
# 5 -2.1843 -5.4352 0.5702 -4.9316 39.9764 -5.6866
# 6 11.1634 7.0401 7.1150 4.3524 -5.6866 47.4220
#
#
#
# Elastic Compliance Matrix: (Units=1/GPa)
#
#
# Indices 1 2 3 4 5 6 
#
# 1 0.012740 -0.005532 -0.001081 0.007705 0.000532 -0.002659
# 2 -0.005532 0.010695 -0.003103 -0.002928 0.000914 0.000558
# 3 -0.001081 -0.003103 0.007274 -0.001601 -0.000829 -0.000329
# 4 0.007705 -0.002928 -0.001601 0.028792 0.003113 -0.003408
# 5 0.000532 0.000914 -0.000829 0.003113 0.025946 0.002689
# 6 -0.002659 0.000558 -0.000329 -0.003408 0.002689 0.022315
#
#
# Mechanical properties :
#
#
# Convention : Reuss Voigt Hill
#
# Bulk Modulus (GPa) = 88.67742 95.82983 92.25362
# Shear Modulus (GPa) = 38.18173 43.80134 40.99153
#
# Velocity S-wave (km/s) = 4.01225 4.29738 4.15726
# Velocity P-wave (km/s) = 7.67152 8.06393 7.87017
#
# Compressibility (1/GPa) = 0.01127683
#
# Stress axis : x y z
#
# Youngs Moduli (GPa) = 78.49158 93.50218 137.48419
#
# Poissons Ratio (x) = 0.51726 0.14867
# Poissons Ratio (y) = 0.43422 0.42655
# Poissons Ratio (z) = 0.08488 0.29010
#
# Static dielectric constant tensor:
#      x y z
#    x 1.848690 0.021270 0.002380 
#    y 0.021270 1.879800 0.065930 
#    z 0.002380 0.065930 1.920030 
# 
# From -- ./inp_files/314372.got.cif
#   From: 2010.05.17/outbox.cif.g08.bks.cpg/sg2_158_cif.got.tgz:314372.got - 2010.06.03 11:33:40.
