data_PCOD9071690
_publ_section_title
;
Structure prediction by ZEFSAII (Michael W. Deem and Ramdas Pophale) SiO2 
 PCOD9071690
Probable space group: P -1
;
_chemical_formula_sum "Si O2"
_cell_formula_units_Z 14
_cell_length_a 17.446166
_cell_length_b 22.682832
_cell_length_c 14.016576
_cell_angle_alpha 30.918030
_cell_angle_beta 154.100949
_cell_angle_gamma 165.426899
_cell_volume 605.503550
_symmetry_space_group_name_H-M "P -1"
_symmetry_group_IT_number 2
_symmetry_cell_setting 'triclinic'
loop_
_space_group_symop_operation_xyz
x,y,z
-x,-y,-z
loop_
_atom_site_type_symbol
_atom_site_label
_atom_site_fract_x
_atom_site_fract_y
_atom_site_fract_z
Si Si1 0.083285 0.849281 0.206088
Si Si2 0.693714 0.446475 0.794552
Si Si3 0.596049 0.731614 0.076289
Si Si4 0.653629 0.038593 0.249335
Si Si5 0.669194 0.451789 0.163338
Si Si6 0.661312 0.971633 0.558595
Si Si7 0.547328 0.209476 0.800633
O O1 0.985243 0.694425 0.237323
O O2 0.252927 0.910311 0.412798
O O3 0.700092 0.690796 0.025229
O O4 0.317152 0.083988 0.094836
O O5 0.502804 0.356565 0.805125
O O6 0.454339 0.257745 0.702663
O O7 0.932789 0.687836 0.688062
O O8 0.013991 0.539282 0.054834
O O9 0.959837 0.873715 0.258559
O O10 0.308781 0.536421 0.943129
O O11 0.568957 0.981811 0.343807
O O12 0.572734 0.877304 0.322031
O O13 0.439875 0.026074 0.983438
O O14 0.598509 0.282623 0.354407
#
# Coordination Sequence:
#
# PCOD9071690 Si02
#       7
#     2   2   2   2   2   2   2
#     4   8  15  29  45  65  94 125 150 172 218 278
#     4   9  17  32  49  66  89 119 156 187 219 269
#     4   9  17  28  47  73  95 115 144 187 230 268
#     4   9  17  32  49  66  89 119 156 187 219 269
#     4   8  15  29  45  65  94 125 150 172 218 278
#     4   9  17  28  47  73  95 115 144 187 230 268
#     4   8  18  34  48  64  82 128 164 178 216 264
#
# _framework density 23.121251000000001
#
# number of rings (size 3 to 8) (size 9 to 14) (size 15 to 20)
#    0.857    2.571    0.000    1.714    0.000    2.857 
#    0.000    0.714    0.000    6.857    0.000    0.000 
#    0.000    0.000    0.000    0.000    0.000    0.000 
#
# Total GULP energy -78104.038951 kJ/mol
# GULP energy per Si atom -5578.859925 kJ/mol
# Density = 2.306863 g / cm^3
# Si number density = 23.121251 Si / 1000 Ang^3
#
#
#
# Elastic Constant Matrix: (Units=GPa)
#
#
# Indices 1 2 3 4 5 6 
#
# 1 138.9466 62.6261 34.0833 3.2785 -33.2025 -28.0063
# 2 62.6261 119.5435 15.8408 21.5066 -20.0080 -40.3415
# 3 34.0833 15.8408 58.1809 10.7293 -20.1560 -6.5316
# 4 3.2785 21.5066 10.7293 12.4451 -6.6785 -3.6652
# 5 -33.2025 -20.0080 -20.1560 -6.6785 30.9227 8.9899
# 6 -28.0063 -40.3415 -6.5316 -3.6652 8.9899 42.7643
#
#
#
# Elastic Compliance Matrix: (Units=1/GPa)
#
#
# Indices 1 2 3 4 5 6 
#
# 1 0.015359 -0.009980 -0.007183 0.025089 0.010946 -0.000604
# 2 -0.009980 0.025283 0.007804 -0.045135 -0.003487 0.015371
# 3 -0.007183 0.007804 0.028069 -0.030591 0.008275 0.002583
# 4 0.025089 -0.045135 -0.030591 0.184866 0.023511 -0.019918
# 5 0.010946 -0.003487 0.008275 0.023511 0.053496 -0.004087
# 6 -0.000604 0.015371 0.002583 -0.019918 -0.004087 0.037036
#
#
# Mechanical properties :
#
#
# Convention : Reuss Voigt Hill
#
# Bulk Modulus (GPa) = 20.00250 60.19683 40.09966
# Shear Modulus (GPa) = 13.17555 30.83449 22.00502
#
# Velocity S-wave (km/s) = 2.38973 3.65581 3.08835
# Velocity P-wave (km/s) = 4.03539 6.62659 5.48617
#
# Compressibility (1/GPa) = 0.04999375
#
# Stress axis : x y z
#
# Youngs Moduli (GPa) = 65.10821 39.55241 35.62646
#
# Poissons Ratio (x) = 0.39472 0.25589
# Poissons Ratio (y) = 0.64976 -0.27802
# Poissons Ratio (z) = 0.46765 -0.30866
#
# Static dielectric constant tensor:
#      x y z
#    x 1.954780 0.004930 0.072850 
#    y 0.004930 1.864210 0.067600 
#    z 0.072850 0.067600 1.896490 
# 
# From -- ./inp_files/435066.got.cif
#   From: 2010.05.17/outbox.cif.g08.bks.cpg/sg2_218_cif.got.tgz:435066.got - 2010.06.03 11:33:40.
