data_PCOD9071977
_publ_section_title
;
Structure prediction by ZEFSAII (Michael W. Deem and Ramdas Pophale) SiO2 
 PCOD9071977
Probable space group: P -1
;
_chemical_formula_sum "Si O2"
_cell_formula_units_Z 16
_cell_length_a 6.896573
_cell_length_b 15.579373
_cell_length_c 9.257714
_cell_angle_alpha 132.367802
_cell_angle_beta 115.357133
_cell_angle_gamma 81.986625
_cell_volume 647.312294
_symmetry_space_group_name_H-M "P -1"
_symmetry_group_IT_number 2
_symmetry_cell_setting 'triclinic'
loop_
_space_group_symop_operation_xyz
x,y,z
-x,-y,-z
loop_
_atom_site_type_symbol
_atom_site_label
_atom_site_fract_x
_atom_site_fract_y
_atom_site_fract_z
Si Si1 0.424235 0.920670 0.210723
Si Si2 0.709213 0.160589 0.629140
Si Si3 0.143773 0.205434 0.999790
Si Si4 0.916660 0.242432 0.274760
Si Si5 0.989771 0.969163 0.793326
Si Si6 0.533759 0.567801 0.736434
Si Si7 0.639406 0.395755 0.793158
Si Si8 0.190408 0.467033 0.731114
O O1 0.635217 0.028572 0.390500
O O2 0.239796 0.997665 0.282542
O O3 0.425474 0.840259 0.262473
O O4 0.314650 0.837045 0.948829
O O5 0.660926 0.261924 0.622943
O O6 0.957489 0.192543 0.802554
O O7 0.064754 0.248860 0.180333
O O8 0.346736 0.299073 0.108818
O O9 0.169029 0.072564 0.892614
O O10 0.984504 0.164471 0.340687
O O11 0.972401 0.375047 0.507613
O O12 0.000000 0.000000 0.000000
O O13 0.500000 0.500000 0.500000
O O14 0.677732 0.494887 0.794135
O O15 0.306587 0.550120 0.731622
O O16 0.382142 0.393680 0.745925
O O17 0.801709 0.447455 0.034127
#
# Coordination Sequence:
#
# PCOD9071977 Si02
#       8
#     2   2   2   2   2   2   2   2
#     4   8  15  24  42  71  92 117 154 204 236 255
#     4   9  16  28  43  68 101 119 153 196 239 278
#     4   9  16  27  43  73  97 116 154 199 237 272
#     4   9  14  26  47  70  96 115 158 197 235 267
#     4   7  13  22  41  66  92 108 148 200 236 256
#     4  10  18  30  50  67  96 123 155 204 232 264
#     4   9  19  31  46  68  99 129 155 184 240 286
#     4   9  18  31  47  71  94 128 156 192 230 285
#
# _framework density 24.717592
#
# number of rings (size 3 to 8) (size 9 to 14) (size 15 to 20)
#    0.750    3.000    1.250    0.750    0.000    1.500 
#    0.000    2.500    0.000    0.750    0.000    0.875 
#    0.000    6.250    0.000    0.000    0.000    0.000 
#
# Total GULP energy -89153.876450 kJ/mol
# GULP energy per Si atom -5572.117278 kJ/mol
# Density = 2.466133 g / cm^3
# Si number density = 24.717592 Si / 1000 Ang^3
#
#
#
# Elastic Constant Matrix: (Units=GPa)
#
#
# Indices 1 2 3 4 5 6 
#
# 1 36.5513 32.9408 28.4100 11.4812 -8.9509 -3.2460
# 2 32.9408 151.9354 38.9592 24.5919 13.8237 10.8316
# 3 28.4100 38.9592 155.5837 20.7247 16.4524 10.7542
# 4 11.4812 24.5919 20.7247 36.7097 13.5606 9.8972
# 5 -8.9509 13.8237 16.4524 13.5606 16.0693 -6.5724
# 6 -3.2460 10.8316 10.7542 9.8972 -6.5724 9.9010
#
#
#
# Elastic Compliance Matrix: (Units=1/GPa)
#
#
# Indices 1 2 3 4 5 6 
#
# 1 0.007052 0.000709 0.002316 0.019462 -0.032716 -0.042151
# 2 0.000709 0.007105 -0.002127 -0.008960 0.007614 0.008781
# 3 0.002316 -0.002127 0.006174 -0.008075 0.007458 0.009402
# 4 0.019462 -0.008960 -0.008075 0.013559 0.027505 0.029659
# 5 -0.032716 0.007614 0.007458 0.027505 -0.021608 -0.068994
# 6 -0.042151 0.008781 0.009402 0.029659 -0.068994 -0.008084
#
#
# Mechanical properties :
#
#
# Convention : Reuss Voigt Hill
#
# Bulk Modulus (GPa) = 45.19595 60.52114 52.85854
# Shear Modulus (GPa) = 511.33986 28.78670 270.06328
#
# Velocity S-wave (km/s) = 14.39868 3.41636 10.46407
# Velocity P-wave (km/s) = 17.16840 6.33247 12.93936
#
# Compressibility (1/GPa) = 0.02212588
#
# Stress axis : x y z
#
# Youngs Moduli (GPa) = 141.80952 140.74451 161.96129
#
# Poissons Ratio (x) = -0.09978 -0.37503
# Poissons Ratio (y) = -0.10053 0.34451
# Poissons Ratio (z) = -0.32837 0.29938
#
# Static dielectric constant tensor:
#      x y z
#    x 1.879810 0.226000 0.219510 
#    y 0.226000 1.661090 -0.273250 
#    z 0.219510 -0.273250 1.727240 
# 
# From -- ./inp_files/430293.got.cif
#   From: 2010.05.17/outbox.cif.g08.bks.cpg/sg2_216_cif.got.tgz:430293.got - 2010.06.03 11:33:40.
