data_PCOD9071072
_publ_section_title
;
Structure prediction by ZEFSAII (Michael W. Deem and Ramdas Pophale) SiO2 
 PCOD9071072
Probable space group: P -1
;
_chemical_formula_sum "Si O2"
_cell_formula_units_Z 13
_cell_length_a 13.165793
_cell_length_b 9.613610
_cell_length_c 8.136111
_cell_angle_alpha 76.942336
_cell_angle_beta 96.809988
_cell_angle_gamma 36.751016
_cell_volume 514.868859
_symmetry_space_group_name_H-M "P -1"
_symmetry_group_IT_number 2
_symmetry_cell_setting 'triclinic'
loop_
_space_group_symop_operation_xyz
x,y,z
-x,-y,-z
loop_
_atom_site_type_symbol
_atom_site_label
_atom_site_fract_x
_atom_site_fract_y
_atom_site_fract_z
Si Si1 0.203783 0.593870 0.938322
Si Si2 0.500000 0.500000 0.500000
Si Si3 0.327381 0.203703 0.278615
Si Si4 0.238466 0.999087 0.255760
Si Si5 0.684563 0.238083 0.992622
Si Si6 0.987773 0.655534 0.345161
Si Si7 0.818180 0.314751 0.442554
O O1 0.184083 0.774622 0.965820
O O2 0.285530 0.518037 0.791733
O O3 0.989929 0.769527 0.844494
O O4 0.345085 0.319562 0.136694
O O5 0.677666 0.406721 0.518465
O O6 0.356070 0.800289 0.487474
O O7 0.301159 0.084669 0.211872
O O8 0.119339 0.465527 0.262749
O O9 0.500000 0.000000 0.500000
O O10 0.347966 0.757113 0.210593
O O11 0.500000 0.500000 0.000000
O O12 0.791562 0.969486 0.156227
O O13 0.095246 0.648448 0.470833
O O14 0.000000 0.500000 0.500000
O O15 0.000000 0.000000 0.500000
#
# Coordination Sequence:
#
# PCOD9071072 Si02
#       7
#     2   1   2   2   2   2   2
#     4  12  26  50  80 114 165 208 280 334 416 484
#     4  12  26  46  82 112 158 208 278 322 414 494
#     4  12  30  51  79 118 161 215 273 348 413 492
#     4  12  26  47  83 112 161 214 268 339 414 485
#     4  12  28  47  77 120 159 215 270 337 402 500
#     4  12  28  49  78 118 167 208 273 340 418 488
#     4  12  25  49  79 118 159 215 267 343 405 497
#
# _framework density 25.24915
#
# number of rings (size 3 to 8) (size 9 to 14) (size 15 to 20)
#    0.000    0.000    4.615    3.692    8.615    0.000 
#    0.000    2.308    0.000    0.000    0.000    0.000 
#    0.000    0.000    0.000    0.000    0.000    0.000 
#
# Total GULP energy -72651.371238 kJ/mol
# GULP energy per Si atom -5588.567018 kJ/mol
# Density = 2.519168 g / cm^3
# Si number density = 25.249150 Si / 1000 Ang^3
#
#
#
# Elastic Constant Matrix: (Units=GPa)
#
#
# Indices 1 2 3 4 5 6 
#
# 1 180.3496 58.9452 63.6025 -4.4965 -13.7320 12.6327
# 2 58.9452 120.0605 54.9212 -4.8542 -7.6480 1.1259
# 3 63.6025 54.9212 155.4784 -16.9754 -33.4100 5.9192
# 4 -4.4965 -4.8542 -16.9754 50.9690 7.0569 1.1059
# 5 -13.7320 -7.6480 -33.4100 7.0569 51.2509 -2.3226
# 6 12.6327 1.1259 5.9192 1.1059 -2.3226 47.3442
#
#
#
# Elastic Compliance Matrix: (Units=1/GPa)
#
#
# Indices 1 2 3 4 5 6 
#
# 1 0.007213 -0.002636 -0.001935 -0.000258 0.000241 -0.001602
# 2 -0.002636 0.010940 -0.003041 -0.000081 -0.001010 0.000776
# 3 -0.001935 -0.003041 0.009611 0.002059 0.004990 -0.000416
# 4 -0.000258 -0.000081 0.002059 0.020512 -0.001597 -0.000744
# 5 0.000241 -0.001010 0.004990 -0.001597 0.022921 0.000498
# 6 -0.001602 0.000776 -0.000416 -0.000744 0.000498 0.021625
#
#
# Mechanical properties :
#
#
# Convention : Reuss Voigt Hill
#
# Bulk Modulus (GPa) = 79.75479 90.09181 84.92330
# Shear Modulus (GPa) = 44.55301 48.47414 46.51358
#
# Velocity S-wave (km/s) = 4.20519 4.38634 4.29672
# Velocity P-wave (km/s) = 7.43195 7.83658 7.63694
#
# Compressibility (1/GPa) = 0.01253843
#
# Stress axis : x y z
#
# Youngs Moduli (GPa) = 138.64096 91.40930 104.05231
#
# Poissons Ratio (x) = 0.24098 0.20132
# Poissons Ratio (y) = 0.36549 0.31646
# Poissons Ratio (z) = 0.26824 0.27801
#
# Static dielectric constant tensor:
#      x y z
#    x 2.317700 0.743930 -1.883210 
#    y 0.743930 3.778570 -4.699770 
#    z -1.883210 -4.699770 15.004090 
# 
# From -- ./inp_files/156393.got.cif
#   From: 2010.05.17/outbox.cif.g08.bks.cpg/sg2_79_cif.got.tgz:156393.got - 2010.06.03 11:33:40.
