data_PCOD9071738
_publ_section_title
;
Structure prediction by ZEFSAII (Michael W. Deem and Ramdas Pophale) SiO2 
 PCOD9071738
Probable space group: P -1
;
_chemical_formula_sum "Si O2"
_cell_formula_units_Z 16
_cell_length_a 15.006409
_cell_length_b 11.487987
_cell_length_c 14.517146
_cell_angle_alpha 28.414434
_cell_angle_beta 51.445936
_cell_angle_gamma 71.228642
_cell_volume 739.144978
_symmetry_space_group_name_H-M "P -1"
_symmetry_group_IT_number 2
_symmetry_cell_setting 'triclinic'
loop_
_space_group_symop_operation_xyz
x,y,z
-x,-y,-z
loop_
_atom_site_type_symbol
_atom_site_label
_atom_site_fract_x
_atom_site_fract_y
_atom_site_fract_z
Si Si1 0.899330 0.694931 0.510723
Si Si2 0.547860 0.132990 0.530553
Si Si3 0.215237 0.273785 0.723679
Si Si4 0.963658 0.218477 0.981143
Si Si5 0.399804 0.521900 0.119642
Si Si6 0.820164 0.181461 0.774161
Si Si7 0.697572 0.088341 0.302921
Si Si8 0.465578 0.369444 0.717059
O O1 0.756754 0.579138 0.738964
O O2 0.845744 0.463002 0.618787
O O3 0.033953 0.709709 0.448326
O O4 0.958500 0.029176 0.203660
O O5 0.411391 0.954411 0.673438
O O6 0.574648 0.438316 0.335414
O O7 0.672316 0.186539 0.348791
O O8 0.498071 0.890257 0.815074
O O9 0.381672 0.528633 0.417496
O O10 0.130844 0.031073 0.864703
O O11 0.127489 0.405017 0.713386
O O12 0.199697 0.056266 0.968596
O O13 0.863115 0.310929 0.011121
O O14 0.356179 0.263896 0.402907
O O15 0.500000 0.500000 0.000000
O O16 0.672587 0.982408 0.952650
O O17 0.500000 0.500000 0.500000
#
# Coordination Sequence:
#
# PCOD9071738 Si02
#       8
#     2   2   2   2   2   2   2   2
#     4   9  17  30  47  69  93 122 167 204 244 293
#     4  10  18  31  51  74  99 133 165 201 252 290
#     4   9  16  27  46  68  95 127 153 198 247 291
#     4   9  16  28  46  69  98 121 159 208 241 283
#     4   9  17  29  49  74  98 123 162 211 243 281
#     4   9  18  30  47  68  95 128 162 201 245 299
#     4   9  18  30  49  77 100 126 171 209 236 288
#     4  10  18  29  49  71 100 132 162 200 251 303
#
# _framework density 21.646633999999999
#
# number of rings (size 3 to 8) (size 9 to 14) (size 15 to 20)
#    0.000    2.750    1.250    1.500    0.000    0.000 
#    0.000    0.625    5.500   20.250    0.000    7.875 
#    0.000    0.000    0.000    0.000    0.000    0.000 
#
# Total GULP energy -89115.464868 kJ/mol
# GULP energy per Si atom -5569.716554 kJ/mol
# Density = 2.159737 g / cm^3
# Si number density = 21.646634 Si / 1000 Ang^3
#
#
#
# Elastic Constant Matrix: (Units=GPa)
#
#
# Indices 1 2 3 4 5 6 
#
# 1 51.0534 25.3075 24.0919 5.9461 -11.4987 -22.5516
# 2 25.3075 86.5927 33.1138 22.3724 -17.8341 -25.9940
# 3 24.0919 33.1138 89.9567 15.4628 -20.3172 -12.2442
# 4 5.9461 22.3724 15.4628 26.7716 -5.2966 -8.5985
# 5 -11.4987 -17.8341 -20.3172 -5.2966 38.3570 9.3711
# 6 -22.5516 -25.9940 -12.2442 -8.5985 9.3711 32.1698
#
#
#
# Elastic Compliance Matrix: (Units=1/GPa)
#
#
# Indices 1 2 3 4 5 6 
#
# 1 0.031441 -0.002279 -0.005436 0.004418 0.001484 0.018879
# 2 -0.002279 0.019437 -0.002751 -0.010527 0.003165 0.009326
# 3 -0.005436 -0.002751 0.015238 -0.005280 0.005206 -0.003162
# 4 0.004418 -0.010527 -0.005280 0.050028 -0.000983 0.006239
# 5 0.001484 0.003165 0.005206 -0.000983 0.031556 -0.003876
# 6 0.018879 0.009326 -0.003162 0.006239 -0.003876 0.053448
#
#
# Mechanical properties :
#
#
# Convention : Reuss Voigt Hill
#
# Bulk Modulus (GPa) = 22.13127 43.62546 32.87837
# Shear Modulus (GPa) = 21.08428 29.13230 25.10829
#
# Velocity S-wave (km/s) = 3.12432 3.67251 3.40945
# Velocity P-wave (km/s) = 4.82299 6.17902 5.54263
#
# Compressibility (1/GPa) = 0.04518494
#
# Stress axis : x y z
#
# Youngs Moduli (GPa) = 31.80520 51.44701 65.62466
#
# Poissons Ratio (x) = 0.11723 0.35675
# Poissons Ratio (y) = 0.07247 0.18054
# Poissons Ratio (z) = 0.17290 0.14154
#
# Static dielectric constant tensor:
#      x y z
#    x 1.852030 -0.036980 0.025670 
#    y -0.036980 1.798070 0.066230 
#    z 0.025670 0.066230 1.848250 
# 
# From -- ./inp_files/275766.got.cif
#   From: 2010.05.17/outbox.cif.g08.bks.cpg/sg2_138_cif.got.tgz:275766.got - 2010.06.03 11:33:40.
