data_PCOD9071847
_publ_section_title
;
Structure prediction by ZEFSAII (Michael W. Deem and Ramdas Pophale) SiO2 
 PCOD9071847
Probable space group: P -1
;
_chemical_formula_sum "Si O2"
_cell_formula_units_Z 16
_cell_length_a 12.000000
_cell_length_b 15.000000
_cell_length_c 15.000000
_cell_angle_alpha 30.000000
_cell_angle_beta 140.000000
_cell_angle_gamma 140.000000
_cell_volume 822.330465
_symmetry_space_group_name_H-M "P -1"
_symmetry_group_IT_number 2
_symmetry_cell_setting 'triclinic'
loop_
_space_group_symop_operation_xyz
x,y,z
-x,-y,-z
loop_
_atom_site_type_symbol
_atom_site_label
_atom_site_fract_x
_atom_site_fract_y
_atom_site_fract_z
Si Si1 0.638571 0.672567 0.490675
Si Si2 0.288640 0.989595 0.889499
Si Si3 0.669808 0.372738 0.528753
Si Si4 0.933354 0.533985 0.220221
Si Si5 0.172485 0.764582 0.435303
Si Si6 0.754577 0.768985 0.179525
Si Si7 0.924816 0.453106 0.894460
Si Si8 0.819325 0.870262 0.946087
O O1 0.500000 0.500000 0.500000
O O2 0.731166 0.852967 0.328444
O O3 0.513469 0.734051 0.435398
O O4 0.789045 0.578080 0.694561
O O5 0.242449 0.064056 0.894173
O O6 0.500000 0.000000 0.000000
O O7 0.172790 0.773403 0.983538
O O8 0.732361 0.299934 0.536362
O O9 0.635827 0.571296 0.318073
O O10 0.850535 0.407367 0.670837
O O11 0.822937 0.355665 0.369286
O O12 0.933450 0.496529 0.146846
O O13 0.865600 0.706989 0.061548
O O14 0.951972 0.730829 0.322420
O O15 0.243943 0.991464 0.277148
O O16 0.690958 0.796346 0.017118
O O17 0.000000 0.500000 0.000000
O O18 0.000000 0.000000 0.000000
#
# Coordination Sequence:
#
# PCOD9071847 Si02
#       8
#     2   2   2   2   2   2   2   2
#     4  12  22  39  62  92 126 165 210 263 312 371
#     4  12  23  39  65  96 127 167 209 263 316 366
#     4  11  17  32  55  87 127 152 194 258 320 356
#     4  11  18  35  54  83 123 159 197 257 306 365
#     4  10  19  28  50  84 121 157 189 253 318 357
#     4  10  17  29  50  86 128 153 194 255 317 363
#     4  12  27  44  63  91 129 173 213 256 311 376
#     4  10  17  25  46  83 119 149 189 244 313 358
#
# _framework density 19.456897999999999
#
# number of rings (size 3 to 8) (size 9 to 14) (size 15 to 20)
#    0.000    1.000    7.500    3.000    1.750    0.500 
#    0.000    0.000    0.000    0.750    0.000    4.375 
#    0.000    0.000    0.000    0.000    0.000    0.000 
#
# Total GULP energy -89151.308475 kJ/mol
# GULP energy per Si atom -5571.956780 kJ/mol
# Density = 1.941261 g / cm^3
# Si number density = 19.456898 Si / 1000 Ang^3
#
#
#
# Elastic Constant Matrix: (Units=GPa)
#
#
# Indices 1 2 3 4 5 6 
#
# 1 171.2954 29.6441 50.2229 -3.2083 -7.5247 -34.7061
# 2 29.6441 31.6098 41.3046 -8.9350 -4.4279 -20.9113
# 3 50.2229 41.3046 146.0504 -23.4064 -9.2911 -16.6623
# 4 -3.2083 -8.9350 -23.4064 27.5721 -1.3752 -2.3615
# 5 -7.5247 -4.4279 -9.2911 -1.3752 42.9707 -5.3994
# 6 -34.7061 -20.9113 -16.6623 -2.3615 -5.3994 28.9815
#
#
#
# Elastic Compliance Matrix: (Units=1/GPa)
#
#
# Indices 1 2 3 4 5 6 
#
# 1 0.008482 0.004168 -0.002184 0.001719 0.003084 0.012625
# 2 0.004168 0.128467 -0.020297 0.033961 0.022345 0.092947
# 3 -0.002184 -0.020297 0.012629 0.002995 -0.000894 -0.009922
# 4 0.001719 0.033961 0.002995 0.053504 0.010508 0.034602
# 5 0.003084 0.022345 -0.000894 0.010508 0.029480 0.025651
# 6 0.012625 0.092947 -0.009922 0.034602 0.025651 0.118582
#
#
# Mechanical properties :
#
#
# Convention : Reuss Voigt Hill
#
# Bulk Modulus (GPa) = 8.85318 65.69984 37.27651
# Shear Modulus (GPa) = 11.75303 35.09045 23.42174
#
# Velocity S-wave (km/s) = 2.46042 4.25137 3.47331
# Velocity P-wave (km/s) = 3.55409 7.61177 5.94014
#
# Compressibility (1/GPa) = 0.11295375
#
# Stress axis : x y z
#
# Youngs Moduli (GPa) = 117.89261 7.78407 79.18068
#
# Poissons Ratio (x) = -0.03245 0.17291
# Poissons Ratio (y) = -0.49141 1.60715
# Poissons Ratio (z) = 0.25744 0.15800
#
# Static dielectric constant tensor:
#      x y z
#    x 1.812050 0.069260 -0.102390 
#    y 0.069260 1.711020 -0.043980 
#    z -0.102390 -0.043980 1.782570 
# 
# From -- ./inp_files/521376.got.cif
#   From: 2010.05.17/outbox.ucp.g08.bks.cvg/sg2_261_cif.got.tgz:521376.got - 2010.06.11 11:32:03.
