data_PCOD9071677
_publ_section_title
;
Structure prediction by ZEFSAII (Michael W. Deem and Ramdas Pophale) SiO2 
 PCOD9071677
Probable space group: P -1
;
_chemical_formula_sum "Si O2"
_cell_formula_units_Z 10
_cell_length_a 12.800171
_cell_length_b 6.261618
_cell_length_c 5.252922
_cell_angle_alpha 93.263193
_cell_angle_beta 61.661041
_cell_angle_gamma 90.410940
_cell_volume 369.868028
_symmetry_space_group_name_H-M "P -1"
_symmetry_group_IT_number 2
_symmetry_cell_setting 'triclinic'
loop_
_space_group_symop_operation_xyz
x,y,z
-x,-y,-z
loop_
_atom_site_type_symbol
_atom_site_label
_atom_site_fract_x
_atom_site_fract_y
_atom_site_fract_z
Si Si1 0.381085 0.757971 0.622045
Si Si2 0.365179 0.306075 0.827758
Si Si3 0.155081 0.971619 0.104020
Si Si4 0.058074 0.744873 0.701358
Si Si5 0.758229 0.579372 0.520201
O O1 0.399613 0.561864 0.786404
O O2 0.507851 0.808789 0.360996
O O3 0.308091 0.644249 0.472553
O O4 0.294621 0.928890 0.874187
O O5 0.281712 0.291801 0.673920
O O6 0.295527 0.297003 0.170855
O O7 0.124094 0.874372 0.408506
O O8 0.093940 0.828487 0.944554
O O9 0.078922 0.192430 0.179966
O O10 0.105780 0.499889 0.617961
#
# Coordination Sequence:
#
# PCOD9071677 Si02
#       5
#     2   2   2   2   2
#     4   8  15  18  24  28  35  37  44  46  54  57
#     4   9  15  17  25  28  35  37  43  47  54  57
#     4   9  15  19  24  28  33  39  43  48  52  57
#     4   9  14  20  24  28  33  38  44  48  52  57
#     4   9  13  20  23  30  32  39  42  49  52  58
#
# _framework density 27.036667000000001
#
# number of rings (size 3 to 8) (size 9 to 14) (size 15 to 20)
#    1.200    2.000    2.000    0.600    0.000    0.000 
#    0.000    0.000    0.000    0.000    0.000    0.000 
#    0.000    0.000    0.000    0.000    0.000    0.000 
#
# Total GULP energy -55871.242100 kJ/mol
# GULP energy per Si atom -5587.124210 kJ/mol
# Density = 2.697513 g / cm^3
# Si number density = 27.036667 Si / 1000 Ang^3
#
#
#
# Elastic Constant Matrix: (Units=GPa)
#
#
# Indices 1 2 3 4 5 6 
#
# 1 112.8702 36.9030 87.5840 10.5394 -33.3188 -20.1047
# 2 36.9030 78.1131 50.4868 43.1615 -6.3998 -26.2917
# 3 87.5840 50.4868 203.6671 33.9866 -11.0175 -12.5065
# 4 10.5394 43.1615 33.9866 66.8524 -2.7987 -7.2676
# 5 -33.3188 -6.3998 -11.0175 -2.7987 67.3828 11.2799
# 6 -20.1047 -26.2917 -12.5065 -7.2676 11.2799 32.4539
#
#
#
# Elastic Compliance Matrix: (Units=1/GPa)
#
#
# Indices 1 2 3 4 5 6 
#
# 1 0.017754 -0.004975 -0.006572 0.004371 0.006909 0.003013
# 2 -0.004975 0.032129 -0.001988 -0.016965 -0.003732 0.019679
# 3 -0.006572 -0.001988 0.008367 -0.002264 -0.001771 -0.002349
# 4 0.004371 -0.016965 -0.002264 0.025714 0.002418 -0.006991
# 5 0.006909 -0.003732 -0.001771 0.002418 0.018609 -0.005353
# 6 0.003013 0.019679 -0.002349 -0.006991 -0.005353 0.048012
#
#
# Mechanical properties :
#
#
# Convention : Reuss Voigt Hill
#
# Bulk Modulus (GPa) = 32.07128 82.73312 57.40220
# Shear Modulus (GPa) = 26.58906 47.98294 37.28600
#
# Velocity S-wave (km/s) = 3.13939 4.21733 3.71764
# Velocity P-wave (km/s) = 5.00289 7.37437 6.30120
#
# Compressibility (1/GPa) = 0.03118055
#
# Stress axis : x y z
#
# Youngs Moduli (GPa) = 56.32448 31.12494 119.52118
#
# Poissons Ratio (x) = 0.15483 0.78554
# Poissons Ratio (y) = 0.28019 0.23755
# Poissons Ratio (z) = 0.37019 0.06186
#
# Static dielectric constant tensor:
#      x y z
#    x 2.100380 0.074970 -0.052080 
#    y 0.074970 2.197290 0.030330 
#    z -0.052080 0.030330 2.024350 
# 
# From -- ./inp_files/32392.got.cif
#   From: 2010.05.17/outbox.cif.g08.bks.cpg/sg2_17_cif.got.tgz:32392.got - 2010.06.03 11:33:40.
