data_PCOD9071620
_publ_section_title
;
Structure prediction by ZEFSAII (Michael W. Deem and Ramdas Pophale) SiO2 
 PCOD9071620
Probable space group: P -1
;
_chemical_formula_sum "Si O2"
_cell_formula_units_Z 11
_cell_length_a 9.955007
_cell_length_b 17.942247
_cell_length_c 8.699354
_cell_angle_alpha 36.474003
_cell_angle_beta 149.974026
_cell_angle_gamma 143.471905
_cell_volume 431.057728
_symmetry_space_group_name_H-M "P -1"
_symmetry_group_IT_number 2
_symmetry_cell_setting 'triclinic'
loop_
_space_group_symop_operation_xyz
x,y,z
-x,-y,-z
loop_
_atom_site_type_symbol
_atom_site_label
_atom_site_fract_x
_atom_site_fract_y
_atom_site_fract_z
Si Si1 0.924297 0.382908 0.326539
Si Si2 0.722506 0.972040 0.376452
Si Si3 0.812308 0.082291 0.610965
Si Si4 0.289444 0.675309 0.447905
Si Si5 0.500000 0.500000 0.500000
Si Si6 0.731406 0.609480 0.799497
O O1 0.869612 0.231930 0.477431
O O2 0.885845 0.382995 0.473438
O O3 0.213269 0.468410 0.386067
O O4 0.703404 0.461839 0.934813
O O5 0.538219 0.818516 0.497583
O O6 0.806615 0.066436 0.449328
O O7 0.000000 0.000000 0.500000
O O8 0.500000 0.000000 0.000000
O O9 0.500000 0.000000 0.500000
O O10 0.000000 0.000000 0.000000
O O11 0.493241 0.601561 0.702297
O O12 0.044185 0.672655 0.083473
O O13 0.654972 0.658686 0.481245
#
# Coordination Sequence:
#
# PCOD9071620 Si02
#       6
#     2   2   2   2   1   2
#     4  12  29  51  82 113 163 201 273 315 407 468
#     4  12  28  51  79 117 159 213 268 326 397 469
#     4  12  29  52  81 115 158 214 267 326 394 478
#     4  12  28  49  84 111 163 205 267 325 401 478
#     4  12  30  48  78 120 160 204 260 330 402 460
#     4  12  28  51  77 119 153 211 255 334 398 470
#
# _framework density 25.518622000000001
#
# number of rings (size 3 to 8) (size 9 to 14) (size 15 to 20)
#    0.000    0.000    3.636    3.818   12.727    0.000 
#    0.000    0.000    0.000    0.000    0.000    0.000 
#    0.000    0.000    0.000    0.000    0.000    0.000 
#
# Total GULP energy -61351.700203 kJ/mol
# GULP energy per Si atom -5577.427291 kJ/mol
# Density = 2.546054 g / cm^3
# Si number density = 25.518622 Si / 1000 Ang^3
#
#
#
# Elastic Constant Matrix: (Units=GPa)
#
#
# Indices 1 2 3 4 5 6 
#
# 1 254.3772 71.8996 76.7620 19.5309 28.9102 -22.0538
# 2 71.8996 151.6544 49.0392 5.4788 15.7852 -20.0715
# 3 76.7620 49.0392 156.2564 28.4025 38.2981 -10.7915
# 4 19.5309 5.4788 28.4025 51.7214 4.0626 11.3087
# 5 28.9102 15.7852 38.2981 4.0626 60.5777 14.9787
# 6 -22.0538 -20.0715 -10.7915 11.3087 14.9787 59.3582
#
#
#
# Elastic Compliance Matrix: (Units=1/GPa)
#
#
# Indices 1 2 3 4 5 6 
#
# 1 0.005220 -0.001597 -0.001291 -0.001367 -0.001621 0.001834
# 2 -0.001597 0.008194 -0.001409 0.000117 -0.001024 0.002158
# 3 -0.001291 -0.001409 0.010087 -0.005173 -0.005874 0.003346
# 4 -0.001367 0.000117 -0.005173 0.023888 0.004014 -0.006973
# 5 -0.001621 -0.001024 -0.005874 0.004014 0.023123 -0.008616
# 6 0.001834 0.002158 0.003346 -0.006973 -0.008616 0.022369
#
#
# Mechanical properties :
#
#
# Convention : Reuss Voigt Hill
#
# Bulk Modulus (GPa) = 67.07159 106.40992 86.74076
# Shear Modulus (GPa) = 46.97296 58.63726 52.80511
#
# Velocity S-wave (km/s) = 4.29503 4.79876 4.55387
# Velocity P-wave (km/s) = 7.13700 8.51432 7.85590
#
# Compressibility (1/GPa) = 0.01490944
#
# Stress axis : x y z
#
# Youngs Moduli (GPa) = 191.56256 122.03592 99.13636
#
# Poissons Ratio (x) = 0.19484 0.12798
# Poissons Ratio (y) = 0.30584 0.13964
# Poissons Ratio (z) = 0.24729 0.17190
#
# Static dielectric constant tensor:
#      x y z
#    x 1.980660 -0.109380 -0.134330 
#    y -0.109380 2.421600 -0.041370 
#    z -0.134330 -0.041370 2.208590 
# 
# From -- ./inp_files/214192.got.cif
#   From: 2010.05.17/outbox.cif.g08.bks.cpg/sg2_108_cif.got.tgz:214192.got - 2010.06.03 11:33:40.
