data_PCOD9071445
_publ_section_title
;
Structure prediction by ZEFSAII (Michael W. Deem and Ramdas Pophale) SiO2 
 PCOD9071445
Probable space group: P -1
;
_chemical_formula_sum "Si O2"
_cell_formula_units_Z 13
_cell_length_a 10.009220
_cell_length_b 4.885502
_cell_length_c 16.484539
_cell_angle_alpha 109.266834
_cell_angle_beta 125.437808
_cell_angle_gamma 57.113919
_cell_volume 551.382109
_symmetry_space_group_name_H-M "P -1"
_symmetry_group_IT_number 2
_symmetry_cell_setting 'triclinic'
loop_
_space_group_symop_operation_xyz
x,y,z
-x,-y,-z
loop_
_atom_site_type_symbol
_atom_site_label
_atom_site_fract_x
_atom_site_fract_y
_atom_site_fract_z
Si Si1 0.551397 0.892445 0.689459
Si Si2 0.180256 0.198488 0.501699
Si Si3 0.811715 0.440251 0.614693
Si Si4 0.365796 0.656348 0.892599
Si Si5 0.641281 0.419485 0.821142
Si Si6 0.887314 0.617836 0.158283
Si Si7 0.000000 0.500000 0.000000
O O1 0.633157 0.602967 0.624528
O O2 0.557769 0.722256 0.760035
O O3 0.350698 0.143694 0.613282
O O4 0.673974 0.085233 0.756274
O O5 0.206620 0.281981 0.427211
O O6 0.000000 0.500000 0.500000
O O7 0.832467 0.136516 0.539422
O O8 0.981929 0.332795 0.725763
O O9 0.487343 0.475317 0.840195
O O10 0.187231 0.610523 0.847219
O O11 0.290677 0.040200 0.891071
O O12 0.500000 0.500000 0.000000
O O13 0.823854 0.410758 0.923309
O O14 0.987745 0.498647 0.095882
#
# Coordination Sequence:
#
# PCOD9071445 Si02
#       7
#     2   2   2   2   2   2   1
#     4  12  27  50  78 114 149 209 255 320 387 456
#     4  12  28  49  79 113 156 198 259 323 387 458
#     4  12  26  50  76 112 151 205 253 320 385 456
#     4  12  27  47  70 107 154 204 244 319 383 448
#     4  12  28  47  79 110 156 198 265 313 383 459
#     4  12  28  46  78 108 154 198 258 310 381 457
#     4  12  28  50  76 114 152 200 258 314 372 460
#
# _framework density 23.577117000000001
#
# number of rings (size 3 to 8) (size 9 to 14) (size 15 to 20)
#    0.000    0.000    3.077    5.538   10.769    1.231 
#    0.000    0.000    0.000    0.000    0.000    0.000 
#    0.000    0.000    0.000    0.000    0.000    0.000 
#
# Total GULP energy -72602.255099 kJ/mol
# GULP energy per Si atom -5584.788854 kJ/mol
# Density = 2.352345 g / cm^3
# Si number density = 23.577117 Si / 1000 Ang^3
#
#
#
# Elastic Constant Matrix: (Units=GPa)
#
#
# Indices 1 2 3 4 5 6 
#
# 1 83.8376 7.8474 6.5945 21.0321 -8.2750 2.6621
# 2 7.8474 70.8943 19.3494 -15.3863 3.6593 3.1439
# 3 6.5945 19.3494 119.8514 -3.6816 17.5907 5.5981
# 4 21.0321 -15.3863 -3.6816 24.6057 -1.6417 -0.9223
# 5 -8.2750 3.6593 17.5907 -1.6417 45.4954 -4.0493
# 6 2.6621 3.1439 5.5981 -0.9223 -4.0493 34.5381
#
#
#
# Elastic Compliance Matrix: (Units=1/GPa)
#
#
# Indices 1 2 3 4 5 6 
#
# 1 0.017592 -0.005848 -0.001051 -0.018657 0.003335 -0.000760
# 2 -0.005848 0.018968 -0.002017 0.016448 -0.001274 -0.000659
# 3 -0.001051 -0.002017 0.009383 0.000725 -0.003780 -0.001680
# 4 -0.018657 0.016448 0.000725 0.066867 -0.002467 0.001320
# 5 0.003335 -0.001274 -0.003780 -0.002467 0.024352 0.003261
# 6 -0.000760 -0.000659 -0.001680 0.001320 0.003261 0.029762
#
#
# Mechanical properties :
#
#
# Convention : Reuss Voigt Hill
#
# Bulk Modulus (GPa) = 35.57469 38.01843 36.79656
# Shear Modulus (GPa) = 25.75644 36.98064 31.36854
#
# Velocity S-wave (km/s) = 3.30878 3.96472 3.65151
# Velocity P-wave (km/s) = 5.45150 6.09252 5.78090
#
# Compressibility (1/GPa) = 0.02810987
#
# Stress axis : x y z
#
# Youngs Moduli (GPa) = 56.84535 52.71978 106.57843
#
# Poissons Ratio (x) = 0.30830 0.11201
# Poissons Ratio (y) = 0.33243 0.21502
# Poissons Ratio (z) = 0.05974 0.10636
#
# Static dielectric constant tensor:
#      x y z
#    x 1.889580 -0.011280 0.024470 
#    y -0.011280 1.902400 0.028570 
#    z 0.024470 0.028570 1.910330 
# 
# From -- ./inp_files/486544.got.cif
#   From: 2010.05.17/outbox.cif.g08.bks.cpg/sg2_244_cif.got.tgz:486544.got - 2010.06.03 11:33:40.
