data_PCOD9071450
_publ_section_title
;
Structure prediction by ZEFSAII (Michael W. Deem and Ramdas Pophale) SiO2 
 PCOD9071450
Probable space group: P -1
;
_chemical_formula_sum "Si O2"
_cell_formula_units_Z 16
_cell_length_a 9.023762
_cell_length_b 21.606558
_cell_length_c 8.695467
_cell_angle_alpha 117.061666
_cell_angle_beta 148.013511
_cell_angle_gamma 51.461270
_cell_volume 691.321080
_symmetry_space_group_name_H-M "P -1"
_symmetry_group_IT_number 2
_symmetry_cell_setting 'triclinic'
loop_
_space_group_symop_operation_xyz
x,y,z
-x,-y,-z
loop_
_atom_site_type_symbol
_atom_site_label
_atom_site_fract_x
_atom_site_fract_y
_atom_site_fract_z
Si Si1 0.659077 0.717378 0.883341
Si Si2 0.128421 0.550623 0.265309
Si Si3 0.832964 0.231753 0.717678
Si Si4 0.834689 0.948974 0.830174
Si Si5 0.849421 0.228129 0.233283
Si Si6 0.170079 0.549674 0.670816
Si Si7 0.347313 0.281585 0.625110
Si Si8 0.128878 0.049975 0.765792
O O1 0.929394 0.640032 0.122201
O O2 0.854404 0.756648 0.015429
O O3 0.463214 0.699227 0.561833
O O4 0.353070 0.767190 0.786903
O O5 0.500000 0.500000 0.500000
O O6 0.145620 0.556565 0.471994
O O7 0.000000 0.500000 0.000000
O O8 0.640317 0.235363 0.708719
O O9 0.950980 0.142128 0.658860
O O10 0.019753 0.859641 0.822906
O O11 0.500000 0.000000 0.500000
O O12 0.856397 0.944451 0.029234
O O13 0.000000 0.000000 0.000000
O O14 0.159984 0.241296 0.503079
O O15 0.553955 0.297633 0.952385
O O16 0.000000 0.500000 0.500000
O O17 0.943096 0.641757 0.626462
O O18 0.500000 0.500000 0.000000
O O19 0.000000 0.000000 0.500000
O O20 0.500000 0.000000 0.000000
#
# Coordination Sequence:
#
# PCOD9071450 Si02
#       8
#     2   2   2   2   2   2   2   2
#     4  12  28  48  76 109 149 199 249 306 376 443
#     4  12  28  49  74 109 155 195 245 311 375 446
#     4  12  28  48  76 109 149 199 249 306 376 443
#     4  12  28  48  77 110 147 199 251 307 373 444
#     4  12  26  50  77 104 149 198 254 310 365 440
#     4  12  28  48  77 110 147 199 251 307 373 444
#     4  12  26  50  77 104 149 198 254 310 365 440
#     4  12  28  49  74 109 155 195 245 311 375 446
#
# _framework density 23.144095
#
# number of rings (size 3 to 8) (size 9 to 14) (size 15 to 20)
#    0.000    0.000    2.500    6.000   14.000    0.000 
#    0.000    0.000    0.000    0.000    0.000    0.000 
#    0.000    0.000    0.000    0.000    0.000    0.000 
#
# Total GULP energy -89080.253644 kJ/mol
# GULP energy per Si atom -5567.515853 kJ/mol
# Density = 2.309142 g / cm^3
# Si number density = 23.144095 Si / 1000 Ang^3
#
#
#
# Elastic Constant Matrix: (Units=GPa)
#
#
# Indices 1 2 3 4 5 6 
#
# 1 137.0852 53.3080 60.8173 -12.4796 24.2089 -16.8062
# 2 53.3080 92.3125 16.0439 -8.2870 10.1748 -3.5316
# 3 60.8173 16.0439 176.0689 -6.1735 15.9045 6.6463
# 4 -12.4796 -8.2870 -6.1735 45.9119 15.5013 -0.4559
# 5 24.2089 10.1748 15.9045 15.5013 57.4098 -2.9548
# 6 -16.8062 -3.5316 6.6463 -0.4559 -2.9548 35.9837
#
#
#
# Elastic Compliance Matrix: (Units=1/GPa)
#
#
# Indices 1 2 3 4 5 6 
#
# 1 0.012940 -0.005864 -0.003676 0.003376 -0.004009 0.005861
# 2 -0.005864 0.014202 0.000903 0.001322 -0.000731 -0.001555
# 3 -0.003676 0.000903 0.007067 0.000361 -0.000819 -0.002996
# 4 0.003376 0.001322 0.000361 0.025934 -0.008696 0.001254
# 5 -0.004009 -0.000731 -0.000819 -0.008696 0.021808 -0.000112
# 6 0.005861 -0.001555 -0.002996 0.001254 -0.000112 0.030935
#
#
# Mechanical properties :
#
#
# Convention : Reuss Voigt Hill
#
# Bulk Modulus (GPa) = 59.05477 73.97835 66.51656
# Shear Modulus (GPa) = 36.81728 46.21426 41.51577
#
# Velocity S-wave (km/s) = 3.99279 4.47341 4.23992
# Velocity P-wave (km/s) = 6.84310 7.66260 7.26442
#
# Compressibility (1/GPa) = 0.01693343
#
# Stress axis : x y z
#
# Youngs Moduli (GPa) = 77.28097 70.41160 141.50565
#
# Poissons Ratio (x) = 0.41292 0.52017
# Poissons Ratio (y) = 0.45320 -0.12773
# Poissons Ratio (z) = 0.28408 -0.06356
#
# Static dielectric constant tensor:
#      x y z
#    x 2.002460 -0.044660 0.000730 
#    y -0.044660 1.891120 -0.012180 
#    z 0.000730 -0.012180 1.802370 
# 
# From -- ./inp_files/226398.got.cif
#   From: 2010.05.17/outbox.cif.g08.bks.cpg/sg2_114_cif.got.tgz:226398.got - 2010.06.03 11:33:40.
