data_PCOD9071312
_publ_section_title
;
Structure prediction by ZEFSAII (Michael W. Deem and Ramdas Pophale) SiO2 
 PCOD9071312
Probable space group: P -1
;
_chemical_formula_sum "Si O2"
_cell_formula_units_Z 12
_cell_length_a 8.353853
_cell_length_b 15.504765
_cell_length_c 9.683881
_cell_angle_alpha 145.390625
_cell_angle_beta 131.100704
_cell_angle_gamma 35.014365
_cell_volume 408.234272
_symmetry_space_group_name_H-M "P -1"
_symmetry_group_IT_number 2
_symmetry_cell_setting 'triclinic'
loop_
_space_group_symop_operation_xyz
x,y,z
-x,-y,-z
loop_
_atom_site_type_symbol
_atom_site_label
_atom_site_fract_x
_atom_site_fract_y
_atom_site_fract_z
Si Si1 0.500000 0.500000 0.500000
Si Si2 0.757573 0.032670 0.627244
Si Si3 0.310374 0.415750 0.561464
Si Si4 0.000000 0.000000 0.000000
Si Si5 0.288804 0.440135 0.044912
Si Si6 0.504002 0.001899 0.805132
Si Si7 0.924580 0.263417 0.916387
O O1 0.393490 0.441204 0.492671
O O2 0.461811 0.383401 0.208379
O O3 0.641525 0.945863 0.360717
O O4 0.913806 0.090180 0.706299
O O5 0.482188 0.249585 0.807926
O O6 0.958321 0.917320 0.722851
O O7 0.464372 0.191826 0.400478
O O8 0.000000 0.500000 0.500000
O O9 0.264112 0.568694 0.853115
O O10 0.786982 0.970353 0.919498
O O11 0.199270 0.633506 0.167433
O O12 0.000000 0.500000 0.000000
O O13 0.754709 0.827640 0.020582
#
# Coordination Sequence:
#
# PCOD9071312 Si02
#       7
#     1   2   2   1   2   2   2
#     4  12  28  48  88 128 172 226 282 366 434 514
#     4  12  26  51  84 120 172 230 287 364 440 522
#     4  12  27  55  87 129 174 224 292 359 439 528
#     4  12  30  50  82 130 176 224 306 358 430 532
#     4  12  26  47  83 121 168 225 286 348 436 521
#     4  12  29  55  87 121 177 238 283 365 444 516
#     4  12  26  56  85 122 177 227 292 362 442 533
#
# _framework density 29.394887000000001
#
# number of rings (size 3 to 8) (size 9 to 14) (size 15 to 20)
#    0.000    0.000    3.333    5.500    0.000    5.333 
#    0.000    0.000    0.000    0.000    0.000    0.000 
#    0.000    0.000    0.000    0.000    0.000    0.000 
#
# Total GULP energy -66821.977910 kJ/mol
# GULP energy per Si atom -5568.498159 kJ/mol
# Density = 2.932798 g / cm^3
# Si number density = 29.394887 Si / 1000 Ang^3
#
#
#
# Elastic Constant Matrix: (Units=GPa)
#
#
# Indices 1 2 3 4 5 6 
#
# 1 244.4920 59.6065 30.2500 20.2402 7.7970 24.8972
# 2 59.6065 107.1848 -0.5947 8.3102 -2.8390 24.8661
# 3 30.2500 -0.5947 128.7098 -1.9224 -9.2817 2.8296
# 4 20.2402 8.3102 -1.9224 43.2546 0.7674 -4.0474
# 5 7.7970 -2.8390 -9.2817 0.7674 79.9130 -3.2620
# 6 24.8972 24.8661 2.8296 -4.0474 -3.2620 69.8262
#
#
#
# Elastic Compliance Matrix: (Units=1/GPa)
#
#
# Indices 1 2 3 4 5 6 
#
# 1 0.005161 -0.002491 -0.001287 -0.002079 -0.000765 -0.001057
# 2 -0.002491 0.011612 0.000737 -0.001355 0.000618 -0.003327
# 3 -0.001287 0.000737 0.008167 0.000801 0.001091 -0.000037
# 4 -0.002079 -0.001355 0.000801 0.024631 0.000118 0.002625
# 5 -0.000765 0.000618 0.001091 0.000118 0.012761 0.000611
# 6 -0.001057 -0.003327 -0.000037 0.002625 0.000611 0.016065
#
#
# Mechanical properties :
#
#
# Convention : Reuss Voigt Hill
#
# Bulk Modulus (GPa) = 53.03262 73.21224 63.12243
# Shear Modulus (GPa) = 55.08691 64.67375 59.88033
#
# Velocity S-wave (km/s) = 4.33370 4.69569 4.51832
# Velocity P-wave (km/s) = 6.56673 7.37291 6.98147
#
# Compressibility (1/GPa) = 0.01885632
#
# Stress axis : x y z
#
# Youngs Moduli (GPa) = 193.76741 86.11651 122.44622
#
# Poissons Ratio (x) = 0.21451 0.15764
# Poissons Ratio (y) = 0.48267 -0.09019
# Poissons Ratio (z) = 0.24945 -0.06343
#
# Static dielectric constant tensor:
#      x y z
#    x -0.569830 1.519620 -1.054720 
#    y 1.519620 1.657890 0.469630 
#    z -1.054720 0.469630 1.887890 
# 
# From -- ./inp_files/194541.got.cif
#   From: 2010.05.17/outbox.cif.g08.bks.cpg/sg2_98_cif.got.tgz:194541.got - 2010.06.03 11:33:40.
