data_PCOD9071049
_publ_section_title
;
Structure prediction by ZEFSAII (Michael W. Deem and Ramdas Pophale) SiO2 
 PCOD9071049
Probable space group: P -1
;
_chemical_formula_sum "Si O2"
_cell_formula_units_Z 9
_cell_length_a 10.110664
_cell_length_b 9.354959
_cell_length_c 4.821997
_cell_angle_alpha 53.977344
_cell_angle_beta 83.555804
_cell_angle_gamma 63.870067
_cell_volume 324.340849
_symmetry_space_group_name_H-M "P -1"
_symmetry_group_IT_number 2
_symmetry_cell_setting 'triclinic'
loop_
_space_group_symop_operation_xyz
x,y,z
-x,-y,-z
loop_
_atom_site_type_symbol
_atom_site_label
_atom_site_fract_x
_atom_site_fract_y
_atom_site_fract_z
Si Si1 0.630567 0.872182 0.895811
Si Si2 0.816907 0.252723 0.920140
Si Si3 0.366453 0.540050 0.769976
Si Si4 0.000000 0.500000 0.500000
Si Si5 0.186242 0.141507 0.627334
O O1 0.667157 0.946765 0.511828
O O2 0.624809 0.670361 0.064350
O O3 0.777222 0.828036 0.094853
O O4 0.500000 0.000000 0.000000
O O5 0.669546 0.338157 0.649698
O O6 0.912447 0.360986 0.679358
O O7 0.773194 0.320828 0.166358
O O8 0.876026 0.016246 0.184562
O O9 0.500000 0.500000 0.000000
O O10 0.091045 0.374553 0.334118
#
# Coordination Sequence:
#
# PCOD9071049 Si02
#       5
#     2   2   2   1   2
#     4  12  25  49  76 113 159 203 258 323 390 461
#     4  12  27  48  79 117 153 206 261 318 388 460
#     4  12  25  49  76 113 159 203 258 323 390 461
#     4  12  26  54  80 112 168 198 270 308 392 468
#     4  12  27  48  79 117 153 206 261 318 388 460
#
# _framework density 27.748586
#
# number of rings (size 3 to 8) (size 9 to 14) (size 15 to 20)
#    0.000    0.000    4.444    4.667    0.000    7.111 
#    0.000    4.444    0.000    0.000    0.000    0.000 
#    0.000    0.000    0.000    0.000    0.000    0.000 
#
# Total GULP energy -50117.768832 kJ/mol
# GULP energy per Si atom -5568.640981 kJ/mol
# Density = 2.768543 g / cm^3
# Si number density = 27.748586 Si / 1000 Ang^3
#
#
#
# Elastic Constant Matrix: (Units=GPa)
#
#
# Indices 1 2 3 4 5 6 
#
# 1 92.7240 61.3573 30.5634 -10.7236 -14.0855 27.3466
# 2 61.3573 279.6177 89.0868 -27.3778 -26.4260 25.1610
# 3 30.5634 89.0868 111.0408 -3.4959 -9.2974 7.7898
# 4 -10.7236 -27.3778 -3.4959 75.6315 14.6260 -9.9567
# 5 -14.0855 -26.4260 -9.2974 14.6260 63.4526 3.0934
# 6 27.3466 25.1610 7.7898 -9.9567 3.0934 40.3064
#
#
#
# Elastic Compliance Matrix: (Units=1/GPa)
#
#
# Indices 1 2 3 4 5 6 
#
# 1 0.015852 -0.001692 -0.002086 -0.000316 0.003050 -0.009608
# 2 -0.001692 0.005470 -0.003694 0.001167 0.001158 -0.001353
# 3 -0.002086 -0.003694 0.012436 -0.000910 -0.000023 0.001095
# 4 -0.000316 0.001167 -0.000910 0.014655 -0.003267 0.003532
# 5 0.003050 0.001158 -0.000023 -0.003267 0.017911 -0.004969
# 6 -0.009608 -0.001353 0.001095 0.003532 -0.004969 0.033216
#
#
# Mechanical properties :
#
#
# Convention : Reuss Voigt Hill
#
# Bulk Modulus (GPa) = 53.15265 93.93305 73.54285
# Shear Modulus (GPa) = 41.40551 56.03645 48.72098
#
# Velocity S-wave (km/s) = 3.86705 4.49869 4.19477
# Velocity P-wave (km/s) = 6.25583 7.80443 7.07265
#
# Compressibility (1/GPa) = 0.01881374
#
# Stress axis : x y z
#
# Youngs Moduli (GPa) = 63.08186 182.81237 80.40907
#
# Poissons Ratio (x) = 0.30931 0.16777
# Poissons Ratio (y) = 0.10673 0.29705
# Poissons Ratio (z) = 0.13162 0.67535
#
# Static dielectric constant tensor:
#      x y z
#    x 2.478350 -0.252300 0.023480 
#    y -0.252300 2.108930 -0.014960 
#    z 0.023480 -0.014960 1.936800 
# 
# From -- ./inp_files/16591.got.cif
#   From: 2010.05.17/outbox.cif.g08.bks.cpg/sg2_9_cif.got.tgz:16591.got - 2010.06.03 11:33:40.
