data_PCOD9071414
_publ_section_title
;
Structure prediction by ZEFSAII (Michael W. Deem and Ramdas Pophale) SiO2 
 PCOD9071414
Probable space group: P -1
;
_chemical_formula_sum "Si O2"
_cell_formula_units_Z 14
_cell_length_a 4.991132
_cell_length_b 9.998406
_cell_length_c 14.230502
_cell_angle_alpha 75.176318
_cell_angle_beta 67.453737
_cell_angle_gamma 110.299224
_cell_volume 549.669020
_symmetry_space_group_name_H-M "P -1"
_symmetry_group_IT_number 2
_symmetry_cell_setting 'triclinic'
loop_
_space_group_symop_operation_xyz
x,y,z
-x,-y,-z
loop_
_atom_site_type_symbol
_atom_site_label
_atom_site_fract_x
_atom_site_fract_y
_atom_site_fract_z
Si Si1 0.234920 0.317531 0.088987
Si Si2 0.393782 0.341803 0.275223
Si Si3 0.380483 0.119655 0.456240
Si Si4 0.853186 0.328603 0.499799
Si Si5 0.352050 0.844137 0.938298
Si Si6 0.259159 0.807308 0.263538
Si Si7 0.791188 0.699904 0.184524
O O1 0.220382 0.287988 0.207648
O O2 0.392959 0.211263 0.049517
O O3 0.500000 0.500000 0.000000
O O4 0.311815 0.476167 0.804762
O O5 0.512005 0.226661 0.325612
O O6 0.900234 0.273495 0.086070
O O7 0.129550 0.341117 0.386319
O O8 0.513605 0.254160 0.496914
O O9 0.500000 0.000000 0.500000
O O10 0.000000 0.000000 0.500000
O O11 0.780324 0.207605 0.617140
O O12 0.000000 0.500000 0.500000
O O13 0.549206 0.013370 0.831474
O O14 0.105336 0.827891 0.058868
O O15 0.479463 0.727926 0.216842
O O16 0.909196 0.716801 0.272894
#
# Coordination Sequence:
#
# PCOD9071414 Si02
#       7
#     2   2   2   2   2   2   2
#     4  12  28  48  78 113 151 206 257 318 388 473
#     4  12  29  48  82 110 164 200 266 318 395 469
#     4  12  29  51  78 114 162 209 265 327 396 458
#     4  12  28  52  79 117 161 211 268 315 398 483
#     4  12  27  50  78 112 154 196 266 321 397 459
#     4  12  28  46  79 114 154 200 257 324 395 463
#     4  12  26  49  79 111 154 201 256 328 388 467
#
# _framework density 25.469874000000001
#
# number of rings (size 3 to 8) (size 9 to 14) (size 15 to 20)
#    0.000    0.000    4.286    3.857    8.000    1.143 
#    0.000    0.000    0.000    0.000    0.000    0.000 
#    0.000    0.000    0.000    0.000    0.000    0.000 
#
# Total GULP energy -78493.253578 kJ/mol
# GULP energy per Si atom -5606.660970 kJ/mol
# Density = 2.541190 g / cm^3
# Si number density = 25.469874 Si / 1000 Ang^3
#
#
#
# Elastic Constant Matrix: (Units=GPa)
#
#
# Indices 1 2 3 4 5 6 
#
# 1 111.0716 32.1595 23.5758 -7.8361 15.7350 6.7614
# 2 32.1595 111.4179 11.6815 -10.2248 2.3944 11.3466
# 3 23.5758 11.6815 145.5336 14.5898 19.7664 -4.7304
# 4 -7.8361 -10.2248 14.5898 43.7290 6.8007 19.1898
# 5 15.7350 2.3944 19.7664 6.8007 32.1387 6.0667
# 6 6.7614 11.3466 -4.7304 19.1898 6.0667 52.4272
#
#
#
# Elastic Compliance Matrix: (Units=1/GPa)
#
#
# Indices 1 2 3 4 5 6 
#
# 1 0.011009 -0.002463 -0.001323 0.003313 -0.004780 -0.001666
# 2 -0.002463 0.010483 -0.001064 0.003770 0.000949 -0.003537
# 3 -0.001323 -0.001064 0.008218 -0.003935 -0.004071 0.003054
# 4 0.003313 0.003770 -0.003935 0.031876 -0.003807 -0.012825
# 5 -0.004780 0.000949 -0.004071 -0.003807 0.037236 -0.002872
# 6 -0.001666 -0.003537 0.003054 -0.012825 -0.002872 0.025356
#
#
# Mechanical properties :
#
#
# Convention : Reuss Voigt Hill
#
# Bulk Modulus (GPa) = 49.97364 55.87296 52.92330
# Shear Modulus (GPa) = 35.57496 45.69941 40.63718
#
# Velocity S-wave (km/s) = 3.74136 4.24046 3.99870
# Velocity P-wave (km/s) = 6.19088 6.77937 6.49180
#
# Compressibility (1/GPa) = 0.02001055
#
# Stress axis : x y z
#
# Youngs Moduli (GPa) = 90.83306 95.38941 121.68991
#
# Poissons Ratio (x) = 0.23491 0.16098
# Poissons Ratio (y) = 0.22369 0.12952
# Poissons Ratio (z) = 0.12016 0.10152
#
# Static dielectric constant tensor:
#      x y z
#    x 1.997010 -0.024190 -0.055110 
#    y -0.024190 2.006260 0.029500 
#    z -0.055110 0.029500 2.037380 
# 
# From -- ./inp_files/362085.got.cif
#   From: 2010.05.17/outbox.cif.g08.bks.cpg/sg2_182_cif.got.tgz:362085.got - 2010.06.03 11:33:40.
