data_PCOD9071823
_publ_section_title
;
Structure prediction by ZEFSAII (Michael W. Deem and Ramdas Pophale) SiO2 
 PCOD9071823
Probable space group: P -1
;
_chemical_formula_sum "Si O2"
_cell_formula_units_Z 15
_cell_length_a 12.457503
_cell_length_b 22.147595
_cell_length_c 15.610492
_cell_angle_alpha 150.523554
_cell_angle_beta 152.693755
_cell_angle_gamma 23.427872
_cell_volume 748.675262
_symmetry_space_group_name_H-M "P -1"
_symmetry_group_IT_number 2
_symmetry_cell_setting 'triclinic'
loop_
_space_group_symop_operation_xyz
x,y,z
-x,-y,-z
loop_
_atom_site_type_symbol
_atom_site_label
_atom_site_fract_x
_atom_site_fract_y
_atom_site_fract_z
Si Si1 0.187304 0.413749 0.900252
Si Si2 0.654182 0.338813 0.016514
Si Si3 0.337542 0.331782 0.289713
Si Si4 0.500000 0.000000 0.000000
Si Si5 0.842506 0.924537 0.280191
Si Si6 0.809015 0.671410 0.622012
Si Si7 0.304383 0.715760 0.217125
Si Si8 0.140580 0.648482 0.286748
O O1 0.922304 0.551517 0.819308
O O2 0.062127 0.333668 0.757491
O O3 0.494503 0.303839 0.927529
O O4 0.239783 0.496979 0.114700
O O5 0.441527 0.534488 0.108576
O O6 0.990236 0.277269 0.195007
O O7 0.657943 0.281624 0.853358
O O8 0.196174 0.363515 0.324251
O O9 0.574803 0.364449 0.500605
O O10 0.511543 0.147497 0.165333
O O11 0.503771 0.958370 0.845784
O O12 0.953665 0.842248 0.159533
O O13 0.948869 0.796358 0.268014
O O14 0.000000 0.000000 0.500000
O O15 0.485145 0.755621 0.450421
O O16 0.000000 0.500000 0.500000
#
# Coordination Sequence:
#
# PCOD9071823 Si02
#       8
#     2   2   2   1   2   2   2   2
#     4  11  22  36  55  81 119 150 178 223 275 338
#     4  10  18  31  52  79 111 137 178 225 275 323
#     4  12  21  36  54  87 114 142 187 223 278 325
#     4  12  22  32  58  80 112 144 178 232 270 324
#     4  12  21  37  56  82 113 143 185 231 275 322
#     4  10  18  29  53  78 110 138 175 232 275 319
#     4  10  18  32  51  80 107 139 178 229 278 315
#     4  11  22  37  55  79 117 150 181 223 277 335
#
# _framework density 20.035388999999999
#
# number of rings (size 3 to 8) (size 9 to 14) (size 15 to 20)
#    0.000    1.067    5.333    4.400    0.000    0.000 
#    0.000    0.000    0.000    0.800    0.000    4.667 
#    0.000    0.000    0.000    0.000    0.000    0.000 
#
# Total GULP energy -83526.997175 kJ/mol
# GULP energy per Si atom -5568.466478 kJ/mol
# Density = 1.998979 g / cm^3
# Si number density = 20.035389 Si / 1000 Ang^3
#
#
#
# Elastic Constant Matrix: (Units=GPa)
#
#
# Indices 1 2 3 4 5 6 
#
# 1 150.0698 25.2432 48.0281 -0.4874 19.8013 -11.8445
# 2 25.2432 49.2122 17.9661 -1.4807 9.7902 -7.0628
# 3 48.0281 17.9661 138.9446 -24.7638 12.2059 6.5916
# 4 -0.4874 -1.4807 -24.7638 28.7455 -0.1099 2.6375
# 5 19.8013 9.7902 12.2059 -0.1099 33.8739 -3.8179
# 6 -11.8445 -7.0628 6.5916 2.6375 -3.8179 24.1627
#
#
#
# Elastic Compliance Matrix: (Units=1/GPa)
#
#
# Indices 1 2 3 4 5 6 
#
# 1 0.008806 -0.002205 -0.003298 -0.003227 -0.002828 0.004477
# 2 -0.002205 0.024031 -0.002567 -0.001594 -0.004040 0.006179
# 3 -0.003298 -0.002567 0.010914 0.009824 -0.001990 -0.006731
# 4 -0.003227 -0.001594 0.009824 0.044012 -0.002163 -0.009874
# 5 -0.002828 -0.004040 -0.001990 -0.002163 0.033446 0.003497
# 6 0.004477 0.006179 -0.006731 -0.009874 0.003497 0.048854
#
#
# Mechanical properties :
#
#
# Convention : Reuss Voigt Hill
#
# Bulk Modulus (GPa) = 36.21803 57.85570 47.03687
# Shear Modulus (GPa) = 25.58756 33.82236 29.70496
#
# Velocity S-wave (km/s) = 3.57756 4.11314 3.85466
# Velocity P-wave (km/s) = 5.93140 7.17612 6.58324
#
# Compressibility (1/GPa) = 0.02761056
#
# Stress axis : x y z
#
# Youngs Moduli (GPa) = 113.55980 41.61270 91.62426
#
# Poissons Ratio (x) = 0.09175 0.30217
# Poissons Ratio (y) = 0.25039 0.23524
# Poissons Ratio (z) = 0.37451 0.10684
#
# Static dielectric constant tensor:
#      x y z
#    x 1.725490 0.025560 -0.090710 
#    y 0.025560 1.080950 0.309450 
#    z -0.090710 0.309450 1.788000 
# 
# From -- ./inp_files/421762.got.cif
#   From: 2010.05.17/outbox.cif.g08.bks.cpg/sg2_211_cif.got.tgz:421762.got - 2010.06.03 11:33:40.
