data_PCOD9071686
_publ_section_title
;
Structure prediction by ZEFSAII (Michael W. Deem and Ramdas Pophale) SiO2 
 PCOD9071686
Probable space group: P -1
;
_chemical_formula_sum "Si O2"
_cell_formula_units_Z 12
_cell_length_a 12.734641
_cell_length_b 7.304965
_cell_length_c 7.304944
_cell_angle_alpha 103.660978
_cell_angle_beta 73.116391
_cell_angle_gamma 54.135461
_cell_volume 448.840292
_symmetry_space_group_name_H-M "P -1"
_symmetry_group_IT_number 2
_symmetry_cell_setting 'triclinic'
loop_
_space_group_symop_operation_xyz
x,y,z
-x,-y,-z
loop_
_atom_site_type_symbol
_atom_site_label
_atom_site_fract_x
_atom_site_fract_y
_atom_site_fract_z
Si Si1 0.508866 0.471935 0.268433
Si Si2 0.008869 0.213833 0.010336
Si Si3 0.085276 0.632760 0.510854
Si Si4 0.821918 0.032744 0.466424
Si Si5 0.414723 0.181409 0.303314
Si Si6 0.678083 0.610266 0.176582
O O1 0.500000 0.500000 0.500000
O O2 0.487839 0.278900 0.197541
O O3 0.654425 0.414666 0.114580
O O4 0.355878 0.763733 0.342584
O O5 0.987845 0.326772 0.245423
O O6 0.855881 0.445664 0.024519
O O7 0.154428 0.076566 0.776488
O O8 0.000000 0.000000 0.000000
O O9 0.249999 0.331495 0.331496
O O10 0.946447 0.789108 0.476473
O O11 0.137284 0.792604 0.521965
O O12 0.362717 0.296530 0.567171
O O13 0.553556 0.869373 0.182002
#
# Coordination Sequence:
#
# PCOD9071686 Si02
#       6
#     2   2   2   2   2   2
#     4   9  16  28  49  72  95 129 166 202 247 296
#     4   9  16  28  49  72  95 129 166 202 247 296
#     4   8  15  28  47  69  95 130 165 199 245 298
#     4   9  16  28  49  71  95 130 165 201 249 295
#     4   8  15  28  47  69  95 130 165 199 245 298
#     4   9  16  28  49  71  95 130 165 201 249 295
#
# _framework density 26.735567
#
# number of rings (size 3 to 8) (size 9 to 14) (size 15 to 20)
#    0.000    3.333    0.000    3.000    0.000    0.000 
#    0.000    1.667    0.000   58.000    0.000    0.000 
#    0.000    0.000    0.000    0.000    0.000    0.000 
#
# Total GULP energy -67171.625705 kJ/mol
# GULP energy per Si atom -5597.635475 kJ/mol
# Density = 2.667472 g / cm^3
# Si number density = 26.735567 Si / 1000 Ang^3
#
#
#
# Elastic Constant Matrix: (Units=GPa)
#
#
# Indices 1 2 3 4 5 6 
#
# 1 52.1622 29.4192 14.2157 -4.0542 -3.4618 7.0993
# 2 29.4192 177.7256 14.7197 15.1654 2.1458 -25.5993
# 3 14.2157 14.7197 60.7212 -9.3341 3.8823 -4.4938
# 4 -4.0542 15.1654 -9.3341 18.1714 -4.7412 4.4513
# 5 -3.4618 2.1458 3.8823 -4.7412 16.9077 -3.5024
# 6 7.0993 -25.5993 -4.4938 4.4513 -3.5024 34.6902
#
#
#
# Elastic Compliance Matrix: (Units=1/GPa)
#
#
# Indices 1 2 3 4 5 6 
#
# 1 0.028342 -0.007822 -0.003771 0.016658 0.009592 -0.013230
# 2 -0.007822 0.009788 -0.001734 -0.014407 -0.004414 0.010002
# 3 -0.003771 -0.001734 0.019472 0.009923 -0.002132 0.000526
# 4 0.016658 -0.014407 0.009923 0.087146 0.022919 -0.021623
# 5 0.009592 -0.004414 -0.002132 0.022919 0.068265 -0.001545
# 6 -0.013230 0.010002 0.000526 -0.021623 -0.001545 0.041602
#
#
# Mechanical properties :
#
#
# Convention : Reuss Voigt Hill
#
# Bulk Modulus (GPa) = 32.31057 45.25757 38.78407
# Shear Modulus (GPa) = 17.14763 29.43749 23.29256
#
# Velocity S-wave (km/s) = 2.53529 3.32182 2.95485
# Velocity P-wave (km/s) = 4.54772 5.62826 5.11659
#
# Compressibility (1/GPa) = 0.03094963
#
# Stress axis : x y z
#
# Youngs Moduli (GPa) = 35.28311 102.16176 51.35479
#
# Poissons Ratio (x) = 0.79912 0.19365
# Poissons Ratio (y) = 0.27599 0.08904
# Poissons Ratio (z) = 0.13305 0.17712
#
# Static dielectric constant tensor:
#      x y z
#    x 2.061410 0.021050 0.025950 
#    y 0.021050 2.082080 -0.029530 
#    z 0.025950 -0.029530 2.053590 
# 
# From -- ./inp_files/145821.got.cif
#   From: 2010.05.17/outbox.cif.g08.bks.cpg/sg2_73_cif.got.tgz:145821.got - 2010.06.03 11:33:40.
