data_PCOD9071068
_publ_section_title
;
Structure prediction by ZEFSAII (Michael W. Deem and Ramdas Pophale) SiO2 
 PCOD9071068
Probable space group: P -1
;
_chemical_formula_sum "Si O2"
_cell_formula_units_Z 16
_cell_length_a 7.671061
_cell_length_b 13.613577
_cell_length_c 8.713227
_cell_angle_alpha 102.263812
_cell_angle_beta 86.269409
_cell_angle_gamma 135.530604
_cell_volume 617.888548
_symmetry_space_group_name_H-M "P -1"
_symmetry_group_IT_number 2
_symmetry_cell_setting 'triclinic'
loop_
_space_group_symop_operation_xyz
x,y,z
-x,-y,-z
loop_
_atom_site_type_symbol
_atom_site_label
_atom_site_fract_x
_atom_site_fract_y
_atom_site_fract_z
Si Si1 0.150090 0.310515 0.273335
Si Si2 0.855863 0.905576 0.333224
Si Si3 0.080589 0.742399 0.038377
Si Si4 0.564990 0.610784 0.171679
Si Si5 0.706185 0.374951 0.079904
Si Si6 0.207620 0.102698 0.151012
Si Si7 0.981268 0.589219 0.421124
Si Si8 0.561070 0.110470 0.659938
O O1 0.380399 0.462096 0.224150
O O2 0.198682 0.212542 0.256263
O O3 0.104501 0.353395 0.446265
O O4 0.930456 0.227285 0.128475
O O5 0.676517 0.739242 0.321332
O O6 0.683686 0.926426 0.294117
O O7 0.000000 0.000000 0.500000
O O8 0.089924 0.976904 0.234920
O O9 0.813600 0.664371 0.101709
O O10 0.098635 0.628321 0.990732
O O11 0.300364 0.863947 0.182784
O O12 0.432865 0.620673 0.046243
O O13 0.485542 0.211866 0.108295
O O14 0.810415 0.483845 0.252057
O O15 0.000000 0.000000 0.000000
O O16 0.000000 0.500000 0.500000
O O17 0.244228 0.732969 0.382046
O O18 0.500000 0.000000 0.500000
#
# Coordination Sequence:
#
# PCOD9071068 Si02
#       8
#     2   2   2   2   2   2   2   2
#     4  12  27  48  80 117 158 206 264 326 396 471
#     4  12  27  49  78 108 164 211 256 327 398 468
#     4  12  25  49  79 113 153 206 261 318 392 471
#     4  12  26  52  77 119 153 212 266 316 401 479
#     4  12  27  50  83 112 163 207 260 330 391 470
#     4  12  26  52  75 116 156 206 265 322 394 470
#     4  12  28  48  76 119 155 201 266 330 391 459
#     4  12  27  50  75 113 155 209 262 319 396 476
#
# _framework density 25.894639000000002
#
# number of rings (size 3 to 8) (size 9 to 14) (size 15 to 20)
#    0.000    0.000    5.000    3.375    5.250    1.500 
#    0.000    3.750    0.000    0.000    0.000    0.000 
#    0.000    0.000    0.000    0.000    0.000    0.000 
#
# Total GULP energy -89610.177050 kJ/mol
# GULP energy per Si atom -5600.636066 kJ/mol
# Density = 2.583570 g / cm^3
# Si number density = 25.894639 Si / 1000 Ang^3
#
#
#
# Elastic Constant Matrix: (Units=GPa)
#
#
# Indices 1 2 3 4 5 6 
#
# 1 175.5396 21.6033 39.4230 7.1374 -7.3074 6.3591
# 2 21.6033 144.4049 29.0016 19.2941 5.5754 12.3401
# 3 39.4230 29.0016 164.3492 33.5323 -1.5836 11.6055
# 4 7.1374 19.2941 33.5323 47.6134 -1.9211 -5.4731
# 5 -7.3074 5.5754 -1.5836 -1.9211 45.3462 5.2294
# 6 6.3591 12.3401 11.6055 -5.4731 5.2294 41.2864
#
#
#
# Elastic Compliance Matrix: (Units=1/GPa)
#
#
# Indices 1 2 3 4 5 6 
#
# 1 0.006139 -0.000689 -0.001374 0.000319 0.001091 -0.000449
# 2 -0.000689 0.007761 -0.000422 -0.003056 -0.000935 -0.002382
# 3 -0.001374 -0.000422 0.007772 -0.005386 0.000172 -0.002583
# 4 0.000319 -0.003056 -0.005386 0.026685 0.000697 0.005828
# 5 0.001091 -0.000935 0.000172 0.000697 0.022692 -0.002719
# 6 -0.000449 -0.002382 -0.002583 0.005828 -0.002719 0.026845
#
#
# Mechanical properties :
#
#
# Convention : Reuss Voigt Hill
#
# Bulk Modulus (GPa) = 59.87012 73.81663 66.84338
# Shear Modulus (GPa) = 46.11324 53.13359 49.62342
#
# Velocity S-wave (km/s) = 4.22453 4.53472 4.38237
# Velocity P-wave (km/s) = 6.85321 7.48242 7.17472
#
# Compressibility (1/GPa) = 0.01670282
#
# Stress axis : x y z
#
# Youngs Moduli (GPa) = 162.89940 128.85551 128.67449
#
# Poissons Ratio (x) = 0.08875 0.17677
# Poissons Ratio (y) = 0.11220 0.05424
# Poissons Ratio (z) = 0.22378 0.05431
#
# Static dielectric constant tensor:
#      x y z
#    x 2.042800 -0.011600 -0.007550 
#    y -0.011600 2.108970 -0.087720 
#    z -0.007550 -0.087720 2.125910 
# 
# From -- ./inp_files/207823.got.cif
#   From: 2010.05.17/outbox.cif.g08.bks.cpg/sg2_104_cif.got.tgz:207823.got - 2010.06.03 11:33:40.
