data_PCOD9071210
_publ_section_title
;
Structure prediction by ZEFSAII (Michael W. Deem and Ramdas Pophale) SiO2 
 PCOD9071210
Probable space group: P -1
;
_chemical_formula_sum "Si O2"
_cell_formula_units_Z 14
_cell_length_a 20.636703
_cell_length_b 11.996998
_cell_length_c 14.052273
_cell_angle_alpha 141.521511
_cell_angle_beta 157.464038
_cell_angle_gamma 26.587539
_cell_volume 577.610828
_symmetry_space_group_name_H-M "P -1"
_symmetry_group_IT_number 2
_symmetry_cell_setting 'triclinic'
loop_
_space_group_symop_operation_xyz
x,y,z
-x,-y,-z
loop_
_atom_site_type_symbol
_atom_site_label
_atom_site_fract_x
_atom_site_fract_y
_atom_site_fract_z
Si Si1 0.134499 0.231297 0.111355
Si Si2 0.159245 0.583775 0.678849
Si Si3 0.367911 0.990804 0.733347
Si Si4 0.087369 0.661764 0.416501
Si Si5 0.606133 0.297639 0.793908
Si Si6 0.612502 0.975605 0.884227
Si Si7 0.621223 0.426814 0.513722
O O1 0.090585 0.443535 0.254679
O O2 0.291459 0.969603 0.209501
O O3 0.876911 0.337209 0.804642
O O4 0.280175 0.162675 0.165077
O O5 0.115463 0.687242 0.581424
O O6 0.894610 0.720451 0.442963
O O7 0.236003 0.674720 0.919527
O O8 0.379420 0.278703 0.760872
O O9 0.333036 0.817337 0.608799
O O10 0.522415 0.891774 0.779673
O O11 0.500000 0.000000 0.000000
O O12 0.329229 0.540964 0.612531
O O13 0.834300 0.911311 0.193392
O O14 0.580029 0.339068 0.673812
O O15 0.500000 0.500000 0.500000
#
# Coordination Sequence:
#
# PCOD9071210 Si02
#       7
#     2   2   2   2   2   2   2
#     4  12  27  50  77 116 150 205 259 317 376 457
#     4  12  27  48  77 116 154 203 254 315 383 456
#     4  12  26  51  74 114 157 203 254 313 387 454
#     4  12  26  45  80 113 157 198 258 314 382 450
#     4  12  27  49  76 116 153 196 258 315 383 453
#     4  12  26  46  82 108 155 203 255 312 381 452
#     4  12  29  50  79 110 158 201 252 317 385 455
#
# _framework density 24.237774000000002
#
# number of rings (size 3 to 8) (size 9 to 14) (size 15 to 20)
#    0.000    0.000    5.714    3.429    2.000    1.143 
#    0.000    0.000    0.000    0.000    0.000    0.000 
#    0.000    0.000    0.000    0.000    0.000    0.000 
#
# Total GULP energy -78457.793992 kJ/mol
# GULP energy per Si atom -5604.128142 kJ/mol
# Density = 2.418261 g / cm^3
# Si number density = 24.237774 Si / 1000 Ang^3
#
#
#
# Elastic Constant Matrix: (Units=GPa)
#
#
# Indices 1 2 3 4 5 6 
#
# 1 163.0536 29.5334 46.8331 -6.2705 -17.8954 4.0914
# 2 29.5334 101.6506 41.3455 -15.6532 -0.8487 6.1158
# 3 46.8331 41.3455 172.2535 -17.7476 -12.8042 -1.8705
# 4 -6.2705 -15.6532 -17.7476 45.1167 -1.9443 -1.3210
# 5 -17.8954 -0.8487 -12.8042 -1.9443 43.3356 -10.8458
# 6 4.0914 6.1158 -1.8705 -1.3210 -10.8458 36.4318
#
#
#
# Elastic Compliance Matrix: (Units=1/GPa)
#
#
# Indices 1 2 3 4 5 6 
#
# 1 0.007070 -0.001475 -0.001375 0.000042 0.002520 0.000135
# 2 -0.001475 0.011748 -0.002260 0.002852 -0.001485 -0.002261
# 3 -0.001375 -0.002260 0.007084 0.001941 0.001956 0.001550
# 4 0.000042 0.002852 0.001941 0.024041 0.001996 0.001082
# 5 0.002520 -0.001485 0.001956 0.001996 0.026785 0.008113
# 6 0.000135 -0.002261 0.001550 0.001082 0.008113 0.030347
#
#
# Mechanical properties :
#
#
# Convention : Reuss Voigt Hill
#
# Bulk Modulus (GPa) = 63.76854 74.70911 69.23882
# Shear Modulus (GPa) = 40.80849 46.25985 43.53417
#
# Velocity S-wave (km/s) = 4.10771 4.37347 4.24267
# Velocity P-wave (km/s) = 6.99031 7.50955 7.25458
#
# Compressibility (1/GPa) = 0.01568171
#
# Stress axis : x y z
#
# Youngs Moduli (GPa) = 141.44435 85.11900 141.16566
#
# Poissons Ratio (x) = 0.12558 0.19409
# Poissons Ratio (y) = 0.20869 0.31902
# Poissons Ratio (z) = 0.19447 0.19236
#
# Static dielectric constant tensor:
#      x y z
#    x 2.011650 -0.001140 0.014970 
#    y -0.001140 1.991980 0.023840 
#    z 0.014970 0.023840 1.894560 
# 
# From -- ./inp_files/285113.got.cif
#   From: 2010.05.17/outbox.cif.g08.bks.cpg/sg2_143_cif.got.tgz:285113.got - 2010.06.03 11:33:40.
