data_PCOD9071869
_publ_section_title
;
Structure prediction by ZEFSAII (Michael W. Deem and Ramdas Pophale) SiO2 
 PCOD9071869
Probable space group: P -1
;
_chemical_formula_sum "Si O2"
_cell_formula_units_Z 14
_cell_length_a 9.000000
_cell_length_b 21.000000
_cell_length_c 18.000000
_cell_angle_alpha 20.000000
_cell_angle_beta 50.000000
_cell_angle_gamma 40.000000
_cell_volume 700.468056
_symmetry_space_group_name_H-M "P -1"
_symmetry_group_IT_number 2
_symmetry_cell_setting 'triclinic'
loop_
_space_group_symop_operation_xyz
x,y,z
-x,-y,-z
loop_
_atom_site_type_symbol
_atom_site_label
_atom_site_fract_x
_atom_site_fract_y
_atom_site_fract_z
Si Si1 0.041711 0.097565 0.988622
Si Si2 0.579499 0.666487 0.277546
Si Si3 0.431973 0.598206 0.104581
Si Si4 0.321211 0.063532 0.556478
Si Si5 0.535484 0.106452 0.592672
Si Si6 0.956968 0.729687 0.360021
Si Si7 0.774869 0.589139 0.131202
O O1 0.336225 0.924855 0.096639
O O2 0.994164 0.240208 0.772629
O O3 0.973702 0.918277 0.192245
O O4 0.843925 0.282794 0.908305
O O5 0.500000 0.500000 0.500000
O O6 0.646384 0.653789 0.183087
O O7 0.831447 0.532534 0.389880
O O8 0.557633 0.321344 0.347062
O O9 0.605339 0.581616 0.132888
O O10 0.367715 0.812828 0.834510
O O11 0.427253 0.105294 0.549321
O O12 0.043729 0.320011 0.348177
O O13 0.500000 0.000000 0.500000
O O14 0.313592 0.192274 0.627125
O O15 0.752225 0.824675 0.854644
#
# Coordination Sequence:
#
# PCOD9071869 Si02
#       7
#     2   2   2   2   2   2   2
#     4  10  17  33  56  89 125 168 206 241 296 362
#     4  10  17  29  61  85 119 173 211 239 294 362
#     4  11  24  40  64  97 129 161 207 257 305 370
#     4  11  25  47  70  89 119 163 209 261 320 373
#     4  11  23  41  64  95 128 161 206 259 310 368
#     4  10  17  33  56  86 123 171 205 244 294 360
#     4  11  21  43  64  90 125 167 203 256 315 365
#
# _framework density 19.986636000000001
#
# number of rings (size 3 to 8) (size 9 to 14) (size 15 to 20)
#    0.000    1.429    5.714    2.571    0.000    4.571 
#    0.000    2.143    0.000    0.000    0.000    0.000 
#    0.000    0.000    0.000    0.000    0.000    0.000 
#
# Total GULP energy -78037.319425 kJ/mol
# GULP energy per Si atom -5574.094245 kJ/mol
# Density = 1.994115 g / cm^3
# Si number density = 19.986636 Si / 1000 Ang^3
#
#
#
# Elastic Constant Matrix: (Units=GPa)
#
#
# Indices 1 2 3 4 5 6 
#
# 1 47.8126 5.5592 54.0160 -2.5570 10.0607 -2.9368
# 2 5.5592 81.3887 45.3779 2.6502 7.2468 0.4636
# 3 54.0160 45.3779 190.4701 -9.3691 11.1607 -1.2602
# 4 -2.5570 2.6502 -9.3691 33.0143 -5.4478 6.4712
# 5 10.0607 7.2468 11.1607 -5.4478 46.0313 -8.6248
# 6 -2.9368 0.4636 -1.2602 6.4712 -8.6248 14.0746
#
#
#
# Elastic Compliance Matrix: (Units=1/GPa)
#
#
# Indices 1 2 3 4 5 6 
#
# 1 0.032994 0.003845 -0.010067 -0.002175 -0.004913 0.003846
# 2 0.003845 0.014906 -0.004626 -0.002529 -0.002447 -0.000440
# 3 -0.010067 -0.004626 0.009291 0.002720 0.000626 -0.001983
# 4 -0.002175 -0.002529 0.002720 0.034276 0.001462 -0.014990
# 5 -0.004913 -0.002447 0.000626 0.001462 0.025884 0.014301
# 6 0.003846 -0.000440 -0.001983 -0.014990 0.014301 0.087345
#
#
# Mechanical properties :
#
#
# Convention : Reuss Voigt Hill
#
# Bulk Modulus (GPa) = 28.17127 58.84197 43.50662
# Shear Modulus (GPa) = 20.98873 32.93860 26.96367
#
# Velocity S-wave (km/s) = 3.24410 4.06400 3.67697
# Velocity P-wave (km/s) = 5.30640 7.17816 6.31205
#
# Compressibility (1/GPa) = 0.03549716
#
# Stress axis : x y z
#
# Youngs Moduli (GPa) = 30.30819 67.08800 107.63056
#
# Poissons Ratio (x) = -0.25797 1.08349
# Poissons Ratio (y) = -0.11654 0.49786
# Poissons Ratio (z) = 0.30510 0.31032
#
# Static dielectric constant tensor:
#      x y z
#    x 1.743600 -0.002170 -0.019270 
#    y -0.002170 1.718460 -0.014800 
#    z -0.019270 -0.014800 1.770500 
# 
# From -- ./inp_files/562494.got.cif
#   From: 2010.05.17/outbox.ucp.g08.bks.cvg/sg2_282_cif.got.tgz:562494.got - 2010.06.11 11:32:03.
