data_PCOD9071563
_publ_section_title
;
Structure prediction by ZEFSAII (Michael W. Deem and Ramdas Pophale) SiO2 
 PCOD9071563
Probable space group: P -1
;
_chemical_formula_sum "Si O2"
_cell_formula_units_Z 10
_cell_length_a 12.613989
_cell_length_b 5.375449
_cell_length_c 9.547518
_cell_angle_alpha 107.104183
_cell_angle_beta 34.384412
_cell_angle_gamma 118.572097
_cell_volume 314.404787
_symmetry_space_group_name_H-M "P -1"
_symmetry_group_IT_number 2
_symmetry_cell_setting 'triclinic'
loop_
_space_group_symop_operation_xyz
x,y,z
-x,-y,-z
loop_
_atom_site_type_symbol
_atom_site_label
_atom_site_fract_x
_atom_site_fract_y
_atom_site_fract_z
Si Si1 0.933407 0.710107 0.516919
Si Si2 0.568197 0.742206 0.890430
Si Si3 0.457820 0.145360 0.355929
Si Si4 0.959714 0.347306 0.194751
Si Si5 0.289280 0.100046 0.823344
O O1 0.840305 0.966827 0.648104
O O2 0.960321 0.627646 0.312441
O O3 0.000000 0.500000 0.500000
O O4 0.659265 0.513941 0.823216
O O5 0.527568 0.646638 0.752599
O O6 0.500000 0.000000 0.000000
O O7 0.457008 0.225361 0.534329
O O8 0.223574 0.902359 0.558739
O O9 0.607916 0.981456 0.169653
O O10 0.874561 0.218818 0.112015
O O11 0.160566 0.290023 0.995293
#
# Coordination Sequence:
#
# PCOD9071563 Si02
#       5
#     2   2   2   2   2
#     4  12  27  49  75 109 156 209 260 319 384 464
#     4  12  27  49  75 109 156 209 260 319 384 464
#     4   9  18  41  74 115 161 192 268 316 403 457
#     4   9  18  41  74 115 161 192 268 316 403 457
#     4   8  18  38  80 118 152 206 248 332 398 468
#
# _framework density 31.806131000000001
#
# number of rings (size 3 to 8) (size 9 to 14) (size 15 to 20)
#    1.200    0.800    0.000    3.600    2.800    0.000 
#    7.200    2.000    0.000    0.000    0.000    0.000 
#    0.000    0.000    0.000    0.000    0.000    0.000 
#
# Total GULP energy -55925.736981 kJ/mol
# GULP energy per Si atom -5592.573698 kJ/mol
# Density = 3.173374 g / cm^3
# Si number density = 31.806131 Si / 1000 Ang^3
#
#
#
# Elastic Constant Matrix: (Units=GPa)
#
#
# Indices 1 2 3 4 5 6 
#
# 1 200.5358 74.1281 107.6670 7.2775 -25.5847 -42.4201
# 2 74.1281 263.3350 74.4435 28.5752 -8.3828 -26.6935
# 3 107.6670 74.4435 284.1517 46.2807 -49.5162 -34.2924
# 4 7.2775 28.5752 46.2807 84.0706 -10.5146 -10.6791
# 5 -25.5847 -8.3828 -49.5162 -10.5146 104.0490 7.4880
# 6 -42.4201 -26.6935 -34.2924 -10.6791 7.4880 69.1449
#
#
#
# Elastic Compliance Matrix: (Units=1/GPa)
#
#
# Indices 1 2 3 4 5 6 
#
# 1 0.007307 -0.001264 -0.002208 0.001473 0.000573 0.003066
# 2 -0.001264 0.004461 -0.000502 -0.001102 -0.000342 0.000565
# 3 -0.002208 -0.000502 0.005195 -0.002230 0.001627 0.000508
# 4 0.001473 -0.001102 -0.002230 0.013611 0.000485 0.001422
# 5 0.000573 -0.000342 0.001627 0.000485 0.010550 -0.000041
# 6 0.003066 0.000565 0.000508 0.001422 -0.000041 0.017037
#
#
# Mechanical properties :
#
#
# Convention : Reuss Voigt Hill
#
# Bulk Modulus (GPa) = 110.90737 140.05550 125.48144
# Shear Modulus (GPa) = 72.34352 84.23850 78.29101
#
# Velocity S-wave (km/s) = 4.77436 5.15194 4.96674
# Velocity P-wave (km/s) = 8.08321 8.91738 8.51052
#
# Compressibility (1/GPa) = 0.00901653
#
# Stress axis : x y z
#
# Youngs Moduli (GPa) = 136.84997 224.16655 192.47676
#
# Poissons Ratio (x) = 0.28328 0.42498
# Poissons Ratio (y) = 0.17294 0.09661
# Poissons Ratio (z) = 0.30216 0.11251
#
# Static dielectric constant tensor:
#      x y z
#    x 2.711840 0.177530 0.167350 
#    y 0.177530 2.517250 -0.228310 
#    z 0.167350 -0.228310 2.674550 
# 
# From -- ./inp_files/49999.got.cif
#   From: 2010.05.17/outbox.cif.g08.bks.cpg/sg2_25_cif.got.tgz:49999.got - 2010.06.03 11:33:40.
