data_PCOD9071093
_publ_section_title
;
Structure prediction by ZEFSAII (Michael W. Deem and Ramdas Pophale) SiO2 
 PCOD9071093
Probable space group: P -1
;
_chemical_formula_sum "Si O2"
_cell_formula_units_Z 15
_cell_length_a 13.116869
_cell_length_b 9.087320
_cell_length_c 8.297109
_cell_angle_alpha 121.375393
_cell_angle_beta 135.926462
_cell_angle_gamma 81.097632
_cell_volume 545.818587
_symmetry_space_group_name_H-M "P -1"
_symmetry_group_IT_number 2
_symmetry_cell_setting 'triclinic'
loop_
_space_group_symop_operation_xyz
x,y,z
-x,-y,-z
loop_
_atom_site_type_symbol
_atom_site_label
_atom_site_fract_x
_atom_site_fract_y
_atom_site_fract_z
Si Si1 0.000000 0.500000 0.000000
Si Si2 0.536051 0.737748 0.871164
Si Si3 0.154513 0.020161 0.785467
Si Si4 0.303996 0.530286 0.062209
Si Si5 0.837474 0.718308 0.755080
Si Si6 0.980238 0.693419 0.589177
Si Si7 0.569077 0.794539 0.309417
Si Si8 0.260034 0.794721 0.390983
O O1 0.866446 0.539626 0.752658
O O2 0.904349 0.266740 0.737701
O O3 0.584718 0.563247 0.782718
O O4 0.405791 0.776182 0.640474
O O5 0.694113 0.914365 0.117005
O O6 0.507461 0.724809 0.021436
O O7 0.174434 0.161762 0.037219
O O8 0.000000 0.000000 0.500000
O O9 0.123819 0.829357 0.730565
O O10 0.414434 0.715749 0.201973
O O11 0.197646 0.599140 0.100883
O O12 0.186324 0.364792 0.727244
O O13 0.968748 0.783900 0.798929
O O14 0.682326 0.701913 0.466755
O O15 0.000000 0.500000 0.500000
O O16 0.672802 0.013880 0.523320
#
# Coordination Sequence:
#
# PCOD9071093 Si02
#       8
#     1   2   2   2   2   2   2   2
#     4  12  30  46  82 112 150 196 270 312 396 456
#     4  12  26  51  78 113 158 206 261 320 388 460
#     4  12  27  50  78 116 156 205 260 320 391 464
#     4  12  25  50  73 113 154 204 261 316 389 459
#     4  12  28  52  79 112 158 205 256 327 394 465
#     4  12  29  46  79 114 156 204 260 319 387 463
#     4  12  28  50  79 112 156 208 257 320 395 464
#     4  12  29  48  77 114 154 208 258 321 387 468
#
# _framework density 27.481657999999999
#
# number of rings (size 3 to 8) (size 9 to 14) (size 15 to 20)
#    0.000    0.000    2.667    5.200   13.067    0.000 
#    0.000    0.000    0.000    0.000    0.000    0.000 
#    0.000    0.000    0.000    0.000    0.000    0.000 
#
# Total GULP energy -83819.610145 kJ/mol
# GULP energy per Si atom -5587.974010 kJ/mol
# Density = 2.741911 g / cm^3
# Si number density = 27.481658 Si / 1000 Ang^3
#
#
#
# Elastic Constant Matrix: (Units=GPa)
#
#
# Indices 1 2 3 4 5 6 
#
# 1 45.5528 22.4097 7.2885 -5.4118 -10.3391 2.4051
# 2 22.4097 169.7670 38.4404 1.7419 21.0528 14.1414
# 3 7.2885 38.4404 104.5029 -8.1186 8.2359 13.1232
# 4 -5.4118 1.7419 -8.1186 57.8517 4.4048 9.8018
# 5 -10.3391 21.0528 8.2359 4.4048 58.6545 9.8458
# 6 2.4051 14.1414 13.1232 9.8018 9.8458 47.0487
#
#
#
# Elastic Compliance Matrix: (Units=1/GPa)
#
#
# Indices 1 2 3 4 5 6 
#
# 1 0.025714 -0.003933 -0.000428 0.002298 0.006130 -0.001774
# 2 -0.003933 0.007313 -0.002148 -0.000556 -0.002860 -0.000684
# 3 -0.000428 -0.002148 0.010930 0.002057 -0.000541 -0.002696
# 4 0.002298 -0.000556 0.002057 0.018564 -0.000354 -0.004318
# 5 0.006130 -0.002860 -0.000541 -0.000354 0.019826 -0.003378
# 6 -0.001774 -0.000684 -0.002696 -0.004318 -0.003378 0.023909
#
#
# Mechanical properties :
#
#
# Convention : Reuss Voigt Hill
#
# Bulk Modulus (GPa) = 32.32213 50.67777 41.49995
# Shear Modulus (GPa) = 38.58379 49.48992 44.03686
#
# Velocity S-wave (km/s) = 3.75104 4.24823 4.00735
# Velocity P-wave (km/s) = 5.52696 6.52257 6.04529
#
# Compressibility (1/GPa) = 0.03093855
#
# Stress axis : x y z
#
# Youngs Moduli (GPa) = 38.88936 136.73757 91.49100
#
# Poissons Ratio (x) = 0.53782 0.03919
# Poissons Ratio (y) = 0.15296 0.19650
# Poissons Ratio (z) = 0.01666 0.29367
#
# Static dielectric constant tensor:
#      x y z
#    x 1.592810 -0.076260 -0.142150 
#    y -0.076260 2.113960 -0.046430 
#    z -0.142150 -0.046430 2.257200 
# 
# From -- ./inp_files/299598.got.cif
#   From: 2010.05.17/outbox.cif.g08.bks.cpg/sg2_150_cif.got.tgz:299598.got - 2010.06.03 11:33:40.
