data_PCOD9071252
_publ_section_title
;
Structure prediction by ZEFSAII (Michael W. Deem and Ramdas Pophale) SiO2 
 PCOD9071252
Probable space group: P -1
;
_chemical_formula_sum "Si O2"
_cell_formula_units_Z 13
_cell_length_a 12.055714
_cell_length_b 9.913057
_cell_length_c 15.595264
_cell_angle_alpha 37.498904
_cell_angle_beta 153.196790
_cell_angle_gamma 136.665194
_cell_volume 510.349940
_symmetry_space_group_name_H-M "P -1"
_symmetry_group_IT_number 2
_symmetry_cell_setting 'triclinic'
loop_
_space_group_symop_operation_xyz
x,y,z
-x,-y,-z
loop_
_atom_site_type_symbol
_atom_site_label
_atom_site_fract_x
_atom_site_fract_y
_atom_site_fract_z
Si Si1 0.335438 0.905801 0.012366
Si Si2 0.230868 0.600891 0.551623
Si Si3 0.500000 0.500000 0.000000
Si Si4 0.971353 0.736124 0.135074
Si Si5 0.253466 0.965640 0.640410
Si Si6 0.247573 0.471926 0.074210
Si Si7 0.808920 0.950263 0.635572
O O1 0.207160 0.673651 0.007390
O O2 0.522609 0.909304 0.217143
O O3 0.096427 0.031413 0.807745
O O4 0.500000 0.000000 0.000000
O O5 0.474014 0.466913 0.801024
O O6 0.000000 0.500000 0.500000
O O7 0.159990 0.645984 0.381210
O O8 0.326328 0.836736 0.537477
O O9 0.709017 0.687758 0.023933
O O10 0.691948 0.293052 0.207902
O O11 0.947090 0.597630 0.099081
O O12 0.000000 0.000000 0.000000
O O13 0.230609 0.081729 0.475095
O O14 0.000000 0.000000 0.500000
O O15 0.263661 0.256718 0.252051
#
# Coordination Sequence:
#
# PCOD9071252 Si02
#       7
#     2   2   1   2   2   2   2
#     4  12  26  48  74 109 155 208 263 331 408 487
#     4  12  26  46  79 114 154 208 272 337 412 492
#     4  12  28  52  84 118 158 218 274 338 422 488
#     4  12  26  48  81 117 158 212 274 342 412 495
#     4  12  28  51  81 117 162 212 276 340 413 501
#     4  12  28  46  76 115 158 207 269 339 410 499
#     4  12  26  47  73 113 157 205 270 335 410 494
#
# _framework density 25.472715999999998
#
# number of rings (size 3 to 8) (size 9 to 14) (size 15 to 20)
#    0.000    0.000    3.077    6.462    4.308    0.615 
#    0.000    0.000    0.000    0.000    0.000    0.000 
#    0.000    0.000    0.000    0.000    0.000    0.000 
#
# Total GULP energy -72575.427381 kJ/mol
# GULP energy per Si atom -5582.725183 kJ/mol
# Density = 2.541474 g / cm^3
# Si number density = 25.472716 Si / 1000 Ang^3
#
#
#
# Elastic Constant Matrix: (Units=GPa)
#
#
# Indices 1 2 3 4 5 6 
#
# 1 95.4363 37.2451 36.6037 11.9591 -9.6048 2.1314
# 2 37.2451 142.7192 40.3038 2.9022 -20.3331 -12.5800
# 3 36.6037 40.3038 118.6217 28.6771 -13.9011 -20.9976
# 4 11.9591 2.9022 28.6771 61.0279 -17.8954 -10.6565
# 5 -9.6048 -20.3331 -13.9011 -17.8954 68.3836 9.4024
# 6 2.1314 -12.5800 -20.9976 -10.6565 9.4024 58.9467
#
#
#
# Elastic Compliance Matrix: (Units=1/GPa)
#
#
# Indices 1 2 3 4 5 6 
#
# 1 0.012978 -0.002614 -0.003208 -0.001219 0.000412 -0.002456
# 2 -0.002614 0.008662 -0.002146 0.001937 0.002115 0.001191
# 3 -0.003208 -0.002146 0.011707 -0.004307 -0.000261 0.003091
# 4 -0.001219 0.001937 -0.004307 0.020219 0.004566 0.001850
# 5 0.000412 0.002115 -0.000261 0.004566 0.016657 -0.001488
# 6 -0.002456 0.001191 0.003091 0.001850 -0.001488 0.018980
#
#
# Mechanical properties :
#
#
# Convention : Reuss Voigt Hill
#
# Bulk Modulus (GPa) = 57.43528 65.00915 61.22221
# Shear Modulus (GPa) = 45.06852 53.84663 49.45757
#
# Velocity S-wave (km/s) = 4.21085 4.60270 4.41113
# Velocity P-wave (km/s) = 6.79988 7.33641 7.07324
#
# Compressibility (1/GPa) = 0.01741090
#
# Stress axis : x y z
#
# Youngs Moduli (GPa) = 77.05426 115.44833 85.41788
#
# Poissons Ratio (x) = 0.30176 0.27404
# Poissons Ratio (y) = 0.20140 0.18330
# Poissons Ratio (z) = 0.24721 0.24775
#
# Static dielectric constant tensor:
#      x y z
#    x 1.794860 0.203400 -0.003230 
#    y 0.203400 1.795400 0.047270 
#    z -0.003230 0.047270 1.967320 
# 
# From -- ./inp_files/514972.got.cif
#   From: 2010.05.17/outbox.cif.g08.bks.cpg/sg2_258_cif.got.tgz:514972.got - 2010.06.03 11:33:40.
