data_PCOD9071665
_publ_section_title
;
Structure prediction by ZEFSAII (Michael W. Deem and Ramdas Pophale) SiO2 
 PCOD9071665
Probable space group: P -1
;
_chemical_formula_sum "Si O2"
_cell_formula_units_Z 8
_cell_length_a 9.713341
_cell_length_b 9.009656
_cell_length_c 15.748107
_cell_angle_alpha 47.878157
_cell_angle_beta 162.244949
_cell_angle_gamma 129.051869
_cell_volume 311.492118
_symmetry_space_group_name_H-M "P -1"
_symmetry_group_IT_number 2
_symmetry_cell_setting 'triclinic'
loop_
_space_group_symop_operation_xyz
x,y,z
-x,-y,-z
loop_
_atom_site_type_symbol
_atom_site_label
_atom_site_fract_x
_atom_site_fract_y
_atom_site_fract_z
Si Si1 0.914312 0.147854 0.676711
Si Si2 0.504951 0.755960 0.772163
Si Si3 0.913602 0.499818 0.676476
Si Si4 0.449683 0.887530 0.204492
O O1 0.873559 0.242747 0.523213
O O2 0.850862 0.318677 0.644607
O O3 0.500000 0.000000 0.500000
O O4 0.360542 0.018449 0.017242
O O5 0.472789 0.957016 0.733349
O O6 0.641654 0.557642 0.983670
O O7 0.976853 0.786123 0.986005
O O8 0.500000 0.500000 0.500000
O O9 0.832094 0.711820 0.500051
#
# Coordination Sequence:
#
# PCOD9071665 Si02
#       4
#     2   2   2   2
#     4   9  15  20  25  31  36  41  47  52  57  63
#     4   8  14  21  25  30  37  41  46  53  57  62
#     4   9  15  20  25  31  36  41  47  52  57  63
#     4   8  14  21  25  30  37  41  46  53  57  62
#
# _framework density 25.682831
#
# number of rings (size 3 to 8) (size 9 to 14) (size 15 to 20)
#    0.000    3.500    0.000    4.500    0.000   11.000 
#    0.000    0.000    0.000    0.000    0.000    0.000 
#    0.000    0.000    0.000    0.000    0.000    0.000 
#
# Total GULP energy -44749.402672 kJ/mol
# GULP energy per Si atom -5593.675334 kJ/mol
# Density = 2.562438 g / cm^3
# Si number density = 25.682831 Si / 1000 Ang^3
#
#
#
# Elastic Constant Matrix: (Units=GPa)
#
#
# Indices 1 2 3 4 5 6 
#
# 1 77.5361 43.7711 66.0016 -18.0661 -42.9476 -0.0307
# 2 43.7711 97.7318 90.8863 -52.9681 -11.6327 -6.9521
# 3 66.0016 90.8863 222.6362 -67.4532 -52.8321 -23.9644
# 4 -18.0661 -52.9681 -67.4532 65.4618 13.6979 4.3121
# 5 -42.9476 -11.6327 -52.8321 13.6979 68.7548 -9.2478
# 6 -0.0307 -6.9521 -23.9644 4.3121 -9.2478 40.0327
#
#
#
# Elastic Compliance Matrix: (Units=1/GPa)
#
#
# Indices 1 2 3 4 5 6 
#
# 1 0.029637 -0.014703 -0.001161 -0.008593 0.017066 0.001643
# 2 -0.014703 0.029731 -0.006077 0.016572 -0.012552 -0.003171
# 3 -0.001161 -0.006077 0.010839 0.004113 0.006633 0.006521
# 4 -0.008593 0.016572 0.004113 0.031690 -0.005633 0.000619
# 5 0.017066 -0.012552 0.006633 -0.005633 0.030575 0.009474
# 6 0.001643 -0.003171 0.006521 0.000619 0.009474 0.030456
#
#
# Mechanical properties :
#
#
# Convention : Reuss Voigt Hill
#
# Bulk Modulus (GPa) = 37.98702 88.80247 63.39474
# Shear Modulus (GPa) = 23.19282 47.99953 35.59617
#
# Velocity S-wave (km/s) = 3.00834 4.32781 3.72693
# Velocity P-wave (km/s) = 5.18553 7.72171 6.57703
#
# Compressibility (1/GPa) = 0.02632478
#
# Stress axis : x y z
#
# Youngs Moduli (GPa) = 33.74160 33.63538 92.26126
#
# Poissons Ratio (x) = 0.49455 0.10708
# Poissons Ratio (y) = 0.49611 0.56067
# Poissons Ratio (z) = 0.03916 0.20440
#
# Static dielectric constant tensor:
#      x y z
#    x 2.133830 0.091490 0.009320 
#    y 0.091490 1.937820 -0.067520 
#    z 0.009320 -0.067520 2.053270 
# 
# From -- ./inp_files/62135.got.cif
#   From: 2010.05.17/outbox.cif.g08.bks.cpg/sg2_32_cif.got.tgz:62135.got - 2010.06.03 11:33:40.
