data_PCOD9071293
_publ_section_title
;
Structure prediction by ZEFSAII (Michael W. Deem and Ramdas Pophale) SiO2 
 PCOD9071293
Probable space group: P -1
;
_chemical_formula_sum "Si O2"
_cell_formula_units_Z 15
_cell_length_a 11.928949
_cell_length_b 9.635914
_cell_length_c 7.866271
_cell_angle_alpha 128.684805
_cell_angle_beta 51.513875
_cell_angle_gamma 117.714507
_cell_volume 548.181700
_symmetry_space_group_name_H-M "P -1"
_symmetry_group_IT_number 2
_symmetry_cell_setting 'triclinic'
loop_
_space_group_symop_operation_xyz
x,y,z
-x,-y,-z
loop_
_atom_site_type_symbol
_atom_site_label
_atom_site_fract_x
_atom_site_fract_y
_atom_site_fract_z
Si Si1 0.409851 0.159197 0.250180
Si Si2 0.781508 0.397123 0.320641
Si Si3 0.500000 0.500000 0.500000
Si Si4 0.914449 0.401620 0.743027
Si Si5 0.328769 0.444747 0.109713
Si Si6 0.066991 0.920949 0.711328
Si Si7 0.153656 0.915798 0.166798
Si Si8 0.626149 0.897705 0.375521
O O1 0.485462 0.342498 0.245945
O O2 0.420277 0.209503 0.483489
O O3 0.253837 0.089388 0.273720
O O4 0.500000 0.000000 0.000000
O O5 0.673151 0.474833 0.352007
O O6 0.729339 0.461696 0.599350
O O7 0.950620 0.471810 0.211237
O O8 0.771936 0.183600 0.133852
O O9 0.777963 0.494738 0.887987
O O10 0.970641 0.290415 0.444839
O O11 0.866407 0.240594 0.795474
O O12 0.500000 0.500000 0.000000
O O13 0.321541 0.232315 0.915560
O O14 0.238593 0.966197 0.587244
O O15 0.995045 0.026624 0.712579
O O16 0.000000 0.000000 0.000000
O O17 0.500000 0.000000 0.500000
#
# Coordination Sequence:
#
# PCOD9071293 Si02
#       8
#     2   2   1   2   2   2   2   2
#     4  12  28  50  80 113 162 204 268 321 410 466
#     4  12  27  47  79 111 164 208 271 323 409 470
#     4  12  28  46  80 116 156 210 264 326 394 478
#     4  12  26  50  77 115 161 208 272 333 398 481
#     4  12  28  48  78 114 161 210 272 330 406 477
#     4  12  26  47  78 110 155 206 265 321 400 471
#     4  12  27  49  80 118 156 211 271 334 401 480
#     4  12  29  49  77 112 157 208 262 329 398 476
#
# _framework density 27.363192000000002
#
# number of rings (size 3 to 8) (size 9 to 14) (size 15 to 20)
#    0.000    0.000    2.667    6.000    9.333    0.000 
#    0.000    0.000    0.000    0.000    0.000    0.000 
#    0.000    0.000    0.000    0.000    0.000    0.000 
#
# Total GULP energy -83938.921590 kJ/mol
# GULP energy per Si atom -5595.928106 kJ/mol
# Density = 2.730091 g / cm^3
# Si number density = 27.363192 Si / 1000 Ang^3
#
#
#
# Elastic Constant Matrix: (Units=GPa)
#
#
# Indices 1 2 3 4 5 6 
#
# 1 272.0732 82.9818 53.9276 6.7064 -40.7616 20.5293
# 2 82.9818 68.5970 28.8852 15.6834 1.2540 27.2101
# 3 53.9276 28.8852 167.5734 27.2516 0.9633 -0.7095
# 4 6.7064 15.6834 27.2516 62.6632 -2.1492 8.4841
# 5 -40.7616 1.2540 0.9633 -2.1492 64.6256 10.1747
# 6 20.5293 27.2101 -0.7095 8.4841 10.1747 61.8252
#
#
#
# Elastic Compliance Matrix: (Units=1/GPa)
#
#
# Indices 1 2 3 4 5 6 
#
# 1 0.007320 -0.009138 -0.001148 0.002100 0.004803 0.000499
# 2 -0.009138 0.031212 -0.001627 -0.005055 -0.005065 -0.009194
# 3 -0.001148 -0.001627 0.007092 -0.002833 -0.001169 0.001760
# 4 0.002100 -0.005055 -0.002833 0.018502 0.002304 -0.001423
# 5 0.004803 -0.005065 -0.001169 0.002304 0.019143 -0.002845
# 6 0.000499 -0.009194 0.001760 -0.001423 -0.002845 0.020739
#
#
# Mechanical properties :
#
#
# Convention : Reuss Voigt Hill
#
# Bulk Modulus (GPa) = 45.87264 93.31475 69.59369
# Shear Modulus (GPa) = 37.00942 60.65274 48.83108
#
# Velocity S-wave (km/s) = 3.68166 4.71317 4.22898
# Velocity P-wave (km/s) = 5.90539 7.98717 7.02383
#
# Compressibility (1/GPa) = 0.02179949
#
# Stress axis : x y z
#
# Youngs Moduli (GPa) = 136.61171 32.03857 141.00103
#
# Poissons Ratio (x) = 0.29276 0.16181
# Poissons Ratio (y) = 1.24832 0.22944
# Poissons Ratio (z) = 0.15677 0.05213
#
# Static dielectric constant tensor:
#      x y z
#    x 2.086600 -0.010860 0.123360 
#    y -0.010860 1.673810 -0.102550 
#    z 0.123360 -0.102550 2.306250 
# 
# From -- ./inp_files/263701.got.cif
#   From: 2010.05.17/outbox.cif.g08.bks.cpg/sg2_132_cif.got.tgz:263701.got - 2010.06.03 11:33:40.
