data_PCOD9071534
_publ_section_title
;
Structure prediction by ZEFSAII (Michael W. Deem and Ramdas Pophale) SiO2 
 PCOD9071534
Probable space group: P -1
;
_chemical_formula_sum "Si O2"
_cell_formula_units_Z 14
_cell_length_a 15.113881
_cell_length_b 12.232947
_cell_length_c 4.961365
_cell_angle_alpha 114.944139
_cell_angle_beta 85.416721
_cell_angle_gamma 48.112712
_cell_volume 522.916995
_symmetry_space_group_name_H-M "P -1"
_symmetry_group_IT_number 2
_symmetry_cell_setting 'triclinic'
loop_
_space_group_symop_operation_xyz
x,y,z
-x,-y,-z
loop_
_atom_site_type_symbol
_atom_site_label
_atom_site_fract_x
_atom_site_fract_y
_atom_site_fract_z
Si Si1 0.780645 0.407420 0.264620
Si Si2 0.791871 0.604548 0.101408
Si Si3 0.145027 0.913488 0.309727
Si Si4 0.040523 0.246809 0.343871
Si Si5 0.601758 0.288540 0.640404
Si Si6 0.482105 0.767516 0.904822
Si Si7 0.282808 0.166511 0.119120
O O1 0.760957 0.499431 0.084665
O O2 0.649176 0.585639 0.658853
O O3 0.928899 0.295688 0.232190
O O4 0.776897 0.269621 0.076681
O O5 0.780815 0.685639 0.470653
O O6 0.694877 0.776805 0.091251
O O7 0.944195 0.436150 0.747572
O O8 0.239655 0.838732 0.469068
O O9 0.112930 0.071157 0.331941
O O10 0.000000 0.000000 0.500000
O O11 0.162269 0.193895 0.114552
O O12 0.569213 0.283456 0.341427
O O13 0.500000 0.500000 0.000000
O O14 0.573052 0.204435 0.756583
O O15 0.416572 0.956840 0.990513
#
# Coordination Sequence:
#
# PCOD9071534 Si02
#       7
#     2   2   2   2   2   2   2
#     4  12  29  48  76 116 158 197 250 320 386 452
#     4  12  27  50  76 113 151 202 257 319 373 443
#     4  12  27  47  81 118 155 196 250 319 389 456
#     4  12  27  49  78 113 154 199 256 317 386 445
#     4  12  27  51  79 112 156 204 249 310 382 459
#     4  12  29  50  78 114 154 202 258 307 382 453
#     4  12  28  50  80 107 151 206 263 309 371 454
#
# _framework density 26.772891000000001
#
# number of rings (size 3 to 8) (size 9 to 14) (size 15 to 20)
#    0.000    0.000    5.714    2.571    8.000    1.143 
#    0.000    0.000    0.000    0.000    0.000    0.000 
#    0.000    0.000    0.000    0.000    0.000    0.000 
#
# Total GULP energy -78668.228195 kJ/mol
# GULP energy per Si atom -5619.159157 kJ/mol
# Density = 2.671195 g / cm^3
# Si number density = 26.772891 Si / 1000 Ang^3
#
#
#
# Elastic Constant Matrix: (Units=GPa)
#
#
# Indices 1 2 3 4 5 6 
#
# 1 84.6579 40.8592 11.2389 -3.5543 3.9114 -19.5177
# 2 40.8592 150.8333 25.6002 -0.8581 9.9800 8.2577
# 3 11.2389 25.6002 78.3688 4.4461 8.3492 -4.7932
# 4 -3.5543 -0.8581 4.4461 55.0060 2.6801 5.0093
# 5 3.9114 9.9800 8.3492 2.6801 47.0980 2.0275
# 6 -19.5177 8.2577 -4.7932 5.0093 2.0275 53.4958
#
#
#
# Elastic Compliance Matrix: (Units=1/GPa)
#
#
# Indices 1 2 3 4 5 6 
#
# 1 0.015497 -0.004443 -0.000348 0.000415 -0.000578 0.006292
# 2 -0.004443 0.008446 -0.002236 0.000354 -0.000910 -0.003124
# 3 -0.000348 -0.002236 0.013922 -0.001238 -0.001966 0.001656
# 4 0.000415 0.000354 -0.001238 0.018511 -0.000870 -0.001714
# 5 -0.000578 -0.000910 -0.001966 -0.000870 0.021914 -0.000996
# 6 0.006292 -0.003124 0.001656 -0.001714 -0.000996 0.021817
#
#
# Mechanical properties :
#
#
# Convention : Reuss Voigt Hill
#
# Bulk Modulus (GPa) = 41.99801 52.13963 47.06882
# Shear Modulus (GPa) = 40.95047 46.86407 43.90727
#
# Velocity S-wave (km/s) = 3.91519 4.18835 4.05407
# Velocity P-wave (km/s) = 6.01324 6.55033 6.28752
#
# Compressibility (1/GPa) = 0.02381065
#
# Stress axis : x y z
#
# Youngs Moduli (GPa) = 64.52654 118.39765 71.83128
#
# Poissons Ratio (x) = 0.52602 0.02502
# Poissons Ratio (y) = 0.28668 0.16062
# Poissons Ratio (z) = 0.02248 0.26475
#
# Static dielectric constant tensor:
#      x y z
#    x 2.104930 -0.010170 0.022920 
#    y -0.010170 2.041850 0.032550 
#    z 0.022920 0.032550 2.092780 
# 
# From -- ./inp_files/95484.got.cif
#   From: 2010.05.17/outbox.cif.g08.bks.cpg/sg2_48_cif.got.tgz:95484.got - 2010.06.03 11:33:40.
