data_PCOD9071050
_publ_section_title
;
Structure prediction by ZEFSAII (Michael W. Deem and Ramdas Pophale) SiO2 
 PCOD9071050
Probable space group: P -1
;
_chemical_formula_sum "Si O2"
_cell_formula_units_Z 12
_cell_length_a 5.226601
_cell_length_b 9.277382
_cell_length_c 21.975168
_cell_angle_alpha 30.127493
_cell_angle_beta 88.940830
_cell_angle_gamma 77.521696
_cell_volume 490.400429
_symmetry_space_group_name_H-M "P -1"
_symmetry_group_IT_number 2
_symmetry_cell_setting 'triclinic'
loop_
_space_group_symop_operation_xyz
x,y,z
-x,-y,-z
loop_
_atom_site_type_symbol
_atom_site_label
_atom_site_fract_x
_atom_site_fract_y
_atom_site_fract_z
Si Si1 0.929855 0.244640 0.629643
Si Si2 0.064364 0.202034 0.299096
Si Si3 0.560839 0.218797 0.371014
Si Si4 0.323539 0.801670 0.234935
Si Si5 0.505188 0.273745 0.137399
Si Si6 0.992450 0.235566 0.967391
O O1 0.000000 0.500000 0.500000
O O2 0.798208 0.359238 0.654542
O O3 0.779561 0.092861 0.638826
O O4 0.202234 0.936624 0.757697
O O5 0.854988 0.104998 0.376446
O O6 0.876740 0.531134 0.146254
O O7 0.297162 0.280070 0.305580
O O8 0.543944 0.528029 0.294391
O O9 0.500000 0.000000 0.500000
O O10 0.414184 0.021541 0.196881
O O11 0.123339 0.032153 0.101041
O O12 0.298735 0.503900 0.103050
O O13 0.500000 0.500000 0.000000
O O14 0.000000 0.000000 0.000000
#
# Coordination Sequence:
#
# PCOD9071050 Si02
#       6
#     2   2   2   2   2   2
#     4  12  28  49  78 110 154 204 260 324 394 472
#     4  12  27  51  76 114 156 205 265 325 389 476
#     4  12  29  50  78 112 160 210 262 325 395 471
#     4  12  27  46  76 111 152 202 259 326 392 466
#     4  12  26  48  78 110 155 207 259 326 395 467
#     4  12  25  49  76 114 152 203 265 322 397 465
#
# _framework density 24.469802999999999
#
# number of rings (size 3 to 8) (size 9 to 14) (size 15 to 20)
#    0.000    0.000    5.000    4.000    7.000    1.333 
#    0.000    0.000    0.000    0.000    0.000    0.000 
#    0.000    0.000    0.000    0.000    0.000    0.000 
#
# Total GULP energy -67109.977906 kJ/mol
# GULP energy per Si atom -5592.498159 kJ/mol
# Density = 2.441411 g / cm^3
# Si number density = 24.469803 Si / 1000 Ang^3
#
#
#
# Elastic Constant Matrix: (Units=GPa)
#
#
# Indices 1 2 3 4 5 6 
#
# 1 51.3756 35.2616 -15.2788 6.2790 -9.1860 14.0007
# 2 35.2616 170.2385 20.6871 -3.8970 -9.6927 16.2117
# 3 -15.2788 20.6871 100.4486 29.6059 -25.5711 15.7579
# 4 6.2790 -3.8970 29.6059 52.8010 -4.8275 -8.1940
# 5 -9.1860 -9.6927 -25.5711 -4.8275 36.2753 -2.6192
# 6 14.0007 16.2117 15.7579 -8.1940 -2.6192 27.5290
#
#
#
# Elastic Compliance Matrix: (Units=1/GPa)
#
#
# Indices 1 2 3 4 5 6 
#
# 1 0.067833 -0.012456 0.042473 -0.038947 0.034288 -0.059806
# 2 -0.012456 0.008609 -0.008490 0.007621 -0.005254 0.007893
# 3 0.042473 -0.008490 0.044373 -0.035366 0.031483 -0.049532
# 4 -0.038947 0.007621 -0.035366 0.049349 -0.022716 0.048090
# 5 0.034288 -0.005254 0.031483 -0.022716 0.051545 -0.034222
# 6 -0.059806 0.007893 -0.049532 0.048090 -0.034222 0.101504
#
#
# Mechanical properties :
#
#
# Convention : Reuss Voigt Hill
#
# Bulk Modulus (GPa) = 6.10241 44.82251 25.46246
# Shear Modulus (GPa) = 14.93515 42.08058 28.50786
#
# Velocity S-wave (km/s) = 2.47321 4.15142 3.41695
# Velocity P-wave (km/s) = 3.26419 6.42933 5.09859
#
# Compressibility (1/GPa) = 0.16386980
#
# Stress axis : x y z
#
# Youngs Moduli (GPa) = 14.74206 116.15204 22.53644
#
# Poissons Ratio (x) = 1.44675 -0.95718
# Poissons Ratio (y) = 0.18362 0.19133
# Poissons Ratio (z) = -0.62613 0.98609
#
# Static dielectric constant tensor:
#      x y z
#    x 2.016240 0.056090 -0.031510 
#    y 0.056090 2.069260 0.069620 
#    z -0.031510 0.069620 1.964710 
# 
# From -- ./inp_files/21997.got.cif
#   From: 2010.05.17/outbox.cif.g08.bks.cpg/sg2_11_cif.got.tgz:21997.got - 2010.06.03 11:33:40.
