data_PCOD9071080
_publ_section_title
;
Structure prediction by ZEFSAII (Michael W. Deem and Ramdas Pophale) SiO2 
 PCOD9071080
Probable space group: P -1
;
_chemical_formula_sum "Si O2"
_cell_formula_units_Z 12
_cell_length_a 9.231617
_cell_length_b 5.180717
_cell_length_c 11.842701
_cell_angle_alpha 100.657046
_cell_angle_beta 119.245262
_cell_angle_gamma 77.113847
_cell_volume 479.826990
_symmetry_space_group_name_H-M "P -1"
_symmetry_group_IT_number 2
_symmetry_cell_setting 'triclinic'
loop_
_space_group_symop_operation_xyz
x,y,z
-x,-y,-z
loop_
_atom_site_type_symbol
_atom_site_label
_atom_site_fract_x
_atom_site_fract_y
_atom_site_fract_z
Si Si1 0.155469 0.132944 0.844910
Si Si2 0.571426 0.618382 0.925429
Si Si3 0.303242 0.623560 0.433889
Si Si4 0.332625 0.943549 0.686318
Si Si5 0.940033 0.687675 0.792044
Si Si6 0.679912 0.133385 0.783802
O O1 0.036316 0.408069 0.849477
O O2 0.201292 0.130323 0.728820
O O3 0.326687 0.149882 0.978496
O O4 0.071297 0.875918 0.818113
O O5 0.423640 0.723804 0.791038
O O6 0.689428 0.379793 0.888159
O O7 0.500000 0.500000 0.000000
O O8 0.500000 0.500000 0.500000
O O9 0.261869 0.803793 0.542162
O O10 0.184122 0.399986 0.358508
O O11 0.282867 0.789108 0.323552
O O12 0.488896 0.079076 0.713875
O O13 0.811856 0.871690 0.840602
#
# Coordination Sequence:
#
# PCOD9071080 Si02
#       6
#     2   2   2   2   2   2
#     4  12  29  50  76 119 164 199 256 329 395 460
#     4  12  26  50  81 117 153 209 266 317 386 471
#     4  12  25  50  81 116 152 205 269 319 384 471
#     4  12  27  48  85 113 153 211 265 322 380 470
#     4  12  28  52  75 120 158 204 257 327 403 446
#     4  12  25  49  81 116 151 206 268 311 389 468
#
# _framework density 25.009014000000001
#
# number of rings (size 3 to 8) (size 9 to 14) (size 15 to 20)
#    0.000    0.000    6.667    2.000    2.333    2.667 
#    0.000    0.000    0.000    0.000    0.000    0.000 
#    0.000    0.000    0.000    0.000    0.000    0.000 
#
# Total GULP energy -67315.255884 kJ/mol
# GULP energy per Si atom -5609.604657 kJ/mol
# Density = 2.495209 g / cm^3
# Si number density = 25.009014 Si / 1000 Ang^3
#
#
#
# Elastic Constant Matrix: (Units=GPa)
#
#
# Indices 1 2 3 4 5 6 
#
# 1 88.9780 36.4924 59.2145 12.0312 7.8256 35.3001
# 2 36.4924 128.4985 42.1523 8.3498 -0.2206 6.2494
# 3 59.2145 42.1523 136.6169 24.6673 -16.3863 17.2857
# 4 12.0312 8.3498 24.6673 42.8981 -0.5283 8.5577
# 5 7.8256 -0.2206 -16.3863 -0.5283 54.6949 10.1776
# 6 35.3001 6.2494 17.2857 8.5577 10.1776 58.4770
#
#
#
# Elastic Compliance Matrix: (Units=1/GPa)
#
#
# Indices 1 2 3 4 5 6 
#
# 1 0.022010 -0.003247 -0.007865 0.000956 -0.003625 -0.010124
# 2 -0.003247 0.009171 -0.001602 -0.000264 -0.000267 0.001538
# 3 -0.007865 -0.001602 0.012507 -0.004843 0.004609 0.001128
# 4 0.000956 -0.000264 -0.004843 0.026437 -0.000804 -0.002847
# 5 -0.003625 -0.000267 0.004609 -0.000804 0.020662 -0.002624
# 6 -0.010124 0.001538 0.001128 -0.002847 -0.002624 0.023587
#
#
# Mechanical properties :
#
#
# Convention : Reuss Voigt Hill
#
# Bulk Modulus (GPa) = 54.75645 69.97910 62.36778
# Shear Modulus (GPa) = 34.27250 45.62962 39.95106
#
# Velocity S-wave (km/s) = 3.70592 4.27608 4.00117
# Velocity P-wave (km/s) = 6.34460 7.24031 6.80721
#
# Compressibility (1/GPa) = 0.01826269
#
# Stress axis : x y z
#
# Youngs Moduli (GPa) = 45.43326 109.03351 79.95332
#
# Poissons Ratio (x) = 0.35401 0.62882
# Poissons Ratio (y) = 0.14751 0.12805
# Poissons Ratio (z) = 0.35733 0.17463
#
# Static dielectric constant tensor:
#      x y z
#    x 1.980680 -0.027890 0.018370 
#    y -0.027890 2.020910 -0.029460 
#    z 0.018370 -0.029460 1.965290 
# 
# From -- ./inp_files/59644.got.cif
#   From: 2010.05.17/outbox.cif.g08.bks.cpg/sg2_30_cif.got.tgz:59644.got - 2010.06.03 11:33:40.
