data_PCOD9071214
_publ_section_title
;
Structure prediction by ZEFSAII (Michael W. Deem and Ramdas Pophale) SiO2 
 PCOD9071214
Probable space group: P -1
;
_chemical_formula_sum "Si O2"
_cell_formula_units_Z 12
_cell_length_a 20.920978
_cell_length_b 20.406839
_cell_length_c 5.270677
_cell_angle_alpha 65.379667
_cell_angle_beta 113.777328
_cell_angle_gamma 166.222308
_cell_volume 487.170510
_symmetry_space_group_name_H-M "P -1"
_symmetry_group_IT_number 2
_symmetry_cell_setting 'triclinic'
loop_
_space_group_symop_operation_xyz
x,y,z
-x,-y,-z
loop_
_atom_site_type_symbol
_atom_site_label
_atom_site_fract_x
_atom_site_fract_y
_atom_site_fract_z
Si Si1 0.022094 0.353341 0.032963
Si Si2 0.753053 0.701050 0.544326
Si Si3 0.483534 0.121116 0.306952
Si Si4 0.784083 0.638081 0.193088
Si Si5 0.749101 0.294706 0.830074
Si Si6 0.721119 0.961302 0.539441
O O1 0.179359 0.556595 0.168550
O O2 0.275909 0.589273 0.880568
O O3 0.867362 0.128558 0.242962
O O4 0.770539 0.148322 0.845877
O O5 0.500000 0.500000 0.500000
O O6 0.785327 0.699081 0.319716
O O7 0.732401 0.620886 0.863253
O O8 0.000000 0.000000 0.500000
O O9 0.656340 0.225123 0.511516
O O10 0.333052 0.015321 0.456093
O O11 0.556965 0.356993 0.383056
O O12 0.064687 0.875696 0.243658
O O13 0.000000 0.500000 0.000000
O O14 0.500000 0.000000 0.000000
#
# Coordination Sequence:
#
# PCOD9071214 Si02
#       6
#     2   2   2   2   2   2
#     4  12  26  46  73 102 146 194 238 320 385 441
#     4  12  26  50  74 112 156 198 250 306 370 440
#     4  12  26  46  73 102 146 194 238 320 385 441
#     4  12  27  45  80 111 149 206 250 310 370 456
#     4  12  26  46  68 104 142 186 256 302 374 470
#     4  12  27  47  70 111 147 182 254 306 372 452
#
# _framework density 24.63203
#
# number of rings (size 3 to 8) (size 9 to 14) (size 15 to 20)
#    0.000    0.000    0.000   11.000    7.000    4.000 
#    0.000    0.000    0.000    0.000    0.000    0.000 
#    0.000    0.000    0.000    0.000    0.000    0.000 
#
# Total GULP energy -67120.599910 kJ/mol
# GULP energy per Si atom -5593.383326 kJ/mol
# Density = 2.457597 g / cm^3
# Si number density = 24.632030 Si / 1000 Ang^3
#
#
#
# Elastic Constant Matrix: (Units=GPa)
#
#
# Indices 1 2 3 4 5 6 
#
# 1 56.0049 22.0377 5.6780 10.5505 -2.8778 7.6642
# 2 22.0377 170.6457 3.6818 3.8366 -4.8895 7.2134
# 3 5.6780 3.6818 72.7060 10.3920 1.8440 16.5033
# 4 10.5505 3.8366 10.3920 65.5515 7.7840 15.4760
# 5 -2.8778 -4.8895 1.8440 7.7840 32.4903 5.7340
# 6 7.6642 7.2134 16.5033 15.4760 5.7340 56.5616
#
#
#
# Elastic Compliance Matrix: (Units=1/GPa)
#
#
# Indices 1 2 3 4 5 6 
#
# 1 0.019724 -0.002330 -0.000707 -0.002824 0.002403 -0.001640
# 2 -0.002330 0.006208 -0.000033 0.000053 0.000816 -0.000564
# 3 -0.000707 -0.000033 0.014882 -0.001337 0.000094 -0.003886
# 4 -0.002824 0.000053 -0.001337 0.017195 -0.003656 -0.003568
# 5 0.002403 0.000816 0.000094 -0.003656 0.032470 -0.002748
# 6 -0.001640 -0.000564 -0.003886 -0.003568 -0.002748 0.020363
#
#
# Mechanical properties :
#
#
# Convention : Reuss Voigt Hill
#
# Bulk Modulus (GPa) = 28.84105 40.23905 34.54005
# Shear Modulus (GPa) = 38.89852 48.78462 43.84157
#
# Velocity S-wave (km/s) = 3.97821 4.45515 4.22342
# Velocity P-wave (km/s) = 5.73024 6.54492 6.15108
#
# Compressibility (1/GPa) = 0.03467281
#
# Stress axis : x y z
#
# Youngs Moduli (GPa) = 50.69920 161.08835 67.19668
#
# Poissons Ratio (x) = 0.37539 0.04753
# Poissons Ratio (y) = 0.11815 0.00220
# Poissons Ratio (z) = 0.03586 0.00527
#
# Static dielectric constant tensor:
#      x y z
#    x 1.988240 0.008760 -0.015920 
#    y 0.008760 1.846870 0.018780 
#    z -0.015920 0.018780 2.024930 
# 
# From -- ./inp_files/125213.got.cif
#   From: 2010.05.17/outbox.cif.g08.bks.cpg/sg2_63_cif.got.tgz:125213.got - 2010.06.03 11:33:40.
