data_PCOD9071318
_publ_section_title
;
Structure prediction by ZEFSAII (Michael W. Deem and Ramdas Pophale) SiO2 
 PCOD9071318
Probable space group: P -1
;
_chemical_formula_sum "Si O2"
_cell_formula_units_Z 14
_cell_length_a 8.668900
_cell_length_b 8.559253
_cell_length_c 12.382847
_cell_angle_alpha 100.609626
_cell_angle_beta 139.505954
_cell_angle_gamma 70.305063
_cell_volume 557.808484
_symmetry_space_group_name_H-M "P -1"
_symmetry_group_IT_number 2
_symmetry_cell_setting 'triclinic'
loop_
_space_group_symop_operation_xyz
x,y,z
-x,-y,-z
loop_
_atom_site_type_symbol
_atom_site_label
_atom_site_fract_x
_atom_site_fract_y
_atom_site_fract_z
Si Si1 0.070071 0.826573 0.085784
Si Si2 0.393528 0.628347 0.866505
Si Si3 0.231851 0.070746 0.630060
Si Si4 0.737047 0.836825 0.106956
Si Si5 0.159021 0.248904 0.386995
Si Si6 0.347178 0.243298 0.260940
Si Si7 0.431635 0.466864 0.641894
O O1 0.953101 0.857953 0.147852
O O2 0.352014 0.707766 0.237976
O O3 0.926187 0.715843 0.931061
O O4 0.000000 0.000000 0.000000
O O5 0.334181 0.550780 0.714824
O O6 0.126878 0.745107 0.781401
O O7 0.500000 0.500000 0.000000
O O8 0.621383 0.701198 0.979637
O O9 0.206549 0.182850 0.737800
O O10 0.228441 0.162073 0.527568
O O11 0.476192 0.909408 0.733875
O O12 0.000000 0.000000 0.500000
O O13 0.500000 0.000000 0.000000
O O14 0.322575 0.177663 0.360035
O O15 0.213265 0.426031 0.453919
O O16 0.452795 0.400307 0.336374
#
# Coordination Sequence:
#
# PCOD9071318 Si02
#       7
#     2   2   2   2   2   2   2
#     4  12  28  47  80 108 150 198 258 309 374 450
#     4  12  27  48  78 107 150 199 250 307 374 453
#     4  12  27  48  76 111 154 200 249 311 377 446
#     4  12  26  49  75 109 150 199 254 306 373 447
#     4  12  28  47  74 112 154 196 253 307 381 448
#     4  12  26  48  74 110 151 199 253 311 373 448
#     4  12  26  50  72 113 149 196 253 314 378 439
#
# _framework density 25.098220000000001
#
# number of rings (size 3 to 8) (size 9 to 14) (size 15 to 20)
#    0.000    0.000    2.857    6.000   10.000    1.143 
#    0.000    0.000    0.000    0.000    0.000    0.000 
#    0.000    0.000    0.000    0.000    0.000    0.000 
#
# Total GULP energy -78392.905236 kJ/mol
# GULP energy per Si atom -5599.493231 kJ/mol
# Density = 2.504110 g / cm^3
# Si number density = 25.098220 Si / 1000 Ang^3
#
#
#
# Elastic Constant Matrix: (Units=GPa)
#
#
# Indices 1 2 3 4 5 6 
#
# 1 164.3432 38.7970 28.6762 -2.5396 -20.6558 16.7705
# 2 38.7970 75.8252 3.5726 -9.6761 3.1375 14.2188
# 3 28.6762 3.5726 76.1212 10.2414 -5.1361 10.2794
# 4 -2.5396 -9.6761 10.2414 44.3744 4.4954 -7.8968
# 5 -20.6558 3.1375 -5.1361 4.4954 56.9260 0.2275
# 6 16.7705 14.2188 10.2794 -7.8968 0.2275 42.0590
#
#
#
# Elastic Compliance Matrix: (Units=1/GPa)
#
#
# Indices 1 2 3 4 5 6 
#
# 1 0.007903 -0.003845 -0.002367 -0.000376 0.002901 -0.001359
# 2 -0.003845 0.016254 0.000629 0.002789 -0.002440 -0.003579
# 3 -0.002367 0.000629 0.015135 -0.004245 0.000822 -0.003769
# 4 -0.000376 0.002789 -0.004245 0.025265 -0.002688 0.005002
# 5 0.002901 -0.002440 0.000822 -0.002688 0.019045 -0.001140
# 6 -0.001359 -0.003579 -0.003769 0.005002 -0.001140 0.027394
#
#
# Mechanical properties :
#
#
# Convention : Reuss Voigt Hill
#
# Bulk Modulus (GPa) = 35.55494 50.93124 43.24309
# Shear Modulus (GPa) = 38.01189 45.02147 41.51668
#
# Velocity S-wave (km/s) = 3.89591 4.23994 4.07156
# Velocity P-wave (km/s) = 5.86810 6.65629 6.27458
#
# Compressibility (1/GPa) = 0.02812549
#
# Stress axis : x y z
#
# Youngs Moduli (GPa) = 126.53191 61.52287 66.07289
#
# Poissons Ratio (x) = 0.23658 0.15639
# Poissons Ratio (y) = 0.48656 -0.04156
# Poissons Ratio (z) = 0.29950 -0.03870
#
# Static dielectric constant tensor:
#      x y z
#    x 2.127920 0.175690 0.122290 
#    y 0.175690 2.144140 0.118700 
#    z 0.122290 0.118700 2.130190 
# 
# From -- ./inp_files/382794.got.cif
#   From: 2010.05.17/outbox.cif.g08.bks.cpg/sg2_192_cif.got.tgz:382794.got - 2010.06.03 11:33:40.
