data_PCOD9071430
_publ_section_title
;
Structure prediction by ZEFSAII (Michael W. Deem and Ramdas Pophale) SiO2 
 PCOD9071430
Probable space group: P -1
;
_chemical_formula_sum "Si O2"
_cell_formula_units_Z 14
_cell_length_a 11.635762
_cell_length_b 7.627661
_cell_length_c 8.944736
_cell_angle_alpha 116.161790
_cell_angle_beta 127.562220
_cell_angle_gamma 67.965839
_cell_volume 558.481947
_symmetry_space_group_name_H-M "P -1"
_symmetry_group_IT_number 2
_symmetry_cell_setting 'triclinic'
loop_
_space_group_symop_operation_xyz
x,y,z
-x,-y,-z
loop_
_atom_site_type_symbol
_atom_site_label
_atom_site_fract_x
_atom_site_fract_y
_atom_site_fract_z
Si Si1 0.314210 0.834926 0.143292
Si Si2 0.875330 0.428686 0.565751
Si Si3 0.173750 0.318277 0.911815
Si Si4 0.745362 0.874264 0.560979
Si Si5 0.666689 0.440425 0.659188
Si Si6 0.560570 0.852217 0.126331
Si Si7 0.062968 0.913087 0.758077
O O1 0.338510 0.692222 0.248855
O O2 0.424030 0.777964 0.071560
O O3 0.325044 0.045872 0.308352
O O4 0.154136 0.847019 0.952818
O O5 0.796160 0.638665 0.520457
O O6 0.760714 0.353038 0.559523
O O7 0.917131 0.266449 0.410377
O O8 0.026797 0.446514 0.779699
O O9 0.309864 0.302274 0.899563
O O10 0.128455 0.101012 0.815740
O O11 0.238906 0.393429 0.143452
O O12 0.638447 0.936983 0.361810
O O13 0.893809 0.963919 0.684355
O O14 0.500000 0.500000 0.500000
O O15 0.500000 0.000000 0.000000
#
# Coordination Sequence:
#
# PCOD9071430 Si02
#       7
#     2   2   2   2   2   2   2
#     4  12  28  48  77 112 158 205 258 320 391 461
#     4  12  27  51  81 119 157 201 265 318 390 465
#     4  12  27  50  81 112 158 204 260 323 389 458
#     4  12  27  51  80 115 157 204 260 322 387 468
#     4  12  30  50  79 116 159 206 262 321 392 466
#     4  12  28  48  81 111 157 202 263 315 397 456
#     4  12  26  49  80 117 152 206 258 322 390 458
#
# _framework density 25.067955000000001
#
# number of rings (size 3 to 8) (size 9 to 14) (size 15 to 20)
#    0.000    0.000    2.857    5.571    8.000    0.571 
#    0.000    0.000    0.000    0.000    0.000    0.000 
#    0.000    0.000    0.000    0.000    0.000    0.000 
#
# Total GULP energy -78498.618237 kJ/mol
# GULP energy per Si atom -5607.044160 kJ/mol
# Density = 2.501090 g / cm^3
# Si number density = 25.067955 Si / 1000 Ang^3
#
#
#
# Elastic Constant Matrix: (Units=GPa)
#
#
# Indices 1 2 3 4 5 6 
#
# 1 118.3820 58.7184 16.6068 -23.4191 -12.4665 -12.5629
# 2 58.7184 105.0769 44.2701 -22.9010 2.3828 17.2253
# 3 16.6068 44.2701 145.5354 -47.4039 10.2028 1.0264
# 4 -23.4191 -22.9010 -47.4039 52.8679 -1.4359 2.1112
# 5 -12.4665 2.3828 10.2028 -1.4359 44.4774 -6.8901
# 6 -12.5629 17.2253 1.0264 2.1112 -6.8901 42.0653
#
#
#
# Elastic Compliance Matrix: (Units=1/GPa)
#
#
# Indices 1 2 3 4 5 6 
#
# 1 0.016023 -0.010774 0.002346 0.004306 0.006209 0.009941
# 2 -0.010774 0.019404 -0.004166 0.000238 -0.004937 -0.011883
# 3 0.002346 -0.004166 0.010816 0.008843 -0.001079 0.001522
# 4 0.004306 0.000238 0.008843 0.028874 0.000025 -0.000472
# 5 0.006209 -0.004937 -0.001079 0.000025 0.026001 0.008160
# 6 0.009941 -0.011883 0.001522 -0.000472 0.008160 0.032930
#
#
# Mechanical properties :
#
#
# Convention : Reuss Voigt Hill
#
# Bulk Modulus (GPa) = 47.49340 67.57613 57.53476
# Shear Modulus (GPa) = 30.07451 44.50872 37.29162
#
# Velocity S-wave (km/s) = 3.46745 4.21827 3.86115
# Velocity P-wave (km/s) = 5.91760 7.12325 6.54823
#
# Compressibility (1/GPa) = 0.02105556
#
# Stress axis : x y z
#
# Youngs Moduli (GPa) = 62.41103 51.53462 92.45762
#
# Poissons Ratio (x) = 0.55524 -0.21692
# Poissons Ratio (y) = 0.67243 0.38515
# Poissons Ratio (z) = -0.14643 0.21468
#
# Static dielectric constant tensor:
#      x y z
#    x 1.938550 0.037790 0.004950 
#    y 0.037790 2.031890 0.050510 
#    z 0.004950 0.050510 1.967830 
# 
# From -- ./inp_files/245694.got.cif
#   From: 2010.05.17/outbox.cif.g08.bks.cpg/sg2_123_cif.got.tgz:245694.got - 2010.06.03 11:33:40.
