data_PCOD9071024
_publ_section_title
;
Structure prediction by ZEFSAII (Michael W. Deem and Ramdas Pophale) SiO2 
 PCOD9071024
Probable space group: P -1
;
_chemical_formula_sum "Si O2"
_cell_formula_units_Z 14
_cell_length_a 9.461356
_cell_length_b 13.439479
_cell_length_c 5.104855
_cell_angle_alpha 101.043460
_cell_angle_beta 109.782171
_cell_angle_gamma 79.044974
_cell_volume 593.959287
_symmetry_space_group_name_H-M "P -1"
_symmetry_group_IT_number 2
_symmetry_cell_setting 'triclinic'
loop_
_space_group_symop_operation_xyz
x,y,z
-x,-y,-z
loop_
_atom_site_type_symbol
_atom_site_label
_atom_site_fract_x
_atom_site_fract_y
_atom_site_fract_z
Si Si1 0.414197 0.378231 0.837341
Si Si2 0.369685 0.618397 0.527583
Si Si3 0.823699 0.543726 0.885095
Si Si4 0.005633 0.114767 0.164582
Si Si5 0.537076 0.063857 0.303428
Si Si6 0.825917 0.166391 0.586961
Si Si7 0.716430 0.763176 0.661717
O O1 0.465677 0.620937 0.853614
O O2 0.509406 0.395799 0.644120
O O3 0.345380 0.274405 0.672169
O O4 0.266615 0.450088 0.892035
O O5 0.258973 0.533164 0.381134
O O6 0.263942 0.725456 0.492589
O O7 0.790257 0.658765 0.800585
O O8 0.000000 0.500000 0.000000
O O9 0.957419 0.131919 0.443373
O O10 0.162654 0.158492 0.246349
O O11 0.884748 0.176552 0.922839
O O12 0.000000 0.000000 0.000000
O O13 0.709185 0.084433 0.447708
O O14 0.431739 0.173117 0.273259
O O15 0.500000 0.000000 0.500000
O O16 0.500000 0.000000 0.000000
#
# Coordination Sequence:
#
# PCOD9071024 Si02
#       7
#     2   2   2   2   2   2   2
#     4  12  26  50  75 110 152 198 250 311 374 440
#     4  12  27  49  78 109 152 202 248 308 382 447
#     4  12  29  50  78 116 155 204 253 309 378 460
#     4  12  28  49  73 106 153 200 245 316 390 447
#     4  12  27  47  79 112 147 193 258 315 376 445
#     4  12  25  49  73 109 145 198 252 306 376 460
#     4  12  29  49  79 113 155 196 258 318 374 452
#
# _framework density 23.570639
#
# number of rings (size 3 to 8) (size 9 to 14) (size 15 to 20)
#    0.000    0.000    2.857    5.571   10.000    0.571 
#    0.000    0.000    0.000    0.000    0.000    0.000 
#    0.000    0.000    0.000    0.000    0.000    0.000 
#
# Total GULP energy -78419.268410 kJ/mol
# GULP energy per Si atom -5601.376315 kJ/mol
# Density = 2.351699 g / cm^3
# Si number density = 23.570639 Si / 1000 Ang^3
#
#
#
# Elastic Constant Matrix: (Units=GPa)
#
#
# Indices 1 2 3 4 5 6 
#
# 1 114.0058 35.1950 33.6172 0.3028 19.1619 7.3955
# 2 35.1950 114.9858 38.7956 12.9365 2.7143 -0.0594
# 3 33.6172 38.7956 159.8473 9.9054 6.5051 6.5763
# 4 0.3028 12.9365 9.9054 45.5894 11.4036 7.2801
# 5 19.1619 2.7143 6.5051 11.4036 41.6867 6.5829
# 6 7.3955 -0.0594 6.5763 7.2801 6.5829 52.8191
#
#
#
# Elastic Compliance Matrix: (Units=1/GPa)
#
#
# Indices 1 2 3 4 5 6 
#
# 1 0.011096 -0.003061 -0.001495 0.002595 -0.005207 -0.001080
# 2 -0.003061 0.010566 -0.001832 -0.003154 0.001728 0.000888
# 3 -0.001495 -0.001832 0.007094 -0.000934 0.000042 -0.000553
# 4 0.002595 -0.003154 -0.000934 0.025297 -0.007315 -0.002825
# 5 -0.005207 0.001728 0.000042 -0.007315 0.028552 -0.001824
# 6 -0.001080 0.000888 -0.000553 -0.002825 -0.001824 0.019770
#
#
# Mechanical properties :
#
#
# Convention : Reuss Voigt Hill
#
# Bulk Modulus (GPa) = 62.58142 67.11718 64.84930
# Shear Modulus (GPa) = 41.50127 46.76779 44.13453
#
# Velocity S-wave (km/s) = 4.20064 4.45922 4.33186
# Velocity P-wave (km/s) = 7.08064 7.41954 7.25207
#
# Compressibility (1/GPa) = 0.01597918
#
# Stress axis : x y z
#
# Youngs Moduli (GPa) = 90.12494 94.63977 140.96594
#
# Poissons Ratio (x) = 0.28972 0.21074
# Poissons Ratio (y) = 0.27590 0.25826
# Poissons Ratio (z) = 0.13474 0.17339
#
# Static dielectric constant tensor:
#      x y z
#    x 1.853640 0.014090 0.006430 
#    y 0.014090 1.978260 -0.048840 
#    z 0.006430 -0.048840 1.890480 
# 
# From -- ./inp_files/27256.got.cif
#   From: 2010.05.17/outbox.cif.g08.bks.cpg/sg2_14_cif.got.tgz:27256.got - 2010.06.03 11:33:40.
