data_PCOD9071281
_publ_section_title
;
Structure prediction by ZEFSAII (Michael W. Deem and Ramdas Pophale) SiO2 
 PCOD9071281
Probable space group: P -1
;
_chemical_formula_sum "Si O2"
_cell_formula_units_Z 14
_cell_length_a 4.814511
_cell_length_b 10.186385
_cell_length_c 11.019391
_cell_angle_alpha 75.310858
_cell_angle_beta 88.549722
_cell_angle_gamma 81.789633
_cell_volume 517.363375
_symmetry_space_group_name_H-M "P -1"
_symmetry_group_IT_number 2
_symmetry_cell_setting 'triclinic'
loop_
_space_group_symop_operation_xyz
x,y,z
-x,-y,-z
loop_
_atom_site_type_symbol
_atom_site_label
_atom_site_fract_x
_atom_site_fract_y
_atom_site_fract_z
Si Si1 0.315329 0.118894 0.401384
Si Si2 0.959016 0.689097 0.930801
Si Si3 0.816767 0.821056 0.213077
Si Si4 0.362752 0.651326 0.711705
Si Si5 0.500499 0.620794 0.100300
Si Si6 0.952613 0.343297 0.520782
Si Si7 0.235967 0.009639 0.195484
O O1 0.502436 0.211795 0.300267
O O2 0.152123 0.231315 0.464893
O O3 0.130420 0.044064 0.327029
O O4 0.500000 0.000000 0.500000
O O5 0.091585 0.660885 0.801592
O O6 0.791847 0.842906 0.900641
O O7 0.214839 0.682887 0.024374
O O8 0.734087 0.591455 0.997283
O O9 0.661518 0.719384 0.158061
O O10 0.003156 0.726540 0.332433
O O11 0.547192 0.929887 0.229165
O O12 0.041936 0.917842 0.148439
O O13 0.536680 0.509032 0.785907
O O14 0.314458 0.645025 0.568982
O O15 0.000000 0.500000 0.500000
#
# Coordination Sequence:
#
# PCOD9071281 Si02
#       7
#     2   2   2   2   2   2   2
#     4  12  26  47  81 115 159 208 259 327 400 480
#     4  12  27  48  79 111 154 210 270 321 384 468
#     4  12  27  48  77 115 160 202 260 323 401 474
#     4  12  27  48  79 113 155 202 267 324 393 471
#     4  12  28  49  76 112 158 210 258 329 387 464
#     4  12  27  47  78 117 156 201 255 328 406 470
#     4  12  26  47  76 114 153 205 264 320 388 469
#
# _framework density 27.060282999999998
#
# number of rings (size 3 to 8) (size 9 to 14) (size 15 to 20)
#    0.000    0.000    4.286    5.143    2.000    6.286 
#    0.000    0.000    0.000    0.000    0.000    0.000 
#    0.000    0.000    0.000    0.000    0.000    0.000 
#
# Total GULP energy -78406.871673 kJ/mol
# GULP energy per Si atom -5600.490834 kJ/mol
# Density = 2.699869 g / cm^3
# Si number density = 27.060283 Si / 1000 Ang^3
#
#
#
# Elastic Constant Matrix: (Units=GPa)
#
#
# Indices 1 2 3 4 5 6 
#
# 1 100.2840 19.6742 34.4118 -8.9697 25.4861 13.9243
# 2 19.6742 148.8934 62.3844 -8.0241 17.4278 14.9044
# 3 34.4118 62.3844 148.9738 -24.0434 50.2843 15.6778
# 4 -8.9697 -8.0241 -24.0434 55.3521 5.4127 4.2318
# 5 25.4861 17.4278 50.2843 5.4127 51.5554 6.3126
# 6 13.9243 14.9044 15.6778 4.2318 6.3126 45.8224
#
#
#
# Elastic Compliance Matrix: (Units=1/GPa)
#
#
# Indices 1 2 3 4 5 6 
#
# 1 0.012197 -0.000539 0.000188 0.002794 -0.005952 -0.003033
# 2 -0.000539 0.008312 -0.003748 -0.000535 0.001339 -0.001392
# 3 0.000188 -0.003748 0.013987 0.007015 -0.012899 -0.002494
# 4 0.002794 -0.000535 0.007015 0.022754 -0.009965 -0.003804
# 5 -0.005952 0.001339 -0.012899 -0.009965 0.035288 0.001846
# 6 -0.003033 -0.001392 -0.002494 -0.003804 0.001846 0.024148
#
#
# Mechanical properties :
#
#
# Convention : Reuss Voigt Hill
#
# Bulk Modulus (GPa) = 38.02762 70.12134 54.07448
# Shear Modulus (GPa) = 37.41106 49.32471 43.36789
#
# Velocity S-wave (km/s) = 3.72224 4.27402 4.00764
# Velocity P-wave (km/s) = 5.70586 7.09406 6.43749
#
# Compressibility (1/GPa) = 0.02629668
#
# Stress axis : x y z
#
# Youngs Moduli (GPa) = 81.98898 120.31441 71.49299
#
# Poissons Ratio (x) = 0.06490 -0.01341
# Poissons Ratio (y) = 0.04422 0.26794
# Poissons Ratio (z) = -0.01538 0.45090
#
# Static dielectric constant tensor:
#      x y z
#    x 2.134840 -0.096200 -0.016870 
#    y -0.096200 2.140400 0.081270 
#    z -0.016870 0.081270 2.211990 
# 
# From -- ./inp_files/360684.got.cif
#   From: 2010.05.17/outbox.cif.g08.bks.cpg/sg2_181_cif.got.tgz:360684.got - 2010.06.03 11:33:40.
