data_PCOD9071453
_publ_section_title
;
Structure prediction by ZEFSAII (Michael W. Deem and Ramdas Pophale) SiO2 
 PCOD9071453
Probable space group: P -1
;
_chemical_formula_sum "Si O2"
_cell_formula_units_Z 13
_cell_length_a 8.488316
_cell_length_b 7.041551
_cell_length_c 17.516210
_cell_angle_alpha 90.169782
_cell_angle_beta 131.870451
_cell_angle_gamma 58.304091
_cell_volume 554.518485
_symmetry_space_group_name_H-M "P -1"
_symmetry_group_IT_number 2
_symmetry_cell_setting 'triclinic'
loop_
_space_group_symop_operation_xyz
x,y,z
-x,-y,-z
loop_
_atom_site_type_symbol
_atom_site_label
_atom_site_fract_x
_atom_site_fract_y
_atom_site_fract_z
Si Si1 0.366517 0.128487 0.114657
Si Si2 0.887781 0.503174 0.259952
Si Si3 0.000000 0.000000 0.000000
Si Si4 0.256109 0.250350 0.529708
Si Si5 0.229667 0.811842 0.242121
Si Si6 0.653645 0.699039 0.721773
Si Si7 0.614352 0.315101 0.110280
O O1 0.332444 0.229532 0.188566
O O2 0.392053 0.297539 0.069339
O O3 0.673473 0.815949 0.205818
O O4 0.117391 0.135930 0.009132
O O5 0.682921 0.442643 0.191603
O O6 0.132441 0.332090 0.404558
O O7 0.060866 0.416724 0.236119
O O8 0.830150 0.074467 0.862433
O O9 0.542895 0.198517 0.638758
O O10 0.000000 0.500000 0.500000
O O11 0.362431 0.975071 0.588955
O O12 0.354842 0.521515 0.281163
O O13 0.917238 0.021065 0.185113
O O14 0.500000 0.500000 0.000000
#
# Coordination Sequence:
#
# PCOD9071453 Si02
#       7
#     2   2   1   2   2   2   2
#     4  12  28  50  80 119 154 207 265 325 400 468
#     4  12  26  52  78 112 160 206 262 332 387 468
#     4  12  26  50  78 112 162 200 258 328 386 474
#     4  12  26  50  77 115 161 206 267 324 394 471
#     4  12  28  48  76 118 154 206 268 320 397 467
#     4  12  27  48  78 114 154 204 261 323 392 465
#     4  12  29  50  81 117 158 210 264 325 398 470
#
# _framework density 23.443760000000001
#
# number of rings (size 3 to 8) (size 9 to 14) (size 15 to 20)
#    0.000    0.000    6.154    1.385    8.615    4.308 
#    0.000    0.000    0.000    0.000    0.000    0.000 
#    0.000    0.000    0.000    0.000    0.000    0.000 
#
# Total GULP energy -72690.701381 kJ/mol
# GULP energy per Si atom -5591.592414 kJ/mol
# Density = 2.339040 g / cm^3
# Si number density = 23.443760 Si / 1000 Ang^3
#
#
#
# Elastic Constant Matrix: (Units=GPa)
#
#
# Indices 1 2 3 4 5 6 
#
# 1 135.7841 54.1717 48.3527 11.0216 -10.2279 14.1788
# 2 54.1717 167.9724 51.7785 -7.9170 -12.4650 10.2002
# 3 48.3527 51.7785 148.2745 18.0143 -15.2418 22.8814
# 4 11.0216 -7.9170 18.0143 42.5987 0.6616 7.6484
# 5 -10.2279 -12.4650 -15.2418 0.6616 24.8046 -0.4243
# 6 14.1788 10.2002 22.8814 7.6484 -0.4243 59.5392
#
#
#
# Elastic Compliance Matrix: (Units=1/GPa)
#
#
# Indices 1 2 3 4 5 6 
#
# 1 0.009291 -0.002411 -0.001633 -0.002026 0.001655 -0.000900
# 2 -0.002411 0.007626 -0.002029 0.002933 0.001508 -0.000319
# 3 -0.001633 -0.002029 0.009176 -0.003482 0.003999 -0.002314
# 4 -0.002026 0.002933 -0.003482 0.026427 -0.002241 -0.002093
# 5 0.001655 0.001508 0.003999 -0.002241 0.044245 -0.001586
# 6 -0.000900 -0.000319 -0.002314 -0.002093 -0.001586 0.018212
#
#
# Mechanical properties :
#
#
# Convention : Reuss Voigt Hill
#
# Bulk Modulus (GPa) = 71.69614 84.51521 78.10568
# Shear Modulus (GPa) = 37.94438 45.23704 41.59071
#
# Velocity S-wave (km/s) = 4.02746 4.39748 4.21653
# Velocity P-wave (km/s) = 7.23020 7.86844 7.55606
#
# Compressibility (1/GPa) = 0.01394775
#
# Stress axis : x y z
#
# Youngs Moduli (GPa) = 107.63077 131.13329 108.97437
#
# Poissons Ratio (x) = 0.31618 0.17793
# Poissons Ratio (y) = 0.25951 0.22110
# Poissons Ratio (z) = 0.17574 0.26606
#
# Static dielectric constant tensor:
#      x y z
#    x 1.940650 -0.053660 0.034050 
#    y -0.053660 1.895520 -0.040890 
#    z 0.034050 -0.040890 1.869210 
# 
# From -- ./inp_files/553678.got.cif
#   From: 2010.05.17/outbox.cif.g08.bks.cpg/sg2_277_cif.got.tgz:553678.got - 2010.06.03 11:33:40.
