data_PCOD9071291
_publ_section_title
;
Structure prediction by ZEFSAII (Michael W. Deem and Ramdas Pophale) SiO2 
 PCOD9071291
Probable space group: P -1
;
_chemical_formula_sum "Si O2"
_cell_formula_units_Z 14
_cell_length_a 6.556139
_cell_length_b 11.631753
_cell_length_c 14.701583
_cell_angle_alpha 131.053010
_cell_angle_beta 118.493101
_cell_angle_gamma 48.578232
_cell_volume 632.171676
_symmetry_space_group_name_H-M "P -1"
_symmetry_group_IT_number 2
_symmetry_cell_setting 'triclinic'
loop_
_space_group_symop_operation_xyz
x,y,z
-x,-y,-z
loop_
_atom_site_type_symbol
_atom_site_label
_atom_site_fract_x
_atom_site_fract_y
_atom_site_fract_z
Si Si1 0.746658 0.071808 0.416932
Si Si2 0.781952 0.175896 0.099835
Si Si3 0.449881 0.137795 0.643334
Si Si4 0.152396 0.335609 0.017371
Si Si5 0.968817 0.971255 0.218185
Si Si6 0.295517 0.431011 0.466271
Si Si7 0.962982 0.449008 0.241409
O O1 0.508096 0.270803 0.492660
O O2 0.656685 0.929672 0.332785
O O3 0.818423 0.075566 0.330936
O O4 0.000000 0.000000 0.500000
O O5 0.479317 0.234484 0.036209
O O6 0.812024 0.343423 0.173700
O O7 0.860496 0.114239 0.188531
O O8 0.000000 0.000000 0.000000
O O9 0.228613 0.338858 0.674501
O O10 0.719362 0.120097 0.731515
O O11 0.500000 0.000000 0.500000
O O12 0.058024 0.411579 0.138207
O O13 0.080773 0.185633 0.902039
O O14 0.000000 0.500000 0.000000
O O15 0.500000 0.500000 0.500000
O O16 0.000000 0.500000 0.500000
O O17 0.208755 0.377284 0.327373
#
# Coordination Sequence:
#
# PCOD9071291 Si02
#       7
#     2   2   2   2   2   2   2
#     4  12  26  47  78 109 156 208 265 331 401 489
#     4  12  28  49  76 113 156 206 265 324 405 487
#     4  12  26  49  78 115 154 204 266 328 406 490
#     4  12  28  49  78 115 154 204 269 332 407 486
#     4  12  27  46  79 111 157 204 262 327 407 481
#     4  12  30  50  80 120 164 217 274 338 415 491
#     4  12  28  49  81 112 162 207 267 337 407 489
#
# _framework density 22.145883000000001
#
# number of rings (size 3 to 8) (size 9 to 14) (size 15 to 20)
#    0.000    0.000    2.857    5.571   12.000    1.143 
#    0.000    0.000    0.000    0.000    0.000    0.000 
#    0.000    0.000    0.000    0.000    0.000    0.000 
#
# Total GULP energy -78140.919981 kJ/mol
# GULP energy per Si atom -5581.494284 kJ/mol
# Density = 2.209548 g / cm^3
# Si number density = 22.145883 Si / 1000 Ang^3
#
#
#
# Elastic Constant Matrix: (Units=GPa)
#
#
# Indices 1 2 3 4 5 6 
#
# 1 119.4339 49.3857 51.5633 -5.3689 1.5487 -6.7743
# 2 49.3857 153.2453 30.5462 -2.2634 -6.8583 -13.6981
# 3 51.5633 30.5462 113.7521 -15.4821 -0.6421 -15.1437
# 4 -5.3689 -2.2634 -15.4821 48.8758 7.6674 3.9502
# 5 1.5487 -6.8583 -0.6421 7.6674 55.7763 -11.2560
# 6 -6.7743 -13.6981 -15.1437 3.9502 -11.2560 45.7857
#
#
#
# Elastic Compliance Matrix: (Units=1/GPa)
#
#
# Indices 1 2 3 4 5 6 
#
# 1 0.011510 -0.002920 -0.004572 -0.000106 -0.000897 -0.000894
# 2 -0.002920 0.007832 -0.000559 -0.000552 0.001548 0.002154
# 3 -0.004572 -0.000559 0.011799 0.002915 0.000379 0.002900
# 4 -0.000106 -0.000552 0.002915 0.022048 -0.003460 -0.001969
# 5 -0.000897 0.001548 0.000379 -0.003460 0.019756 0.005611
# 6 -0.000894 0.002154 0.002900 -0.001969 0.005611 0.024862
#
#
# Mechanical properties :
#
#
# Convention : Reuss Voigt Hill
#
# Bulk Modulus (GPa) = 66.49473 72.15795 69.32634
# Shear Modulus (GPa) = 42.04466 47.08331 44.56399
#
# Velocity S-wave (km/s) = 4.36194 4.61592 4.49072
# Velocity P-wave (km/s) = 7.44712 7.81426 7.63290
#
# Compressibility (1/GPa) = 0.01503879
#
# Stress axis : x y z
#
# Youngs Moduli (GPa) = 86.88014 127.68869 84.75494
#
# Poissons Ratio (x) = 0.37280 0.38750
# Poissons Ratio (y) = 0.25366 0.04739
# Poissons Ratio (z) = 0.39722 0.07140
#
# Static dielectric constant tensor:
#      x y z
#    x 1.895280 0.034060 -0.011720 
#    y 0.034060 1.756080 0.021650 
#    z -0.011720 0.021650 1.776410 
# 
# From -- ./inp_files/483069.got.cif
#   From: 2010.05.17/outbox.cif.g08.bks.cpg/sg2_242_cif.got.tgz:483069.got - 2010.06.03 11:33:40.
