data_PCOD9071514
_publ_section_title
;
Structure prediction by ZEFSAII (Michael W. Deem and Ramdas Pophale) SiO2 
 PCOD9071514
Probable space group: P -1
;
_chemical_formula_sum "Si O2"
_cell_formula_units_Z 12
_cell_length_a 7.737493
_cell_length_b 4.781143
_cell_length_c 13.692715
_cell_angle_alpha 73.867989
_cell_angle_beta 112.684463
_cell_angle_gamma 119.590237
_cell_volume 403.990280
_symmetry_space_group_name_H-M "P -1"
_symmetry_group_IT_number 2
_symmetry_cell_setting 'triclinic'
loop_
_space_group_symop_operation_xyz
x,y,z
-x,-y,-z
loop_
_atom_site_type_symbol
_atom_site_label
_atom_site_fract_x
_atom_site_fract_y
_atom_site_fract_z
Si Si1 0.271218 0.723223 0.203079
Si Si2 0.359681 0.258060 0.409370
Si Si3 0.872835 0.816161 0.157276
Si Si4 0.275632 0.701031 0.979856
Si Si5 0.664086 0.259359 0.314652
Si Si6 0.000000 0.500000 0.500000
Si Si7 0.000000 0.000000 0.500000
O O1 0.271489 0.449980 0.301791
O O2 0.104508 0.843712 0.195491
O O3 0.511392 0.995023 0.231737
O O4 0.222879 0.632942 0.088245
O O5 0.500000 0.500000 0.500000
O O6 0.499523 0.154534 0.378983
O O7 0.156491 0.954051 0.440207
O O8 0.756595 0.620658 0.053022
O O9 0.746342 0.593394 0.241257
O O10 0.860412 0.152280 0.122060
O O11 0.500000 0.000000 0.000000
O O12 0.885975 0.254212 0.395635
O O13 0.165880 0.354583 0.541697
#
# Coordination Sequence:
#
# PCOD9071514 Si02
#       7
#     2   2   2   2   2   1   1
#     4  12  29  49  82 120 158 217 270 335 406 481
#     4  12  28  50  79 113 163 211 268 336 399 478
#     4  12  29  50  84 119 165 213 268 335 403 482
#     4  12  26  54  83 119 166 209 268 335 406 480
#     4  12  29  48  81 117 164 211 273 326 409 472
#     4  12  28  52  76 114 160 210 264 334 388 484
#     4  12  28  50  76 106 156 202 266 320 402 458
#
# _framework density 29.703688
#
# number of rings (size 3 to 8) (size 9 to 14) (size 15 to 20)
#    0.000    0.000    3.333    4.500    9.333    1.333 
#    0.000    0.000    0.000    0.000    0.000    0.000 
#    0.000    0.000    0.000    0.000    0.000    0.000 
#
# Total GULP energy -67107.803774 kJ/mol
# GULP energy per Si atom -5592.316981 kJ/mol
# Density = 2.963608 g / cm^3
# Si number density = 29.703688 Si / 1000 Ang^3
#
#
#
# Elastic Constant Matrix: (Units=GPa)
#
#
# Indices 1 2 3 4 5 6 
#
# 1 174.8595 55.0793 47.4749 -2.5808 -15.0419 9.1066
# 2 55.0793 127.8318 28.8000 2.0709 -5.3801 3.2629
# 3 47.4749 28.8000 183.9278 -11.8042 -7.8547 21.8126
# 4 -2.5808 2.0709 -11.8042 63.3132 5.3986 -6.1690
# 5 -15.0419 -5.3801 -7.8547 5.3986 60.9781 -2.9913
# 6 9.1066 3.2629 21.8126 -6.1690 -2.9913 93.2103
#
#
#
# Elastic Compliance Matrix: (Units=1/GPa)
#
#
# Indices 1 2 3 4 5 6 
#
# 1 0.007045 -0.002678 -0.001314 -0.000007 0.001321 -0.000245
# 2 -0.002678 0.009164 -0.000786 -0.000555 0.000100 0.000091
# 3 -0.001314 -0.000786 0.006115 0.000974 0.000249 -0.001203
# 4 -0.000007 -0.000555 0.000974 0.016186 -0.001318 0.000821
# 5 0.001321 0.000100 0.000249 -0.001318 0.016896 0.000264
# 6 -0.000245 0.000091 -0.001203 0.000821 0.000264 0.011093
#
#
# Mechanical properties :
#
#
# Convention : Reuss Voigt Hill
#
# Bulk Modulus (GPa) = 78.31388 83.25860 80.78624
# Shear Modulus (GPa) = 62.25678 67.18463 64.72071
#
# Velocity S-wave (km/s) = 4.58310 4.76103 4.67291
# Velocity P-wave (km/s) = 7.37758 7.63634 7.50808
#
# Compressibility (1/GPa) = 0.01276913
#
# Stress axis : x y z
#
# Youngs Moduli (GPa) = 141.93613 109.11696 163.53304
#
# Poissons Ratio (x) = 0.29217 0.21492
# Poissons Ratio (y) = 0.38005 0.12854
# Poissons Ratio (z) = 0.18654 0.08577
#
# Static dielectric constant tensor:
#      x y z
#    x 2.574790 -0.241310 -0.219890 
#    y -0.241310 2.344790 0.311940 
#    z -0.219890 0.311940 2.490720 
# 
# From -- ./inp_files/58810.got.cif
#   From: 2010.05.17/outbox.cif.g08.bks.cpg/sg2_30_cif.got.tgz:58810.got - 2010.06.03 11:33:40.
