data_PCOD9071096
_publ_section_title
;
Structure prediction by ZEFSAII (Michael W. Deem and Ramdas Pophale) SiO2 
 PCOD9071096
Probable space group: P -1
;
_chemical_formula_sum "Si O2"
_cell_formula_units_Z 14
_cell_length_a 19.310554
_cell_length_b 5.883759
_cell_length_c 8.014279
_cell_angle_alpha 87.867687
_cell_angle_beta 42.730932
_cell_angle_gamma 105.951378
_cell_volume 552.759211
_symmetry_space_group_name_H-M "P -1"
_symmetry_group_IT_number 2
_symmetry_cell_setting 'triclinic'
loop_
_space_group_symop_operation_xyz
x,y,z
-x,-y,-z
loop_
_atom_site_type_symbol
_atom_site_label
_atom_site_fract_x
_atom_site_fract_y
_atom_site_fract_z
Si Si1 0.117336 0.202238 0.373636
Si Si2 0.718826 0.720891 0.426501
Si Si3 0.794444 0.418759 0.089190
Si Si4 0.787591 0.078287 0.607620
Si Si5 0.429579 0.084295 0.490897
Si Si6 0.404620 0.742896 0.094779
Si Si7 0.989589 0.577728 0.203422
O O1 0.074980 0.262691 0.625154
O O2 0.217573 0.124367 0.242270
O O3 0.177014 0.445963 0.143065
O O4 0.000000 0.000000 0.500000
O O5 0.810019 0.637038 0.190171
O O6 0.650815 0.768623 0.390395
O O7 0.635654 0.493656 0.702949
O O8 0.771406 0.957290 0.454755
O O9 0.670533 0.199962 0.358192
O O10 0.884771 0.306589 0.949507
O O11 0.699542 0.196104 0.768662
O O12 0.911913 0.299455 0.421104
O O13 0.500000 0.000000 0.500000
O O14 0.529688 0.266798 0.185434
O O15 0.500000 0.000000 0.000000
O O16 0.000000 0.500000 0.000000
#
# Coordination Sequence:
#
# PCOD9071096 Si02
#       7
#     2   2   2   2   2   2   2
#     4  12  29  48  77 117 159 209 256 329 404 463
#     4  12  26  50  79 114 153 208 264 321 393 478
#     4  12  28  48  75 114 158 197 264 327 396 463
#     4  12  27  46  81 111 154 208 262 323 393 473
#     4  12  30  46  78 111 158 204 262 333 389 462
#     4  12  25  50  74 112 153 207 262 321 383 467
#     4  12  27  49  78 110 156 205 267 322 389 478
#
# _framework density 25.327484999999999
#
# number of rings (size 3 to 8) (size 9 to 14) (size 15 to 20)
#    0.000    0.000    4.286    4.286   10.000    1.714 
#    0.000    0.000    0.000    0.000    0.000    0.000 
#    0.000    0.000    0.000    0.000    0.000    0.000 
#
# Total GULP energy -78150.551104 kJ/mol
# GULP energy per Si atom -5582.182222 kJ/mol
# Density = 2.526984 g / cm^3
# Si number density = 25.327485 Si / 1000 Ang^3
#
#
#
# Elastic Constant Matrix: (Units=GPa)
#
#
# Indices 1 2 3 4 5 6 
#
# 1 126.5675 25.0806 29.5727 -9.3666 -6.9419 -30.9354
# 2 25.0806 66.2850 29.4694 -0.4264 -5.8995 -6.8435
# 3 29.5727 29.4694 104.5403 -0.7183 6.1324 -3.3563
# 4 -9.3666 -0.4264 -0.7183 38.7990 -4.1350 2.1772
# 5 -6.9419 -5.8995 6.1324 -4.1350 40.9566 -5.9917
# 6 -30.9354 -6.8435 -3.3563 2.1772 -5.9917 47.8552
#
#
#
# Elastic Compliance Matrix: (Units=1/GPa)
#
#
# Indices 1 2 3 4 5 6 
#
# 1 0.010923 -0.002025 -0.002468 0.002523 0.003191 0.006883
# 2 -0.002025 0.018397 -0.004758 -0.000111 0.003212 0.001395
# 3 -0.002468 -0.004758 0.011729 -0.000669 -0.003194 -0.001823
# 4 0.002523 -0.000111 -0.000669 0.026680 0.003318 0.000770
# 5 0.003191 0.003212 -0.003194 0.003318 0.027042 0.005533
# 6 0.006883 0.001395 -0.001823 0.000770 0.005533 0.026075
#
#
# Mechanical properties :
#
#
# Convention : Reuss Voigt Hill
#
# Bulk Modulus (GPa) = 44.34946 51.73757 48.04352
# Shear Modulus (GPa) = 34.04530 39.74017 36.89273
#
# Velocity S-wave (km/s) = 3.67032 3.96542 3.82072
# Velocity P-wave (km/s) = 5.95903 6.43723 6.20274
#
# Compressibility (1/GPa) = 0.02254819
#
# Stress axis : x y z
#
# Youngs Moduli (GPa) = 91.55114 54.35687 85.25714
#
# Poissons Ratio (x) = 0.11007 0.21041
# Poissons Ratio (y) = 0.18538 0.40562
# Poissons Ratio (z) = 0.22594 0.25861
#
# Static dielectric constant tensor:
#      x y z
#    x 2.003370 0.013650 -0.023060 
#    y 0.013650 2.025900 -0.036810 
#    z -0.023060 -0.036810 1.874680 
# 
# From -- ./inp_files/48924.got.cif
#   From: 2010.05.17/outbox.cif.g08.bks.cpg/sg2_25_cif.got.tgz:48924.got - 2010.06.03 11:33:40.
