data_PCOD9071073
_publ_section_title
;
Structure prediction by ZEFSAII (Michael W. Deem and Ramdas Pophale) SiO2 
 PCOD9071073
Probable space group: P -1
;
_chemical_formula_sum "Si O2"
_cell_formula_units_Z 16
_cell_length_a 10.922581
_cell_length_b 13.362941
_cell_length_c 8.475155
_cell_angle_alpha 143.894286
_cell_angle_beta 104.477743
_cell_angle_gamma 58.171927
_cell_volume 579.772828
_symmetry_space_group_name_H-M "P -1"
_symmetry_group_IT_number 2
_symmetry_cell_setting 'triclinic'
loop_
_space_group_symop_operation_xyz
x,y,z
-x,-y,-z
loop_
_atom_site_type_symbol
_atom_site_label
_atom_site_fract_x
_atom_site_fract_y
_atom_site_fract_z
Si Si1 0.256908 0.787064 0.240452
Si Si2 0.551241 0.513716 0.793714
Si Si3 0.354346 0.140978 0.513746
Si Si4 0.217774 0.980532 0.006642
Si Si5 0.165589 0.233724 0.851448
Si Si6 0.439266 0.921701 0.750336
Si Si7 0.707686 0.454719 0.459739
Si Si8 0.941432 0.340336 0.170827
O O1 0.328919 0.646957 0.242274
O O2 0.148189 0.740689 0.054123
O O3 0.163582 0.032279 0.551707
O O4 0.413399 0.710134 0.096214
O O5 0.645263 0.541258 0.724132
O O6 0.438552 0.476875 0.608107
O O7 0.212571 0.290688 0.776985
O O8 0.424860 0.221546 0.513248
O O9 0.500000 0.000000 0.500000
O O10 0.289472 0.041059 0.247805
O O11 0.332252 0.883251 0.770960
O O12 0.202990 0.795412 0.816203
O O13 0.070697 0.175843 0.125042
O O14 0.023403 0.381879 0.109757
O O15 0.316402 0.120301 0.862804
O O16 0.500000 0.000000 0.000000
O O17 0.812161 0.506346 0.462588
#
# Coordination Sequence:
#
# PCOD9071073 Si02
#       8
#     2   2   2   2   2   2   2   2
#     4  10  19  32  46  68 101 132 161 192 229 274
#     4   9  19  32  46  62  96 135 171 201 210 253
#     4   9  17  29  45  67  98 124 153 195 237 290
#     4  10  18  30  48  71 100 127 154 188 243 297
#     4  10  18  29  47  71 100 127 152 188 243 294
#     4   8  16  29  44  65  97 124 152 194 235 289
#     4  10  19  32  47  69 100 133 164 189 224 276
#     4  10  20  29  44  71 102 133 154 182 233 296
#
# _framework density 27.597014000000001
#
# number of rings (size 3 to 8) (size 9 to 14) (size 15 to 20)
#    0.000    2.500    0.000    3.750    0.000    1.000 
#    0.000    0.000    0.000    0.000    0.000    0.000 
#    0.000 1716.000    0.000    0.000    0.000    0.000 
#
# Total GULP energy -89351.615988 kJ/mol
# GULP energy per Si atom -5584.475999 kJ/mol
# Density = 2.753420 g / cm^3
# Si number density = 27.597014 Si / 1000 Ang^3
#
#
#
# Elastic Constant Matrix: (Units=GPa)
#
#
# Indices 1 2 3 4 5 6 
#
# 1 132.0190 41.0662 80.9433 -34.2217 -56.5860 14.8337
# 2 41.0662 179.7042 35.0879 -29.2020 -3.1017 -4.0886
# 3 80.9433 35.0879 112.9236 -44.8920 -27.0648 6.7562
# 4 -34.2217 -29.2020 -44.8920 51.9211 4.8102 -4.0752
# 5 -56.5860 -3.1017 -27.0648 4.8102 80.2292 -38.6606
# 6 14.8337 -4.0886 6.7562 -4.0752 -38.6606 44.6967
#
#
#
# Elastic Compliance Matrix: (Units=1/GPa)
#
#
# Indices 1 2 3 4 5 6 
#
# 1 0.020107 -0.001794 -0.009651 0.003151 0.014085 0.007092
# 2 -0.001794 0.006383 0.000120 0.002641 -0.000790 0.000718
# 3 -0.009651 0.000120 0.020054 0.011145 -0.000219 0.001009
# 4 0.003151 0.002641 0.011145 0.032309 0.007488 0.006934
# 5 0.014085 -0.000790 -0.000219 0.007488 0.034127 0.025487
# 6 0.007092 0.000718 0.001009 0.006934 0.025487 0.042610
#
#
# Mechanical properties :
#
#
# Convention : Reuss Voigt Hill
#
# Bulk Modulus (GPa) = 41.85167 82.09350 61.97259
# Shear Modulus (GPa) = 26.85232 53.20602 40.02917
#
# Velocity S-wave (km/s) = 3.12270 4.39562 3.81266
# Velocity P-wave (km/s) = 5.31036 7.45478 6.47201
#
# Compressibility (1/GPa) = 0.02389391
#
# Stress axis : x y z
#
# Youngs Moduli (GPa) = 49.73393 156.66391 49.86614
#
# Poissons Ratio (x) = 0.28105 0.48126
# Poissons Ratio (y) = 0.08922 -0.00599
# Poissons Ratio (z) = 0.47999 -0.01882
#
# Static dielectric constant tensor:
#      x y z
#    x 2.200490 0.069420 0.047600 
#    y 0.069420 2.056800 -0.053250 
#    z 0.047600 -0.053250 2.050320 
# 
# From -- ./inp_files/274387.got.cif
#   From: 2010.05.17/outbox.cif.g08.bks.cpg/sg2_138_cif.got.tgz:274387.got - 2010.06.03 11:33:40.
