data_PCOD9071661
_publ_section_title
;
Structure prediction by ZEFSAII (Michael W. Deem and Ramdas Pophale) SiO2 
 PCOD9071661
Probable space group: P -1
;
_chemical_formula_sum "Si O2"
_cell_formula_units_Z 14
_cell_length_a 20.153604
_cell_length_b 5.414108
_cell_length_c 5.159943
_cell_angle_alpha 98.549451
_cell_angle_beta 106.150117
_cell_angle_gamma 63.352242
_cell_volume 483.170902
_symmetry_space_group_name_H-M "P -1"
_symmetry_group_IT_number 2
_symmetry_cell_setting 'triclinic'
loop_
_space_group_symop_operation_xyz
x,y,z
-x,-y,-z
loop_
_atom_site_type_symbol
_atom_site_label
_atom_site_fract_x
_atom_site_fract_y
_atom_site_fract_z
Si Si1 0.522290 0.744556 0.787508
Si Si2 0.334149 0.268436 0.212091
Si Si3 0.194222 0.257200 0.196555
Si Si4 0.618537 0.249254 0.202912
Si Si5 0.047799 0.594919 0.866803
Si Si6 0.761048 0.244970 0.205284
Si Si7 0.901989 0.925227 0.543378
O O1 0.582572 0.742868 0.635443
O O2 0.440687 0.742574 0.636489
O O3 0.571032 0.487638 0.984270
O O4 0.500000 0.000000 0.000000
O O5 0.275772 0.250452 0.362279
O O6 0.279627 0.533477 0.025701
O O7 0.357717 0.023427 0.987997
O O8 0.153371 0.122918 0.317118
O O9 0.126979 0.551840 0.081314
O O10 0.217944 0.052983 0.945465
O O11 0.695513 0.283851 0.352741
O O12 0.073534 0.349201 0.647626
O O13 0.984767 0.884212 0.731479
O O14 0.000000 0.500000 0.000000
O O15 0.844578 0.205845 0.382511
#
# Coordination Sequence:
#
# PCOD9071661 Si02
#       7
#     2   2   2   2   2   2   2
#     4   8  13  23  43  71  96 124 162 197 233 279
#     4   9  16  27  44  68  97 126 159 198 238 282
#     4   9  17  30  47  68  95 125 158 198 241 283
#     4   8  14  25  43  68  96 126 161 197 234 278
#     4   8  15  29  51  72  91 123 161 195 237 285
#     4   9  17  29  45  68  96 126 161 198 236 282
#     4   9  16  29  50  70  93 126 159 195 240 285
#
# _framework density 28.975254
#
# number of rings (size 3 to 8) (size 9 to 14) (size 15 to 20)
#    0.000    3.429    0.000    0.000    0.000    0.000 
#    0.000    5.000    0.000   30.000    0.000   90.000 
#    0.000    0.000    0.000    0.000    0.000    0.000 
#
# Total GULP energy -78307.902295 kJ/mol
# GULP energy per Si atom -5593.421592 kJ/mol
# Density = 2.890931 g / cm^3
# Si number density = 28.975254 Si / 1000 Ang^3
#
#
#
# Elastic Constant Matrix: (Units=GPa)
#
#
# Indices 1 2 3 4 5 6 
#
# 1 167.7674 46.0666 36.5457 16.5914 -14.4003 -35.4325
# 2 46.0666 111.7528 17.0980 -19.3938 18.6619 -30.8845
# 3 36.5457 17.0980 68.4146 -0.1986 -1.5086 -5.7297
# 4 16.5914 -19.3938 -0.1986 44.4654 8.2757 4.2280
# 5 -14.4003 18.6619 -1.5086 8.2757 53.3688 7.8136
# 6 -35.4325 -30.8845 -5.7297 4.2280 7.8136 52.3664
#
#
#
# Elastic Compliance Matrix: (Units=1/GPa)
#
#
# Indices 1 2 3 4 5 6 
#
# 1 0.009810 -0.004484 -0.003749 -0.006828 0.004665 0.003438
# 2 -0.004484 0.016212 -0.001250 0.009834 -0.009465 0.007009
# 3 -0.003749 -0.001250 0.016807 0.001081 -0.000045 -0.001515
# 4 -0.006828 0.009834 0.001081 0.031189 -0.010130 0.000291
# 5 0.004665 -0.009465 -0.000045 -0.010130 0.025673 -0.005444
# 6 0.003438 0.007009 -0.001515 0.000291 -0.005444 0.026180
#
#
# Mechanical properties :
#
#
# Convention : Reuss Voigt Hill
#
# Bulk Modulus (GPa) = 41.90325 60.81725 51.36025
# Shear Modulus (GPa) = 32.72458 46.58841 39.65650
#
# Velocity S-wave (km/s) = 3.36430 4.01417 3.70352
# Velocity P-wave (km/s) = 5.43916 6.52072 6.00434
#
# Compressibility (1/GPa) = 0.02386450
#
# Stress axis : x y z
#
# Youngs Moduli (GPa) = 101.93260 61.68164 59.49953
#
# Poissons Ratio (x) = 0.27659 0.22306
# Poissons Ratio (y) = 0.45708 0.07435
# Poissons Ratio (z) = 0.38213 0.07707
#
# Static dielectric constant tensor:
#      x y z
#    x 2.411570 0.034270 0.026500 
#    y 0.034270 2.201070 -0.042730 
#    z 0.026500 -0.042730 2.265020 
# 
# From -- ./inp_files/11198.got.cif
#   From: 2010.05.17/outbox.cif.g08.bks.cpg/sg2_6_cif.got.tgz:11198.got - 2010.06.03 11:33:40.
