data_PCOD9071009
_publ_section_title
;
Structure prediction by ZEFSAII (Michael W. Deem and Ramdas Pophale) SiO2 
 PCOD9071009
Probable space group: P -1
;
_chemical_formula_sum "Si O2"
_cell_formula_units_Z 16
_cell_length_a 8.906798
_cell_length_b 9.115686
_cell_length_c 12.259927
_cell_angle_alpha 85.333342
_cell_angle_beta 85.387034
_cell_angle_gamma 48.788612
_cell_volume 745.865413
_symmetry_space_group_name_H-M "P -1"
_symmetry_group_IT_number 2
_symmetry_cell_setting 'triclinic'
loop_
_space_group_symop_operation_xyz
x,y,z
-x,-y,-z
loop_
_atom_site_type_symbol
_atom_site_label
_atom_site_fract_x
_atom_site_fract_y
_atom_site_fract_z
Si Si1 0.784853 0.712166 0.008999
Si Si2 0.200797 0.873976 0.762374
Si Si3 0.821042 0.780047 0.250567
Si Si4 0.803969 0.987307 0.847542
Si Si5 0.598227 0.043274 0.640155
Si Si6 0.434026 0.709066 0.978946
Si Si7 0.523484 0.333577 0.444180
Si Si8 0.137924 0.414020 0.389494
O O1 0.767975 0.788758 0.126855
O O2 0.771090 0.850936 0.913676
O O3 0.613203 0.703975 0.998067
O O4 0.000000 0.500000 0.000000
O O5 0.358419 0.783904 0.856855
O O6 0.311227 0.757780 0.653230
O O7 0.030398 0.869909 0.806788
O O8 0.111966 0.095118 0.741976
O O9 0.621088 0.881233 0.326799
O O10 0.993461 0.557958 0.291800
O O11 0.669193 0.082451 0.742083
O O12 0.740620 0.144672 0.933385
O O13 0.584115 0.164042 0.533535
O O14 0.753911 0.811321 0.623569
O O15 0.500000 0.500000 0.000000
O O16 0.500000 0.500000 0.500000
O O17 0.315012 0.417132 0.397561
O O18 0.000000 0.500000 0.500000
#
# Coordination Sequence:
#
# PCOD9071009 Si02
#       8
#     2   2   2   2   2   2   2   2
#     4  12  26  46  74 113 146 196 247 300 375 454
#     4  12  28  47  73 109 153 198 249 312 372 442
#     4  12  25  48  80 108 150 194 250 310 375 445
#     4  12  27  48  74 106 152 195 246 304 376 447
#     4  12  26  52  76 109 147 198 252 311 370 449
#     4  12  27  46  76 109 151 195 249 311 373 441
#     4  12  30  49  74 110 152 193 253 313 373 439
#     4  12  26  47  80 107 144 197 252 306 374 444
#
# _framework density 21.451592000000002
#
# number of rings (size 3 to 8) (size 9 to 14) (size 15 to 20)
#    0.000    0.000    5.000    4.125    8.750    1.500 
#    0.000    0.000    0.000    0.000    0.000    0.000 
#    0.000    0.000    0.000    0.000    0.000    0.000 
#
# Total GULP energy -89693.891117 kJ/mol
# GULP energy per Si atom -5605.868195 kJ/mol
# Density = 2.140277 g / cm^3
# Si number density = 21.451592 Si / 1000 Ang^3
#
#
#
# Elastic Constant Matrix: (Units=GPa)
#
#
# Indices 1 2 3 4 5 6 
#
# 1 100.3326 30.0435 47.9458 0.8226 -15.0610 2.1184
# 2 30.0435 118.2768 41.3599 3.9194 -13.9594 0.3518
# 3 47.9458 41.3599 138.8422 8.4515 -10.0886 -6.0229
# 4 0.8226 3.9194 8.4515 35.6959 -11.1566 7.9470
# 5 -15.0610 -13.9594 -10.0886 -11.1566 35.9105 2.1996
# 6 2.1184 0.3518 -6.0229 7.9470 2.1996 33.3113
#
#
#
# Elastic Compliance Matrix: (Units=1/GPa)
#
#
# Indices 1 2 3 4 5 6 
#
# 1 0.013077 -0.001430 -0.004024 0.002894 0.004854 -0.002555
# 2 -0.001430 0.009951 -0.002331 0.000544 0.002829 -0.000752
# 3 -0.004024 -0.002331 0.009506 -0.002812 -0.000964 0.002734
# 4 0.002894 0.000544 -0.002812 0.034443 0.011930 -0.009703
# 5 0.004854 0.002829 -0.000964 0.011930 0.034764 -0.005655
# 6 -0.002555 -0.000752 0.002734 -0.009703 -0.005655 0.033373
#
#
# Mechanical properties :
#
#
# Convention : Reuss Voigt Hill
#
# Bulk Modulus (GPa) = 58.94695 66.23890 62.59293
# Shear Modulus (GPa) = 31.98204 36.85705 34.41955
#
# Velocity S-wave (km/s) = 3.86540 4.14955 4.00999
# Velocity P-wave (km/s) = 6.88915 7.34192 7.11914
#
# Compressibility (1/GPa) = 0.01696441
#
# Stress axis : x y z
#
# Youngs Moduli (GPa) = 76.47095 100.49187 105.19600
#
# Poissons Ratio (x) = 0.14370 0.42332
# Poissons Ratio (y) = 0.10935 0.24518
# Poissons Ratio (z) = 0.30773 0.23422
#
# Static dielectric constant tensor:
#      x y z
#    x 1.753660 -0.001280 0.005520 
#    y -0.001280 1.765390 0.001590 
#    z 0.005520 0.001590 1.761330 
# 
# From -- ./inp_files/245970.got.cif
#   From: 2010.05.17/outbox.cif.g08.bks.cpg/sg2_123_cif.got.tgz:245970.got - 2010.06.03 11:33:40.
