data_PCOD9071339
_publ_section_title
;
Structure prediction by ZEFSAII (Michael W. Deem and Ramdas Pophale) SiO2 
 PCOD9071339
Probable space group: P -1
;
_chemical_formula_sum "Si O2"
_cell_formula_units_Z 14
_cell_length_a 5.549490
_cell_length_b 8.828785
_cell_length_c 13.780441
_cell_angle_alpha 115.332556
_cell_angle_beta 74.714777
_cell_angle_gamma 102.095675
_cell_volume 585.028160
_symmetry_space_group_name_H-M "P -1"
_symmetry_group_IT_number 2
_symmetry_cell_setting 'triclinic'
loop_
_space_group_symop_operation_xyz
x,y,z
-x,-y,-z
loop_
_atom_site_type_symbol
_atom_site_label
_atom_site_fract_x
_atom_site_fract_y
_atom_site_fract_z
Si Si1 0.968646 0.323693 0.216113
Si Si2 0.898209 0.858270 0.665389
Si Si3 0.756791 0.592026 0.451943
Si Si4 0.213344 0.527848 0.067982
Si Si5 0.573020 0.142667 0.783336
Si Si6 0.715571 0.024977 0.065655
Si Si7 0.657154 0.878075 0.389662
O O1 0.883289 0.458537 0.337506
O O2 0.737441 0.214754 0.157333
O O3 0.089957 0.193459 0.238129
O O4 0.138299 0.411440 0.137215
O O5 0.900394 0.693745 0.553018
O O6 0.659625 0.959667 0.701693
O O7 0.121901 0.997026 0.647519
O O8 0.500000 0.500000 0.500000
O O9 0.726559 0.740448 0.419530
O O10 0.220115 0.722376 0.154788
O O11 0.500000 0.500000 0.000000
O O12 0.000000 0.500000 0.000000
O O13 0.490603 0.212867 0.709612
O O14 0.359359 0.106066 0.876038
O O15 0.500000 0.000000 0.000000
O O16 0.000000 0.000000 0.000000
O O17 0.500000 0.000000 0.500000
#
# Coordination Sequence:
#
# PCOD9071339 Si02
#       7
#     2   2   2   2   2   2   2
#     4  12  27  49  80 113 157 206 254 334 396 457
#     4  12  26  50  77 115 153 203 258 312 397 488
#     4  12  27  46  78 116 160 197 256 320 396 481
#     4  12  31  53  78 118 159 208 273 334 395 458
#     4  12  27  49  80 108 154 208 257 319 400 466
#     4  12  26  50  79 110 151 203 268 323 377 463
#     4  12  26  48  76 113 153 204 255 312 390 482
#
# _framework density 23.930474
#
# number of rings (size 3 to 8) (size 9 to 14) (size 15 to 20)
#    0.000    0.000    2.857    6.000    8.000    1.143 
#    0.000    0.000    0.000    0.000    0.000    0.000 
#    0.000    0.000    0.000    0.000    0.000    0.000 
#
# Total GULP energy -78419.558162 kJ/mol
# GULP energy per Si atom -5601.397012 kJ/mol
# Density = 2.387601 g / cm^3
# Si number density = 23.930474 Si / 1000 Ang^3
#
#
#
# Elastic Constant Matrix: (Units=GPa)
#
#
# Indices 1 2 3 4 5 6 
#
# 1 113.1169 41.3516 74.4003 -17.7947 20.0043 4.5003
# 2 41.3516 148.9806 61.0469 -26.7616 11.7231 8.4502
# 3 74.4003 61.0469 157.2384 -11.1711 30.7141 7.3976
# 4 -17.7947 -26.7616 -11.1711 66.8891 7.2265 6.8020
# 5 20.0043 11.7231 30.7141 7.2265 48.1176 1.2048
# 6 4.5003 8.4502 7.3976 6.8020 1.2048 38.7902
#
#
#
# Elastic Compliance Matrix: (Units=1/GPa)
#
#
# Indices 1 2 3 4 5 6 
#
# 1 0.013580 -0.000836 -0.005408 0.002710 -0.002378 -0.000763
# 2 -0.000836 0.008696 -0.002569 0.003073 -0.000547 -0.001829
# 3 -0.005408 -0.002569 0.010700 -0.000186 -0.003910 -0.000699
# 4 0.002710 0.003073 -0.000186 0.017735 -0.004321 -0.003924
# 5 -0.002378 -0.000547 -0.003910 -0.004321 0.025021 0.001121
# 6 -0.000763 -0.001829 -0.000699 -0.003924 0.001121 0.027053
#
#
# Mechanical properties :
#
#
# Convention : Reuss Voigt Hill
#
# Bulk Modulus (GPa) = 65.15347 85.88149 75.51748
# Shear Modulus (GPa) = 39.83142 46.92853 43.37997
#
# Velocity S-wave (km/s) = 4.08421 4.43316 4.26226
# Velocity P-wave (km/s) = 7.03749 7.88478 7.47315
#
# Compressibility (1/GPa) = 0.01534838
#
# Stress axis : x y z
#
# Youngs Moduli (GPa) = 73.63550 114.99658 93.46021
#
# Poissons Ratio (x) = 0.09616 0.50546
# Poissons Ratio (y) = 0.06157 0.24013
# Poissons Ratio (z) = 0.39824 0.29547
#
# Static dielectric constant tensor:
#      x y z
#    x 1.897890 -0.071820 0.027230 
#    y -0.071820 1.304630 0.387650 
#    z 0.027230 0.387650 1.711190 
# 
# From -- ./inp_files/368795.got.cif
#   From: 2010.05.17/outbox.cif.g08.bks.cpg/sg2_185_cif.got.tgz:368795.got - 2010.06.03 11:33:40.
