data_PCOD9071883
_publ_section_title
;
Structure prediction by ZEFSAII (Michael W. Deem and Ramdas Pophale) SiO2 
 PCOD9071883
Probable space group: P -1
;
_chemical_formula_sum "Si O2"
_cell_formula_units_Z 16
_cell_length_a 9.000000
_cell_length_b 12.000000
_cell_length_c 12.000000
_cell_angle_alpha 50.000000
_cell_angle_beta 60.000000
_cell_angle_gamma 90.000000
_cell_volume 752.153660
_symmetry_space_group_name_H-M "P -1"
_symmetry_group_IT_number 2
_symmetry_cell_setting 'triclinic'
loop_
_space_group_symop_operation_xyz
x,y,z
-x,-y,-z
loop_
_atom_site_type_symbol
_atom_site_label
_atom_site_fract_x
_atom_site_fract_y
_atom_site_fract_z
Si Si1 0.279648 0.650749 0.457020
Si Si2 0.160618 0.688816 0.916436
Si Si3 0.491663 0.584563 0.834653
Si Si4 0.209008 0.932730 0.185318
Si Si5 0.133603 0.683801 0.696834
Si Si6 0.510624 0.324274 0.838227
Si Si7 0.131050 0.698728 0.168429
Si Si8 0.075949 0.149967 0.463046
O O1 0.277333 0.808158 0.296346
O O2 0.313097 0.710509 0.533762
O O3 0.430240 0.621096 0.346732
O O4 0.072579 0.477288 0.636024
O O5 0.329773 0.640596 0.866693
O O6 0.162119 0.776091 0.744059
O O7 0.177667 0.764851 0.982127
O O8 0.965832 0.511037 0.113976
O O9 0.449525 0.446812 0.844208
O O10 0.699534 0.749850 0.652194
O O11 0.500000 0.500000 0.000000
O O12 0.141000 0.845694 0.147204
O O13 0.033957 0.913875 0.339267
O O14 0.363407 0.126925 0.013098
O O15 0.991469 0.723795 0.648306
O O16 0.700817 0.343187 0.823393
O O17 0.000000 0.000000 0.500000
#
# Coordination Sequence:
#
# PCOD9071883 Si02
#       8
#     2   2   2   2   2   2   2   2
#     4   9  17  32  53  79 110 145 186 232 276 333
#     4  10  20  34  60  84 115 148 185 227 278 338
#     4  12  20  35  56  87 112 144 190 231 281 330
#     4  10  20  31  52  82 110 144 186 235 279 323
#     4   9  19  37  56  86 112 149 186 224 281 337
#     4  11  19  31  54  80 112 144 187 236 274 329
#     4  10  17  31  54  80 112 144 188 232 276 330
#     4  11  22  37  59  85 117 144 184 237 283 331
#
# _framework density 21.272248999999999
#
# number of rings (size 3 to 8) (size 9 to 14) (size 15 to 20)
#    0.000    1.750    2.500    6.000    0.000    0.000 
#    0.000    1.250    0.000    0.750    0.000    0.000 
#    0.000    0.000    0.000    0.000    0.000    0.000 
#
# Total GULP energy -89119.928365 kJ/mol
# GULP energy per Si atom -5569.995523 kJ/mol
# Density = 2.122383 g / cm^3
# Si number density = 21.272249 Si / 1000 Ang^3
#
#
#
# Elastic Constant Matrix: (Units=GPa)
#
#
# Indices 1 2 3 4 5 6 
#
# 1 30.3371 9.8829 30.3773 11.5781 -2.1540 8.5270
# 2 9.8829 177.7455 64.7522 24.5972 -1.5863 23.8238
# 3 30.3773 64.7522 106.3690 21.1248 -16.0370 18.5449
# 4 11.5781 24.5972 21.1248 48.6595 11.8281 5.9187
# 5 -2.1540 -1.5863 -16.0370 11.8281 21.2291 9.6850
# 6 8.5270 23.8238 18.5449 5.9187 9.6850 16.5035
#
#
#
# Elastic Compliance Matrix: (Units=1/GPa)
#
#
# Indices 1 2 3 4 5 6 
#
# 1 0.060716 0.009128 0.003139 -0.025320 0.056142 -0.071941
# 2 0.009128 0.010315 0.003196 -0.010875 0.025911 -0.034503
# 3 0.003139 0.003196 0.053646 -0.039705 0.118882 -0.122042
# 4 -0.025320 -0.010875 -0.039705 0.064876 -0.126172 0.124174
# 5 0.056142 0.025911 0.118882 -0.126172 0.389800 -0.383501
# 6 -0.071941 -0.034503 -0.122042 0.124174 -0.383501 0.465232
#
#
# Mechanical properties :
#
#
# Convention : Reuss Voigt Hill
#
# Bulk Modulus (GPa) = 6.42661 58.27513 32.35087
# Shear Modulus (GPa) = 4.69251 31.24105 17.96678
#
# Velocity S-wave (km/s) = 1.48685 3.83643 2.90937
# Velocity P-wave (km/s) = 2.44445 6.86139 5.15043
#
# Compressibility (1/GPa) = 0.15560291
#
# Stress axis : x y z
#
# Youngs Moduli (GPa) = 16.47004 96.94528 18.64088
#
# Poissons Ratio (x) = -0.88491 -0.05852
# Poissons Ratio (y) = -0.15034 -0.05957
# Poissons Ratio (z) = -0.05171 -0.30981
#
# Static dielectric constant tensor:
#      x y z
#    x 1.900050 0.060880 -0.086140 
#    y 0.060880 1.828990 0.036690 
#    z -0.086140 0.036690 2.091770 
# 
# From -- ./inp_files/392044.got.cif
#   From: 2010.05.17/outbox.ucp.g08.bks.cvg/sg2_197_cif.got.tgz:392044.got - 2010.06.11 11:32:03.
