data_PCOD9071134
_publ_section_title
;
Structure prediction by ZEFSAII (Michael W. Deem and Ramdas Pophale) SiO2 
 PCOD9071134
Probable space group: P -1
;
_chemical_formula_sum "Si O2"
_cell_formula_units_Z 16
_cell_length_a 11.294875
_cell_length_b 19.605093
_cell_length_c 8.942590
_cell_angle_alpha 41.140300
_cell_angle_beta 53.888695
_cell_angle_gamma 31.914051
_cell_volume 681.591709
_symmetry_space_group_name_H-M "P -1"
_symmetry_group_IT_number 2
_symmetry_cell_setting 'triclinic'
loop_
_space_group_symop_operation_xyz
x,y,z
-x,-y,-z
loop_
_atom_site_type_symbol
_atom_site_label
_atom_site_fract_x
_atom_site_fract_y
_atom_site_fract_z
Si Si1 0.763981 0.849150 0.049115
Si Si2 0.422033 0.839218 0.785301
Si Si3 0.851930 0.872226 0.288650
Si Si4 0.654762 0.347988 0.745388
Si Si5 0.487849 0.581363 0.730694
Si Si6 0.973720 0.907819 0.579420
Si Si7 0.078816 0.379077 0.266321
Si Si8 0.789301 0.603001 0.379587
O O1 0.886039 0.867806 0.825203
O O2 0.830659 0.833717 0.200909
O O3 0.768362 0.735939 0.148253
O O4 0.500000 0.000000 0.000000
O O5 0.660854 0.733427 0.701590
O O6 0.361175 0.946922 0.793310
O O7 0.441278 0.712246 0.042040
O O8 0.213077 0.969296 0.612157
O O9 0.897323 0.754609 0.565707
O O10 0.083287 0.812300 0.223222
O O11 0.500000 0.500000 0.500000
O O12 0.645533 0.428114 0.760782
O O13 0.225522 0.737359 0.621491
O O14 0.596385 0.638701 0.545854
O O15 0.500000 0.500000 0.000000
O O16 0.000000 0.000000 0.500000
O O17 0.883225 0.495010 0.343256
O O18 0.000000 0.500000 0.000000
O O19 0.000000 0.500000 0.500000
#
# Coordination Sequence:
#
# PCOD9071134 Si02
#       8
#     2   2   2   2   2   2   2   2
#     4  12  27  45  77 109 151 197 251 313 390 459
#     4  12  29  47  77 109 157 198 254 321 384 463
#     4  12  25  51  69 111 151 195 253 311 383 456
#     4  12  26  47  74 108 144 202 253 308 383 457
#     4  12  26  47  78 109 154 196 259 320 378 462
#     4  12  27  48  74 116 155 202 255 318 391 459
#     4  12  28  48  76 111 152 202 259 312 386 461
#     4  12  26  48  76 108 150 199 257 320 381 455
#
# _framework density 23.474464999999999
#
# number of rings (size 3 to 8) (size 9 to 14) (size 15 to 20)
#    0.000    0.000    2.500    6.750    8.750    1.000 
#    0.000    0.000    0.000    0.000    0.000    0.000 
#    0.000    0.000    0.000    0.000    0.000    0.000 
#
# Total GULP energy -89315.494880 kJ/mol
# GULP energy per Si atom -5582.218430 kJ/mol
# Density = 2.342104 g / cm^3
# Si number density = 23.474465 Si / 1000 Ang^3
#
#
#
# Elastic Constant Matrix: (Units=GPa)
#
#
# Indices 1 2 3 4 5 6 
#
# 1 78.4620 32.6854 45.9803 7.4779 -13.9613 -8.6640
# 2 32.6854 110.1813 34.6155 -4.3622 -9.5929 -22.4996
# 3 45.9803 34.6155 139.0659 8.5309 -25.1914 -4.9896
# 4 7.4779 -4.3622 8.5309 42.3445 -3.6938 -9.5313
# 5 -13.9613 -9.5929 -25.1914 -3.6938 61.0625 -6.2949
# 6 -8.6640 -22.4996 -4.9896 -9.5313 -6.2949 47.7719
#
#
#
# Elastic Compliance Matrix: (Units=1/GPa)
#
#
# Indices 1 2 3 4 5 6 
#
# 1 0.017394 -0.003570 -0.004419 -0.002243 0.001536 0.000767
# 2 -0.003570 0.012065 -0.001616 0.003599 0.001222 0.005745
# 3 -0.004419 -0.001616 0.009576 -0.001196 0.002566 -0.000463
# 4 -0.002243 0.003599 -0.001196 0.026280 0.001834 0.006648
# 5 0.001536 0.001222 0.002566 0.001834 0.018494 0.003925
# 6 0.000767 0.005745 -0.000463 0.006648 0.003925 0.025573
#
#
# Mechanical properties :
#
#
# Convention : Reuss Voigt Hill
#
# Bulk Modulus (GPa) = 50.44306 61.58573 56.01440
# Shear Modulus (GPa) = 36.98251 44.53098 40.75675
#
# Velocity S-wave (km/s) = 3.97348 4.36018 4.17131
# Velocity P-wave (km/s) = 6.52584 7.18612 6.86392
#
# Compressibility (1/GPa) = 0.01982433
#
# Stress axis : x y z
#
# Youngs Moduli (GPa) = 57.49261 82.88618 104.43068
#
# Poissons Ratio (x) = 0.29590 0.46147
# Poissons Ratio (y) = 0.20525 0.16875
# Poissons Ratio (z) = 0.25406 0.13394
#
# Static dielectric constant tensor:
#      x y z
#    x 1.878500 -0.036880 0.001610 
#    y -0.036880 1.837570 0.033760 
#    z 0.001610 0.033760 1.738500 
# 
# From -- ./inp_files/282693.got.cif
#   From: 2010.05.17/outbox.cif.g08.bks.cpg/sg2_142_cif.got.tgz:282693.got - 2010.06.03 11:33:40.
