data_PCOD9071462
_publ_section_title
;
Structure prediction by ZEFSAII (Michael W. Deem and Ramdas Pophale) SiO2 
 PCOD9071462
Probable space group: P -1
;
_chemical_formula_sum "Si O2"
_cell_formula_units_Z 9
_cell_length_a 8.406838
_cell_length_b 8.957610
_cell_length_c 8.590153
_cell_angle_alpha 34.776949
_cell_angle_beta 72.287737
_cell_angle_gamma 74.000785
_cell_volume 351.086267
_symmetry_space_group_name_H-M "P -1"
_symmetry_group_IT_number 2
_symmetry_cell_setting 'triclinic'
loop_
_space_group_symop_operation_xyz
x,y,z
-x,-y,-z
loop_
_atom_site_type_symbol
_atom_site_label
_atom_site_fract_x
_atom_site_fract_y
_atom_site_fract_z
Si Si1 0.321758 0.554795 0.078342
Si Si2 0.488156 0.295511 0.815990
Si Si3 0.000000 0.500000 0.500000
Si Si4 0.882718 0.921182 0.382851
Si Si5 0.893739 0.658681 0.028801
O O1 0.355993 0.639327 0.174890
O O2 0.229276 0.285835 0.322135
O O3 0.500000 0.500000 0.000000
O O4 0.230270 0.811328 0.817064
O O5 0.500000 0.500000 0.500000
O O6 0.306587 0.351348 0.901439
O O7 0.500000 0.000000 0.000000
O O8 0.085600 0.217049 0.673887
O O9 0.044820 0.447185 0.726059
O O10 0.059897 0.038393 0.273436
O O11 0.000000 0.500000 0.000000
#
# Coordination Sequence:
#
# PCOD9071462 Si02
#       5
#     2   2   1   2   2
#     4  12  26  51  77 115 159 208 261 334 412 479
#     4  12  29  49  76 117 161 205 263 334 408 473
#     4  12  26  50  80 112 166 202 272 330 414 460
#     4  12  27  49  83 113 157 218 266 329 408 490
#     4  12  29  52  85 121 160 215 283 335 400 495
#
# _framework density 25.634727999999999
#
# number of rings (size 3 to 8) (size 9 to 14) (size 15 to 20)
#    0.000    0.000    2.222    6.667    6.222    2.667 
#    0.000    0.000    0.000    0.000    0.000    0.000 
#    0.000    0.000    0.000    0.000    0.000    0.000 
#
# Total GULP energy -50106.605096 kJ/mol
# GULP energy per Si atom -5567.400566 kJ/mol
# Density = 2.557638 g / cm^3
# Si number density = 25.634728 Si / 1000 Ang^3
#
#
#
# Elastic Constant Matrix: (Units=GPa)
#
#
# Indices 1 2 3 4 5 6 
#
# 1 123.4388 32.0286 73.6822 -15.8219 -16.2465 11.2158
# 2 32.0286 178.4777 68.0484 -16.2647 -14.8290 -10.8593
# 3 73.6822 68.0484 190.3495 -28.4149 -24.5578 12.6856
# 4 -15.8219 -16.2647 -28.4149 55.1608 7.4443 4.5303
# 5 -16.2465 -14.8290 -24.5578 7.4443 54.6737 2.7172
# 6 11.2158 -10.8593 12.6856 4.5303 2.7172 55.1725
#
#
#
# Elastic Compliance Matrix: (Units=1/GPa)
#
#
# Indices 1 2 3 4 5 6 
#
# 1 0.010827 -0.000464 -0.003573 0.001070 0.001422 -0.001628
# 2 -0.000464 0.006730 -0.002208 0.000489 0.000537 0.001860
# 3 -0.003573 -0.002208 0.008140 0.002433 0.001757 -0.001866
# 4 0.001070 0.000489 0.002433 0.020168 -0.001089 -0.002283
# 5 0.001422 0.000537 0.001757 -0.001089 0.019869 -0.001476
# 6 -0.001628 0.001860 -0.001866 -0.002283 -0.001476 0.019511
#
#
# Mechanical properties :
#
#
# Convention : Reuss Voigt Hill
#
# Bulk Modulus (GPa) = 75.72073 93.30937 84.51505
# Shear Modulus (GPa) = 48.95257 54.23518 51.59387
#
# Velocity S-wave (km/s) = 4.37466 4.60465 4.49113
# Velocity P-wave (km/s) = 7.42424 8.04668 7.74172
#
# Compressibility (1/GPa) = 0.01320642
#
# Stress axis : x y z
#
# Youngs Moduli (GPa) = 92.36349 148.57830 122.84264
#
# Poissons Ratio (x) = 0.06893 0.43897
# Poissons Ratio (y) = 0.04285 0.27127
# Poissons Ratio (z) = 0.33006 0.32810
#
# Static dielectric constant tensor:
#      x y z
#    x 2.125630 0.051770 0.015390 
#    y 0.051770 2.079500 0.086430 
#    z 0.015390 0.086430 2.162340 
# 
# From -- ./inp_files/143860.got.cif
#   From: 2010.05.17/outbox.cif.g08.bks.cpg/sg2_72_cif.got.tgz:143860.got - 2010.06.03 11:33:40.
