data_PCOD9071181
_publ_section_title
;
Structure prediction by ZEFSAII (Michael W. Deem and Ramdas Pophale) SiO2 
 PCOD9071181
Probable space group: P -1
;
_chemical_formula_sum "Si O2"
_cell_formula_units_Z 14
_cell_length_a 25.112472
_cell_length_b 22.560047
_cell_length_c 5.358298
_cell_angle_alpha 78.445554
_cell_angle_beta 78.272039
_cell_angle_gamma 10.842631
_cell_volume 559.123707
_symmetry_space_group_name_H-M "P -1"
_symmetry_group_IT_number 2
_symmetry_cell_setting 'triclinic'
loop_
_space_group_symop_operation_xyz
x,y,z
-x,-y,-z
loop_
_atom_site_type_symbol
_atom_site_label
_atom_site_fract_x
_atom_site_fract_y
_atom_site_fract_z
Si Si1 0.933814 0.283389 0.628046
Si Si2 0.271654 0.369137 0.294419
Si Si3 0.428001 0.811882 0.303024
Si Si4 0.648530 0.812598 0.265640
Si Si5 0.528115 0.429759 0.781304
Si Si6 0.849607 0.766378 0.996422
Si Si7 0.139092 0.738492 0.936245
O O1 0.867353 0.412345 0.768462
O O2 0.661919 0.581835 0.460299
O O3 0.952753 0.193751 0.778387
O O4 0.226119 0.983385 0.477927
O O5 0.338992 0.272313 0.593127
O O6 0.055236 0.559687 0.204771
O O7 0.566105 0.047764 0.138131
O O8 0.610165 0.580059 0.115918
O O9 0.239326 0.072818 0.172146
O O10 0.500000 0.000000 0.500000
O O11 0.980723 0.458667 0.178060
O O12 0.500000 0.000000 0.000000
O O13 0.500000 0.500000 0.500000
O O14 0.284050 0.645441 0.858748
O O15 0.500000 0.500000 0.000000
O O16 0.848580 0.053862 0.792237
#
# Coordination Sequence:
#
# PCOD9071181 Si02
#       7
#     2   2   2   2   2   2   2
#     4  12  26  44  78 117 156 195 257 331 397 456
#     4  12  27  49  77 112 158 202 259 331 399 456
#     4  12  26  44  78 117 156 195 257 331 397 456
#     4  12  28  52  78 112 154 216 266 314 388 486
#     4  12  30  54  80 114 166 212 256 314 376 460
#     4  12  27  49  77 112 158 202 259 331 399 456
#     4  12  28  48  80 112 154 208 268 312 390 466
#
# _framework density 25.039183999999999
#
# number of rings (size 3 to 8) (size 9 to 14) (size 15 to 20)
#    0.000    0.000    4.286    4.286    8.000    1.143 
#    0.000    0.000    0.000    0.000    0.000    0.000 
#    0.000    0.000    0.000    0.000    0.000    0.000 
#
# Total GULP energy -78353.990235 kJ/mol
# GULP energy per Si atom -5596.713588 kJ/mol
# Density = 2.498219 g / cm^3
# Si number density = 25.039184 Si / 1000 Ang^3
#
#
#
# Elastic Constant Matrix: (Units=GPa)
#
#
# Indices 1 2 3 4 5 6 
#
# 1 98.3908 18.0490 54.3389 -1.7167 -28.1545 -24.1543
# 2 18.0490 176.1694 86.2133 -10.2312 -29.1753 -17.1021
# 3 54.3389 86.2133 187.2926 -17.8947 -40.7177 -2.7738
# 4 -1.7167 -10.2312 -17.8947 59.4308 2.4478 -6.3864
# 5 -28.1545 -29.1753 -40.7177 2.4478 53.4715 4.6660
# 6 -24.1543 -17.1021 -2.7738 -6.3864 4.6660 48.4358
#
#
#
# Elastic Compliance Matrix: (Units=1/GPa)
#
#
# Indices 1 2 3 4 5 6 
#
# 1 0.015552 0.002115 -0.004161 0.000168 0.005489 0.007757
# 2 0.002115 0.008033 -0.003689 0.000616 0.002351 0.003535
# 3 -0.004161 -0.003689 0.008955 0.001510 0.002802 -0.002936
# 4 0.000168 0.000616 0.001510 0.017656 0.000534 0.002664
# 5 0.005489 0.002351 0.002802 0.000534 0.024861 0.001403
# 6 0.007757 0.003535 -0.002936 0.002664 0.001403 0.025810
#
#
# Mechanical properties :
#
#
# Convention : Reuss Voigt Hill
#
# Bulk Modulus (GPa) = 47.46351 86.56169 67.01260
# Shear Modulus (GPa) = 41.88960 52.48439 47.18700
#
# Velocity S-wave (km/s) = 4.09462 4.58327 4.34582
# Velocity P-wave (km/s) = 6.43051 7.91543 7.21129
#
# Compressibility (1/GPa) = 0.02106882
#
# Stress axis : x y z
#
# Youngs Moduli (GPa) = 64.30146 124.48183 111.67383
#
# Poissons Ratio (x) = -0.26328 0.46471
# Poissons Ratio (y) = -0.13600 0.41198
# Poissons Ratio (z) = 0.26758 0.45923
#
# Static dielectric constant tensor:
#      x y z
#    x 2.040340 0.082000 0.041960 
#    y 0.082000 1.973490 0.018180 
#    z 0.041960 0.018180 2.018950 
# 
# From -- ./inp_files/127654.got.cif
#   From: 2010.05.17/outbox.cif.g08.bks.cpg/sg2_64_cif.got.tgz:127654.got - 2010.06.03 11:33:40.
