data_PCOD9071653
_publ_section_title
;
Structure prediction by ZEFSAII (Michael W. Deem and Ramdas Pophale) SiO2 
 PCOD9071653
Probable space group: P -1
;
_chemical_formula_sum "Si O2"
_cell_formula_units_Z 16
_cell_length_a 9.434218
_cell_length_b 16.490028
_cell_length_c 7.846088
_cell_angle_alpha 62.959302
_cell_angle_beta 69.637520
_cell_angle_gamma 118.979663
_cell_volume 650.737694
_symmetry_space_group_name_H-M "P -1"
_symmetry_group_IT_number 2
_symmetry_cell_setting 'triclinic'
loop_
_space_group_symop_operation_xyz
x,y,z
-x,-y,-z
loop_
_atom_site_type_symbol
_atom_site_label
_atom_site_fract_x
_atom_site_fract_y
_atom_site_fract_z
Si Si1 0.655328 0.837833 0.096911
Si Si2 0.906580 0.239808 0.018729
Si Si3 0.873159 0.177180 0.562660
Si Si4 0.594616 0.969495 0.212647
Si Si5 0.887215 0.898152 0.481438
Si Si6 0.598191 0.260419 0.054498
Si Si7 0.179102 0.448633 0.371838
Si Si8 0.367658 0.381126 0.810926
O O1 0.555997 0.846487 0.291979
O O2 0.521079 0.819428 0.003762
O O3 0.638637 0.723578 0.168327
O O4 0.936160 0.987095 0.847252
O O5 0.712869 0.228743 0.131928
O O6 0.048951 0.349941 0.690496
O O7 0.110611 0.307990 0.000988
O O8 0.769858 0.083078 0.178743
O O9 0.659993 0.100309 0.597788
O O10 0.055235 0.180759 0.445792
O O11 0.021987 0.335003 0.396700
O O12 0.731295 0.076401 0.888085
O O13 0.615411 0.796921 0.690980
O O14 0.000000 0.000000 0.500000
O O15 0.786878 0.427518 0.777690
O O16 0.449635 0.537814 0.186515
O O17 0.500000 0.500000 0.500000
#
# Coordination Sequence:
#
# PCOD9071653 Si02
#       8
#     2   2   2   2   2   2   2   2
#     4   9  17  31  48  69  96 124 156 192 235 277
#     4  10  18  30  48  72  97 122 156 196 235 274
#     4   9  16  28  47  72  96 119 153 195 235 272
#     4   9  16  27  47  72  95 118 151 198 239 271
#     4   9  17  29  47  70  96 123 155 194 232 274
#     4  10  18  29  48  70  94 125 160 193 229 275
#     4   9  18  31  48  69  94 126 156 191 235 279
#     4   9  19  32  47  69  97 126 153 187 235 286
#
# _framework density 24.587482999999999
#
# number of rings (size 3 to 8) (size 9 to 14) (size 15 to 20)
#    0.000    2.750    0.000    4.125    0.000    3.000 
#    0.000    0.625    0.000    0.750    0.000    0.000 
#    0.000    0.000    0.000    0.000    0.000    0.000 
#
# Total GULP energy -89345.242344 kJ/mol
# GULP energy per Si atom -5584.077646 kJ/mol
# Density = 2.453152 g / cm^3
# Si number density = 24.587483 Si / 1000 Ang^3
#
#
#
# Elastic Constant Matrix: (Units=GPa)
#
#
# Indices 1 2 3 4 5 6 
#
# 1 133.1092 35.7697 49.1341 1.2383 -25.3282 -9.9668
# 2 35.7697 72.6303 38.4004 -12.5800 -10.6433 -9.2539
# 3 49.1341 38.4004 90.3537 -19.0429 -25.6809 -10.1693
# 4 1.2383 -12.5800 -19.0429 34.0393 -8.7085 -4.3622
# 5 -25.3282 -10.6433 -25.6809 -8.7085 51.7944 9.1836
# 6 -9.9668 -9.2539 -10.1693 -4.3622 9.1836 38.7334
#
#
#
# Elastic Compliance Matrix: (Units=1/GPa)
#
#
# Indices 1 2 3 4 5 6 
#
# 1 0.010396 -0.003065 -0.004738 -0.003793 0.001481 -0.000079
# 2 -0.003065 0.019208 -0.005098 0.004789 0.000202 0.002953
# 3 -0.004738 -0.005098 0.021331 0.012825 0.008927 0.002491
# 4 -0.003793 0.004789 0.012825 0.042135 0.011592 0.005532
# 5 0.001481 0.000202 0.008927 0.011592 0.026854 -0.002288
# 6 -0.000079 0.002953 0.002491 0.005532 -0.002288 0.028322
#
#
# Mechanical properties :
#
#
# Convention : Reuss Voigt Hill
#
# Bulk Modulus (GPa) = 39.78619 60.30018 50.04319
# Shear Modulus (GPa) = 27.40816 36.43268 31.92042
#
# Velocity S-wave (km/s) = 3.34236 3.85354 3.60702
# Velocity P-wave (km/s) = 5.57780 6.66165 6.14367
#
# Compressibility (1/GPa) = 0.02513435
#
# Stress axis : x y z
#
# Youngs Moduli (GPa) = 96.18637 52.06050 46.87934
#
# Poissons Ratio (x) = 0.15957 0.22213
# Poissons Ratio (y) = 0.29481 0.23897
# Poissons Ratio (z) = 0.45576 0.26539
#
# Static dielectric constant tensor:
#      x y z
#    x 1.980960 -0.044790 0.011670 
#    y -0.044790 2.022970 0.094660 
#    z 0.011670 0.094660 2.043500 
# 
# From -- ./inp_files/401786.got.cif
#   From: 2010.05.17/outbox.cif.g08.bks.cpg/sg2_201_cif.got.tgz:401786.got - 2010.06.03 11:33:40.
