data_PCOD9071576
_publ_section_title
;
Structure prediction by ZEFSAII (Michael W. Deem and Ramdas Pophale) SiO2 
 PCOD9071576
Probable space group: P -1
;
_chemical_formula_sum "Si O2"
_cell_formula_units_Z 12
_cell_length_a 23.380352
_cell_length_b 9.473552
_cell_length_c 26.052035
_cell_angle_alpha 30.425418
_cell_angle_beta 170.217232
_cell_angle_gamma 149.392148
_cell_volume 492.508070
_symmetry_space_group_name_H-M "P -1"
_symmetry_group_IT_number 2
_symmetry_cell_setting 'triclinic'
loop_
_space_group_symop_operation_xyz
x,y,z
-x,-y,-z
loop_
_atom_site_type_symbol
_atom_site_label
_atom_site_fract_x
_atom_site_fract_y
_atom_site_fract_z
Si Si1 0.232820 0.788534 0.069202
Si Si2 0.295156 0.706349 0.722259
Si Si3 0.512792 0.104976 0.631418
Si Si4 0.959941 0.851962 0.565566
Si Si5 0.368284 0.487342 0.105292
Si Si6 0.631850 0.270929 0.566650
O O1 0.237312 0.780776 0.137779
O O2 0.409347 0.529548 0.285054
O O3 0.457380 0.082999 0.160629
O O4 0.852587 0.799227 0.710363
O O5 0.000000 0.500000 0.500000
O O6 0.127167 0.918916 0.543316
O O7 0.500000 0.500000 0.000000
O O8 0.622258 0.189666 0.643859
O O9 0.485515 0.769268 0.712197
O O10 0.637834 0.617957 0.344348
O O11 0.000000 0.000000 0.500000
O O12 0.271889 0.706789 0.908675
O O13 0.013061 0.377558 0.852713
O O14 0.500000 0.000000 0.500000
#
# Coordination Sequence:
#
# PCOD9071576 Si02
#       6
#     2   2   2   2   2   2
#     4  12  28  50  77 113 160 197 255 317 387 455
#     4  12  28  50  79 112 154 201 253 319 390 456
#     4  12  28  47  79 113 155 203 251 311 384 462
#     4  12  28  50  81 110 153 200 264 318 383 455
#     4  12  27  50  78 114 154 202 256 321 381 458
#     4  12  27  53  80 114 156 208 262 315 384 456
#
# _framework density 24.365084
#
# number of rings (size 3 to 8) (size 9 to 14) (size 15 to 20)
#    0.000    0.000    1.667    7.000    9.333    2.667 
#    0.000    0.000    0.000    0.000    0.000    0.000 
#    0.000    0.000    0.000    0.000    0.000    0.000 
#
# Total GULP energy -67390.416574 kJ/mol
# GULP energy per Si atom -5615.868048 kJ/mol
# Density = 2.430963 g / cm^3
# Si number density = 24.365084 Si / 1000 Ang^3
#
#
#
# Elastic Constant Matrix: (Units=GPa)
#
#
# Indices 1 2 3 4 5 6 
#
# 1 104.9566 30.0728 5.4533 -5.0337 -10.4772 2.2935
# 2 30.0728 155.2178 44.2305 -23.9540 -9.5268 -23.8690
# 3 5.4533 44.2305 112.6594 -20.3984 -26.7292 -10.0071
# 4 -5.0337 -23.9540 -20.3984 64.2568 3.9984 -4.7089
# 5 -10.4772 -9.5268 -26.7292 3.9984 41.0817 4.7652
# 6 2.2935 -23.8690 -10.0071 -4.7089 4.7652 58.1671
#
#
#
# Elastic Compliance Matrix: (Units=1/GPa)
#
#
# Indices 1 2 3 4 5 6 
#
# 1 0.010475 -0.002358 0.000979 -0.000037 0.002934 -0.001456
# 2 -0.002358 0.008512 -0.002731 0.002435 -0.001035 0.003398
# 3 0.000979 -0.002731 0.012106 0.002494 0.007188 0.000537
# 4 -0.000037 0.002435 0.002494 0.017457 0.000150 0.002831
# 5 0.002934 -0.001035 0.007188 0.000150 0.029712 -0.001726
# 6 -0.001456 0.003398 0.000537 0.002831 -0.001726 0.019107
#
#
# Mechanical properties :
#
#
# Convention : Reuss Voigt Hill
#
# Bulk Modulus (GPa) = 43.71834 59.14966 51.43400
# Shear Modulus (GPa) = 44.16441 52.23958 48.20200
#
# Velocity S-wave (km/s) = 4.26210 4.63540 4.45266
# Velocity P-wave (km/s) = 6.49635 7.27862 6.89858
#
# Compressibility (1/GPa) = 0.02287369
#
# Stress axis : x y z
#
# Youngs Moduli (GPa) = 95.46150 117.47615 82.60694
#
# Poissons Ratio (x) = 0.27700 -0.08086
# Poissons Ratio (y) = 0.22509 0.22557
# Poissons Ratio (z) = -0.09344 0.32079
#
# Static dielectric constant tensor:
#      x y z
#    x 1.918500 0.056160 0.031880 
#    y 0.056160 2.050170 0.011040 
#    z 0.031880 0.011040 1.855090 
# 
# From -- ./inp_files/391778.got.cif
#   From: 2010.05.17/outbox.cif.g08.bks.cpg/sg2_196_cif.got.tgz:391778.got - 2010.06.03 11:33:40.
