data_PCOD9071825
_publ_section_title
;
Structure prediction by ZEFSAII (Michael W. Deem and Ramdas Pophale) SiO2 
 PCOD9071825
Probable space group: P -1
;
_chemical_formula_sum "Si O2"
_cell_formula_units_Z 12
_cell_length_a 9.665578
_cell_length_b 17.777787
_cell_length_c 20.698905
_cell_angle_alpha 160.432839
_cell_angle_beta 144.613456
_cell_angle_gamma 35.392385
_cell_volume 669.226890
_symmetry_space_group_name_H-M "P -1"
_symmetry_group_IT_number 2
_symmetry_cell_setting 'triclinic'
loop_
_space_group_symop_operation_xyz
x,y,z
-x,-y,-z
loop_
_atom_site_type_symbol
_atom_site_label
_atom_site_fract_x
_atom_site_fract_y
_atom_site_fract_z
Si Si1 0.825614 0.184212 0.037537
Si Si2 0.886483 0.358762 0.066902
Si Si3 0.633663 0.974719 0.321505
Si Si4 0.539744 0.386314 0.709406
Si Si5 0.891960 0.356433 0.709012
Si Si6 0.420786 0.768168 0.263039
O O1 0.949941 0.223675 0.048726
O O2 0.717912 0.429770 0.230431
O O3 0.578374 0.102795 0.859556
O O4 0.000000 0.000000 0.000000
O O5 0.660485 0.576576 0.175595
O O6 0.088292 0.468826 0.198566
O O7 0.780631 0.214347 0.855317
O O8 0.836447 0.761787 0.255983
O O9 0.516026 0.145737 0.473667
O O10 0.779888 0.137224 0.469836
O O11 0.719139 0.469347 0.794287
O O12 0.659687 0.328680 0.778646
O O13 0.500000 0.000000 0.500000
#
# Coordination Sequence:
#
# PCOD9071825 Si02
#       6
#     2   2   2   2   2   2
#     4  11  23  38  54  72 106 155 187 208 248 311
#     4  10  20  33  50  78 109 132 178 225 250 310
#     4   9  19  35  57  82 112 131 168 221 272 323
#     4   9  19  34  56  81 106 138 170 213 279 315
#     4   9  18  36  57  84 112 128 161 233 286 305
#     4  10  18  29  53  81 108 134 168 212 275 319
#
# _framework density 17.931138000000001
#
# number of rings (size 3 to 8) (size 9 to 14) (size 15 to 20)
#    1.000    1.333    0.000    5.000    0.000    3.333 
#    0.000    1.667    0.000    0.000    0.000    0.000 
#    0.000    0.000    0.000    0.000    0.000    0.000 
#
# Total GULP energy -66838.146825 kJ/mol
# GULP energy per Si atom -5569.845569 kJ/mol
# Density = 1.789033 g / cm^3
# Si number density = 17.931138 Si / 1000 Ang^3
#
#
#
# Elastic Constant Matrix: (Units=GPa)
#
#
# Indices 1 2 3 4 5 6 
#
# 1 99.5281 25.8954 1.0925 7.0007 22.9137 26.4843
# 2 25.8954 59.1101 -1.0252 11.7208 10.1883 18.9330
# 3 1.0925 -1.0252 57.5437 0.6108 7.9022 5.2007
# 4 7.0007 11.7208 0.6108 15.0409 -4.1168 5.4376
# 5 22.9137 10.1883 7.9022 -4.1168 34.4455 9.9340
# 6 26.4843 18.9330 5.2007 5.4376 9.9340 23.4874
#
#
#
# Elastic Compliance Matrix: (Units=1/GPa)
#
#
# Indices 1 2 3 4 5 6 
#
# 1 0.015802 -0.000339 0.002006 -0.004154 -0.007355 -0.013917
# 2 -0.000339 0.026228 0.002810 -0.016519 -0.005794 -0.015107
# 3 0.002006 0.002810 0.018653 -0.003232 -0.005182 -0.005717
# 4 -0.004154 -0.016519 -0.003232 0.092167 0.022963 -0.012334
# 5 -0.007355 -0.005794 -0.005182 0.022963 0.042180 -0.009045
# 6 -0.013917 -0.015107 -0.005717 -0.012334 -0.009045 0.078393
#
#
# Mechanical properties :
#
#
# Convention : Reuss Voigt Hill
#
# Bulk Modulus (GPa) = 14.36021 29.78969 22.07495
# Shear Modulus (GPa) = 17.38036 27.27604 22.32820
#
# Velocity S-wave (km/s) = 3.11671 3.90443 3.53259
# Velocity P-wave (km/s) = 4.58015 6.08075 5.38300
#
# Compressibility (1/GPa) = 0.06963688
#
# Stress axis : x y z
#
# Youngs Moduli (GPa) = 63.28169 38.12739 53.61148
#
# Poissons Ratio (x) = 0.01292 -0.10753
# Poissons Ratio (y) = 0.02145 -0.15065
# Poissons Ratio (z) = -0.12693 -0.10714
#
# Static dielectric constant tensor:
#      x y z
#    x 1.665770 0.009640 0.015070 
#    y 0.009640 1.571010 0.013780 
#    z 0.015070 0.013780 1.656010 
# 
# From -- ./inp_files/423954.got.cif
#   From: 2010.05.17/outbox.cif.g08.bks.cpg/sg2_212_cif.got.tgz:423954.got - 2010.06.03 11:33:40.
