data_PCOD9071594
_publ_section_title
;
Structure prediction by ZEFSAII (Michael W. Deem and Ramdas Pophale) SiO2 
 PCOD9071594
Probable space group: P -1
;
_chemical_formula_sum "Si O2"
_cell_formula_units_Z 12
_cell_length_a 4.853995
_cell_length_b 15.379816
_cell_length_c 5.634410
_cell_angle_alpha 68.509256
_cell_angle_beta 90.000000
_cell_angle_gamma 100.627280
_cell_volume 383.620881
_symmetry_space_group_name_H-M "P -1"
_symmetry_group_IT_number 2
_symmetry_cell_setting 'triclinic'
loop_
_space_group_symop_operation_xyz
x,y,z
-x,-y,-z
loop_
_atom_site_type_symbol
_atom_site_label
_atom_site_fract_x
_atom_site_fract_y
_atom_site_fract_z
Si Si1 0.942022 0.841201 0.705564
Si Si2 0.500000 0.750000 0.408459
Si Si3 0.500000 0.000000 0.500000
Si Si4 0.320544 0.551545 0.379305
Si Si5 0.679456 0.948455 0.982394
Si Si6 0.942022 0.341201 0.112034
Si Si7 0.500000 0.500000 0.000000
O O1 0.761898 0.787946 0.542952
O O2 0.756280 0.917408 0.723210
O O3 0.999999 0.750000 0.949475
O O4 0.235017 0.906663 0.577041
O O5 0.473237 0.659387 0.332677
O O6 0.238102 0.712055 0.618843
O O7 0.526761 0.840613 0.151450
O O8 0.547576 0.991755 0.202113
O O9 0.547576 0.491755 0.314378
O O10 0.000000 0.500000 0.500000
O O11 0.243720 0.582592 0.058026
O O12 0.000000 0.000000 0.000000
O O13 0.235017 0.406663 0.109634
#
# Coordination Sequence:
#
# PCOD9071594 Si02
#       7
#     2   2   1   2   2   2   1
#     4  12  27  51  79 121 173 221 289 367 433 519
#     4  12  28  50  80 118 168 228 288 356 438 518
#     4  12  28  50  80 120 164 218 288 362 430 512
#     4  12  27  51  83 117 160 221 286 355 436 519
#     4  12  27  51  83 117 160 221 286 355 436 519
#     4  12  27  51  79 121 173 221 289 367 433 519
#     4  12  28  50  80 120 164 218 288 362 430 512
#
# _framework density 31.280884
#
# number of rings (size 3 to 8) (size 9 to 14) (size 15 to 20)
#    0.000    0.000    0.000   10.000    0.000    9.333 
#    0.000    3.333    0.000    0.000    0.000    0.000 
#    0.000    0.000    0.000    0.000    0.000    0.000 
#
# Total GULP energy -67141.559504 kJ/mol
# GULP energy per Si atom -5595.129959 kJ/mol
# Density = 3.120969 g / cm^3
# Si number density = 31.280884 Si / 1000 Ang^3
#
#
#
# Elastic Constant Matrix: (Units=GPa)
#
#
# Indices 1 2 3 4 5 6 
#
# 1 291.3691 145.6813 103.1083 -22.0009 -22.5572 53.1758
# 2 145.6813 389.9778 129.7081 -32.5835 -7.0132 39.5392
# 3 103.1083 129.7081 297.1098 -15.4309 -25.6332 37.5477
# 4 -22.0009 -32.5835 -15.4309 107.4548 6.9247 5.9702
# 5 -22.5572 -7.0132 -25.6332 6.9247 73.2465 -16.0333
# 6 53.1758 39.5392 37.5477 5.9702 -16.0333 104.3004
#
#
#
# Elastic Compliance Matrix: (Units=1/GPa)
#
#
# Indices 1 2 3 4 5 6 
#
# 1 0.004735 -0.001290 -0.000799 0.000508 0.000665 -0.001564
# 2 -0.001290 0.003481 -0.001032 0.000704 -0.000584 -0.000420
# 3 -0.000799 -0.001032 0.004260 0.000103 0.001008 -0.000586
# 4 0.000508 0.000704 0.000103 0.009769 -0.000941 -0.001267
# 5 0.000665 -0.000584 0.001008 -0.000941 0.014642 0.001824
# 6 -0.001564 -0.000420 -0.000586 -0.001267 0.001824 0.011108
#
#
# Mechanical properties :
#
#
# Convention : Reuss Voigt Hill
#
# Bulk Modulus (GPa) = 160.43478 192.82800 176.63139
# Shear Modulus (GPa) = 88.78472 96.99761 92.89116
#
# Velocity S-wave (km/s) = 5.33336 5.57458 5.45530
# Velocity P-wave (km/s) = 9.45124 10.15935 9.81169
#
# Compressibility (1/GPa) = 0.00623306
#
# Stress axis : x y z
#
# Youngs Moduli (GPa) = 211.18968 287.31164 234.74291
#
# Poissons Ratio (x) = 0.37071 0.18745
# Poissons Ratio (y) = 0.27249 0.24236
# Poissons Ratio (z) = 0.16864 0.29664
#
# Static dielectric constant tensor:
#      x y z
#    x 1.812240 -0.021470 0.008790 
#    y -0.021470 1.859840 -0.291700 
#    z 0.008790 -0.291700 1.294830 
# 
# From -- ./inp_files/5954.got.cif
#   From: 2010.05.17/outbox.cif.g08.bks.cpg/sg2_3_cif.got.tgz:5954.got - 2010.06.03 11:33:40.
