data_PCOD9071245
_publ_section_title
;
Structure prediction by ZEFSAII (Michael W. Deem and Ramdas Pophale) SiO2 
 PCOD9071245
Probable space group: P -1
;
_chemical_formula_sum "Si O2"
_cell_formula_units_Z 15
_cell_length_a 8.489102
_cell_length_b 9.060223
_cell_length_c 21.999495
_cell_angle_alpha 38.431984
_cell_angle_beta 140.176875
_cell_angle_gamma 140.699302
_cell_volume 607.279481
_symmetry_space_group_name_H-M "P -1"
_symmetry_group_IT_number 2
_symmetry_cell_setting 'triclinic'
loop_
_space_group_symop_operation_xyz
x,y,z
-x,-y,-z
loop_
_atom_site_type_symbol
_atom_site_label
_atom_site_fract_x
_atom_site_fract_y
_atom_site_fract_z
Si Si1 0.224227 0.506736 0.896214
Si Si2 0.486179 0.525729 0.283078
Si Si3 0.829514 0.315334 0.953758
Si Si4 0.040501 0.148451 0.842145
Si Si5 0.225174 0.242824 0.524823
Si Si6 0.500000 0.000000 0.500000
Si Si7 0.498194 0.950484 0.232996
Si Si8 0.078243 0.673084 0.381738
O O1 0.009170 0.359867 0.931804
O O2 0.169834 0.392086 0.848621
O O3 0.285579 0.812188 0.818000
O O4 0.500000 0.500000 0.000000
O O5 0.395850 0.590983 0.169013
O O6 0.384861 0.675428 0.253043
O O7 0.813973 0.658778 0.342659
O O8 0.402386 0.227107 0.372973
O O9 0.000000 0.500000 0.000000
O O10 0.780958 0.018184 0.053411
O O11 0.746515 0.983424 0.839981
O O12 0.956528 0.224400 0.728043
O O13 0.500000 0.500000 0.500000
O O14 0.351174 0.094164 0.651388
O O15 0.049414 0.376696 0.461735
O O16 0.000000 0.000000 0.500000
O O17 0.351454 0.823886 0.452141
#
# Coordination Sequence:
#
# PCOD9071245 Si02
#       8
#     2   2   2   2   2   1   2   2
#     4  12  26  46  78 109 154 209 265 335 405 498
#     4  12  29  48  76 113 157 209 261 339 418 490
#     4  12  28  49  77 116 159 206 262 335 415 503
#     4  12  26  52  76 116 156 205 270 333 407 501
#     4  12  28  48  79 121 161 216 281 342 416 496
#     4  12  28  52  74 110 164 200 278 334 424 484
#     4  12  26  47  78 111 154 211 263 336 415 481
#     4  12  29  47  80 115 159 216 268 348 411 505
#
# _framework density 24.700326
#
# number of rings (size 3 to 8) (size 9 to 14) (size 15 to 20)
#    0.000    0.000    5.333    3.200    7.467    2.667 
#    0.000    0.000    0.000    0.000    0.000    0.000 
#    0.000    0.000    0.000    0.000    0.000    0.000 
#
# Total GULP energy -83580.278198 kJ/mol
# GULP energy per Si atom -5572.018547 kJ/mol
# Density = 2.464411 g / cm^3
# Si number density = 24.700326 Si / 1000 Ang^3
#
#
#
# Elastic Constant Matrix: (Units=GPa)
#
#
# Indices 1 2 3 4 5 6 
#
# 1 54.0605 6.6224 29.6468 7.9167 11.4653 -12.2762
# 2 6.6224 123.7636 70.6978 6.5268 -3.3848 -44.5332
# 3 29.6468 70.6978 180.6258 -3.2133 12.6670 -7.0498
# 4 7.9167 6.5268 -3.2133 59.3496 -6.7417 1.2811
# 5 11.4653 -3.3848 12.6670 -6.7417 37.9346 -1.2907
# 6 -12.2762 -44.5332 -7.0498 1.2811 -1.2907 39.0283
#
#
#
# Elastic Compliance Matrix: (Units=1/GPa)
#
#
# Indices 1 2 3 4 5 6 
#
# 1 0.027381 0.009169 -0.007106 -0.006061 -0.005556 0.017807
# 2 0.009169 0.023978 -0.010056 -0.004698 0.002867 0.028677
# 3 -0.007106 -0.010056 0.010368 0.002629 -0.002152 -0.011994
# 4 -0.006061 -0.004698 0.002629 0.018888 0.003643 -0.007291
# 5 -0.005556 0.002867 -0.002152 0.003643 0.029730 0.001998
# 6 0.017807 0.028677 -0.011994 -0.007291 0.001998 0.062084
#
#
# Mechanical properties :
#
#
# Convention : Reuss Voigt Hill
#
# Bulk Modulus (GPa) = 21.86167 63.59821 42.72994
# Shear Modulus (GPa) = 24.55039 44.02801 34.28920
#
# Velocity S-wave (km/s) = 3.15609 4.22653 3.72991
# Velocity P-wave (km/s) = 4.70650 7.04428 5.99054
#
# Compressibility (1/GPa) = 0.04574217
#
# Stress axis : x y z
#
# Youngs Moduli (GPa) = 36.52160 41.70452 96.45013
#
# Poissons Ratio (x) = -0.38239 0.68539
# Poissons Ratio (y) = -0.33487 0.96985
# Poissons Ratio (z) = 0.25953 0.41936
#
# Static dielectric constant tensor:
#      x y z
#    x 1.959880 0.105890 0.002970 
#    y 0.105890 1.939990 0.145580 
#    z 0.002970 0.145580 1.990620 
# 
# From -- ./inp_files/68172.got.cif
#   From: 2010.05.17/outbox.cif.g08.bks.cpg/sg2_35_cif.got.tgz:68172.got - 2010.06.03 11:33:40.
