data_PCOD9071191
_publ_section_title
;
Structure prediction by ZEFSAII (Michael W. Deem and Ramdas Pophale) SiO2 
 PCOD9071191
Probable space group: P -1
;
_chemical_formula_sum "Si O2"
_cell_formula_units_Z 12
_cell_length_a 20.811923
_cell_length_b 5.091698
_cell_length_c 12.550145
_cell_angle_alpha 72.511857
_cell_angle_beta 20.733903
_cell_angle_gamma 75.116209
_cell_volume 447.911714
_symmetry_space_group_name_H-M "P -1"
_symmetry_group_IT_number 2
_symmetry_cell_setting 'triclinic'
loop_
_space_group_symop_operation_xyz
x,y,z
-x,-y,-z
loop_
_atom_site_type_symbol
_atom_site_label
_atom_site_fract_x
_atom_site_fract_y
_atom_site_fract_z
Si Si1 0.839054 0.412506 0.211023
Si Si2 0.494752 0.267985 0.446345
Si Si3 0.830531 0.952599 0.096015
Si Si4 0.800531 0.397453 0.779107
Si Si5 0.606595 0.294340 0.790244
Si Si6 0.862779 0.985794 0.556889
O O1 0.714000 0.643182 0.300420
O O2 0.678844 0.366362 0.553046
O O3 0.849773 0.178411 0.132705
O O4 0.025842 0.294221 0.020916
O O5 0.500000 0.500000 0.500000
O O6 0.379046 0.956586 0.643378
O O7 0.641845 0.341247 0.116601
O O8 0.950876 0.030621 0.794682
O O9 0.832991 0.109308 0.705401
O O10 0.000000 0.500000 0.500000
O O11 0.759376 0.682196 0.747310
O O12 0.786768 0.242851 0.582365
O O13 0.500000 0.500000 0.000000
O O14 0.500000 0.000000 0.000000
#
# Coordination Sequence:
#
# PCOD9071191 Si02
#       6
#     2   2   2   2   2   2
#     4  12  26  47  71 104 143 193 239 291 351 424
#     4  12  26  48  73 104 142 183 237 298 357 430
#     4  12  26  45  75 103 143 188 243 289 358 426
#     4  12  26  46  75 106 144 184 237 296 368 430
#     4  12  28  45  70 104 149 189 241 295 353 424
#     4  12  26  46  72 105 144 189 237 295 360 426
#
# _framework density 26.790997000000001
#
# number of rings (size 3 to 8) (size 9 to 14) (size 15 to 20)
#    0.000    0.000    1.667    8.000    9.333    0.000 
#    0.000    0.000    0.000    0.000    0.000    0.000 
#    0.000    0.000    0.000    0.000    0.000    0.000 
#
# Total GULP energy -66964.019448 kJ/mol
# GULP energy per Si atom -5580.334954 kJ/mol
# Density = 2.673002 g / cm^3
# Si number density = 26.790997 Si / 1000 Ang^3
#
#
#
# Elastic Constant Matrix: (Units=GPa)
#
#
# Indices 1 2 3 4 5 6 
#
# 1 169.4084 84.8179 95.4577 8.0148 -3.4868 37.1523
# 2 84.8179 290.8054 138.1447 37.3741 41.0695 5.6645
# 3 95.4577 138.1447 256.8586 2.3772 42.3864 49.9551
# 4 8.0148 37.3741 2.3772 60.6713 -9.9912 5.0648
# 5 -3.4868 41.0695 42.3864 -9.9912 63.1020 9.4799
# 6 37.1523 5.6645 49.9551 5.0648 9.4799 72.4328
#
#
#
# Elastic Compliance Matrix: (Units=1/GPa)
#
#
# Indices 1 2 3 4 5 6 
#
# 1 0.009094 -0.002341 -0.002114 0.001322 0.004206 -0.003666
# 2 -0.002341 0.006346 -0.002512 -0.004390 -0.003753 0.003235
# 3 -0.002114 -0.002512 0.007088 0.001418 -0.002511 -0.003378
# 4 0.001322 -0.004390 0.001418 0.020184 0.005695 -0.003469
# 5 0.004206 -0.003753 -0.002511 0.005695 0.021615 -0.003359
# 6 -0.003666 0.003235 -0.003378 -0.003469 -0.003359 0.018446
#
#
# Mechanical properties :
#
#
# Convention : Reuss Voigt Hill
#
# Bulk Modulus (GPa) = 116.35765 150.43479 133.39622
# Shear Modulus (GPa) = 50.21460 65.81802 58.01631
#
# Velocity S-wave (km/s) = 4.33403 4.96191 4.65856
# Velocity P-wave (km/s) = 8.28076 9.43931 8.87895
#
# Compressibility (1/GPa) = 0.00859419
#
# Stress axis : x y z
#
# Youngs Moduli (GPa) = 109.96087 157.57614 141.07551
#
# Poissons Ratio (x) = 0.36884 0.29825
# Poissons Ratio (y) = 0.25738 0.35445
# Poissons Ratio (z) = 0.23247 0.39591
#
# Static dielectric constant tensor:
#      x y z
#    x 3.305620 -0.868590 -0.665460 
#    y -0.868590 2.452530 0.414620 
#    z -0.665460 0.414620 2.237950 
# 
# From -- ./inp_files/130786.got.cif
#   From: 2010.05.17/outbox.cif.g08.bks.cpg/sg2_66_cif.got.tgz:130786.got - 2010.06.03 11:33:40.
