data_PCOD9071536
_publ_section_title
;
Structure prediction by ZEFSAII (Michael W. Deem and Ramdas Pophale) SiO2 
 PCOD9071536
Probable space group: P -1
;
_chemical_formula_sum "Si O2"
_cell_formula_units_Z 14
_cell_length_a 9.081046
_cell_length_b 13.238910
_cell_length_c 5.234558
_cell_angle_alpha 119.772045
_cell_angle_beta 88.684972
_cell_angle_gamma 89.001875
_cell_volume 545.805366
_symmetry_space_group_name_H-M "P -1"
_symmetry_group_IT_number 2
_symmetry_cell_setting 'triclinic'
loop_
_space_group_symop_operation_xyz
x,y,z
-x,-y,-z
loop_
_atom_site_type_symbol
_atom_site_label
_atom_site_fract_x
_atom_site_fract_y
_atom_site_fract_z
Si Si1 0.134926 0.414728 0.984628
Si Si2 0.162235 0.973507 0.369268
Si Si3 0.184834 0.214030 0.377018
Si Si4 0.645626 0.430332 0.508628
Si Si5 0.427125 0.895540 0.520485
Si Si6 0.480439 0.213107 0.126947
Si Si7 0.914145 0.270467 0.150291
O O1 0.262858 0.489630 0.202757
O O2 0.044271 0.323166 0.041662
O O3 0.217740 0.332144 0.674136
O O4 0.000000 0.500000 0.000000
O O5 0.258135 0.936902 0.564226
O O6 0.207549 0.091043 0.368950
O O7 0.157066 0.851419 0.066488
O O8 0.000000 0.000000 0.500000
O O9 0.303182 0.216205 0.145246
O O10 0.011594 0.236619 0.352803
O O11 0.500000 0.500000 0.500000
O O12 0.561019 0.312183 0.413318
O O13 0.787153 0.371924 0.279118
O O14 0.476291 0.885701 0.794810
O O15 0.500000 0.000000 0.500000
O O16 0.464074 0.794937 0.177538
#
# Coordination Sequence:
#
# PCOD9071536 Si02
#       7
#     2   2   2   2   2   2   2
#     4  12  28  50  76 110 155 209 268 334 398 475
#     4  12  27  47  83 115 158 206 263 329 406 492
#     4  12  28  49  79 115 154 211 261 333 407 488
#     4  12  29  50  80 113 158 218 272 336 400 483
#     4  12  28  52  78 116 164 211 260 335 401 482
#     4  12  30  50  79 116 163 209 271 326 407 476
#     4  12  27  51  76 113 160 202 271 331 407 477
#
# _framework density 25.650165999999999
#
# number of rings (size 3 to 8) (size 9 to 14) (size 15 to 20)
#    0.000    0.000    5.714    2.143   12.000    0.571 
#    0.000    0.000    0.000    0.000    0.000    0.000 
#    0.000    0.000    0.000    0.000    0.000    0.000 
#
# Total GULP energy -78041.150576 kJ/mol
# GULP energy per Si atom -5574.367898 kJ/mol
# Density = 2.559179 g / cm^3
# Si number density = 25.650166 Si / 1000 Ang^3
#
#
#
# Elastic Constant Matrix: (Units=GPa)
#
#
# Indices 1 2 3 4 5 6 
#
# 1 176.9867 17.9859 20.7817 -2.4894 -6.3065 -37.3624
# 2 17.9859 86.5286 35.6484 6.6407 1.9391 -15.2251
# 3 20.7817 35.6484 100.0814 30.5786 9.6132 -18.4475
# 4 -2.4894 6.6407 30.5786 36.3780 7.1415 9.2435
# 5 -6.3065 1.9391 9.6132 7.1415 45.6963 7.5490
# 6 -37.3624 -15.2251 -18.4475 9.2435 7.5490 47.7757
#
#
#
# Elastic Compliance Matrix: (Units=1/GPa)
#
#
# Indices 1 2 3 4 5 6 
#
# 1 0.006813 -0.000397 -0.000083 -0.000778 0.000223 0.005285
# 2 -0.000397 0.013901 -0.004736 0.000901 -0.000142 0.002138
# 3 -0.000083 -0.004736 0.018818 -0.016812 -0.002690 0.009370
# 4 -0.000778 0.000901 -0.016812 0.045558 -0.001178 -0.015442
# 5 0.000223 -0.000142 -0.002690 -0.001178 0.023394 -0.004378
# 6 0.005285 0.002138 0.009370 -0.015442 -0.004378 0.033043
#
#
# Mechanical properties :
#
#
# Convention : Reuss Voigt Hill
#
# Bulk Modulus (GPa) = 34.36503 56.93650 45.65077
# Shear Modulus (GPa) = 30.92911 45.24872 38.08891
#
# Velocity S-wave (km/s) = 3.47624 4.20464 3.85767
# Velocity P-wave (km/s) = 5.43498 6.76886 6.13826
#
# Compressibility (1/GPa) = 0.02909934
#
# Stress axis : x y z
#
# Youngs Moduli (GPa) = 146.78149 71.93659 53.13951
#
# Poissons Ratio (x) = 0.02859 0.00439
# Poissons Ratio (y) = 0.05834 0.25169
# Poissons Ratio (z) = 0.01212 0.34072
#
# Static dielectric constant tensor:
#      x y z
#    x 1.610460 1.215790 -0.270240 
#    y 1.215790 -1.145140 0.461210 
#    z -0.270240 0.461210 2.262290 
# 
# From -- ./inp_files/40428.got.cif
#   From: 2010.05.17/outbox.cif.g08.bks.cpg/sg2_21_cif.got.tgz:40428.got - 2010.06.03 11:33:40.
