data_PCOD9071938
_publ_section_title
;
Structure prediction by ZEFSAII (Michael W. Deem and Ramdas Pophale) SiO2 
 PCOD9071938
Probable space group: P -1
;
_chemical_formula_sum "Si O2"
_cell_formula_units_Z 16
_cell_length_a 20.438399
_cell_length_b 5.544432
_cell_length_c 7.294615
_cell_angle_alpha 102.011465
_cell_angle_beta 92.423847
_cell_angle_gamma 53.327286
_cell_volume 644.931680
_symmetry_space_group_name_H-M "P -1"
_symmetry_group_IT_number 2
_symmetry_cell_setting 'triclinic'
loop_
_space_group_symop_operation_xyz
x,y,z
-x,-y,-z
loop_
_atom_site_type_symbol
_atom_site_label
_atom_site_fract_x
_atom_site_fract_y
_atom_site_fract_z
Si Si1 0.488939 0.240026 0.884680
Si Si2 0.341697 0.209829 0.320234
Si Si3 0.063675 0.152497 0.896297
Si Si4 0.265970 0.891636 0.351049
Si Si5 0.700860 0.347140 0.109192
Si Si6 0.751949 0.725627 0.051833
Si Si7 0.092893 0.194206 0.511619
Si Si8 0.909545 0.198819 0.818770
O O1 0.560348 0.021408 0.713242
O O2 0.500000 0.500000 0.000000
O O3 0.396128 0.417970 0.835573
O O4 0.500000 0.000000 0.000000
O O5 0.302456 0.567483 0.408174
O O6 0.311085 0.208395 0.108215
O O7 0.310634 0.050070 0.409631
O O8 0.105739 0.156201 0.722595
O O9 0.003912 0.062616 0.817936
O O10 0.000000 0.500000 0.000000
O O11 0.105580 0.980215 0.060771
O O12 0.281815 0.777702 0.121171
O O13 0.169688 0.152499 0.420686
O O14 0.743414 0.517387 0.158755
O O15 0.730801 0.040424 0.174608
O O16 0.840612 0.541755 0.932812
O O17 0.000000 0.500000 0.500000
O O18 0.102708 0.892762 0.392353
#
# Coordination Sequence:
#
# PCOD9071938 Si02
#       8
#     2   2   2   2   2   2   2   2
#     4  12  16  26  44  75 124 155 187 250 308 359
#     4  10  18  30  49  81 116 157 196 249 304 365
#     4  11  26  43  60  92 121 156 219 267 318 376
#     4  10  20  33  50  81 112 153 208 244 297 372
#     4  10  18  30  48  83 115 157 200 245 302 373
#     4  10  19  31  55  76 111 160 197 246 305 360
#     4  12  24  40  67  89 118 173 209 260 325 373
#     4  11  24  43  63  86 123 165 207 270 315 372
#
# _framework density 24.808831999999999
#
# number of rings (size 3 to 8) (size 9 to 14) (size 15 to 20)
#    0.000    1.250    8.750    0.375    5.250    1.000 
#    0.000    0.000    0.000    0.000    0.000    0.000 
#    0.000   11.000    0.000    0.000    0.000    0.000 
#
# Total GULP energy -89403.129052 kJ/mol
# GULP energy per Si atom -5587.695566 kJ/mol
# Density = 2.475237 g / cm^3
# Si number density = 24.808832 Si / 1000 Ang^3
#
#
#
# Elastic Constant Matrix: (Units=GPa)
#
#
# Indices 1 2 3 4 5 6 
#
# 1 111.7226 51.8446 38.2949 15.2324 -44.2214 6.5474
# 2 51.8446 164.2830 27.7331 23.5366 -22.7429 29.6838
# 3 38.2949 27.7331 93.4125 14.0279 -16.8619 0.5043
# 4 15.2324 23.5366 14.0279 30.0648 -6.9269 -12.7682
# 5 -44.2214 -22.7429 -16.8619 -6.9269 44.5861 10.1266
# 6 6.5474 29.6838 0.5043 -12.7682 10.1266 57.3440
#
#
#
# Elastic Compliance Matrix: (Units=1/GPa)
#
#
# Indices 1 2 3 4 5 6 
#
# 1 0.018312 -0.001096 -0.003306 -0.005413 0.016799 -0.005666
# 2 -0.001096 0.009779 -0.000272 -0.009311 0.004108 -0.007733
# 3 -0.003306 -0.000272 0.012959 -0.004233 0.000987 -0.000712
# 4 -0.005413 -0.009311 -0.004233 0.051206 -0.007915 0.018274
# 5 0.016799 0.004108 0.000987 -0.007915 0.043390 -0.013478
# 6 -0.005666 -0.007733 -0.000712 0.018274 -0.013478 0.028544
#
#
# Mechanical properties :
#
#
# Convention : Reuss Voigt Hill
#
# Bulk Modulus (GPa) = 31.54421 67.24035 49.39228
# Shear Modulus (GPa) = 27.15847 43.16868 35.16358
#
# Velocity S-wave (km/s) = 3.31223 4.17592 3.76890
# Velocity P-wave (km/s) = 5.23167 7.10023 6.23633
#
# Compressibility (1/GPa) = 0.03170154
#
# Stress axis : x y z
#
# Youngs Moduli (GPa) = 54.61013 102.26244 77.16558
#
# Poissons Ratio (x) = 0.11205 0.25509
# Poissons Ratio (y) = 0.05984 0.02103
# Poissons Ratio (z) = 0.18053 0.02787
#
# Static dielectric constant tensor:
#      x y z
#    x 2.130860 0.021800 -0.047780 
#    y 0.021800 1.947780 -0.075980 
#    z -0.047780 -0.075980 1.920470 
# 
# From -- ./inp_files/340475.got.cif
#   From: 2010.05.17/outbox.cif.g08.bks.cpg/sg2_171_cif.got.tgz:340475.got - 2010.06.03 11:33:40.
