data_PCOD9071999
_publ_section_title
;
Structure prediction by ZEFSAII (Michael W. Deem and Ramdas Pophale) SiO2 
 PCOD9071999
Probable space group: P -1
;
_chemical_formula_sum "Si O2"
_cell_formula_units_Z 14
_cell_length_a 12.000000
_cell_length_b 12.000000
_cell_length_c 12.000000
_cell_angle_alpha 50.000000
_cell_angle_beta 130.000000
_cell_angle_gamma 90.000000
_cell_volume 720.076857
_symmetry_space_group_name_H-M "P -1"
_symmetry_group_IT_number 2
_symmetry_cell_setting 'triclinic'
loop_
_space_group_symop_operation_xyz
x,y,z
-x,-y,-z
loop_
_atom_site_type_symbol
_atom_site_label
_atom_site_fract_x
_atom_site_fract_y
_atom_site_fract_z
Si Si1 0.137555 0.946014 0.298101
Si Si2 0.865514 0.111261 0.229502
Si Si3 0.826954 0.474955 0.001574
Si Si4 0.783870 0.273737 0.733944
Si Si5 0.483711 0.147456 0.312155
Si Si6 0.305262 0.208983 0.483135
Si Si7 0.546164 0.242135 0.775004
O O1 0.165222 0.811958 0.302870
O O2 0.350541 0.857771 0.530985
O O3 0.026113 0.978712 0.317628
O O4 0.989920 0.170106 0.000560
O O5 0.783139 0.336094 0.039095
O O6 0.678208 0.144397 0.037964
O O7 0.000000 0.000000 0.500000
O O8 0.071962 0.316966 0.274115
O O9 0.727016 0.618802 0.954574
O O10 0.731786 0.635758 0.733545
O O11 0.691167 0.205119 0.792066
O O12 0.623228 0.514540 0.474021
O O13 0.500000 0.000000 0.500000
O O14 0.557748 0.021417 0.326820
O O15 0.423089 0.193236 0.675006
#
# Coordination Sequence:
#
# PCOD9071999 Si02
#       7
#     2   2   2   2   2   2   2
#     4  10  18  33  53  86 114 146 189 238 284 344
#     4  11  23  40  58  77 115 165 202 231 270 340
#     4  10  20  35  57  85 118 149 188 233 291 346
#     4   9  18  30  56  83 117 139 181 247 300 334
#     4  10  19  30  55  87 119 145 175 228 302 354
#     4  10  19  33  58  89 115 145 178 243 305 340
#     4  10  19  34  54  84 113 149 188 236 295 340
#
# _framework density 19.442368999999999
#
# number of rings (size 3 to 8) (size 9 to 14) (size 15 to 20)
#    0.000    2.000    1.429    5.143    4.000    0.000 
#    0.000    3.571    0.000    0.857    0.000    0.000 
#    0.000    0.000    0.000    0.000    0.000    0.000 
#
# Total GULP energy -77957.199589 kJ/mol
# GULP energy per Si atom -5568.371399 kJ/mol
# Density = 1.939812 g / cm^3
# Si number density = 19.442369 Si / 1000 Ang^3
#
#
#
# Elastic Constant Matrix: (Units=GPa)
#
#
# Indices 1 2 3 4 5 6 
#
# 1 21.8259 30.0710 15.7144 -1.9126 9.0939 -17.4394
# 2 30.0710 124.0037 51.3313 19.4435 6.4414 -21.4994
# 3 15.7144 51.3313 63.4480 16.3207 6.0034 -16.8434
# 4 -1.9126 19.4435 16.3207 42.2732 -8.9721 5.3575
# 5 9.0939 6.4414 6.0034 -8.9721 18.3941 2.2955
# 6 -17.4394 -21.4994 -16.8434 5.3575 2.2955 30.7248
#
#
#
# Elastic Compliance Matrix: (Units=1/GPa)
#
#
# Indices 1 2 3 4 5 6 
#
# 1 0.283483 -0.035909 0.034543 -0.045143 -0.182865 0.176248
# 2 -0.035909 0.017879 -0.011297 0.000099 0.017145 -0.015363
# 3 0.034543 -0.011297 0.034944 -0.019672 -0.038763 0.037184
# 4 -0.045143 0.000099 -0.019672 0.047700 0.058085 -0.048995
# 5 -0.182865 0.017145 -0.038763 0.058085 0.196960 -0.137890
# 6 0.176248 -0.015363 0.037184 -0.048995 -0.137890 0.161065
#
#
# Mechanical properties :
#
#
# Convention : Reuss Voigt Hill
#
# Bulk Modulus (GPa) = 3.21564 44.83454 24.02509
# Shear Modulus (GPa) = 5.74041 25.75581 15.74811
#
# Velocity S-wave (km/s) = 1.72016 3.64363 2.84912
# Velocity P-wave (km/s) = 2.36702 6.38840 4.81739
#
# Compressibility (1/GPa) = 0.31097972
#
# Stress axis : x y z
#
# Youngs Moduli (GPa) = 3.52755 55.93179 28.61707
#
# Poissons Ratio (x) = 2.00847 -0.98852
# Poissons Ratio (y) = 0.12667 0.32328
# Poissons Ratio (z) = -0.12185 0.63185
#
# Static dielectric constant tensor:
#      x y z
#    x 1.760820 -0.020180 0.047300 
#    y -0.020180 1.661380 -0.003850 
#    z 0.047300 -0.003850 1.699180 
# 
# From -- ./inp_files/238249.got.cif
#   From: 2010.05.17/outbox.ucp.g08.bks.cvg/sg2_120_cif.got.tgz:238249.got - 2010.06.11 11:32:03.
