data_PCOD9071226
_publ_section_title
;
Structure prediction by ZEFSAII (Michael W. Deem and Ramdas Pophale) SiO2 
 PCOD9071226
Probable space group: P -1
;
_chemical_formula_sum "Si O2"
_cell_formula_units_Z 12
_cell_length_a 9.066762
_cell_length_b 13.498667
_cell_length_c 8.907552
_cell_angle_alpha 95.863900
_cell_angle_beta 148.953849
_cell_angle_gamma 74.949515
_cell_volume 526.875184
_symmetry_space_group_name_H-M "P -1"
_symmetry_group_IT_number 2
_symmetry_cell_setting 'triclinic'
loop_
_space_group_symop_operation_xyz
x,y,z
-x,-y,-z
loop_
_atom_site_type_symbol
_atom_site_label
_atom_site_fract_x
_atom_site_fract_y
_atom_site_fract_z
Si Si1 0.835848 0.933277 0.745878
Si Si2 0.224803 0.253019 0.149492
Si Si3 0.205009 0.067923 0.653309
Si Si4 0.208937 0.740369 0.496619
Si Si5 0.628929 0.513589 0.953833
Si Si6 0.683276 0.555159 0.559646
O O1 0.886503 0.820583 0.849296
O O2 0.824813 0.922729 0.553215
O O3 0.500000 0.000000 0.500000
O O4 0.000000 0.000000 0.000000
O O5 0.558031 0.202227 0.354285
O O6 0.267663 0.350230 0.291298
O O7 0.978399 0.283607 0.808143
O O8 0.041605 0.184115 0.599363
O O9 0.000000 0.000000 0.500000
O O10 0.500000 0.000000 0.000000
O O11 0.421115 0.630442 0.735635
O O12 0.979400 0.502134 0.226292
O O13 0.548688 0.422926 0.776446
O O14 0.500000 0.500000 0.000000
O O15 0.500000 0.500000 0.500000
#
# Coordination Sequence:
#
# PCOD9071226 Si02
#       6
#     2   2   2   2   2   2
#     4  12  26  48  76 108 145 190 255 320 379 453
#     4  12  26  46  77 108 147 201 255 313 378 456
#     4  12  26  48  76 107 148 194 244 314 392 457
#     4  12  26  46  75 108 151 199 252 310 390 452
#     4  12  28  48  75 110 161 204 255 320 380 456
#     4  12  26  49  76 110 154 205 260 308 381 457
#
# _framework density 22.775791000000002
#
# number of rings (size 3 to 8) (size 9 to 14) (size 15 to 20)
#    0.000    0.000    1.667    9.000    2.333    0.000 
#    3.000    0.000    0.000    0.000    0.000    0.000 
#    0.000    0.000    0.000    0.000    0.000    0.000 
#
# Total GULP energy -66915.980602 kJ/mol
# GULP energy per Si atom -5576.331717 kJ/mol
# Density = 2.272395 g / cm^3
# Si number density = 22.775791 Si / 1000 Ang^3
#
#
#
# Elastic Constant Matrix: (Units=GPa)
#
#
# Indices 1 2 3 4 5 6 
#
# 1 203.6799 70.7955 72.3990 3.5619 -19.2900 8.7222
# 2 70.7955 131.0227 47.2165 16.8106 -7.6026 13.3883
# 3 72.3990 47.2165 152.7743 32.2279 15.1453 17.1568
# 4 3.5619 16.8106 32.2279 43.4563 -2.3467 7.0878
# 5 -19.2900 -7.6026 15.1453 -2.3467 52.5975 -3.7059
# 6 8.7222 13.3883 17.1568 7.0878 -3.7059 38.6940
#
#
#
# Elastic Compliance Matrix: (Units=1/GPa)
#
#
# Indices 1 2 3 4 5 6 
#
# 1 0.007576 -0.003021 -0.003834 0.003466 0.003653 0.000753
# 2 -0.003021 0.010172 -0.000986 -0.002628 0.000396 -0.001882
# 3 -0.003834 -0.000986 0.011054 -0.007320 -0.005260 -0.002859
# 4 0.003466 -0.002628 -0.007320 0.029670 0.004206 -0.001658
# 5 0.003653 0.000396 -0.005260 0.004206 0.022304 0.002737
# 6 0.000753 -0.001882 -0.002859 -0.001658 0.002737 0.028159
#
#
# Mechanical properties :
#
#
# Convention : Reuss Voigt Hill
#
# Bulk Modulus (GPa) = 76.22047 96.47766 86.34907
# Shear Modulus (GPa) = 38.76214 46.75395 42.75804
#
# Velocity S-wave (km/s) = 4.12989 4.53569 4.33754
# Velocity P-wave (km/s) = 7.50197 8.35953 7.94233
#
# Compressibility (1/GPa) = 0.01311984
#
# Stress axis : x y z
#
# Youngs Moduli (GPa) = 131.99732 98.30428 90.46604
#
# Poissons Ratio (x) = 0.29701 0.34687
# Poissons Ratio (y) = 0.39881 0.08916
# Poissons Ratio (z) = 0.50611 0.09689
#
# Static dielectric constant tensor:
#      x y z
#    x 1.924000 -0.055380 0.039960 
#    y -0.055380 1.934390 -0.054760 
#    z 0.039960 -0.054760 1.782820 
# 
# From -- ./inp_files/201675.got.cif
#   From: 2010.05.17/outbox.cif.g08.bks.cpg/sg2_101_cif.got.tgz:201675.got - 2010.06.03 11:33:40.
