data_PCOD9071557
_publ_section_title
;
Structure prediction by ZEFSAII (Michael W. Deem and Ramdas Pophale) SiO2 
 PCOD9071557
Probable space group: P -1
;
_chemical_formula_sum "Si O2"
_cell_formula_units_Z 13
_cell_length_a 9.412761
_cell_length_b 15.241341
_cell_length_c 15.119088
_cell_angle_alpha 149.108365
_cell_angle_beta 152.045727
_cell_angle_gamma 37.135333
_cell_volume 515.055598
_symmetry_space_group_name_H-M "P -1"
_symmetry_group_IT_number 2
_symmetry_cell_setting 'triclinic'
loop_
_space_group_symop_operation_xyz
x,y,z
-x,-y,-z
loop_
_atom_site_type_symbol
_atom_site_label
_atom_site_fract_x
_atom_site_fract_y
_atom_site_fract_z
Si Si1 0.725703 0.891553 0.761936
Si Si2 0.730157 0.591872 0.641998
Si Si3 0.158699 0.954582 0.771294
Si Si4 0.000000 0.500000 0.000000
Si Si5 0.884362 0.850373 0.361452
Si Si6 0.073469 0.305249 0.467280
Si Si7 0.251993 0.677879 0.131387
O O1 0.659731 0.784397 0.722509
O O2 0.819911 0.736654 0.609580
O O3 0.455656 0.047017 0.719005
O O4 0.000000 0.000000 0.000000
O O5 0.500000 0.500000 0.500000
O O6 0.820984 0.460401 0.497179
O O7 0.030847 0.600943 0.874518
O O8 0.077887 0.829892 0.540603
O O9 0.079658 0.859586 0.732996
O O10 0.916010 0.126998 0.778934
O O11 0.500000 0.000000 0.000000
O O12 0.217448 0.589210 0.129589
O O13 0.927375 0.680128 0.177993
O O14 0.000000 0.000000 0.500000
O O15 0.399130 0.324554 0.708427
#
# Coordination Sequence:
#
# PCOD9071557 Si02
#       7
#     2   2   2   1   2   2   2
#     4  12  30  52  80 120 165 218 274 353 428 501
#     4  12  30  49  82 124 166 218 285 350 425 520
#     4  12  27  51  82 120 165 227 281 354 429 507
#     4  12  28  48  88 122 164 230 274 354 430 510
#     4  12  28  53  82 119 174 216 285 345 430 510
#     4  12  27  52  81 116 169 218 286 348 426 512
#     4  12  27  48  81 117 166 219 281 344 430 499
#
# _framework density 25.239992999999998
#
# number of rings (size 3 to 8) (size 9 to 14) (size 15 to 20)
#    0.000    0.000    3.077    4.154   15.077    1.231 
#    0.000    0.000    0.000    0.000    0.000    0.000 
#    0.000    0.000    0.000    0.000    0.000    0.000 
#
# Total GULP energy -72396.493386 kJ/mol
# GULP energy per Si atom -5568.961030 kJ/mol
# Density = 2.518255 g / cm^3
# Si number density = 25.239993 Si / 1000 Ang^3
#
#
#
# Elastic Constant Matrix: (Units=GPa)
#
#
# Indices 1 2 3 4 5 6 
#
# 1 153.1516 70.4491 82.3023 4.6575 0.2134 -13.5576
# 2 70.4491 105.1289 67.7220 26.2602 11.5469 -8.3874
# 3 82.3023 67.7220 131.1581 22.4649 19.0146 1.6930
# 4 4.6575 26.2602 22.4649 52.6883 -7.0988 -7.4925
# 5 0.2134 11.5469 19.0146 -7.0988 55.4345 18.1345
# 6 -13.5576 -8.3874 1.6930 -7.4925 18.1345 36.7914
#
#
#
# Elastic Compliance Matrix: (Units=1/GPa)
#
#
# Indices 1 2 3 4 5 6 
#
# 1 0.012784 -0.005856 -0.006394 0.005385 0.002974 0.003301
# 2 -0.005856 0.018575 -0.004103 -0.007155 -0.004316 0.002936
# 3 -0.006394 -0.004103 0.015197 -0.004833 -0.003964 -0.003021
# 4 0.005385 -0.007155 -0.004833 0.025291 0.005357 0.003086
# 5 0.002974 -0.004316 -0.003964 0.005357 0.024464 -0.010673
# 6 0.003301 0.002936 -0.003021 0.003086 -0.010673 0.035094
#
#
# Mechanical properties :
#
#
# Convention : Reuss Voigt Hill
#
# Bulk Modulus (GPa) = 72.20758 92.26505 82.23631
# Shear Modulus (GPa) = 29.63368 40.24719 34.94043
#
# Velocity S-wave (km/s) = 3.43020 3.99755 3.72469
# Velocity P-wave (km/s) = 6.66024 7.61194 7.15194
#
# Compressibility (1/GPa) = 0.01384896
#
# Stress axis : x y z
#
# Youngs Moduli (GPa) = 78.22458 53.83631 65.80315
#
# Poissons Ratio (x) = 0.31526 0.42076
# Poissons Ratio (y) = 0.45808 0.26999
# Poissons Ratio (z) = 0.50019 0.22089
#
# Static dielectric constant tensor:
#      x y z
#    x 1.871850 -0.014510 -0.102550 
#    y -0.014510 2.167290 -0.224510 
#    z -0.102550 -0.224510 2.189520 
# 
# From -- ./inp_files/506010.got.cif
#   From: 2010.05.17/outbox.cif.g08.bks.cpg/sg2_254_cif.got.tgz:506010.got - 2010.06.03 11:33:40.
