data_PCOD9071219
_publ_section_title
;
Structure prediction by ZEFSAII (Michael W. Deem and Ramdas Pophale) SiO2 
 PCOD9071219
Probable space group: P -1
;
_chemical_formula_sum "Si O2"
_cell_formula_units_Z 13
_cell_length_a 19.713551
_cell_length_b 17.189444
_cell_length_c 14.222878
_cell_angle_alpha 157.548576
_cell_angle_beta 19.024416
_cell_angle_gamma 157.807198
_cell_volume 544.705563
_symmetry_space_group_name_H-M "P -1"
_symmetry_group_IT_number 2
_symmetry_cell_setting 'triclinic'
loop_
_space_group_symop_operation_xyz
x,y,z
-x,-y,-z
loop_
_atom_site_type_symbol
_atom_site_label
_atom_site_fract_x
_atom_site_fract_y
_atom_site_fract_z
Si Si1 0.586252 0.550748 0.839256
Si Si2 0.926276 0.012753 0.911716
Si Si3 0.500000 0.500000 0.500000
Si Si4 0.229313 0.734066 0.446879
Si Si5 0.593832 0.902077 0.542098
Si Si6 0.232827 0.719243 0.968488
Si Si7 0.055194 0.063031 0.607553
O O1 0.436193 0.663199 0.111567
O O2 0.500000 0.500000 0.000000
O O3 0.838182 0.745209 0.734615
O O4 0.538493 0.319977 0.594335
O O5 0.192657 0.124020 0.716254
O O6 0.883153 0.057187 0.909273
O O7 0.794642 0.102773 0.258711
O O8 0.396139 0.638994 0.722337
O O9 0.244473 0.310294 0.636944
O O10 0.000000 0.500000 0.500000
O O11 0.288077 0.877250 0.432380
O O12 0.396551 0.879514 0.850025
O O13 0.000000 0.500000 0.000000
O O14 0.147113 0.880975 0.317026
O O15 0.000000 0.000000 0.500000
#
# Coordination Sequence:
#
# PCOD9071219 Si02
#       7
#     2   2   1   2   2   2   2
#     4  12  26  46  73 108 151 198 251 308 378 461
#     4  12  26  49  74 111 152 201 252 313 387 463
#     4  12  26  50  74 106 152 208 254 316 392 448
#     4  12  26  48  79 111 154 201 249 316 389 461
#     4  12  27  49  75 113 155 197 256 319 385 465
#     4  12  27  51  80 114 157 205 265 324 389 468
#     4  12  28  49  77 111 154 203 264 321 386 464
#
# _framework density 23.866105000000001
#
# number of rings (size 3 to 8) (size 9 to 14) (size 15 to 20)
#    0.000    0.000    6.154    3.231    2.154    1.231 
#    2.769    0.000    0.000    0.000    0.000    0.000 
#    0.000    0.000    0.000    0.000    0.000    0.000 
#
# Total GULP energy -72401.713891 kJ/mol
# GULP energy per Si atom -5569.362607 kJ/mol
# Density = 2.381179 g / cm^3
# Si number density = 23.866105 Si / 1000 Ang^3
#
#
#
# Elastic Constant Matrix: (Units=GPa)
#
#
# Indices 1 2 3 4 5 6 
#
# 1 109.0096 22.0564 30.2248 -1.1053 -3.2142 -33.5173
# 2 22.0564 173.3173 10.1527 -0.9305 20.8998 -22.1036
# 3 30.2248 10.1527 68.9158 -8.5638 0.6274 -17.8826
# 4 -1.1053 -0.9305 -8.5638 33.0256 -3.5981 -0.0345
# 5 -3.2142 20.8998 0.6274 -3.5981 32.9516 -1.8138
# 6 -33.5173 -22.1036 -17.8826 -0.0345 -1.8138 43.8339
#
#
#
# Elastic Compliance Matrix: (Units=1/GPa)
#
#
# Indices 1 2 3 4 5 6 
#
# 1 0.012837 -0.000651 -0.003466 -0.000244 0.002153 0.008162
# 2 -0.000651 0.006702 0.000004 -0.000286 -0.004197 0.002710
# 3 -0.003466 0.000004 0.017787 0.004509 0.000067 0.004614
# 4 -0.000244 -0.000286 0.004509 0.031831 0.003640 0.001684
# 5 0.002153 -0.004197 0.000067 0.003640 0.033668 0.000954
# 6 0.008162 0.002710 0.004614 0.001684 0.000954 0.032345
#
#
# Mechanical properties :
#
#
# Convention : Reuss Voigt Hill
#
# Bulk Modulus (GPa) = 34.36348 52.90117 43.63232
# Shear Modulus (GPa) = 32.65927 41.21615 36.93771
#
# Velocity S-wave (km/s) = 3.70325 4.16020 3.93836
# Velocity P-wave (km/s) = 5.71972 6.72980 6.24521
#
# Compressibility (1/GPa) = 0.02910066
#
# Stress axis : x y z
#
# Youngs Moduli (GPa) = 77.90041 149.19851 56.22070
#
# Poissons Ratio (x) = 0.09707 0.19486
# Poissons Ratio (y) = 0.05068 -0.00021
# Poissons Ratio (z) = 0.27001 -0.00056
#
# Static dielectric constant tensor:
#      x y z
#    x 2.032990 -0.009420 -0.009870 
#    y -0.009420 1.912290 -0.013010 
#    z -0.009870 -0.013010 4.142860 
# 
# From -- ./inp_files/541581.got.cif
#   From: 2010.05.17/outbox.cif.g08.bks.cpg/sg2_271_cif.got.tgz:541581.got - 2010.06.03 11:33:40.
