data_PCOD9071625
_publ_section_title
;
Structure prediction by ZEFSAII (Michael W. Deem and Ramdas Pophale) SiO2 
 PCOD9071625
Probable space group: P -1
;
_chemical_formula_sum "Si O2"
_cell_formula_units_Z 8
_cell_length_a 13.342889
_cell_length_b 5.201627
_cell_length_c 6.836935
_cell_angle_alpha 80.263070
_cell_angle_beta 49.378198
_cell_angle_gamma 106.298831
_cell_volume 302.704648
_symmetry_space_group_name_H-M "P -1"
_symmetry_group_IT_number 2
_symmetry_cell_setting 'triclinic'
loop_
_space_group_symop_operation_xyz
x,y,z
-x,-y,-z
loop_
_atom_site_type_symbol
_atom_site_label
_atom_site_fract_x
_atom_site_fract_y
_atom_site_fract_z
Si Si1 0.185902 0.700574 0.189686
Si Si2 0.326982 0.402170 0.280693
Si Si3 0.499780 0.779691 0.356735
Si Si4 0.895510 0.148406 0.132851
O O1 0.237850 0.462175 0.214409
O O2 0.000000 0.500000 0.500000
O O3 0.182005 0.840677 0.968393
O O4 0.350337 0.010090 0.997719
O O5 0.352232 0.608538 0.418864
O O6 0.225307 0.054557 0.523259
O O7 0.500000 0.500000 0.000000
O O8 0.500000 0.500000 0.500000
O O9 0.500000 0.000000 0.500000
O O10 0.000000 0.500000 0.000000
O O11 0.000000 0.000000 0.000000
#
# Coordination Sequence:
#
# PCOD9071625 Si02
#       4
#     2   2   2   2
#     4  12  28  50  85 120 169 220 283 340 429 497
#     4  12  29  54  87 125 169 224 286 347 424 507
#     4  12  28  53  82 119 168 220 274 348 417 493
#     4  12  30  53  82 124 173 215 279 358 421 497
#
# _framework density 26.428402999999999
#
# number of rings (size 3 to 8) (size 9 to 14) (size 15 to 20)
#    0.000    0.000    5.000    2.250    7.000    3.000 
#    0.000    0.000    0.000    0.000    0.000    0.000 
#    0.000    0.000    0.000    0.000    0.000    0.000 
#
# Total GULP energy -44680.164628 kJ/mol
# GULP energy per Si atom -5585.020578 kJ/mol
# Density = 2.636825 g / cm^3
# Si number density = 26.428403 Si / 1000 Ang^3
#
#
#
# Elastic Constant Matrix: (Units=GPa)
#
#
# Indices 1 2 3 4 5 6 
#
# 1 162.1154 45.5863 44.0566 10.7591 0.6685 -65.0675
# 2 45.5863 186.3497 77.1241 -23.8347 -3.4553 -24.6735
# 3 44.0566 77.1241 261.7127 -38.9863 -9.7851 -42.7542
# 4 10.7591 -23.8347 -38.9863 65.1027 -4.7368 5.6350
# 5 0.6685 -3.4553 -9.7851 -4.7368 59.1823 -14.1502
# 6 -65.0675 -24.6735 -42.7542 5.6350 -14.1502 64.6634
#
#
#
# Elastic Compliance Matrix: (Units=1/GPa)
#
#
# Indices 1 2 3 4 5 6 
#
# 1 0.011608 -0.001679 0.000074 -0.003347 0.002360 0.011896
# 2 -0.001679 0.006574 -0.001398 0.001885 0.000272 -0.000210
# 3 0.000074 -0.001398 0.005152 0.002416 0.001707 0.003111
# 4 -0.003347 0.001885 0.002416 0.018359 0.001459 -0.002331
# 5 0.002360 0.000272 0.001707 0.001459 0.019117 0.007663
# 6 0.011896 -0.000210 0.003111 -0.002331 0.007663 0.031292
#
#
# Mechanical properties :
#
#
# Convention : Reuss Voigt Hill
#
# Bulk Modulus (GPa) = 57.71221 104.85688 81.28454
# Shear Modulus (GPa) = 48.13039 67.35040 57.74039
#
# Velocity S-wave (km/s) = 4.27214 5.05365 4.67924
# Velocity P-wave (km/s) = 6.79849 8.59154 7.74706
#
# Compressibility (1/GPa) = 0.01732736
#
# Stress axis : x y z
#
# Youngs Moduli (GPa) = 86.14897 152.11576 194.08382
#
# Poissons Ratio (x) = 0.25546 -0.01435
# Poissons Ratio (y) = 0.14468 0.27132
# Poissons Ratio (z) = -0.00637 0.21265
#
# Static dielectric constant tensor:
#      x y z
#    x -1.754160 -0.940860 -0.047550 
#    y -0.940860 2.494690 0.205170 
#    z -0.047550 0.205170 2.162460 
# 
# From -- ./inp_files/286270.got.cif
#   From: 2010.05.17/outbox.cif.g08.bks.cpg/sg2_144_cif.got.tgz:286270.got - 2010.06.03 11:33:40.
