data_PCOD9071568
_publ_section_title
;
Structure prediction by ZEFSAII (Michael W. Deem and Ramdas Pophale) SiO2 
 PCOD9071568
Probable space group: P -1
;
_chemical_formula_sum "Si O2"
_cell_formula_units_Z 9
_cell_length_a 8.470253
_cell_length_b 16.194512
_cell_length_c 5.109653
_cell_angle_alpha 123.803660
_cell_angle_beta 71.573536
_cell_angle_gamma 142.139447
_cell_volume 346.871526
_symmetry_space_group_name_H-M "P -1"
_symmetry_group_IT_number 2
_symmetry_cell_setting 'triclinic'
loop_
_space_group_symop_operation_xyz
x,y,z
-x,-y,-z
loop_
_atom_site_type_symbol
_atom_site_label
_atom_site_fract_x
_atom_site_fract_y
_atom_site_fract_z
Si Si1 0.000000 0.500000 0.000000
Si Si2 0.200511 0.375600 0.829719
Si Si3 0.553750 0.785417 0.401681
Si Si4 0.679606 0.060040 0.764478
Si Si5 0.219173 0.187217 0.172880
O O1 0.261511 0.680231 0.284475
O O2 0.841547 0.532689 0.088871
O O3 0.150769 0.264909 0.447447
O O4 0.957528 0.246517 0.931999
O O5 0.500000 0.500000 0.000000
O O6 0.552270 0.744484 0.625342
O O7 0.729951 0.966127 0.595626
O O8 0.682707 0.771213 0.099866
O O9 0.500000 0.000000 0.500000
O O10 0.500000 0.000000 0.000000
O O11 0.000000 0.000000 0.000000
#
# Coordination Sequence:
#
# PCOD9071568 Si02
#       5
#     1   2   2   2   2
#     4  12  28  52  80 128 174 224 284 354 444 504
#     4  12  28  54  87 129 173 228 287 364 431 518
#     4  12  27  49  81 119 166 222 279 351 426 514
#     4  12  27  50  84 122 166 225 283 346 426 517
#     4  12  27  50  83 120 161 218 287 346 423 506
#
# _framework density 25.946206
#
# number of rings (size 3 to 8) (size 9 to 14) (size 15 to 20)
#    0.000    0.000    6.667    2.000    0.000    3.556 
#    0.000    0.000    0.000    0.000    0.000    0.000 
#    0.000    0.000    0.000    0.000    0.000    0.000 
#
# Total GULP energy -50218.995361 kJ/mol
# GULP energy per Si atom -5579.888373 kJ/mol
# Density = 2.588715 g / cm^3
# Si number density = 25.946206 Si / 1000 Ang^3
#
#
#
# Elastic Constant Matrix: (Units=GPa)
#
#
# Indices 1 2 3 4 5 6 
#
# 1 200.1005 55.0593 49.9953 14.2306 -1.8040 7.5483
# 2 55.0593 129.7578 58.5259 26.1002 0.7366 22.2981
# 3 49.9953 58.5259 116.6887 -4.9433 -18.5264 3.8035
# 4 14.2306 26.1002 -4.9433 51.7533 -3.0362 1.4640
# 5 -1.8040 0.7366 -18.5264 -3.0362 67.2636 25.9030
# 6 7.5483 22.2981 3.8035 1.4640 25.9030 55.6619
#
#
#
# Elastic Compliance Matrix: (Units=1/GPa)
#
#
# Indices 1 2 3 4 5 6 
#
# 1 0.005953 -0.001440 -0.001956 -0.001130 -0.000473 0.000153
# 2 -0.001440 0.013242 -0.006268 -0.006796 -0.000588 -0.004228
# 3 -0.001956 -0.006268 0.013412 0.005219 0.003999 -0.000139
# 4 -0.001130 -0.006796 0.005219 0.023664 0.002217 0.000865
# 5 -0.000473 -0.000588 0.003999 0.002217 0.019584 -0.009145
# 6 0.000153 -0.004228 -0.000139 0.000865 -0.009145 0.023881
#
#
# Mechanical properties :
#
#
# Convention : Reuss Voigt Hill
#
# Bulk Modulus (GPa) = 75.31083 85.96756 80.63919
# Shear Modulus (GPa) = 40.48884 53.80018 47.14451
#
# Velocity S-wave (km/s) = 3.95459 4.55854 4.26726
# Velocity P-wave (km/s) = 7.06686 7.80461 7.44488
#
# Compressibility (1/GPa) = 0.01327830
#
# Stress axis : x y z
#
# Youngs Moduli (GPa) = 167.98911 75.51916 74.55886
#
# Poissons Ratio (x) = 0.10875 0.14585
# Poissons Ratio (y) = 0.24191 0.46733
# Poissons Ratio (z) = 0.32863 0.47335
#
# Static dielectric constant tensor:
#      x y z
#    x 1.997280 -0.019220 0.021960 
#    y -0.019220 1.994520 0.000360 
#    z 0.021960 0.000360 2.001620 
# 
# From -- ./inp_files/41387.got.cif
#   From: 2010.05.17/outbox.cif.g08.bks.cpg/sg2_21_cif.got.tgz:41387.got - 2010.06.03 11:33:40.
