data_PCOD9071474
_publ_section_title
;
Structure prediction by ZEFSAII (Michael W. Deem and Ramdas Pophale) SiO2 
 PCOD9071474
Probable space group: P -1
;
_chemical_formula_sum "Si O2"
_cell_formula_units_Z 13
_cell_length_a 8.947860
_cell_length_b 9.212710
_cell_length_c 11.129095
_cell_angle_alpha 75.027437
_cell_angle_beta 72.103713
_cell_angle_gamma 33.745211
_cell_volume 484.959853
_symmetry_space_group_name_H-M "P -1"
_symmetry_group_IT_number 2
_symmetry_cell_setting 'triclinic'
loop_
_space_group_symop_operation_xyz
x,y,z
-x,-y,-z
loop_
_atom_site_type_symbol
_atom_site_label
_atom_site_fract_x
_atom_site_fract_y
_atom_site_fract_z
Si Si1 0.037813 0.648238 0.981871
Si Si2 0.115700 0.174799 0.272511
Si Si3 0.398544 0.986851 0.800071
Si Si4 0.500000 0.500000 0.000000
Si Si5 0.211738 0.381435 0.576295
Si Si6 0.698369 0.284695 0.721457
Si Si7 0.665755 0.165990 0.363500
O O1 0.049752 0.710967 0.834196
O O2 0.278599 0.535072 0.022267
O O3 0.760098 0.912396 0.060038
O O4 0.000000 0.500000 0.000000
O O5 0.912195 0.371774 0.387156
O O6 0.309674 0.168384 0.218536
O O7 0.311921 0.877876 0.288431
O O8 0.237063 0.233598 0.703264
O O9 0.401726 0.834081 0.755403
O O10 0.652354 0.337418 0.865040
O O11 0.506888 0.176747 0.487613
O O12 0.000000 0.500000 0.500000
O O13 0.486963 0.557003 0.647674
O O14 0.010731 0.084443 0.654116
#
# Coordination Sequence:
#
# PCOD9071474 Si02
#       7
#     2   2   2   1   2   2   2
#     4  12  26  51  86 126 170 222 287 358 437 513
#     4  12  29  50  83 124 167 220 286 356 424 518
#     4  12  26  50  83 118 163 220 286 350 424 508
#     4  12  28  50  86 118 176 218 282 348 438 508
#     4  12  27  51  84 120 165 223 290 349 422 519
#     4  12  30  51  79 123 168 217 277 353 433 506
#     4  12  28  50  82 116 163 224 277 339 425 513
#
# _framework density 26.806341
#
# number of rings (size 3 to 8) (size 9 to 14) (size 15 to 20)
#    0.000    0.000    4.615    3.692    8.615    2.462 
#    0.000    0.000    0.000    0.000    0.000    0.000 
#    0.000    0.000    0.000    0.000    0.000    0.000 
#
# Total GULP energy -72744.097695 kJ/mol
# GULP energy per Si atom -5595.699823 kJ/mol
# Density = 2.674533 g / cm^3
# Si number density = 26.806341 Si / 1000 Ang^3
#
#
#
# Elastic Constant Matrix: (Units=GPa)
#
#
# Indices 1 2 3 4 5 6 
#
# 1 157.9445 32.7132 9.0156 22.0967 1.2303 -11.0079
# 2 32.7132 118.8318 40.2662 18.8058 -0.9107 12.5440
# 3 9.0156 40.2662 103.0010 41.8428 11.3945 -16.3864
# 4 22.0967 18.8058 41.8428 53.9206 -9.7919 1.2911
# 5 1.2303 -0.9107 11.3945 -9.7919 57.7262 17.1368
# 6 -11.0079 12.5440 -16.3864 1.2911 17.1368 48.0673
#
#
#
# Elastic Compliance Matrix: (Units=1/GPa)
#
#
# Indices 1 2 3 4 5 6 
#
# 1 0.008185 -0.003492 0.004832 -0.006784 -0.004143 0.006092
# 2 -0.003492 0.012546 -0.008734 0.005066 0.005580 -0.009177
# 3 0.004832 -0.008734 0.026347 -0.022477 -0.014656 0.018197
# 4 -0.006784 0.005066 -0.022477 0.040464 0.016749 -0.017596
# 5 -0.004143 0.005580 -0.014656 0.016749 0.028590 -0.018044
# 6 0.006092 -0.009177 0.018197 -0.017596 -0.018044 0.037703
#
#
# Mechanical properties :
#
#
# Convention : Reuss Voigt Hill
#
# Bulk Modulus (GPa) = 30.96908 60.41858 45.69383
# Shear Modulus (GPa) = 27.87286 51.79497 39.83392
#
# Velocity S-wave (km/s) = 3.22807 4.40044 3.85903
# Velocity P-wave (km/s) = 5.04697 6.95746 6.07775
#
# Compressibility (1/GPa) = 0.03229027
#
# Stress axis : x y z
#
# Youngs Moduli (GPa) = 122.17962 79.70841 37.95448
#
# Poissons Ratio (x) = 0.27832 -0.18340
# Poissons Ratio (y) = 0.42661 0.33150
# Poissons Ratio (z) = -0.59037 0.69618
#
# Static dielectric constant tensor:
#      x y z
#    x 2.072250 -0.058610 -0.028410 
#    y -0.058610 2.310080 -0.015660 
#    z -0.028410 -0.015660 2.101720 
# 
# From -- ./inp_files/372550.got.cif
#   From: 2010.05.17/outbox.cif.g08.bks.cpg/sg2_187_cif.got.tgz:372550.got - 2010.06.03 11:33:40.
