data_PCOD9071129
_publ_section_title
;
Structure prediction by ZEFSAII (Michael W. Deem and Ramdas Pophale) SiO2 
 PCOD9071129
Probable space group: P -1
;
_chemical_formula_sum "Si O2"
_cell_formula_units_Z 14
_cell_length_a 16.814498
_cell_length_b 11.132094
_cell_length_c 9.338300
_cell_angle_alpha 108.870286
_cell_angle_beta 110.716634
_cell_angle_gamma 19.625883
_cell_volume 548.869457
_symmetry_space_group_name_H-M "P -1"
_symmetry_group_IT_number 2
_symmetry_cell_setting 'triclinic'
loop_
_space_group_symop_operation_xyz
x,y,z
-x,-y,-z
loop_
_atom_site_type_symbol
_atom_site_label
_atom_site_fract_x
_atom_site_fract_y
_atom_site_fract_z
Si Si1 0.533104 0.405600 0.643535
Si Si2 0.760348 0.617157 0.446059
Si Si3 0.198765 0.730108 0.754624
Si Si4 0.001599 0.360040 0.241302
Si Si5 0.046387 0.565174 0.215415
Si Si6 0.789990 0.480051 0.911291
Si Si7 0.483698 0.703420 0.929934
O O1 0.500000 0.500000 0.500000
O O2 0.300575 0.657712 0.651799
O O3 0.585754 0.450564 0.797713
O O4 0.759714 0.000166 0.655643
O O5 0.810998 0.405072 0.338344
O O6 0.802669 0.651120 0.351382
O O7 0.943277 0.387468 0.603531
O O8 0.500000 0.000000 0.500000
O O9 0.396728 0.470572 0.906238
O O10 0.962364 0.132306 0.815542
O O11 0.060943 0.397304 0.195182
O O12 0.919058 0.361918 0.085221
O O13 0.240251 0.364817 0.162935
O O14 0.797218 0.929981 0.115181
O O15 0.553866 0.738714 0.915176
#
# Coordination Sequence:
#
# PCOD9071129 Si02
#       7
#     2   2   2   2   2   2   2
#     4  12  26  46  83 120 155 206 262 331 393 467
#     4  12  29  51  77 112 162 214 256 323 404 466
#     4  12  25  52  82 115 163 204 267 329 391 471
#     4  12  26  52  78 114 165 204 261 328 400 470
#     4  12  29  48  79 119 160 206 261 323 394 474
#     4  12  26  49  85 119 152 208 267 324 396 468
#     4  12  25  50  82 116 158 202 268 323 389 471
#
# _framework density 25.506976000000002
#
# number of rings (size 3 to 8) (size 9 to 14) (size 15 to 20)
#    0.000    0.000    4.286    5.143    4.000    2.286 
#    0.000    0.000    0.000    0.000    0.000    0.000 
#    0.000    0.000    0.000    0.000    0.000    0.000 
#
# Total GULP energy -78561.826482 kJ/mol
# GULP energy per Si atom -5611.559034 kJ/mol
# Density = 2.544892 g / cm^3
# Si number density = 25.506976 Si / 1000 Ang^3
#
#
#
# Elastic Constant Matrix: (Units=GPa)
#
#
# Indices 1 2 3 4 5 6 
#
# 1 126.2765 4.6281 14.5459 17.3510 -11.5326 -0.4271
# 2 4.6281 73.4264 19.9534 15.7092 -1.1431 0.7318
# 3 14.5459 19.9534 129.7215 18.4605 4.6022 4.1449
# 4 17.3510 15.7092 18.4605 34.0610 -3.8202 0.1393
# 5 -11.5326 -1.1431 4.6022 -3.8202 59.5880 5.3353
# 6 -0.4271 0.7318 4.1449 0.1393 5.3353 27.8582
#
#
#
# Elastic Compliance Matrix: (Units=1/GPa)
#
#
# Indices 1 2 3 4 5 6 
#
# 1 0.008671 0.000516 -0.000501 -0.004219 0.001462 -0.000065
# 2 0.000516 0.015395 -0.001494 -0.006541 0.000106 -0.000162
# 3 -0.000501 -0.001494 0.008605 -0.003821 -0.000941 -0.001049
# 4 -0.004219 -0.006541 -0.003821 0.036786 0.001696 0.000167
# 5 0.001462 0.000106 -0.000941 0.001696 0.017536 -0.003207
# 6 -0.000065 -0.000162 -0.001049 0.000167 -0.003207 0.036669
#
#
# Mechanical properties :
#
#
# Convention : Reuss Voigt Hill
#
# Bulk Modulus (GPa) = 33.65441 45.29768 39.47604
# Shear Modulus (GPa) = 36.62356 43.65458 40.13907
#
# Velocity S-wave (km/s) = 3.79334 4.14149 3.97123
# Velocity P-wave (km/s) = 5.69287 6.37705 6.04464
#
# Compressibility (1/GPa) = 0.02971379
#
# Stress axis : x y z
#
# Youngs Moduli (GPa) = 115.32726 64.95553 116.20531
#
# Poissons Ratio (x) = -0.03350 0.05822
# Poissons Ratio (y) = -0.05947 0.17356
# Poissons Ratio (z) = 0.05778 0.09702
#
# Static dielectric constant tensor:
#      x y z
#    x 2.022820 0.013630 0.002360 
#    y 0.013630 2.077270 0.033320 
#    z 0.002360 0.033320 1.941390 
# 
# From -- ./inp_files/333536.got.cif
#   From: 2010.05.17/outbox.cif.g08.bks.cpg/sg2_167_cif.got.tgz:333536.got - 2010.06.03 11:33:40.
