data_PCOD9071315
_publ_section_title
;
Structure prediction by ZEFSAII (Michael W. Deem and Ramdas Pophale) SiO2 
 PCOD9071315
Probable space group: P -1
;
_chemical_formula_sum "Si O2"
_cell_formula_units_Z 16
_cell_length_a 9.031378
_cell_length_b 14.941528
_cell_length_c 9.189975
_cell_angle_alpha 68.737500
_cell_angle_beta 99.062174
_cell_angle_gamma 140.806609
_cell_volume 714.082846
_symmetry_space_group_name_H-M "P -1"
_symmetry_group_IT_number 2
_symmetry_cell_setting 'triclinic'
loop_
_space_group_symop_operation_xyz
x,y,z
-x,-y,-z
loop_
_atom_site_type_symbol
_atom_site_label
_atom_site_fract_x
_atom_site_fract_y
_atom_site_fract_z
Si Si1 0.554034 0.995171 0.850384
Si Si2 0.141504 0.280503 0.174651
Si Si3 0.651718 0.005793 0.417158
Si Si4 0.815306 0.496765 0.469984
Si Si5 0.417453 0.575982 0.221564
Si Si6 0.572647 0.760352 0.653874
Si Si7 0.721555 0.333465 0.060828
Si Si8 0.078258 0.258917 0.828034
O O1 0.517062 0.072857 0.704176
O O2 0.365709 0.819375 0.878180
O O3 0.824846 0.091755 0.831475
O O4 0.500000 0.000000 0.000000
O O5 0.318546 0.451073 0.160221
O O6 0.256806 0.235292 0.256781
O O7 0.905854 0.169010 0.303378
O O8 0.091010 0.264471 0.003586
O O9 0.500000 0.000000 0.500000
O O10 0.687178 0.920466 0.544281
O O11 0.752159 0.505623 0.615166
O O12 0.561267 0.339458 0.453667
O O13 0.909484 0.627664 0.301481
O O14 0.000000 0.500000 0.500000
O O15 0.689482 0.680466 0.232006
O O16 0.406085 0.672818 0.085063
O O17 0.370425 0.676743 0.792410
O O18 0.000000 0.500000 0.000000
#
# Coordination Sequence:
#
# PCOD9071315 Si02
#       8
#     2   2   2   2   2   2   2   2
#     4  12  28  47  75 113 152 199 247 317 377 441
#     4  12  26  50  75 107 153 201 251 311 375 459
#     4  12  27  48  74 107 149 196 250 308 376 443
#     4  12  28  45  74 113 151 195 253 318 372 443
#     4  12  27  46  77 110 150 200 250 312 378 446
#     4  12  26  48  73 108 148 200 251 307 383 445
#     4  12  27  47  77 112 150 197 254 304 378 457
#     4  12  26  50  75 106 154 195 251 307 381 447
#
# _framework density 22.406362999999999
#
# number of rings (size 3 to 8) (size 9 to 14) (size 15 to 20)
#    0.000    0.000    5.000    4.125    8.750    0.500 
#    2.250    0.000    0.000    0.000    0.000    0.000 
#    0.000    0.000    0.000    0.000    0.000    0.000 
#
# Total GULP energy -89541.092047 kJ/mol
# GULP energy per Si atom -5596.318253 kJ/mol
# Density = 2.235536 g / cm^3
# Si number density = 22.406363 Si / 1000 Ang^3
#
#
#
# Elastic Constant Matrix: (Units=GPa)
#
#
# Indices 1 2 3 4 5 6 
#
# 1 129.2271 35.4516 44.7305 -19.0388 16.3494 9.1364
# 2 35.4516 80.4256 8.4130 -16.5200 2.6017 10.6035
# 3 44.7305 8.4130 121.5291 -7.3822 15.5349 -9.0662
# 4 -19.0388 -16.5200 -7.3822 35.0169 -3.5803 -5.0881
# 5 16.3494 2.6017 15.5349 -3.5803 52.7124 -3.2941
# 6 9.1364 10.6035 -9.0662 -5.0881 -3.2941 37.3931
#
#
#
# Elastic Compliance Matrix: (Units=1/GPa)
#
#
# Indices 1 2 3 4 5 6 
#
# 1 0.010717 -0.003390 -0.003433 0.002961 -0.002086 -0.002270
# 2 -0.003390 0.015290 0.000243 0.005066 0.000399 -0.002724
# 3 -0.003433 0.000243 0.009957 0.000633 -0.001643 0.003125
# 4 0.002961 0.005066 0.000633 0.033178 0.001061 0.002601
# 5 -0.002086 0.000399 -0.001643 0.001061 0.020275 0.001929
# 6 -0.002270 -0.002724 0.003125 0.002601 0.001929 0.029352
#
#
# Mechanical properties :
#
#
# Convention : Reuss Voigt Hill
#
# Bulk Modulus (GPa) = 43.85274 56.48577 50.16926
# Shear Modulus (GPa) = 35.83476 41.19692 38.51584
#
# Velocity S-wave (km/s) = 4.00348 4.29257 4.15054
# Velocity P-wave (km/s) = 6.40191 7.05923 6.73859
#
# Compressibility (1/GPa) = 0.02280359
#
# Stress axis : x y z
#
# Youngs Moduli (GPa) = 93.30808 65.40365 100.43320
#
# Poissons Ratio (x) = 0.22172 0.34477
# Poissons Ratio (y) = 0.31632 -0.02439
# Poissons Ratio (z) = 0.32031 -0.01588
#
# Static dielectric constant tensor:
#      x y z
#    x 1.833390 0.016450 0.012000 
#    y 0.016450 1.879220 0.023440 
#    z 0.012000 0.023440 1.800260 
# 
# From -- ./inp_files/206466.got.cif
#   From: 2010.05.17/outbox.cif.g08.bks.cpg/sg2_104_cif.got.tgz:206466.got - 2010.06.03 11:33:40.
