data_PCOD9071157
_publ_section_title
;
Structure prediction by ZEFSAII (Michael W. Deem and Ramdas Pophale) SiO2 
 PCOD9071157
Probable space group: P -1
;
_chemical_formula_sum "Si O2"
_cell_formula_units_Z 11
_cell_length_a 11.583608
_cell_length_b 11.302341
_cell_length_c 8.292858
_cell_angle_alpha 88.425040
_cell_angle_beta 60.509852
_cell_angle_gamma 37.469438
_cell_volume 418.336778
_symmetry_space_group_name_H-M "P -1"
_symmetry_group_IT_number 2
_symmetry_cell_setting 'triclinic'
loop_
_space_group_symop_operation_xyz
x,y,z
-x,-y,-z
loop_
_atom_site_type_symbol
_atom_site_label
_atom_site_fract_x
_atom_site_fract_y
_atom_site_fract_z
Si Si1 0.218718 0.279224 0.499377
Si Si2 0.292846 0.979206 0.007108
Si Si3 0.000000 0.500000 0.000000
Si Si4 0.463914 0.473911 0.200745
Si Si5 0.790739 0.975836 0.579396
Si Si6 0.699739 0.495779 0.235722
O O1 0.549307 0.045786 0.209876
O O2 0.186434 0.164861 0.524522
O O3 0.000000 0.500000 0.500000
O O4 0.155967 0.384822 0.712456
O O5 0.419825 0.753366 0.863866
O O6 0.379346 0.916366 0.138002
O O7 0.937509 0.278341 0.219142
O O8 0.848665 0.493266 0.054286
O O9 0.658616 0.402451 0.182073
O O10 0.105192 0.766455 0.441040
O O11 0.500000 0.500000 0.000000
O O12 0.644154 0.185144 0.548218
#
# Coordination Sequence:
#
# PCOD9071157 Si02
#       6
#     2   2   1   2   2   2
#     4  12  25  52  85 118 165 212 273 333 407 485
#     4  12  27  50  81 121 156 215 270 328 407 481
#     4  12  28  52  78 124 158 210 270 338 400 478
#     4  12  26  51  78 115 162 216 263 330 410 480
#     4  12  26  52  81 115 162 211 265 339 401 476
#     4  12  27  48  79 116 159 205 270 328 400 478
#
# _framework density 26.294602999999999
#
# number of rings (size 3 to 8) (size 9 to 14) (size 15 to 20)
#    0.000    0.000    3.636    6.000    0.000    5.091 
#    0.000    0.000    0.000    0.000    0.000    0.000 
#    0.000    0.000    0.000    0.000    0.000    0.000 
#
# Total GULP energy -61295.507821 kJ/mol
# GULP energy per Si atom -5572.318893 kJ/mol
# Density = 2.623476 g / cm^3
# Si number density = 26.294603 Si / 1000 Ang^3
#
#
#
# Elastic Constant Matrix: (Units=GPa)
#
#
# Indices 1 2 3 4 5 6 
#
# 1 146.5993 26.3396 37.4520 4.3702 1.6505 -3.2642
# 2 26.3396 130.2130 21.7998 27.6117 4.1776 -50.4153
# 3 37.4520 21.7998 105.6314 -18.9735 10.7715 -35.1090
# 4 4.3702 27.6117 -18.9735 34.6683 1.2695 0.9717
# 5 1.6505 4.1776 10.7715 1.2695 46.2608 -0.8838
# 6 -3.2642 -50.4153 -35.1090 0.9717 -0.8838 50.8348
#
#
#
# Elastic Compliance Matrix: (Units=1/GPa)
#
#
# Indices 1 2 3 4 5 6 
#
# 1 0.008355 -0.002742 -0.004432 -0.001183 0.000915 -0.005206
# 2 -0.002742 0.018598 0.001058 -0.014388 -0.001065 0.019256
# 3 -0.004432 0.001058 0.016817 0.008720 -0.003860 0.012146
# 4 -0.001183 -0.014388 0.008720 0.045562 -0.002116 -0.009230
# 5 0.000915 -0.001065 -0.003860 -0.002116 0.022575 -0.003231
# 6 -0.005206 0.019256 0.012146 -0.009230 -0.003231 0.046943
#
#
# Mechanical properties :
#
#
# Convention : Reuss Voigt Hill
#
# Bulk Modulus (GPa) = 31.70825 61.51407 46.61116
# Shear Modulus (GPa) = 27.53384 46.14296 36.83840
#
# Velocity S-wave (km/s) = 3.23945 4.19363 3.74704
# Velocity P-wave (km/s) = 5.10657 6.84790 6.04031
#
# Compressibility (1/GPa) = 0.03153754
#
# Stress axis : x y z
#
# Youngs Moduli (GPa) = 119.68275 53.77033 59.46384
#
# Poissons Ratio (x) = 0.14745 0.26357
# Poissons Ratio (y) = 0.32819 -0.06294
# Poissons Ratio (z) = 0.53049 -0.05691
#
# Static dielectric constant tensor:
#      x y z
#    x 1.965430 0.049020 -0.043560 
#    y 0.049020 1.895780 -0.066000 
#    z -0.043560 -0.066000 2.116490 
# 
# From -- ./inp_files/253455.got.cif
#   From: 2010.05.17/outbox.cif.g08.bks.cpg/sg2_127_cif.got.tgz:253455.got - 2010.06.03 11:33:40.
