data_PCOD9071748
_publ_section_title
;
Structure prediction by ZEFSAII (Michael W. Deem and Ramdas Pophale) SiO2 
 PCOD9071748
Probable space group: P -1
;
_chemical_formula_sum "Si O2"
_cell_formula_units_Z 16
_cell_length_a 12.521304
_cell_length_b 20.830578
_cell_length_c 8.947787
_cell_angle_alpha 84.880488
_cell_angle_beta 84.478762
_cell_angle_gamma 154.196577
_cell_volume 924.126054
_symmetry_space_group_name_H-M "P -1"
_symmetry_group_IT_number 2
_symmetry_cell_setting 'triclinic'
loop_
_space_group_symop_operation_xyz
x,y,z
-x,-y,-z
loop_
_atom_site_type_symbol
_atom_site_label
_atom_site_fract_x
_atom_site_fract_y
_atom_site_fract_z
Si Si1 0.683135 0.056995 0.259336
Si Si2 0.392885 0.341909 0.980240
Si Si3 0.165159 0.358356 0.941334
Si Si4 0.624694 0.499331 0.439672
Si Si5 0.864087 0.015611 0.307357
Si Si6 0.884076 0.201043 0.530379
Si Si7 0.828812 0.871207 0.177287
Si Si8 0.968981 0.864776 0.412883
O O1 0.380743 0.915372 0.335617
O O2 0.703145 0.990587 0.282965
O O3 0.828451 0.161945 0.370152
O O4 0.861034 0.181055 0.072954
O O5 0.670082 0.504998 0.995999
O O6 0.161657 0.190737 0.158723
O O7 0.300735 0.362127 0.934765
O O8 0.382729 0.289196 0.850422
O O9 0.218001 0.410566 0.756349
O O10 0.500000 0.500000 0.500000
O O11 0.851518 0.611794 0.509220
O O12 0.356613 0.310005 0.496886
O O13 0.900069 0.034230 0.476937
O O14 0.738787 0.880673 0.291560
O O15 0.941421 0.160567 0.594240
O O16 0.019360 0.930076 0.239369
O O17 0.000000 0.000000 0.000000
#
# Coordination Sequence:
#
# PCOD9071748 Si02
#       8
#     2   2   2   2   2   2   2   2
#     4   9  19  33  52  76 107 136 165 200 252 307
#     4   9  17  28  46  74 103 127 162 208 248 296
#     4  10  18  29  49  75 105 131 161 208 257 297
#     4  10  19  29  48  76 105 128 159 208 259 304
#     4   9  17  32  49  73 102 135 166 201 246 299
#     4   9  19  33  50  79 105 135 164 204 257 303
#     4  10  20  31  48  74 101 133 169 207 251 296
#     4  10  18  31  51  75 103 130 166 211 256 295
#
# _framework density 17.313656000000002
#
# number of rings (size 3 to 8) (size 9 to 14) (size 15 to 20)
#    0.000    2.500    1.250    1.875    7.000    0.500 
#    0.000    0.000    0.000    0.750    3.250    2.625 
#    0.000    0.000    0.000    0.000    0.000    0.000 
#
# Total GULP energy -89129.800467 kJ/mol
# GULP energy per Si atom -5570.612529 kJ/mol
# Density = 1.727425 g / cm^3
# Si number density = 17.313656 Si / 1000 Ang^3
#
#
#
# Elastic Constant Matrix: (Units=GPa)
#
#
# Indices 1 2 3 4 5 6 
#
# 1 56.9056 44.7350 29.4461 1.1301 -10.2653 -2.5858
# 2 44.7350 93.5322 16.8269 11.3809 -12.0953 -12.5521
# 3 29.4461 16.8269 65.5518 0.0155 6.9116 3.4998
# 4 1.1301 11.3809 0.0155 20.9095 0.5066 -8.3193
# 5 -10.2653 -12.0953 6.9116 0.5066 23.3348 1.7423
# 6 -2.5858 -12.5521 3.4998 -8.3193 1.7423 30.0312
#
#
#
# Elastic Compliance Matrix: (Units=1/GPa)
#
#
# Indices 1 2 3 4 5 6 
#
# 1 0.040054 -0.015257 -0.015557 0.005658 0.014225 -0.000373
# 2 -0.015257 0.019743 0.001239 -0.008273 0.003011 0.004327
# 3 -0.015557 0.001239 0.023447 -0.000736 -0.012906 -0.003009
# 4 0.005658 -0.008273 -0.000736 0.057380 -0.003815 0.013232
# 5 0.014225 0.003011 -0.012906 -0.003815 0.054596 -0.000237
# 6 -0.000373 0.004327 -0.003009 0.013232 -0.000237 0.039105
#
#
# Mechanical properties :
#
#
# Convention : Reuss Voigt Hill
#
# Bulk Modulus (GPa) = 41.50575 44.22284 42.86430
# Shear Modulus (GPa) = 16.58342 23.18723 19.88532
#
# Velocity S-wave (km/s) = 3.09823 3.66354 3.39268
# Velocity P-wave (km/s) = 6.06824 6.59492 6.33706
#
# Compressibility (1/GPa) = 0.02409305
#
# Stress axis : x y z
#
# Youngs Moduli (GPa) = 24.96624 50.65164 42.64960
#
# Poissons Ratio (x) = 0.77282 0.66351
# Poissons Ratio (y) = 0.38092 -0.05286
# Poissons Ratio (z) = 0.38840 -0.06277
#
# Static dielectric constant tensor:
#      x y z
#    x 1.581170 -0.028480 0.010940 
#    y -0.028480 1.613690 0.017500 
#    z 0.010940 0.017500 1.631400 
# 
# From -- ./inp_files/320102.got.cif
#   From: 2010.05.17/outbox.cif.g08.bks.cpg/sg2_161_cif.got.tgz:320102.got - 2010.06.03 11:33:40.
