data_PCOD9071812
_publ_section_title
;
Structure prediction by ZEFSAII (Michael W. Deem and Ramdas Pophale) SiO2 
 PCOD9071812
Probable space group: P -1
;
_chemical_formula_sum "Si O2"
_cell_formula_units_Z 14
_cell_length_a 10.030814
_cell_length_b 5.334101
_cell_length_c 13.599668
_cell_angle_alpha 91.022382
_cell_angle_beta 120.435691
_cell_angle_gamma 60.061089
_cell_volume 516.077632
_symmetry_space_group_name_H-M "P -1"
_symmetry_group_IT_number 2
_symmetry_cell_setting 'triclinic'
loop_
_space_group_symop_operation_xyz
x,y,z
-x,-y,-z
loop_
_atom_site_type_symbol
_atom_site_label
_atom_site_fract_x
_atom_site_fract_y
_atom_site_fract_z
Si Si1 0.041439 0.221243 0.224347
Si Si2 0.604290 0.156048 0.570431
Si Si3 0.963302 0.286540 0.896310
Si Si4 0.964257 0.285064 0.549896
Si Si5 0.658875 0.093957 0.226869
Si Si6 0.589922 0.663549 0.323316
Si Si7 0.724031 0.649556 0.998901
O O1 0.104414 0.416133 0.192456
O O2 0.171366 0.074619 0.368008
O O3 0.053403 0.949735 0.170296
O O4 0.815043 0.479649 0.135812
O O5 0.500000 0.500000 0.500000
O O6 0.601150 0.177607 0.687836
O O7 0.500000 0.000000 0.500000
O O8 0.837833 0.403088 0.949684
O O9 0.186281 0.156978 0.988708
O O10 0.000000 0.500000 0.500000
O O11 0.740786 0.499075 0.467562
O O12 0.112794 0.140537 0.694695
O O13 0.000000 0.000000 0.500000
O O14 0.619158 0.403505 0.260487
O O15 0.497184 0.195010 0.086605
O O16 0.609355 0.915716 0.283325
#
# Coordination Sequence:
#
# PCOD9071812 Si02
#       7
#     2   2   2   2   2   2   2
#     4  10  19  32  43  62  94 119 151 197 229 271
#     4  12  24  36  50  69  90 130 177 202 232 273
#     4   9  18  27  44  66  96 123 147 172 238 292
#     4   8  16  30  46  71  98 125 154 184 232 290
#     4  10  18  29  52  77 100 128 151 181 240 307
#     4  10  20  33  49  69 103 129 155 202 234 267
#     4   9  19  25  46  68  98 119 149 177 235 294
#
# _framework density 27.127700000000001
#
# number of rings (size 3 to 8) (size 9 to 14) (size 15 to 20)
#    0.857    1.429    0.000    3.857    2.000    0.000 
#    0.000    0.000    0.000    0.000    0.000    2.000 
#    0.000    0.000    0.000    0.000    0.000    0.000 
#
# Total GULP energy -78095.773716 kJ/mol
# GULP energy per Si atom -5578.269551 kJ/mol
# Density = 2.706596 g / cm^3
# Si number density = 27.127700 Si / 1000 Ang^3
#
#
#
# Elastic Constant Matrix: (Units=GPa)
#
#
# Indices 1 2 3 4 5 6 
#
# 1 91.1079 48.3456 27.5903 1.8018 3.2566 18.3683
# 2 48.3456 143.1606 45.9035 2.5443 -4.3056 33.6880
# 3 27.5903 45.9035 207.5284 -20.6339 52.0902 8.9472
# 4 1.8018 2.5443 -20.6339 48.6897 8.3721 -3.0792
# 5 3.2566 -4.3056 52.0902 8.3721 47.8672 1.8681
# 6 18.3683 33.6880 8.9472 -3.0792 1.8681 32.9801
#
#
#
# Elastic Compliance Matrix: (Units=1/GPa)
#
#
# Indices 1 2 3 4 5 6 
#
# 1 0.013940 -0.003325 -0.001143 -0.001153 0.000361 -0.004186
# 2 -0.003325 0.011948 -0.003775 -0.003850 0.006475 -0.010054
# 3 -0.001143 -0.003775 0.009172 0.006304 -0.011473 0.003243
# 4 -0.001153 -0.003850 0.006304 0.025874 -0.011886 0.005954
# 5 0.000361 0.006475 -0.011473 -0.011886 0.036281 -0.006868
# 6 -0.004186 -0.010054 0.003243 0.005954 -0.006868 0.042988
#
#
# Mechanical properties :
#
#
# Convention : Reuss Voigt Hill
#
# Bulk Modulus (GPa) = 53.83785 76.16396 65.00091
# Shear Modulus (GPa) = 30.69745 47.23790 38.96767
#
# Velocity S-wave (km/s) = 3.36756 4.17743 3.79417
# Velocity P-wave (km/s) = 5.91691 7.16973 6.57323
#
# Compressibility (1/GPa) = 0.01857429
#
# Stress axis : x y z
#
# Youngs Moduli (GPa) = 71.73521 83.69859 109.02458
#
# Poissons Ratio (x) = 0.27828 0.12458
# Poissons Ratio (y) = 0.23851 0.41160
# Poissons Ratio (z) = 0.08197 0.31599
#
# Static dielectric constant tensor:
#      x y z
#    x 2.151410 -0.040190 0.056190 
#    y -0.040190 2.049920 -0.057980 
#    z 0.056190 -0.057980 2.290930 
# 
# From -- ./inp_files/95838.got.cif
#   From: 2010.05.17/outbox.cif.g08.bks.cpg/sg2_48_cif.got.tgz:95838.got - 2010.06.03 11:33:40.
