data_PCOD9071992
_publ_section_title
;
Structure prediction by ZEFSAII (Michael W. Deem and Ramdas Pophale) SiO2 
 PCOD9071992
Probable space group: P -1
;
_chemical_formula_sum "Si O2"
_cell_formula_units_Z 14
_cell_length_a 12.000000
_cell_length_b 9.000000
_cell_length_c 9.000000
_cell_angle_alpha 100.000000
_cell_angle_beta 120.000000
_cell_angle_gamma 60.000000
_cell_volume 725.212580
_symmetry_space_group_name_H-M "P -1"
_symmetry_group_IT_number 2
_symmetry_cell_setting 'triclinic'
loop_
_space_group_symop_operation_xyz
x,y,z
-x,-y,-z
loop_
_atom_site_type_symbol
_atom_site_label
_atom_site_fract_x
_atom_site_fract_y
_atom_site_fract_z
Si Si1 0.117063 0.514723 0.746963
Si Si2 0.386794 0.886056 0.043644
Si Si3 0.476994 0.317936 0.633389
Si Si4 0.204830 0.258438 0.491815
Si Si5 0.644430 0.770384 0.976916
Si Si6 0.296504 0.670046 0.734166
Si Si7 0.373000 0.847742 0.586656
O O1 0.146104 0.353751 0.629766
O O2 0.179037 0.620368 0.711370
O O3 0.946069 0.643758 0.686165
O O4 0.222437 0.420804 0.941899
O O5 0.407984 0.843930 0.221791
O O6 0.302661 0.088565 0.989588
O O7 0.550725 0.820070 0.075901
O O8 0.333414 0.766161 0.906173
O O9 0.327514 0.304752 0.520394
O O10 0.431115 0.490979 0.728857
O O11 0.556514 0.285748 0.524463
O O12 0.285122 0.050522 0.521683
O O13 0.516406 0.807010 0.777657
O O14 0.265024 0.799851 0.599011
#
# Coordination Sequence:
#
# PCOD9071992 Si02
#       7
#     2   2   2   2   2   2   2
#     4  10  20  36  57  81 114 142 187 223 273 318
#     4  10  18  32  59  82 109 136 194 228 266 309
#     4  11  20  36  55  87 110 145 178 230 276 322
#     4  10  20  36  57  81 111 147 182 229 266 324
#     4  10  18  34  55  86 104 143 186 229 262 321
#     4  10  21  34  55  87 110 144 179 232 271 321
#     4  11  22  34  58  84 116 139 183 225 278 323
#
# _framework density 19.304684000000002
#
# number of rings (size 3 to 8) (size 9 to 14) (size 15 to 20)
#    0.000    1.714    4.286    3.000    2.000    0.571 
#    0.000    2.143    0.000    0.857    0.000    0.000 
#    0.000    0.000    0.000    0.000    0.000    0.000 
#
# Total GULP energy -78000.031478 kJ/mol
# GULP energy per Si atom -5571.430820 kJ/mol
# Density = 1.926075 g / cm^3
# Si number density = 19.304684 Si / 1000 Ang^3
#
#
#
# Elastic Constant Matrix: (Units=GPa)
#
#
# Indices 1 2 3 4 5 6 
#
# 1 53.5712 32.5111 26.6789 -2.1397 4.1849 4.8570
# 2 32.5111 80.8767 19.9082 -11.5414 9.9571 13.9057
# 3 26.6789 19.9082 60.4498 -11.1862 -3.4239 -3.3999
# 4 -2.1397 -11.5414 -11.1862 29.3393 -4.7137 5.7959
# 5 4.1849 9.9571 -3.4239 -4.7137 14.6127 0.8413
# 6 4.8570 13.9057 -3.3999 5.7959 0.8413 27.1961
#
#
#
# Elastic Compliance Matrix: (Units=1/GPa)
#
#
# Indices 1 2 3 4 5 6 
#
# 1 0.030852 -0.009383 -0.012333 -0.007281 -0.007654 -0.000466
# 2 -0.009383 0.020665 -0.002449 0.007115 -0.009072 -0.010432
# 3 -0.012333 -0.002449 0.025536 0.009274 0.013932 0.004240
# 4 -0.007281 0.007115 0.009274 0.044385 0.014366 -0.011082
# 5 -0.007654 -0.009072 0.013932 0.014366 0.084587 0.002069
# 6 -0.000466 -0.010432 0.004240 -0.011082 0.002069 0.045015
#
#
# Mechanical properties :
#
#
# Convention : Reuss Voigt Hill
#
# Bulk Modulus (GPa) = 34.81470 39.23266 37.02368
# Shear Modulus (GPa) = 16.18418 21.94959 19.06688
#
# Velocity S-wave (km/s) = 2.89858 3.37561 3.14615
# Velocity P-wave (km/s) = 5.41071 5.96322 5.69367
#
# Compressibility (1/GPa) = 0.02872350
#
# Stress axis : x y z
#
# Youngs Moduli (GPa) = 32.41235 48.39131 39.16049
#
# Poissons Ratio (x) = 0.45405 0.48298
# Poissons Ratio (y) = 0.30412 0.09589
# Poissons Ratio (z) = 0.39975 0.11849
#
# Static dielectric constant tensor:
#      x y z
#    x 1.665740 0.046020 0.002420 
#    y 0.046020 1.686830 -0.014590 
#    z 0.002420 -0.014590 1.742980 
# 
# From -- ./inp_files/168545.got.cif
#   From: 2010.05.17/outbox.ucp.g08.bks.cvg/sg2_85_cif.got.tgz:168545.got - 2010.06.11 11:32:03.
