data_PCOD9071438
_publ_section_title
;
Structure prediction by ZEFSAII (Michael W. Deem and Ramdas Pophale) SiO2 
 PCOD9071438
Probable space group: P -1
;
_chemical_formula_sum "Si O2"
_cell_formula_units_Z 12
_cell_length_a 8.926577
_cell_length_b 15.035192
_cell_length_c 9.070216
_cell_angle_alpha 54.247852
_cell_angle_beta 125.389790
_cell_angle_gamma 150.855853
_cell_volume 473.780690
_symmetry_space_group_name_H-M "P -1"
_symmetry_group_IT_number 2
_symmetry_cell_setting 'triclinic'
loop_
_space_group_symop_operation_xyz
x,y,z
-x,-y,-z
loop_
_atom_site_type_symbol
_atom_site_label
_atom_site_fract_x
_atom_site_fract_y
_atom_site_fract_z
Si Si1 0.267509 0.931078 0.066330
Si Si2 0.618159 0.550602 0.183563
Si Si3 0.643720 0.170803 0.327153
Si Si4 0.750312 0.460511 0.808872
Si Si5 0.256795 0.090623 0.681103
Si Si6 0.363183 0.684243 0.555627
O O1 0.990766 0.742680 0.186394
O O2 0.485062 0.093727 0.152863
O O3 0.500000 0.000000 0.000000
O O4 0.095543 0.938917 0.858295
O O5 0.446699 0.560095 0.171764
O O6 0.529318 0.387010 0.348542
O O7 0.500000 0.500000 0.000000
O O8 0.573787 0.243993 0.314259
O O9 0.016192 0.350743 0.338201
O O10 0.500000 0.000000 0.500000
O O11 0.494838 0.279723 0.731972
O O12 0.000000 0.500000 0.000000
O O13 0.502790 0.162157 0.631818
O O14 0.000000 0.000000 0.500000
O O15 0.000000 0.500000 0.500000
#
# Coordination Sequence:
#
# PCOD9071438 Si02
#       6
#     2   2   2   2   2   2
#     4  12  27  51  82 120 166 217 280 340 419 502
#     4  12  28  48  82 119 161 218 283 344 417 495
#     4  12  26  49  86 118 160 218 282 339 417 492
#     4  12  27  54  84 118 169 227 280 346 418 497
#     4  12  28  49  80 119 170 209 278 347 418 488
#     4  12  26  51  78 117 163 216 269 344 421 491
#
# _framework density 25.328173
#
# number of rings (size 3 to 8) (size 9 to 14) (size 15 to 20)
#    0.000    0.000    3.333    6.000    2.333    2.667 
#    3.000    0.000    0.000    0.000    0.000    0.000 
#    0.000    0.000    0.000    0.000    0.000    0.000 
#
# Total GULP energy -66994.523470 kJ/mol
# GULP energy per Si atom -5582.876956 kJ/mol
# Density = 2.527053 g / cm^3
# Si number density = 25.328173 Si / 1000 Ang^3
#
#
#
# Elastic Constant Matrix: (Units=GPa)
#
#
# Indices 1 2 3 4 5 6 
#
# 1 204.7228 63.8557 50.8751 20.7645 -29.3012 -0.3848
# 2 63.8557 179.7697 51.6840 2.2896 -7.9245 11.9824
# 3 50.8751 51.6840 138.2953 2.0655 -25.6684 -12.7692
# 4 20.7645 2.2896 2.0655 60.9135 2.7645 -24.9337
# 5 -29.3012 -7.9245 -25.6684 2.7645 42.8459 8.5459
# 6 -0.3848 11.9824 -12.7692 -24.9337 8.5459 44.1051
#
#
#
# Elastic Compliance Matrix: (Units=1/GPa)
#
#
# Indices 1 2 3 4 5 6 
#
# 1 0.006644 -0.001593 -0.001253 -0.003434 0.004246 -0.002636
# 2 -0.001593 0.007001 -0.002401 -0.000825 -0.000589 -0.002963
# 3 -0.001253 -0.002401 0.009568 0.001479 0.003629 0.003544
# 4 -0.003434 -0.000825 0.001479 0.024207 -0.006273 0.015522
# 5 0.004246 -0.000589 0.003629 -0.006273 0.030344 -0.008178
# 6 -0.002636 -0.002963 0.003544 0.015522 -0.008178 0.034841
#
#
# Mechanical properties :
#
#
# Convention : Reuss Voigt Hill
#
# Bulk Modulus (GPa) = 78.62325 95.06859 86.84592
# Shear Modulus (GPa) = 39.26568 53.33111 46.29839
#
# Velocity S-wave (km/s) = 3.94163 4.59366 4.28008
# Velocity P-wave (km/s) = 7.19892 8.10875 7.66734
#
# Compressibility (1/GPa) = 0.01271888
#
# Stress axis : x y z
#
# Youngs Moduli (GPa) = 150.51248 142.83872 104.51848
#
# Poissons Ratio (x) = 0.22757 0.13094
# Poissons Ratio (y) = 0.23980 0.25093
# Poissons Ratio (z) = 0.18856 0.34293
#
# Static dielectric constant tensor:
#      x y z
#    x 2.153520 0.146100 0.144990 
#    y 0.146100 2.379070 -0.107220 
#    z 0.144990 -0.107220 2.145950 
# 
# From -- ./inp_files/206092.got.cif
#   From: 2010.05.17/outbox.cif.g08.bks.cpg/sg2_104_cif.got.tgz:206092.got - 2010.06.03 11:33:40.
