data_PCOD9071854
_publ_section_title
;
Structure prediction by ZEFSAII (Michael W. Deem and Ramdas Pophale) SiO2 
 PCOD9071854
Probable space group: P -1
;
_chemical_formula_sum "Si O2"
_cell_formula_units_Z 16
_cell_length_a 15.459253
_cell_length_b 15.647305
_cell_length_c 7.928851
_cell_angle_alpha 108.970708
_cell_angle_beta 64.163558
_cell_angle_gamma 154.250526
_cell_volume 738.701803
_symmetry_space_group_name_H-M "P -1"
_symmetry_group_IT_number 2
_symmetry_cell_setting 'triclinic'
loop_
_space_group_symop_operation_xyz
x,y,z
-x,-y,-z
loop_
_atom_site_type_symbol
_atom_site_label
_atom_site_fract_x
_atom_site_fract_y
_atom_site_fract_z
Si Si1 0.502460 0.761952 0.669568
Si Si2 0.608630 0.228819 0.575723
Si Si3 0.056727 0.831056 0.579815
Si Si4 0.473031 0.400703 0.107110
Si Si5 0.599137 0.489025 0.593184
Si Si6 0.813747 0.917308 0.101515
Si Si7 0.836227 0.238603 0.345638
Si Si8 0.272712 0.558811 0.064064
O O1 0.424169 0.751855 0.565536
O O2 0.414039 0.586320 0.605111
O O3 0.757680 0.981033 0.583486
O O4 0.405387 0.711785 0.895636
O O5 0.787855 0.302653 0.457063
O O6 0.654353 0.338049 0.753802
O O7 0.389066 0.994561 0.659617
O O8 0.092381 0.755888 0.543266
O O9 0.823425 0.655752 0.598796
O O10 0.101560 0.921833 0.776528
O O11 0.418648 0.417500 0.324013
O O12 0.500000 0.500000 0.000000
O O13 0.284839 0.175472 0.061406
O O14 0.673209 0.502660 0.015212
O O15 0.388760 0.278210 0.735869
O O16 0.000000 0.000000 0.000000
O O17 0.025288 0.376136 0.143937
#
# Coordination Sequence:
#
# PCOD9071854 Si02
#       8
#     2   2   2   2   2   2   2   2
#     4  10  24  41  60  90 125 157 200 253 299 356
#     4  10  22  44  61  90 123 153 202 251 305 360
#     4  10  19  38  61  85 125 163 195 250 302 346
#     4  10  19  34  57  88 119 156 202 240 289 356
#     4  10  20  35  54  82 123 160 196 241 294 350
#     4  10  18  29  57  90 111 155 202 237 291 349
#     4  10  21  38  67  90 117 160 201 248 302 365
#     4  12  24  40  64  92 120 160 204 247 303 357
#
# _framework density 21.65962
#
# number of rings (size 3 to 8) (size 9 to 14) (size 15 to 20)
#    0.000    1.750    1.250    5.625    1.750    2.000 
#    0.000    6.250    0.000    0.000    0.000    0.000 
#    0.000    0.000    0.000    0.000    0.000    0.000 
#
# Total GULP energy -89255.381220 kJ/mol
# GULP energy per Si atom -5578.461326 kJ/mol
# Density = 2.161032 g / cm^3
# Si number density = 21.659620 Si / 1000 Ang^3
#
#
#
# Elastic Constant Matrix: (Units=GPa)
#
#
# Indices 1 2 3 4 5 6 
#
# 1 125.0507 38.7481 54.7775 -7.3995 -38.3998 2.4518
# 2 38.7481 99.9251 44.5881 -21.3791 -5.1773 18.8132
# 3 54.7775 44.5881 106.8294 -19.5992 -15.1831 2.3079
# 4 -7.3995 -21.3791 -19.5992 22.9944 2.9308 -15.1161
# 5 -38.3998 -5.1773 -15.1831 2.9308 43.3598 -7.5809
# 6 2.4518 18.8132 2.3079 -15.1161 -7.5809 26.6815
#
#
#
# Elastic Compliance Matrix: (Units=1/GPa)
#
#
# Indices 1 2 3 4 5 6 
#
# 1 0.014758 -0.004309 -0.004469 -0.001596 0.011893 0.004544
# 2 -0.004309 0.016023 -0.004262 0.004199 -0.005372 -0.009681
# 3 -0.004469 -0.004262 0.016438 0.016021 0.002253 0.011711
# 4 -0.001596 0.004199 0.016021 0.092744 0.007241 0.050401
# 5 0.011893 -0.005372 0.002253 0.007241 0.036206 0.016890
# 6 0.004544 -0.009681 0.011711 0.050401 0.016890 0.076227
#
#
# Mechanical properties :
#
#
# Convention : Reuss Voigt Hill
#
# Bulk Modulus (GPa) = 47.30907 67.55918 57.43412
# Shear Modulus (GPa) = 17.51165 31.51991 24.51578
#
# Velocity S-wave (km/s) = 2.84649 3.81890 3.36797
# Velocity P-wave (km/s) = 5.71776 7.12070 6.45744
#
# Compressibility (1/GPa) = 0.02113759
#
# Stress axis : x y z
#
# Youngs Moduli (GPa) = 67.75864 62.41088 60.83489
#
# Poissons Ratio (x) = 0.26894 0.27190
# Poissons Ratio (y) = 0.29198 0.25928
# Poissons Ratio (z) = 0.30285 0.26600
#
# Static dielectric constant tensor:
#      x y z
#    x 1.815830 -0.013250 -0.000030 
#    y -0.013250 1.857170 0.029610 
#    z -0.000030 0.029610 1.847090 
# 
# From -- ./inp_files/313669.got.cif
#   From: 2010.05.17/outbox.cif.g08.bks.cpg/sg2_157_cif.got.tgz:313669.got - 2010.06.03 11:33:40.
