data_PCOD9071585
_publ_section_title
;
Structure prediction by ZEFSAII (Michael W. Deem and Ramdas Pophale) SiO2 
 PCOD9071585
Probable space group: P -1
;
_chemical_formula_sum "Si O2"
_cell_formula_units_Z 9
_cell_length_a 5.339473
_cell_length_b 12.004875
_cell_length_c 9.944016
_cell_angle_alpha 142.968520
_cell_angle_beta 117.410752
_cell_angle_gamma 73.423143
_cell_volume 336.729818
_symmetry_space_group_name_H-M "P -1"
_symmetry_group_IT_number 2
_symmetry_cell_setting 'triclinic'
loop_
_space_group_symop_operation_xyz
x,y,z
-x,-y,-z
loop_
_atom_site_type_symbol
_atom_site_label
_atom_site_fract_x
_atom_site_fract_y
_atom_site_fract_z
Si Si1 0.241985 0.913646 0.760193
Si Si2 0.793755 0.585322 0.387020
Si Si3 0.500000 0.500000 0.500000
Si Si4 0.014148 0.259743 0.999644
Si Si5 0.625056 0.161643 0.583358
O O1 0.318477 0.913467 0.622516
O O2 0.122928 0.698570 0.562514
O O3 0.500000 0.000000 0.000000
O O4 0.006118 0.049385 0.849111
O O5 0.712893 0.610844 0.544943
O O6 0.804766 0.379404 0.138203
O O7 0.590928 0.690077 0.346325
O O8 0.671650 0.630524 0.790226
O O9 0.920115 0.252787 0.814327
O O10 0.500000 0.000000 0.500000
#
# Coordination Sequence:
#
# PCOD9071585 Si02
#       5
#     2   2   1   2   2
#     4  12  29  52  83 118 164 215 265 331 402 480
#     4  12  28  52  79 119 160 214 269 327 402 476
#     4  12  30  48  82 120 160 214 262 330 402 472
#     4  12  27  50  81 116 163 206 271 327 400 479
#     4  12  28  50  82 122 159 212 266 333 404 471
#
# _framework density 26.727661000000001
#
# number of rings (size 3 to 8) (size 9 to 14) (size 15 to 20)
#    0.000    0.000    2.222    6.000    6.222    5.333 
#    0.000    1.111    0.000    0.000    0.000    0.000 
#    0.000    0.000    0.000    0.000    0.000    0.000 
#
# Total GULP energy -50348.882649 kJ/mol
# GULP energy per Si atom -5594.320294 kJ/mol
# Density = 2.666683 g / cm^3
# Si number density = 26.727661 Si / 1000 Ang^3
#
#
#
# Elastic Constant Matrix: (Units=GPa)
#
#
# Indices 1 2 3 4 5 6 
#
# 1 88.3384 41.6911 44.2532 -14.6641 -25.5399 15.6324
# 2 41.6911 149.9169 53.3879 -17.9478 -24.0182 -5.1083
# 3 44.2532 53.3879 189.7465 -45.0279 3.4605 -1.0802
# 4 -14.6641 -17.9478 -45.0279 61.9697 -17.1471 -8.4908
# 5 -25.5399 -24.0182 3.4605 -17.1471 51.9255 -0.9473
# 6 15.6324 -5.1083 -1.0802 -8.4908 -0.9473 67.2673
#
#
#
# Elastic Compliance Matrix: (Units=1/GPa)
#
#
# Indices 1 2 3 4 5 6 
#
# 1 0.017572 -0.002163 -0.002867 0.003394 0.008886 -0.003740
# 2 -0.002163 0.008728 -0.001493 0.002191 0.003823 0.001472
# 3 -0.002867 -0.001493 0.007348 0.004047 -0.001233 0.001164
# 4 0.003394 0.002191 0.004047 0.023717 0.010292 0.002581
# 5 0.008886 0.003823 -0.001233 0.010292 0.028877 -0.000089
# 6 -0.003740 0.001472 0.001164 0.002581 -0.000089 0.016190
#
#
# Mechanical properties :
#
#
# Convention : Reuss Voigt Hill
#
# Bulk Modulus (GPa) = 48.53800 78.51846 63.52823
# Shear Modulus (GPa) = 40.86751 55.47715 48.17233
#
# Velocity S-wave (km/s) = 3.91453 4.56087 4.25000
# Velocity P-wave (km/s) = 6.21539 7.56150 6.92125
#
# Compressibility (1/GPa) = 0.02060241
#
# Stress axis : x y z
#
# Youngs Moduli (GPa) = 56.90946 114.56733 136.08303
#
# Poissons Ratio (x) = 0.24780 0.39020
# Poissons Ratio (y) = 0.12309 0.20315
# Poissons Ratio (z) = 0.16318 0.17103
#
# Static dielectric constant tensor:
#      x y z
#    x 1.460430 0.229870 0.041510 
#    y 0.229870 1.937160 0.045700 
#    z 0.041510 0.045700 2.085050 
# 
# From -- ./inp_files/129539.got.cif
#   From: 2010.05.17/outbox.cif.g08.bks.cpg/sg2_65_cif.got.tgz:129539.got - 2010.06.03 11:33:40.
