data_PCOD9071350
_publ_section_title
;
Structure prediction by ZEFSAII (Michael W. Deem and Ramdas Pophale) SiO2 
 PCOD9071350
Probable space group: P -1
;
_chemical_formula_sum "Si O2"
_cell_formula_units_Z 13
_cell_length_a 14.584141
_cell_length_b 5.864888
_cell_length_c 17.992173
_cell_angle_alpha 106.249367
_cell_angle_beta 148.590273
_cell_angle_gamma 52.180059
_cell_volume 510.840618
_symmetry_space_group_name_H-M "P -1"
_symmetry_group_IT_number 2
_symmetry_cell_setting 'triclinic'
loop_
_space_group_symop_operation_xyz
x,y,z
-x,-y,-z
loop_
_atom_site_type_symbol
_atom_site_label
_atom_site_fract_x
_atom_site_fract_y
_atom_site_fract_z
Si Si1 0.610376 0.454361 0.270639
Si Si2 0.980327 0.751925 0.059080
Si Si3 0.438187 0.348004 0.001273
Si Si4 0.515133 0.378002 0.359254
Si Si5 0.000000 0.500000 0.500000
Si Si6 0.950761 0.631460 0.643483
Si Si7 0.741723 0.570688 0.620841
O O1 0.576262 0.295727 0.167546
O O2 0.638947 0.298372 0.356428
O O3 0.829509 0.432992 0.406167
O O4 0.320908 0.865882 0.111328
O O5 0.199890 0.701855 0.169834
O O6 0.089212 0.598843 0.203235
O O7 0.000000 0.500000 0.000000
O O8 0.500000 0.500000 0.000000
O O9 0.115693 0.662942 0.806091
O O10 0.500000 0.000000 0.000000
O O11 0.607161 0.465774 0.493123
O O12 0.648007 0.001203 0.445048
O O13 0.084537 0.474939 0.641979
O O14 0.928790 0.440769 0.668137
O O15 0.500000 0.000000 0.500000
#
# Coordination Sequence:
#
# PCOD9071350 Si02
#       7
#     2   2   2   2   1   2   2
#     4  12  28  50  82 119 165 222 279 352 423 509
#     4  12  27  49  80 119 165 211 274 343 427 503
#     4  12  31  53  79 121 169 223 286 349 423 508
#     4  12  27  50  78 115 156 211 270 337 422 498
#     4  12  26  52  78 114 166 204 288 326 426 492
#     4  12  28  48  81 115 159 216 268 344 421 497
#     4  12  26  48  77 114 158 207 266 334 415 504
#
# _framework density 25.448250999999999
#
# number of rings (size 3 to 8) (size 9 to 14) (size 15 to 20)
#    0.000    0.000    4.615    3.692   10.769    0.615 
#    0.000    0.000    0.000    0.000    0.000    0.000 
#    0.000    0.000    0.000    0.000    0.000    0.000 
#
# Total GULP energy -72541.988410 kJ/mol
# GULP energy per Si atom -5580.152955 kJ/mol
# Density = 2.539033 g / cm^3
# Si number density = 25.448251 Si / 1000 Ang^3
#
#
#
# Elastic Constant Matrix: (Units=GPa)
#
#
# Indices 1 2 3 4 5 6 
#
# 1 193.6110 25.2382 39.4286 19.3358 -19.5408 1.6399
# 2 25.2382 113.4607 31.8298 13.8516 -18.1315 1.9223
# 3 39.4286 31.8298 138.7922 13.6992 -10.0099 13.9170
# 4 19.3358 13.8516 13.6992 58.1875 -6.6431 -1.7864
# 5 -19.5408 -18.1315 -10.0099 -6.6431 53.5939 15.9636
# 6 1.6399 1.9223 13.9170 -1.7864 15.9636 26.1362
#
#
#
# Elastic Compliance Matrix: (Units=1/GPa)
#
#
# Indices 1 2 3 4 5 6 
#
# 1 0.005796 -0.000485 -0.001178 -0.001352 0.001833 -0.000913
# 2 -0.000485 0.010128 -0.001585 -0.001555 0.003366 -0.002033
# 3 -0.001178 -0.001585 0.008790 -0.001221 0.002307 -0.005982
# 4 -0.001352 -0.001555 -0.001221 0.018405 0.000497 0.001804
# 5 0.001833 0.003366 0.002307 0.000497 0.026187 -0.017551
# 6 -0.000913 -0.002033 -0.005982 0.001804 -0.017551 0.052497
#
#
# Mechanical properties :
#
#
# Convention : Reuss Voigt Hill
#
# Bulk Modulus (GPa) = 54.89099 70.98411 62.93755
# Shear Modulus (GPa) = 37.21040 50.87467 44.04253
#
# Velocity S-wave (km/s) = 3.82802 4.47603 4.16465
# Velocity P-wave (km/s) = 6.41520 7.39372 6.92178
#
# Compressibility (1/GPa) = 0.01821793
#
# Stress axis : x y z
#
# Youngs Moduli (GPa) = 172.53442 98.73229 113.76758
#
# Poissons Ratio (x) = 0.04791 0.13402
# Poissons Ratio (y) = 0.08373 0.18030
# Poissons Ratio (z) = 0.20325 0.15647
#
# Static dielectric constant tensor:
#      x y z
#    x 2.022580 -0.029440 0.045700 
#    y -0.029440 2.180320 -0.146890 
#    z 0.045700 -0.146890 2.100770 
# 
# From -- ./inp_files/229670.got.cif
#   From: 2010.05.17/outbox.cif.g08.bks.cpg/sg2_115_cif.got.tgz:229670.got - 2010.06.03 11:33:40.
