data_PCOD9071310
_publ_section_title
;
Structure prediction by ZEFSAII (Michael W. Deem and Ramdas Pophale) SiO2 
 PCOD9071310
Probable space group: P -1
;
_chemical_formula_sum "Si O2"
_cell_formula_units_Z 12
_cell_length_a 15.046028
_cell_length_b 5.241804
_cell_length_c 9.309066
_cell_angle_alpha 82.430195
_cell_angle_beta 40.345243
_cell_angle_gamma 91.848010
_cell_volume 460.991405
_symmetry_space_group_name_H-M "P -1"
_symmetry_group_IT_number 2
_symmetry_cell_setting 'triclinic'
loop_
_space_group_symop_operation_xyz
x,y,z
-x,-y,-z
loop_
_atom_site_type_symbol
_atom_site_label
_atom_site_fract_x
_atom_site_fract_y
_atom_site_fract_z
Si Si1 0.632845 0.948129 0.927176
Si Si2 0.154186 0.939377 0.825156
Si Si3 0.542900 0.569799 0.279220
Si Si4 0.912438 0.362380 0.482710
Si Si5 0.174226 0.391670 0.979443
Si Si6 0.287664 0.307861 0.409921
O O1 0.665825 0.706621 0.810222
O O2 0.778777 0.153767 0.719887
O O3 0.580439 0.871550 0.157006
O O4 0.500000 0.000000 0.000000
O O5 0.217497 0.161280 0.848501
O O6 0.235087 0.024265 0.570469
O O7 0.154134 0.642966 0.892470
O O8 0.000000 0.000000 0.000000
O O9 0.500000 0.500000 0.500000
O O10 0.695550 0.497172 0.084754
O O11 0.417258 0.445722 0.337244
O O12 0.844432 0.553397 0.449402
O O13 0.000000 0.500000 0.500000
O O14 0.032411 0.269479 0.247978
#
# Coordination Sequence:
#
# PCOD9071310 Si02
#       6
#     2   2   2   2   2   2
#     4  12  29  50  85 114 167 222 277 343 424 500
#     4  12  26  47  82 116 167 214 274 344 416 489
#     4  12  28  51  80 123 163 217 279 344 420 498
#     4  12  29  50  82 117 163 218 284 341 417 500
#     4  12  29  49  79 124 167 214 279 344 413 494
#     4  12  27  50  79 118 165 218 276 345 419 503
#
# _framework density 26.030854999999999
#
# number of rings (size 3 to 8) (size 9 to 14) (size 15 to 20)
#    0.000    0.000    5.000    3.000    9.333    2.000 
#    0.000    0.000    0.000    0.000    0.000    0.000 
#    0.000    0.000    0.000    0.000    0.000    0.000 
#
# Total GULP energy -67181.527297 kJ/mol
# GULP energy per Si atom -5598.460608 kJ/mol
# Density = 2.597161 g / cm^3
# Si number density = 26.030855 Si / 1000 Ang^3
#
#
#
# Elastic Constant Matrix: (Units=GPa)
#
#
# Indices 1 2 3 4 5 6 
#
# 1 208.5787 43.3289 67.4640 -26.1230 -17.5181 6.5601
# 2 43.3289 65.9720 27.9186 -19.0543 11.2038 11.7434
# 3 67.4640 27.9186 168.6646 -38.1508 0.3326 7.8919
# 4 -26.1230 -19.0543 -38.1508 57.3003 -1.4557 -0.5587
# 5 -17.5181 11.2038 0.3326 -1.4557 62.4696 -5.1128
# 6 6.5601 11.7434 7.8919 -0.5587 -5.1128 42.2455
#
#
#
# Elastic Compliance Matrix: (Units=1/GPa)
#
#
# Indices 1 2 3 4 5 6 
#
# 1 0.006462 -0.003886 -0.001873 0.000480 0.002591 0.000747
# 2 -0.003886 0.021246 -0.000622 0.004690 -0.005259 -0.005761
# 3 -0.001873 -0.000622 0.007751 0.004079 -0.000440 -0.000984
# 4 0.000480 0.004690 0.004079 0.021918 -0.000373 -0.001895
# 5 0.002591 -0.005259 -0.000440 -0.000373 0.017942 0.003308
# 6 0.000747 -0.005761 -0.000984 -0.001895 0.003308 0.025716
#
#
# Mechanical properties :
#
#
# Convention : Reuss Voigt Hill
#
# Bulk Modulus (GPa) = 44.05764 80.07090 62.06427
# Shear Modulus (GPa) = 41.19961 52.70334 46.95147
#
# Velocity S-wave (km/s) = 3.98266 4.50449 4.25159
# Velocity P-wave (km/s) = 6.17338 7.60794 6.92789
#
# Compressibility (1/GPa) = 0.02269754
#
# Stress axis : x y z
#
# Youngs Moduli (GPa) = 154.76225 47.06734 129.02386
#
# Poissons Ratio (x) = 0.18288 0.24165
# Poissons Ratio (y) = 0.60133 0.08024
# Poissons Ratio (z) = 0.28985 0.02927
#
# Static dielectric constant tensor:
#      x y z
#    x 2.092880 0.053560 0.004280 
#    y 0.053560 2.141770 0.025490 
#    z 0.004280 0.025490 2.085310 
# 
# From -- ./inp_files/46170.got.cif
#   From: 2010.05.17/outbox.cif.g08.bks.cpg/sg2_24_cif.got.tgz:46170.got - 2010.06.03 11:33:40.
