data_PCOD9071593
_publ_section_title
;
Structure prediction by ZEFSAII (Michael W. Deem and Ramdas Pophale) SiO2 
 PCOD9071593
Probable space group: P -1
;
_chemical_formula_sum "Si O2"
_cell_formula_units_Z 13
_cell_length_a 10.564567
_cell_length_b 8.353043
_cell_length_c 14.784287
_cell_angle_alpha 95.935165
_cell_angle_beta 28.579767
_cell_angle_gamma 78.081510
_cell_volume 484.660769
_symmetry_space_group_name_H-M "P -1"
_symmetry_group_IT_number 2
_symmetry_cell_setting 'triclinic'
loop_
_space_group_symop_operation_xyz
x,y,z
-x,-y,-z
loop_
_atom_site_type_symbol
_atom_site_label
_atom_site_fract_x
_atom_site_fract_y
_atom_site_fract_z
Si Si1 0.229853 0.743633 0.703055
Si Si2 0.287843 0.448527 0.077662
Si Si3 0.848377 0.795841 0.227352
Si Si4 0.356767 0.789603 0.433713
Si Si5 0.012416 0.354738 0.411414
Si Si6 0.000000 0.000000 0.000000
Si Si7 0.532537 0.061800 0.788622
O O1 0.500000 0.500000 0.500000
O O2 0.151844 0.847208 0.659413
O O3 0.350836 0.803743 0.714909
O O4 0.848807 0.858103 0.991683
O O5 0.115612 0.396308 0.255261
O O6 0.049628 0.638365 0.172020
O O7 0.500000 0.500000 0.000000
O O8 0.488744 0.246715 0.877330
O O9 0.723539 0.697988 0.235156
O O10 0.500000 0.000000 0.500000
O O11 0.044786 0.851673 0.048278
O O12 0.275376 0.966241 0.426340
O O13 0.306888 0.640260 0.405975
O O14 0.000000 0.500000 0.500000
O O15 0.287418 0.127616 0.268192
#
# Coordination Sequence:
#
# PCOD9071593 Si02
#       7
#     2   2   2   2   2   1   2
#     4  12  28  48  82 119 170 223 286 357 428 522
#     4  12  30  51  81 121 171 225 284 350 443 515
#     4  12  29  49  87 123 169 225 287 361 430 528
#     4  12  27  50  85 122 170 218 296 348 445 511
#     4  12  30  52  86 123 174 232 292 358 445 529
#     4  12  28  50  84 126 174 220 292 354 448 504
#     4  12  28  53  82 121 173 224 284 369 432 516
#
# _framework density 26.822887000000001
#
# number of rings (size 3 to 8) (size 9 to 14) (size 15 to 20)
#    0.000    0.000    4.615    2.769    8.615    2.462 
#    0.000    0.000    0.000    0.000    0.000    0.000 
#    0.000    0.000    0.000    0.000    0.000    0.000 
#
# Total GULP energy -72615.912851 kJ/mol
# GULP energy per Si atom -5585.839450 kJ/mol
# Density = 2.676184 g / cm^3
# Si number density = 26.822887 Si / 1000 Ang^3
#
#
#
# Elastic Constant Matrix: (Units=GPa)
#
#
# Indices 1 2 3 4 5 6 
#
# 1 141.6820 90.7271 39.1090 -9.5107 -9.5412 -18.2144
# 2 90.7271 237.8250 91.8841 -23.3686 3.4289 -47.8373
# 3 39.1090 91.8841 113.7980 -6.3260 34.0800 -30.0521
# 4 -9.5107 -23.3686 -6.3260 72.5000 -6.6620 2.6908
# 5 -9.5412 3.4289 34.0800 -6.6620 58.2168 -13.7227
# 6 -18.2144 -47.8373 -30.0521 2.6908 -13.7227 72.7499
#
#
#
# Elastic Compliance Matrix: (Units=1/GPa)
#
#
# Indices 1 2 3 4 5 6 
#
# 1 0.009695 -0.002995 -0.001669 0.000412 0.002858 0.000292
# 2 -0.002995 0.008318 -0.005815 0.001980 0.003327 0.002872
# 3 -0.001669 -0.005815 0.017227 -0.001543 -0.009943 0.001056
# 4 0.000412 0.001980 -0.001543 0.014571 0.002695 0.000737
# 5 0.002858 0.003327 -0.009943 0.002695 0.024354 0.003290
# 6 0.000292 0.002872 0.001056 0.000737 0.003290 0.016737
#
#
# Mechanical properties :
#
#
# Convention : Reuss Voigt Hill
#
# Bulk Modulus (GPa) = 70.02088 104.08282 87.05185
# Shear Modulus (GPa) = 42.87354 58.79900 50.83627
#
# Velocity S-wave (km/s) = 4.00233 4.68709 4.35818
# Velocity P-wave (km/s) = 6.89346 8.25710 7.60590
#
# Compressibility (1/GPa) = 0.01428145
#
# Stress axis : x y z
#
# Youngs Moduli (GPa) = 103.14925 120.21619 58.04783
#
# Poissons Ratio (x) = 0.36011 0.09689
# Poissons Ratio (y) = 0.30898 0.33753
# Poissons Ratio (z) = 0.17217 0.69903
#
# Static dielectric constant tensor:
#      x y z
#    x 2.024860 0.031180 0.079290 
#    y 0.031180 2.181250 -0.011310 
#    z 0.079290 -0.011310 2.154520 
# 
# From -- ./inp_files/514346.got.cif
#   From: 2010.05.17/outbox.cif.g08.bks.cpg/sg2_258_cif.got.tgz:514346.got - 2010.06.03 11:33:40.
