data_PCOD9071706
_publ_section_title
;
Structure prediction by ZEFSAII (Michael W. Deem and Ramdas Pophale) SiO2 
 PCOD9071706
Probable space group: P -1
;
_chemical_formula_sum "Si O2"
_cell_formula_units_Z 10
_cell_length_a 5.066610
_cell_length_b 8.767846
_cell_length_c 13.486671
_cell_angle_alpha 82.481055
_cell_angle_beta 74.284470
_cell_angle_gamma 42.328078
_cell_volume 386.120725
_symmetry_space_group_name_H-M "P -1"
_symmetry_group_IT_number 2
_symmetry_cell_setting 'triclinic'
loop_
_space_group_symop_operation_xyz
x,y,z
-x,-y,-z
loop_
_atom_site_type_symbol
_atom_site_label
_atom_site_fract_x
_atom_site_fract_y
_atom_site_fract_z
Si Si1 0.822165 0.482118 0.159059
Si Si2 0.282119 0.944115 0.803350
Si Si3 0.105820 0.219115 0.962532
Si Si4 0.296340 0.147665 0.410179
Si Si5 0.395485 0.661332 0.664754
O O1 0.782630 0.675725 0.119616
O O2 0.534456 0.527608 0.269105
O O3 0.282781 0.278850 0.172945
O O4 0.800297 0.396065 0.065301
O O5 0.007303 0.126732 0.901430
O O6 0.405561 0.012688 0.698929
O O7 0.138575 0.858778 0.760289
O O8 0.500000 0.000000 0.000000
O O9 0.500000 0.000000 0.500000
O O10 0.277213 0.342882 0.391939
O O11 0.865507 0.258684 0.413488
#
# Coordination Sequence:
#
# PCOD9071706 Si02
#       5
#     2   2   2   2   2
#     4   9  17  33  53  77 112 145 177 220 267 317
#     4   8  18  31  51  80 106 142 179 219 265 317
#     4   9  17  33  54  79 109 145 182 220 265 321
#     4   9  17  32  57  83 104 140 181 221 269 322
#     4   9  18  32  55  80 108 142 178 219 272 318
#
# _framework density 25.898634999999999
#
# number of rings (size 3 to 8) (size 9 to 14) (size 15 to 20)
#    1.200    2.000    0.000    0.600    0.000    0.800 
#    0.000   15.000    0.000    6.000    0.000    0.000 
#    0.000    0.000    0.000    0.000    0.000    0.000 
#
# Total GULP energy -55830.216885 kJ/mol
# GULP energy per Si atom -5583.021688 kJ/mol
# Density = 2.583969 g / cm^3
# Si number density = 25.898635 Si / 1000 Ang^3
#
#
#
# Elastic Constant Matrix: (Units=GPa)
#
#
# Indices 1 2 3 4 5 6 
#
# 1 123.2665 20.1494 26.7780 2.8039 27.8246 17.3072
# 2 20.1494 77.2798 46.0857 -6.8174 1.7409 -12.7127
# 3 26.7780 46.0857 149.5552 -23.7045 28.4270 14.7243
# 4 2.8039 -6.8174 -23.7045 25.2791 4.5967 -9.7008
# 5 27.8246 1.7409 28.4270 4.5967 34.3130 -5.3800
# 6 17.3072 -12.7127 14.7243 -9.7008 -5.3800 30.2723
#
#
#
# Elastic Compliance Matrix: (Units=1/GPa)
#
#
# Indices 1 2 3 4 5 6 
#
# 1 0.016614 -0.011534 0.006126 -0.003966 -0.020930 -0.022312
# 2 -0.011534 0.029112 -0.013885 0.003678 0.023742 0.030971
# 3 0.006126 -0.013885 0.017512 0.008843 -0.022950 -0.019096
# 4 -0.003966 0.003678 0.008843 0.057199 -0.009425 0.016165
# 5 -0.020930 0.023742 -0.022950 -0.009425 0.071906 0.042858
# 6 -0.022312 0.030971 -0.019096 0.016165 0.042858 0.080881
#
#
# Mechanical properties :
#
#
# Convention : Reuss Voigt Hill
#
# Bulk Modulus (GPa) = 40.56334 59.56973 50.06654
# Shear Modulus (GPa) = 15.62370 35.11211 25.36790
#
# Velocity S-wave (km/s) = 2.45881 3.68605 3.13310
# Velocity P-wave (km/s) = 4.87415 6.41615 5.69756
#
# Compressibility (1/GPa) = 0.02465280
#
# Stress axis : x y z
#
# Youngs Moduli (GPa) = 60.18878 34.35048 57.10365
#
# Poissons Ratio (x) = 0.39619 -0.34980
# Poissons Ratio (y) = 0.69420 0.79286
# Poissons Ratio (z) = -0.36870 0.47694
#
# Static dielectric constant tensor:
#      x y z
#    x 2.040850 -0.025020 -0.019450 
#    y -0.025020 2.095700 0.040470 
#    z -0.019450 0.040470 2.058900 
# 
# From -- ./inp_files/2695.got.cif
#   From: 2010.05.17/outbox.cif.g08.bks.cpg/sg2_2_cif.got.tgz:2695.got - 2010.06.03 11:33:40.
