data_PCOD9071247
_publ_section_title
;
Structure prediction by ZEFSAII (Michael W. Deem and Ramdas Pophale) SiO2 
 PCOD9071247
Probable space group: P -1
;
_chemical_formula_sum "Si O2"
_cell_formula_units_Z 13
_cell_length_a 15.506818
_cell_length_b 9.847392
_cell_length_c 13.180827
_cell_angle_alpha 135.610572
_cell_angle_beta 26.544942
_cell_angle_gamma 144.340599
_cell_volume 523.792554
_symmetry_space_group_name_H-M "P -1"
_symmetry_group_IT_number 2
_symmetry_cell_setting 'triclinic'
loop_
_space_group_symop_operation_xyz
x,y,z
-x,-y,-z
loop_
_atom_site_type_symbol
_atom_site_label
_atom_site_fract_x
_atom_site_fract_y
_atom_site_fract_z
Si Si1 0.134061 0.304232 0.618681
Si Si2 0.491233 0.777406 0.600757
Si Si3 0.282934 0.045320 0.984113
Si Si4 0.008091 0.886490 0.825728
Si Si5 0.500000 0.500000 0.000000
Si Si6 0.647475 0.968829 0.747243
Si Si7 0.930775 0.540222 0.443679
O O1 0.336387 0.522451 0.584505
O O2 0.074282 0.405202 0.640669
O O3 0.225930 0.147501 0.402408
O O4 0.926865 0.148939 0.832339
O O5 0.758495 0.904933 0.360337
O O6 0.480807 0.799397 0.743688
O O7 0.392981 0.929109 0.745858
O O8 0.209321 0.178211 0.053395
O O9 0.453203 0.269875 0.991112
O O10 0.029064 0.667504 0.698748
O O11 0.000000 0.000000 0.000000
O O12 0.700577 0.490346 0.713592
O O13 0.848897 0.214161 0.617388
O O14 0.500000 0.000000 0.000000
#
# Coordination Sequence:
#
# PCOD9071247 Si02
#       7
#     2   2   2   2   1   2   2
#     4  12  27  51  79 114 158 206 265 327 393 474
#     4  12  27  50  79 113 158 209 258 327 398 471
#     4  12  27  49  79 111 158 203 261 323 394 466
#     4  12  29  48  77 117 160 205 262 323 401 475
#     4  12  26  46  78 110 162 202 256 326 398 460
#     4  12  28  47  80 117 155 201 268 329 397 463
#     4  12  28  50  81 117 159 208 271 326 395 478
#
# _framework density 24.818984
#
# number of rings (size 3 to 8) (size 9 to 14) (size 15 to 20)
#    0.000    0.000    4.615    3.231    8.615    2.462 
#    0.000    0.000    0.000    0.000    0.000    0.000 
#    0.000    0.000    0.000    0.000    0.000    0.000 
#
# Total GULP energy -72679.741407 kJ/mol
# GULP energy per Si atom -5590.749339 kJ/mol
# Density = 2.476250 g / cm^3
# Si number density = 24.818984 Si / 1000 Ang^3
#
#
#
# Elastic Constant Matrix: (Units=GPa)
#
#
# Indices 1 2 3 4 5 6 
#
# 1 115.0267 21.1780 27.9686 11.0941 -1.0243 -12.0899
# 2 21.1780 136.7659 34.6873 8.0560 -13.3436 -9.0663
# 3 27.9686 34.6873 152.3647 14.4281 -9.3777 -8.8963
# 4 11.0941 8.0560 14.4281 43.6034 1.0397 -1.4329
# 5 -1.0243 -13.3436 -9.3777 1.0397 38.9942 9.8584
# 6 -12.0899 -9.0663 -8.8963 -1.4329 9.8584 34.1235
#
#
#
# Elastic Compliance Matrix: (Units=1/GPa)
#
#
# Indices 1 2 3 4 5 6 
#
# 1 0.009665 -0.000976 -0.001277 -0.001728 -0.001121 0.003083
# 2 -0.000976 0.008139 -0.001414 -0.000816 0.002248 0.000765
# 3 -0.001277 -0.001414 0.007407 -0.001869 0.001138 0.000696
# 4 -0.001728 -0.000816 -0.001869 0.024181 -0.001449 0.000118
# 5 -0.001121 0.002248 0.001138 -0.001449 0.028682 -0.007850
# 6 0.003083 0.000765 0.000696 0.000118 -0.007850 0.033055
#
#
# Mechanical properties :
#
#
# Convention : Reuss Voigt Hill
#
# Bulk Modulus (GPa) = 55.93473 63.53611 59.73542
# Shear Modulus (GPa) = 40.18587 44.69912 42.44249
#
# Velocity S-wave (km/s) = 4.02824 4.24843 4.13980
# Velocity P-wave (km/s) = 6.64994 7.05131 6.85356
#
# Compressibility (1/GPa) = 0.01787798
#
# Stress axis : x y z
#
# Youngs Moduli (GPa) = 103.47057 122.85776 135.00495
#
# Poissons Ratio (x) = 0.11988 0.17243
# Poissons Ratio (y) = 0.10096 0.19084
# Poissons Ratio (z) = 0.13216 0.17367
#
# Static dielectric constant tensor:
#      x y z
#    x 1.929410 -0.201600 -0.054050 
#    y -0.201600 1.705140 -0.008090 
#    z -0.054050 -0.008090 1.932540 
# 
# From -- ./inp_files/448142.got.cif
#   From: 2010.05.17/outbox.cif.g08.bks.cpg/sg2_225_cif.got.tgz:448142.got - 2010.06.03 11:33:40.
