data_PCOD9071342
_publ_section_title
;
Structure prediction by ZEFSAII (Michael W. Deem and Ramdas Pophale) SiO2 
 PCOD9071342
Probable space group: P -1
;
_chemical_formula_sum "Si O2"
_cell_formula_units_Z 14
_cell_length_a 15.233519
_cell_length_b 6.276059
_cell_length_c 8.421024
_cell_angle_alpha 95.709285
_cell_angle_beta 44.547488
_cell_angle_gamma 91.891430
_cell_volume 561.150596
_symmetry_space_group_name_H-M "P -1"
_symmetry_group_IT_number 2
_symmetry_cell_setting 'triclinic'
loop_
_space_group_symop_operation_xyz
x,y,z
-x,-y,-z
loop_
_atom_site_type_symbol
_atom_site_label
_atom_site_fract_x
_atom_site_fract_y
_atom_site_fract_z
Si Si1 0.381688 0.862151 0.688839
Si Si2 0.231918 0.769751 0.383802
Si Si3 0.520575 0.214529 0.091499
Si Si4 0.034609 0.043018 0.775213
Si Si5 0.090336 0.623309 0.277366
Si Si6 0.715970 0.521643 0.437119
Si Si7 0.173865 0.241297 0.973089
O O1 0.409638 0.808681 0.831185
O O2 0.352083 0.659892 0.597834
O O3 0.500000 0.000000 0.500000
O O4 0.265373 0.032948 0.844303
O O5 0.160430 0.782438 0.310924
O O6 0.200163 0.600336 0.547185
O O7 0.180996 0.992429 0.545980
O O8 0.374884 0.696213 0.153247
O O9 0.391459 0.333706 0.323667
O O10 0.500000 0.000000 0.000000
O O11 0.977140 0.252483 0.774037
O O12 0.955853 0.843675 0.801538
O O13 0.000000 0.000000 0.000000
O O14 0.000000 0.500000 0.500000
O O15 0.194996 0.444360 0.071290
O O16 0.805309 0.654288 0.218620
#
# Coordination Sequence:
#
# PCOD9071342 Si02
#       7
#     2   2   2   2   2   2   2
#     4  12  26  49  79 109 153 208 257 322 383 474
#     4  12  27  47  76 108 159 190 258 325 388 457
#     4  12  28  47  77 114 154 197 261 323 394 452
#     4  12  28  49  76 109 153 206 259 313 387 471
#     4  12  28  48  76 117 152 201 255 325 394 453
#     4  12  28  50  75 115 150 210 259 313 395 469
#     4  12  26  48  77 107 154 199 264 306 391 472
#
# _framework density 24.948740000000001
#
# number of rings (size 3 to 8) (size 9 to 14) (size 15 to 20)
#    0.000    0.000    2.857    6.429   10.000    1.143 
#    0.000    0.000    0.000    0.000    0.000    0.000 
#    0.000    0.000    0.000    0.000    0.000    0.000 
#
# Total GULP energy -78110.379270 kJ/mol
# GULP energy per Si atom -5579.312805 kJ/mol
# Density = 2.489196 g / cm^3
# Si number density = 24.948740 Si / 1000 Ang^3
#
#
#
# Elastic Constant Matrix: (Units=GPa)
#
#
# Indices 1 2 3 4 5 6 
#
# 1 81.7161 42.3703 17.5411 5.9175 19.6446 -11.1128
# 2 42.3703 112.8983 59.2108 14.6074 13.4499 -1.9470
# 3 17.5411 59.2108 143.7385 14.5643 -5.9055 5.6257
# 4 5.9175 14.6074 14.5643 68.1813 4.7494 7.3140
# 5 19.6446 13.4499 -5.9055 4.7494 40.4383 6.8189
# 6 -11.1128 -1.9470 5.6257 7.3140 6.8189 41.3381
#
#
#
# Elastic Compliance Matrix: (Units=1/GPa)
#
#
# Indices 1 2 3 4 5 6 
#
# 1 0.017869 -0.005343 -0.000501 -0.000389 -0.007943 0.005999
# 2 -0.005343 0.014079 -0.005152 -0.001325 -0.002789 0.000622
# 3 -0.000501 -0.005152 0.009473 -0.000913 0.003808 -0.002133
# 4 -0.000389 -0.001325 -0.000913 0.015524 -0.000881 -0.002644
# 5 -0.007943 -0.002789 0.003808 -0.000881 0.031494 -0.007824
# 6 0.005999 0.000622 -0.002133 -0.002644 -0.007824 0.027882
#
#
# Mechanical properties :
#
#
# Convention : Reuss Voigt Hill
#
# Bulk Modulus (GPa) = 51.47294 64.06636 57.76965
# Shear Modulus (GPa) = 34.53244 44.60690 39.56967
#
# Velocity S-wave (km/s) = 3.72443 4.23299 3.98683
# Velocity P-wave (km/s) = 6.25871 7.04457 6.66323
#
# Compressibility (1/GPa) = 0.01942768
#
# Stress axis : x y z
#
# Youngs Moduli (GPa) = 55.96271 71.02534 105.56170
#
# Poissons Ratio (x) = 0.37950 0.05291
# Poissons Ratio (y) = 0.29902 0.54391
# Poissons Ratio (z) = 0.02805 0.36596
#
# Static dielectric constant tensor:
#      x y z
#    x 2.076060 0.092130 -0.018110 
#    y 0.092130 2.023180 -0.012080 
#    z -0.018110 -0.012080 2.055180 
# 
# From -- ./inp_files/323647.got.cif
#   From: 2010.05.17/outbox.cif.g08.bks.cpg/sg2_162_cif.got.tgz:323647.got - 2010.06.03 11:33:40.
