data_PCOD9071911
_publ_section_title
;
Structure prediction by ZEFSAII (Michael W. Deem and Ramdas Pophale) SiO2 
 PCOD9071911
Probable space group: P -1
;
_chemical_formula_sum "Si O2"
_cell_formula_units_Z 16
_cell_length_a 10.640547
_cell_length_b 12.715991
_cell_length_c 11.226548
_cell_angle_alpha 89.457064
_cell_angle_beta 145.564596
_cell_angle_gamma 112.157326
_cell_volume 650.388512
_symmetry_space_group_name_H-M "P -1"
_symmetry_group_IT_number 2
_symmetry_cell_setting 'triclinic'
loop_
_space_group_symop_operation_xyz
x,y,z
-x,-y,-z
loop_
_atom_site_type_symbol
_atom_site_label
_atom_site_fract_x
_atom_site_fract_y
_atom_site_fract_z
Si Si1 0.607074 0.191729 0.003112
Si Si2 0.266979 0.915410 0.607730
Si Si3 0.183904 0.450000 0.016075
Si Si4 0.335587 0.638371 0.749154
Si Si5 0.947535 0.342059 0.065134
Si Si6 0.597057 0.926681 0.501550
Si Si7 0.651735 0.669714 0.217081
Si Si8 0.572154 0.222942 0.411056
O O1 0.920065 0.288604 0.177658
O O2 0.425337 0.234203 0.804231
O O3 0.433591 0.035139 0.834355
O O4 0.624311 0.238738 0.149492
O O5 0.469661 0.893305 0.700796
O O6 0.989325 0.775301 0.450932
O O7 0.175983 0.964474 0.423685
O O8 0.197260 0.406054 0.159627
O O9 0.907546 0.320080 0.724935
O O10 0.091705 0.544643 0.954057
O O11 0.491456 0.547081 0.187793
O O12 0.437220 0.685242 0.692347
O O13 0.000000 0.500000 0.500000
O O14 0.502392 0.614662 0.971347
O O15 0.671863 0.201862 0.784842
O O16 0.641737 0.852915 0.641124
O O17 0.500000 0.000000 0.500000
#
# Coordination Sequence:
#
# PCOD9071911 Si02
#       8
#     2   2   2   2   2   2   2   2
#     4   8  17  29  48  67  94 118 153 190 229 269
#     4  10  18  31  47  71  94 122 151 190 238 269
#     4   9  15  26  43  69  90 112 156 193 226 255
#     4  10  18  32  46  67  96 123 151 192 225 274
#     4   8  13  25  45  65  87 114 154 194 224 255
#     4   8  16  28  45  68  93 116 153 195 226 266
#     4   9  18  29  47  68  97 120 149 192 234 270
#     4  10  18  30  48  68  95 120 156 192 224 275
#
# _framework density 24.600681000000002
#
# number of rings (size 3 to 8) (size 9 to 14) (size 15 to 20)
#    0.750    2.250    1.250    0.375    0.000    1.000 
#    0.000    0.625    0.000    0.000    0.000    0.875 
#    0.000    0.750    0.000    0.000    0.000    0.000 
#
# Total GULP energy -89094.821861 kJ/mol
# GULP energy per Si atom -5568.426366 kJ/mol
# Density = 2.454469 g / cm^3
# Si number density = 24.600681 Si / 1000 Ang^3
#
#
#
# Elastic Constant Matrix: (Units=GPa)
#
#
# Indices 1 2 3 4 5 6 
#
# 1 94.9020 40.1851 24.2802 5.5018 -15.3360 31.4222
# 2 40.1851 -29.7450 -1.2916 -59.3981 2.3758 20.0596
# 3 24.2802 -1.2916 52.9670 6.5980 -14.6933 -11.6465
# 4 5.5018 -59.3981 6.5980 5.0631 -4.3549 -28.4636
# 5 -15.3360 2.3758 -14.6933 -4.3549 34.3495 15.8260
# 6 31.4222 20.0596 -11.6465 -28.4636 15.8260 62.0132
#
#
#
# Elastic Compliance Matrix: (Units=1/GPa)
#
#
# Indices 1 2 3 4 5 6 
#
# 1 0.014866 0.005592 -0.007177 0.004020 0.008800 -0.011090
# 2 0.005592 0.005935 -0.001645 -0.021287 0.006253 -0.016428
# 3 -0.007177 -0.001645 0.025063 -0.002099 0.004215 0.006836
# 4 0.004020 -0.021287 -0.002099 0.017742 -0.001343 0.012940
# 5 0.008800 0.006253 0.004215 -0.001343 0.042097 -0.017050
# 6 -0.011090 -0.016428 0.006836 0.012940 -0.017050 0.038633
#
#
# Mechanical properties :
#
#
# Convention : Reuss Voigt Hill
#
# Bulk Modulus (GPa) = 25.37737 27.16349 26.27043
# Shear Modulus (GPa) = 30.50070 23.94851 27.22460
#
# Velocity S-wave (km/s) = 3.52494 3.12346 3.33026
# Velocity P-wave (km/s) = 5.18701 4.90650 5.04871
#
# Compressibility (1/GPa) = 0.03940518
#
# Stress axis : x y z
#
# Youngs Moduli (GPa) = 67.26568 168.50253 39.89908
#
# Poissons Ratio (x) = -0.94220 0.28634
# Poissons Ratio (y) = -0.37612 0.06562
# Poissons Ratio (z) = 0.48274 0.27711
#
# Static dielectric constant tensor:
#      x y z
#    x 2.059250 -0.015660 0.074670 
#    y -0.015660 2.191500 -0.151280 
#    z 0.074670 -0.151280 2.091870 
# 
# From -- ./inp_files/421302.got.cif
#   From: 2010.05.17/outbox.cif.g08.bks.cpg/sg2_211_cif.got.tgz:421302.got - 2010.06.03 11:33:40.
