data_PCOD9071722
_publ_section_title
;
Structure prediction by ZEFSAII (Michael W. Deem and Ramdas Pophale) SiO2 
 PCOD9071722
Probable space group: P -1
;
_chemical_formula_sum "Si O2"
_cell_formula_units_Z 12
_cell_length_a 15.645264
_cell_length_b 5.539700
_cell_length_c 28.630594
_cell_angle_alpha 135.781380
_cell_angle_beta 16.322726
_cell_angle_gamma 130.485610
_cell_volume 476.867106
_symmetry_space_group_name_H-M "P -1"
_symmetry_group_IT_number 2
_symmetry_cell_setting 'triclinic'
loop_
_space_group_symop_operation_xyz
x,y,z
-x,-y,-z
loop_
_atom_site_type_symbol
_atom_site_label
_atom_site_fract_x
_atom_site_fract_y
_atom_site_fract_z
Si Si1 0.889208 0.250167 0.314920
Si Si2 0.330574 0.025314 0.517260
Si Si3 0.659015 0.112650 0.041222
Si Si4 0.180502 0.126865 0.836089
Si Si5 0.832401 0.901455 0.640129
Si Si6 0.459927 0.961826 0.279880
O O1 0.589665 0.147130 0.431596
O O2 0.872790 0.639183 0.356008
O O3 0.846473 0.188257 0.383909
O O4 0.199919 0.994326 0.097892
O O5 0.533097 0.826844 0.340784
O O6 0.356903 0.973226 0.196809
O O7 0.566682 0.535844 0.157168
O O8 0.947275 0.961342 0.903707
O O9 0.312938 0.921961 0.785078
O O10 0.000000 0.500000 0.000000
O O11 0.000000 0.500000 0.500000
O O12 0.112067 0.073388 0.498987
O O13 0.573787 0.907796 0.736789
#
# Coordination Sequence:
#
# PCOD9071722 Si02
#       6
#     2   2   2   2   2   2
#     4   9  18  32  53  74 109 144 184 214 261 324
#     4   9  18  34  49  77 110 146 173 219 270 321
#     4   9  18  31  53  81 102 137 179 223 261 319
#     4   9  18  35  51  83 110 133 172 222 277 320
#     4   9  18  33  50  75 102 140 180 214 269 320
#     4   9  18  33  52  76 107 139 170 222 276 320
#
# _framework density 25.164242000000002
#
# number of rings (size 3 to 8) (size 9 to 14) (size 15 to 20)
#    0.000    3.000    0.000    0.000    2.333    0.667 
#   18.000    0.000    0.000    2.000    0.000    0.000 
#    0.000    0.000    0.000    0.000    0.000    0.000 
#
# Total GULP energy -66997.423904 kJ/mol
# GULP energy per Si atom -5583.118659 kJ/mol
# Density = 2.510697 g / cm^3
# Si number density = 25.164242 Si / 1000 Ang^3
#
#
#
# Elastic Constant Matrix: (Units=GPa)
#
#
# Indices 1 2 3 4 5 6 
#
# 1 95.0503 42.9926 29.6761 4.1453 3.7055 -24.2820
# 2 42.9926 68.0064 52.6545 -1.4888 16.4586 -18.9550
# 3 29.6761 52.6545 179.7589 -14.5598 33.4378 -17.5300
# 4 4.1453 -1.4888 -14.5598 23.1496 -8.0744 3.1133
# 5 3.7055 16.4586 33.4378 -8.0744 31.1265 -6.1877
# 6 -24.2820 -18.9550 -17.5300 3.1133 -6.1877 40.9270
#
#
#
# Elastic Compliance Matrix: (Units=1/GPa)
#
#
# Indices 1 2 3 4 5 6 
#
# 1 0.016427 -0.009423 -0.000318 -0.003262 0.003727 0.006057
# 2 -0.009423 0.027421 -0.004800 -0.002967 -0.008188 0.004041
# 3 -0.000318 -0.004800 0.008306 0.003027 -0.005546 0.000077
# 4 -0.003262 -0.002967 0.003027 0.049823 0.010800 -0.004170
# 5 0.003727 -0.008188 -0.005546 0.010800 0.045181 0.002053
# 6 0.006057 0.004041 0.000077 -0.004170 0.002053 0.030559
#
#
# Mechanical properties :
#
#
# Convention : Reuss Voigt Hill
#
# Bulk Modulus (GPa) = 43.34524 65.94022 54.64273
# Shear Modulus (GPa) = 23.31120 33.54011 28.42566
#
# Velocity S-wave (km/s) = 3.04692 3.65478 3.36461
# Velocity P-wave (km/s) = 5.44432 6.63858 6.07089
#
# Compressibility (1/GPa) = 0.02307059
#
# Stress axis : x y z
#
# Youngs Moduli (GPa) = 60.87595 36.46865 120.39713
#
# Poissons Ratio (x) = 0.34366 0.03834
# Poissons Ratio (y) = 0.57366 0.57785
# Poissons Ratio (z) = 0.01939 0.17503
#
# Static dielectric constant tensor:
#      x y z
#    x 2.009110 0.002170 0.012110 
#    y 0.002170 2.013040 -0.013720 
#    z 0.012110 -0.013720 1.997460 
# 
# From -- ./inp_files/35118.got.cif
#   From: 2010.05.17/outbox.cif.g08.bks.cpg/sg2_18_cif.got.tgz:35118.got - 2010.06.03 11:33:40.
