data_PCOD9071868
_publ_section_title
;
Structure prediction by ZEFSAII (Michael W. Deem and Ramdas Pophale) SiO2 
 PCOD9071868
Probable space group: P -1
;
_chemical_formula_sum "Si O2"
_cell_formula_units_Z 16
_cell_length_a 12.758982
_cell_length_b 13.038896
_cell_length_c 13.211489
_cell_angle_alpha 100.684992
_cell_angle_beta 157.606787
_cell_angle_gamma 77.681718
_cell_volume 817.623762
_symmetry_space_group_name_H-M "P -1"
_symmetry_group_IT_number 2
_symmetry_cell_setting 'triclinic'
loop_
_space_group_symop_operation_xyz
x,y,z
-x,-y,-z
loop_
_atom_site_type_symbol
_atom_site_label
_atom_site_fract_x
_atom_site_fract_y
_atom_site_fract_z
Si Si1 0.136472 0.122694 0.536682
Si Si2 0.146217 0.916981 0.037619
Si Si3 0.910873 0.776730 0.268868
Si Si4 0.660153 0.586707 0.359931
Si Si5 0.713887 0.997301 0.039309
Si Si6 0.274190 0.210169 0.456145
Si Si7 0.279560 0.600682 0.846239
Si Si8 0.573792 0.348187 0.229042
O O1 0.152107 0.187053 0.665058
O O2 0.187037 0.188035 0.491653
O O3 0.852376 0.071950 0.256536
O O4 0.385665 0.028235 0.749050
O O5 0.961050 0.823431 0.832508
O O6 0.175390 0.973602 0.966187
O O7 0.448592 0.866447 0.331136
O O8 0.000000 0.000000 0.000000
O O9 0.814594 0.878533 0.135632
O O10 0.231469 0.731270 0.542316
O O11 0.731020 0.684098 0.060487
O O12 0.677426 0.668326 0.480864
O O13 0.586578 0.469299 0.293230
O O14 0.969838 0.574899 0.585875
O O15 0.423260 0.641270 0.081797
O O16 0.294715 0.665623 0.769512
O O17 0.500000 0.500000 0.000000
#
# Coordination Sequence:
#
# PCOD9071868 Si02
#       8
#     2   2   2   2   2   2   2   2
#     4  10  19  33  49  72 103 134 171 207 243 300
#     4  10  21  38  58  81 100 120 162 218 271 319
#     4  12  21  32  48  72 104 145 175 200 239 289
#     4  11  20  33  48  72 104 137 176 215 246 293
#     4  10  21  35  52  73 100 133 169 210 255 301
#     4  10  20  33  55  79 102 132 162 207 266 307
#     4  10  18  30  45  65 100 144 181 212 237 266
#     4  11  21  30  45  70 102 141 178 205 234 283
#
# _framework density 19.568902000000001
#
# number of rings (size 3 to 8) (size 9 to 14) (size 15 to 20)
#    0.000    1.500    0.000    8.625    0.000    2.000 
#    0.000    0.000    0.000    0.000    0.000    5.250 
#    0.000    0.000    0.000    0.000    0.000    0.000 
#
# Total GULP energy -89388.701597 kJ/mol
# GULP energy per Si atom -5586.793850 kJ/mol
# Density = 1.952436 g / cm^3
# Si number density = 19.568902 Si / 1000 Ang^3
#
#
#
# Elastic Constant Matrix: (Units=GPa)
#
#
# Indices 1 2 3 4 5 6 
#
# 1 21.8630 6.2208 3.7826 1.1837 3.6390 -13.5260
# 2 6.2208 69.8032 -6.6758 -1.2581 -5.2900 -0.8391
# 3 3.7826 -6.6758 58.0949 -1.2903 -0.0727 7.1978
# 4 1.1837 -1.2581 -1.2903 34.3615 2.0777 -3.8399
# 5 3.6390 -5.2900 -0.0727 2.0777 13.4266 -1.8062
# 6 -13.5260 -0.8391 7.1978 -3.8399 -1.8062 20.4225
#
#
#
# Elastic Compliance Matrix: (Units=1/GPa)
#
#
# Indices 1 2 3 4 5 6 
#
# 1 0.097718 -0.011031 -0.016083 0.004671 -0.022381 0.068833
# 2 -0.011031 0.016192 0.003471 -0.000208 0.008458 -0.007155
# 3 -0.016083 0.003471 0.020837 -0.000728 0.003574 -0.017674
# 4 0.004671 -0.000208 -0.000728 0.030160 -0.004864 0.008582
# 5 -0.022381 0.008458 0.003574 -0.004864 0.083402 -0.009274
# 6 0.068833 -0.007155 -0.017674 0.008582 -0.009274 0.101283
#
#
# Mechanical properties :
#
#
# Convention : Reuss Voigt Hill
#
# Bulk Modulus (GPa) = 11.43346 17.37961 14.40654
# Shear Modulus (GPa) = 11.73626 23.40436 17.57031
#
# Velocity S-wave (km/s) = 2.45162 3.46207 2.99970
# Velocity P-wave (km/s) = 3.72414 4.98816 4.40176
#
# Compressibility (1/GPa) = 0.08746256
#
# Stress axis : x y z
#
# Youngs Moduli (GPa) = 10.23356 61.75772 47.99081
#
# Poissons Ratio (x) = 0.68126 0.77182
# Poissons Ratio (y) = 0.11289 -0.16660
# Poissons Ratio (z) = 0.16458 -0.21439
#
# Static dielectric constant tensor:
#      x y z
#    x 1.666460 0.011000 -0.013150 
#    y 0.011000 1.738750 0.002050 
#    z -0.013150 0.002050 1.723120 
# 
# From -- ./inp_files/84087.got.cif
#   From: 2010.05.17/outbox.cif.g08.bks.cpg/sg2_43_cif.got.tgz:84087.got - 2010.06.03 11:33:40.
