data_PCOD9071791
_publ_section_title
;
Structure prediction by ZEFSAII (Michael W. Deem and Ramdas Pophale) SiO2 
 PCOD9071791
Probable space group: P -1
;
_chemical_formula_sum "Si O2"
_cell_formula_units_Z 16
_cell_length_a 29.036099
_cell_length_b 5.460941
_cell_length_c 9.546160
_cell_angle_alpha 117.318830
_cell_angle_beta 36.799393
_cell_angle_gamma 93.231582
_cell_volume 653.599030
_symmetry_space_group_name_H-M "P -1"
_symmetry_group_IT_number 2
_symmetry_cell_setting 'triclinic'
loop_
_space_group_symop_operation_xyz
x,y,z
-x,-y,-z
loop_
_atom_site_type_symbol
_atom_site_label
_atom_site_fract_x
_atom_site_fract_y
_atom_site_fract_z
Si Si1 0.532327 0.416487 0.739598
Si Si2 0.100723 0.035857 0.667438
Si Si3 0.916881 0.849942 0.717361
Si Si4 0.057382 0.661426 0.075678
Si Si5 0.332428 0.182853 0.098383
Si Si6 0.339185 0.721418 0.129949
Si Si7 0.558779 0.745338 0.509980
Si Si8 0.192360 0.238684 0.257705
O O1 0.433110 0.587458 0.948837
O O2 0.572113 0.584661 0.590679
O O3 0.583089 0.015008 0.515229
O O4 0.500000 0.500000 0.000000
O O5 0.155563 0.098377 0.429074
O O6 0.994883 0.199549 0.910137
O O7 0.143970 0.643069 0.479191
O O8 0.097188 0.265137 0.863278
O O9 0.830941 0.848955 0.859917
O O10 0.000000 0.500000 0.500000
O O11 0.971838 0.835376 0.441114
O O12 0.888906 0.174347 0.963680
O O13 0.295705 0.103207 0.029435
O O14 0.292550 0.572032 0.285563
O O15 0.290236 0.106942 0.312286
O O16 0.447314 0.951121 0.781588
O O17 0.377698 0.524482 0.835864
#
# Coordination Sequence:
#
# PCOD9071791 Si02
#       8
#     2   2   2   2   2   2   2   2
#     4  10  18  29  50  83 107 132 169 226 280 319
#     4  10  21  35  55  81 108 144 188 226 272 326
#     4  10  19  34  56  84 111 140 182 230 284 319
#     4   9  20  34  55  82 109 141 183 234 271 327
#     4  10  19  33  54  80 107 142 183 230 275 324
#     4  10  19  35  58  80 105 141 189 234 272 323
#     4  10  19  34  56  81 107 140 188 232 273 321
#     4  11  22  35  55  82 112 146 188 228 276 338
#
# _framework density 24.479841
#
# number of rings (size 3 to 8) (size 9 to 14) (size 15 to 20)
#    0.000    2.000    1.250    4.875    1.750    1.500 
#    0.000    0.000    0.000   15.000    6.500    0.000 
#    0.000    0.000    0.000    0.000    0.000    0.000 
#
# Total GULP energy -89093.920180 kJ/mol
# GULP energy per Si atom -5568.370011 kJ/mol
# Density = 2.442412 g / cm^3
# Si number density = 24.479841 Si / 1000 Ang^3
#
#
#
# Elastic Constant Matrix: (Units=GPa)
#
#
# Indices 1 2 3 4 5 6 
#
# 1 1042.2117 -59.9752 169.3829 -107.6393 -129.6180 122.0321
# 2 -59.9752 242.2031 31.0691 20.1655 34.6415 -21.4745
# 3 169.3829 31.0691 82.8382 -8.0421 0.0409 15.2540
# 4 -107.6393 20.1655 -8.0421 49.6501 20.9187 -7.1283
# 5 -129.6180 34.6415 0.0409 20.9187 53.6000 -14.6691
# 6 122.0321 -21.4745 15.2540 -7.1283 -14.6691 52.7754
#
#
#
# Elastic Compliance Matrix: (Units=1/GPa)
#
#
# Indices 1 2 3 4 5 6 
#
# 1 0.003644 0.000159 -0.006367 0.003603 0.006123 -0.004333
# 2 0.000159 0.005031 -0.002635 -0.001040 -0.001980 0.001750
# 3 -0.006367 -0.002635 0.025274 -0.003336 -0.011688 0.002646
# 4 0.003603 -0.001040 -0.003336 0.028416 -0.003013 -0.004790
# 5 0.006123 -0.001980 -0.011688 -0.003013 0.035334 -0.002172
# 6 -0.004333 0.001750 0.002646 -0.004790 -0.002172 0.027665
#
#
# Mechanical properties :
#
#
# Convention : Reuss Voigt Hill
#
# Bulk Modulus (GPa) = 61.48511 183.13405 122.30958
# Shear Modulus (GPa) = 33.67672 112.99019 73.33345
#
# Velocity S-wave (km/s) = 3.71306 6.80122 5.47921
# Velocity P-wave (km/s) = 6.59951 11.68966 9.49214
#
# Compressibility (1/GPa) = 0.01626410
#
# Stress axis : x y z
#
# Youngs Moduli (GPa) = 274.38621 198.76667 39.56713
#
# Poissons Ratio (x) = -0.03165 0.25193
# Poissons Ratio (y) = -0.04369 0.10425
# Poissons Ratio (z) = 1.74703 0.52368
#
# Static dielectric constant tensor:
#      x y z
#    x 2.017180 0.034740 -0.006940 
#    y 0.034740 2.083020 0.015680 
#    z -0.006940 0.015680 1.982120 
# 
# From -- ./inp_files/356063.got.cif
#   From: 2010.05.17/outbox.cif.g08.bks.cpg/sg2_179_cif.got.tgz:356063.got - 2010.06.03 11:33:40.
