data_PCOD9071760
_publ_section_title
;
Structure prediction by ZEFSAII (Michael W. Deem and Ramdas Pophale) SiO2 
 PCOD9071760
Probable space group: P -1
;
_chemical_formula_sum "Si O2"
_cell_formula_units_Z 16
_cell_length_a 9.797018
_cell_length_b 9.963451
_cell_length_c 14.862655
_cell_angle_alpha 143.458361
_cell_angle_beta 112.167803
_cell_angle_gamma 58.691250
_cell_volume 735.708625
_symmetry_space_group_name_H-M "P -1"
_symmetry_group_IT_number 2
_symmetry_cell_setting 'triclinic'
loop_
_space_group_symop_operation_xyz
x,y,z
-x,-y,-z
loop_
_atom_site_type_symbol
_atom_site_label
_atom_site_fract_x
_atom_site_fract_y
_atom_site_fract_z
Si Si1 0.512544 0.553065 0.321172
Si Si2 0.984586 0.797343 0.301462
Si Si3 0.817708 0.412814 0.217932
Si Si4 0.994681 0.702081 0.979232
Si Si5 0.218246 0.033745 0.498414
Si Si6 0.740949 0.638680 0.775892
Si Si7 0.984896 0.842427 0.696898
Si Si8 0.255710 0.363136 0.433359
O O1 0.647069 0.417657 0.207996
O O2 0.410332 0.395172 0.237104
O O3 0.602158 0.608874 0.459654
O O4 0.385174 0.817475 0.400746
O O5 0.108475 0.624877 0.316459
O O6 0.964593 0.574586 0.124595
O O7 0.822741 0.955880 0.398663
O O8 0.081355 0.957242 0.379006
O O9 0.881515 0.328315 0.088598
O O10 0.793848 0.695742 0.376776
O O11 0.949639 0.256758 0.238642
O O12 0.817721 0.793323 0.937801
O O13 0.004412 0.895394 0.156261
O O14 0.710742 0.698316 0.696068
O O15 0.110118 0.629246 0.552301
O O16 0.811517 0.828460 0.643317
#
# Coordination Sequence:
#
# PCOD9071760 Si02
#       8
#     2   2   2   2   2   2   2   2
#     4  10  20  29  47  76 108 127 161 199 251 296
#     4   7  15  27  53  76  91 122 171 206 239 283
#     4  10  18  29  49  78  98 129 165 207 242 284
#     4   9  17  32  55  74  98 124 168 211 246 277
#     4   9  14  29  47  74 103 124 159 208 242 284
#     4   9  17  33  52  73 100 127 162 205 247 289
#     4  10  19  32  52  78  98 126 171 206 239 294
#     4  10  19  31  48  75 105 131 163 196 246 305
#
# _framework density 21.747738999999999
#
# number of rings (size 3 to 8) (size 9 to 14) (size 15 to 20)
#    0.750    2.000    1.250    1.125    0.000    0.000 
#    0.000    2.500    2.750    3.000    0.000   56.000 
#    0.000    0.000    0.000    0.000    0.000    0.000 
#
# Total GULP energy -89176.594716 kJ/mol
# GULP energy per Si atom -5573.537170 kJ/mol
# Density = 2.169824 g / cm^3
# Si number density = 21.747739 Si / 1000 Ang^3
#
#
#
# Elastic Constant Matrix: (Units=GPa)
#
#
# Indices 1 2 3 4 5 6 
#
# 1 135.1000 9.3772 35.6174 -6.1202 17.3128 9.6634
# 2 9.3772 27.4547 13.1862 -0.9173 1.5676 -0.0462
# 3 35.6174 13.1862 130.0965 -1.5637 18.2787 9.4271
# 4 -6.1202 -0.9173 -1.5637 33.7809 1.4926 2.4780
# 5 17.3128 1.5676 18.2787 1.4926 17.0381 4.3607
# 6 9.6634 -0.0462 9.4271 2.4780 4.3607 25.1184
#
#
#
# Elastic Compliance Matrix: (Units=1/GPa)
#
#
# Indices 1 2 3 4 5 6 
#
# 1 0.009016 -0.002091 -0.001031 0.002007 -0.007534 -0.001976
# 2 -0.002091 0.038853 -0.003797 0.000267 0.002112 0.001908
# 3 -0.001031 -0.003797 0.009703 0.000673 -0.008605 -0.001825
# 4 0.002007 0.000267 0.000673 0.030446 -0.004628 -0.003224
# 5 -0.007534 0.002112 -0.008605 -0.004628 0.077549 -0.006875
# 6 -0.001976 0.001908 -0.001825 -0.003224 -0.006875 0.042772
#
#
# Mechanical properties :
#
#
# Convention : Reuss Voigt Hill
#
# Bulk Modulus (GPa) = 22.86509 45.44589 34.15549
# Shear Modulus (GPa) = 21.11889 30.81883 25.96886
#
# Velocity S-wave (km/s) = 3.11960 3.76853 3.45932
# Velocity P-wave (km/s) = 4.84897 6.31490 5.62985
#
# Compressibility (1/GPa) = 0.04373480
#
# Stress axis : x y z
#
# Youngs Moduli (GPa) = 110.90819 25.73798 103.06105
#
# Poissons Ratio (x) = 0.05381 0.10624
# Poissons Ratio (y) = 0.23187 0.39137
# Poissons Ratio (z) = 0.11432 0.09774
#
# Static dielectric constant tensor:
#      x y z
#    x 1.816680 0.063780 0.039500 
#    y 0.063780 1.871050 0.012200 
#    z 0.039500 0.012200 1.796610 
# 
# From -- ./inp_files/558763.got.cif
#   From: 2010.05.17/outbox.cif.g08.bks.cpg/sg2_280_cif.got.tgz:558763.got - 2010.06.03 11:33:40.
