data_PCOD9071198
_publ_section_title
;
Structure prediction by ZEFSAII (Michael W. Deem and Ramdas Pophale) SiO2 
 PCOD9071198
Probable space group: P -1
;
_chemical_formula_sum "Si O2"
_cell_formula_units_Z 12
_cell_length_a 9.627502
_cell_length_b 9.198175
_cell_length_c 11.621604
_cell_angle_alpha 50.877794
_cell_angle_beta 141.739650
_cell_angle_gamma 122.562218
_cell_volume 492.447939
_symmetry_space_group_name_H-M "P -1"
_symmetry_group_IT_number 2
_symmetry_cell_setting 'triclinic'
loop_
_space_group_symop_operation_xyz
x,y,z
-x,-y,-z
loop_
_atom_site_type_symbol
_atom_site_label
_atom_site_fract_x
_atom_site_fract_y
_atom_site_fract_z
Si Si1 0.924588 0.745602 0.578300
Si Si2 0.369590 0.575193 0.539494
Si Si3 0.651958 0.695245 0.972762
Si Si4 0.191653 0.531087 0.013153
Si Si5 0.034674 0.780334 0.364059
Si Si6 0.363194 0.039903 0.555172
O O1 0.765049 0.549197 0.581649
O O2 0.973300 0.757518 0.469336
O O3 0.785726 0.905481 0.460462
O O4 0.137044 0.710608 0.812868
O O5 0.501084 0.862563 0.759651
O O6 0.196935 0.627814 0.500121
O O7 0.481374 0.773952 0.468256
O O8 0.500000 0.500000 0.000000
O O9 0.564458 0.457846 0.775178
O O10 0.819349 0.762347 0.151280
O O11 0.798201 0.638866 0.986572
O O12 0.000000 0.500000 0.000000
O O13 0.191082 0.977826 0.370387
#
# Coordination Sequence:
#
# PCOD9071198 Si02
#       6
#     2   2   2   2   2   2
#     4  12  27  49  78 113 157 206 255 313 381 457
#     4  12  26  48  77 114 157 204 255 314 385 456
#     4  12  28  51  80 112 152 205 261 314 388 460
#     4  12  26  45  76 109 149 199 257 306 377 453
#     4  12  27  48  78 111 156 206 254 317 381 451
#     4  12  28  47  76 117 160 197 256 322 380 453
#
# _framework density 24.368057
#
# number of rings (size 3 to 8) (size 9 to 14) (size 15 to 20)
#    0.000    0.000    5.000    4.000    0.000    4.000 
#    0.000    0.000    0.000    0.000    0.000    0.000 
#    0.000    0.000    0.000    0.000    0.000    0.000 
#
# Total GULP energy -67274.428615 kJ/mol
# GULP energy per Si atom -5606.202385 kJ/mol
# Density = 2.431259 g / cm^3
# Si number density = 24.368057 Si / 1000 Ang^3
#
#
#
# Elastic Constant Matrix: (Units=GPa)
#
#
# Indices 1 2 3 4 5 6 
#
# 1 123.6401 66.4223 58.0037 -4.1300 2.6908 -30.7616
# 2 66.4223 152.5543 52.7690 -10.8254 7.2523 -11.9623
# 3 58.0037 52.7690 167.3889 -8.9331 18.0267 -7.1788
# 4 -4.1300 -10.8254 -8.9331 44.6767 -1.5876 6.1965
# 5 2.6908 7.2523 18.0267 -1.5876 37.1550 3.3663
# 6 -30.7616 -11.9623 -7.1788 6.1965 3.3663 72.2551
#
#
#
# Elastic Compliance Matrix: (Units=1/GPa)
#
#
# Indices 1 2 3 4 5 6 
#
# 1 0.012930 -0.004330 -0.003080 -0.001064 0.000947 0.004529
# 2 -0.004330 0.008951 -0.001182 0.001587 -0.000740 -0.000580
# 3 -0.003080 -0.001182 0.007784 0.000963 -0.003221 -0.000666
# 4 -0.001064 0.001587 0.000963 0.023171 0.000481 -0.002104
# 5 0.000947 -0.000740 -0.003221 0.000481 0.028702 -0.001418
# 6 0.004529 -0.000580 -0.000666 -0.002104 -0.001418 0.015852
#
#
# Mechanical properties :
#
#
# Convention : Reuss Voigt Hill
#
# Bulk Modulus (GPa) = 80.12097 88.66371 84.39234
# Shear Modulus (GPa) = 42.11126 48.57658 45.34392
#
# Velocity S-wave (km/s) = 4.16159 4.46965 4.31837
# Velocity P-wave (km/s) = 7.48617 7.94363 7.71829
#
# Compressibility (1/GPa) = 0.01248113
#
# Stress axis : x y z
#
# Youngs Moduli (GPa) = 77.34251 111.71589 128.47181
#
# Poissons Ratio (x) = 0.48368 0.39570
# Poissons Ratio (y) = 0.33486 0.15187
# Poissons Ratio (z) = 0.23822 0.13206
#
# Static dielectric constant tensor:
#      x y z
#    x 2.076540 0.067160 -0.009340 
#    y 0.067160 1.925860 0.000290 
#    z -0.009340 0.000290 1.904790 
# 
# From -- ./inp_files/154428.got.cif
#   From: 2010.05.17/outbox.cif.g08.bks.cpg/sg2_78_cif.got.tgz:154428.got - 2010.06.03 11:33:40.
