data_PCOD9071642
_publ_section_title
;
Structure prediction by ZEFSAII (Michael W. Deem and Ramdas Pophale) SiO2 
 PCOD9071642
Probable space group: P -1
;
_chemical_formula_sum "Si O2"
_cell_formula_units_Z 16
_cell_length_a 11.231115
_cell_length_b 11.468418
_cell_length_c 12.929655
_cell_angle_alpha 145.308546
_cell_angle_beta 133.902321
_cell_angle_gamma 41.158061
_cell_volume 611.403661
_symmetry_space_group_name_H-M "P -1"
_symmetry_group_IT_number 2
_symmetry_cell_setting 'triclinic'
loop_
_space_group_symop_operation_xyz
x,y,z
-x,-y,-z
loop_
_atom_site_type_symbol
_atom_site_label
_atom_site_fract_x
_atom_site_fract_y
_atom_site_fract_z
Si Si1 0.712875 0.221936 0.127507
Si Si2 0.934200 0.377684 0.624666
Si Si3 0.584417 0.717529 0.426585
Si Si4 0.356429 0.528920 0.056678
Si Si5 0.111002 0.575137 0.744817
Si Si6 0.169979 0.614432 0.216901
Si Si7 0.670545 0.020661 0.371845
Si Si8 0.215864 0.994907 0.785926
O O1 0.634121 0.465708 0.320230
O O2 0.550372 0.299249 0.001308
O O3 0.893505 0.218675 0.179028
O O4 0.732471 0.034182 0.084168
O O5 0.935731 0.551035 0.664267
O O6 0.831488 0.497110 0.755374
O O7 0.859307 0.196031 0.416296
O O8 0.152012 0.214342 0.662163
O O9 0.417393 0.732174 0.261130
O O10 0.761337 0.652664 0.412403
O O11 0.501019 0.906733 0.601035
O O12 0.267790 0.493151 0.082988
O O13 0.225001 0.578886 0.917476
O O14 0.256555 0.788868 0.422468
O O15 0.958826 0.767740 0.169980
O O16 0.640263 0.035072 0.240531
#
# Coordination Sequence:
#
# PCOD9071642 Si02
#       8
#     2   2   2   2   2   2   2   2
#     4   8  17  28  44  67  82 109 142 175 214 235
#     4   9  17  26  43  66  89 112 133 167 216 260
#     4   7  15  27  42  65  79 107 146 169 206 237
#     4   8  15  30  46  61  82 108 152 179 192 239
#     4   9  17  28  41  64  88 114 138 171 205 255
#     4   8  15  29  45  65  79 112 148 170 205 242
#     4   8  14  28  44  62  85 107 145 173 203 246
#     4   9  16  28  46  65  88 105 136 181 211 247
#
# _framework density 26.169291999999999
#
# number of rings (size 3 to 8) (size 9 to 14) (size 15 to 20)
#    1.500    2.000    0.000    3.000    0.000    2.000 
#    0.000    0.625    0.000    3.000    3.250    0.000 
#    0.000    0.000    0.000    0.000    0.000    0.000 
#
# Total GULP energy -89148.193440 kJ/mol
# GULP energy per Si atom -5571.762090 kJ/mol
# Density = 2.610973 g / cm^3
# Si number density = 26.169292 Si / 1000 Ang^3
#
#
#
# Elastic Constant Matrix: (Units=GPa)
#
#
# Indices 1 2 3 4 5 6 
#
# 1 116.5325 11.3447 40.4984 -8.3669 -42.8236 17.6184
# 2 11.3447 47.4061 13.4715 -5.5026 -5.3137 15.0769
# 3 40.4984 13.4715 64.1861 6.2719 5.8119 17.5380
# 4 -8.3669 -5.5026 6.2719 20.2379 -0.8369 -3.9721
# 5 -42.8236 -5.3137 5.8119 -0.8369 20.3222 -13.8819
# 6 17.6184 15.0769 17.5380 -3.9721 -13.8819 21.8464
#
#
#
# Elastic Compliance Matrix: (Units=1/GPa)
#
#
# Indices 1 2 3 4 5 6 
#
# 1 -0.001864 0.001763 0.011766 -0.010456 -0.026181 -0.027696
# 2 0.001763 0.027500 -0.003269 0.006160 0.001265 -0.015852
# 3 0.011766 -0.003269 -0.000201 0.009035 0.036506 0.017769
# 4 -0.010456 0.006160 0.009035 0.039304 -0.032875 -0.016815
# 5 -0.026181 0.001265 0.036506 -0.032875 -0.048947 -0.046145
# 6 -0.027696 -0.015852 0.017769 -0.016815 -0.046145 0.032406
#
#
# Mechanical properties :
#
#
# Convention : Reuss Voigt Hill
#
# Bulk Modulus (GPa) = 21.76097 39.86156 30.81126
# Shear Modulus (GPa) = 116.28568 23.33529 69.81049
#
# Velocity S-wave (km/s) = 6.67326 2.98938 5.17053
# Velocity P-wave (km/s) = 8.22861 5.21349 6.88805
#
# Compressibility (1/GPa) = 0.04595384
#
# Stress axis : x y z
#
# Youngs Moduli (GPa) = -536.58966 36.36396 -4963.46641
#
# Poissons Ratio (x) = -0.06409 58.39953
# Poissons Ratio (y) = 0.94578 -16.22489
# Poissons Ratio (z) = 6.31345 0.11887
#
# Static dielectric constant tensor:
#      x y z
#    x 2.107490 0.011960 0.050610 
#    y 0.011960 2.043290 -0.037950 
#    z 0.050610 -0.037950 2.137160 
# 
# From -- ./inp_files/422286.got.cif
#   From: 2010.05.17/outbox.cif.g08.bks.cpg/sg2_212_cif.got.tgz:422286.got - 2010.06.03 11:33:40.
