data_PCOD9071267
_publ_section_title
;
Structure prediction by ZEFSAII (Michael W. Deem and Ramdas Pophale) SiO2 
 PCOD9071267
Probable space group: P -1
;
_chemical_formula_sum "Si O2"
_cell_formula_units_Z 14
_cell_length_a 12.387221
_cell_length_b 15.557621
_cell_length_c 9.386669
_cell_angle_alpha 129.724146
_cell_angle_beta 118.939656
_cell_angle_gamma 27.239486
_cell_volume 618.283324
_symmetry_space_group_name_H-M "P -1"
_symmetry_group_IT_number 2
_symmetry_cell_setting 'triclinic'
loop_
_space_group_symop_operation_xyz
x,y,z
-x,-y,-z
loop_
_atom_site_type_symbol
_atom_site_label
_atom_site_fract_x
_atom_site_fract_y
_atom_site_fract_z
Si Si1 0.204142 0.880631 0.174923
Si Si2 0.577726 0.663341 0.410320
Si Si3 0.447244 0.007800 0.809053
Si Si4 0.897054 0.285658 0.012765
Si Si5 0.101400 0.622854 0.195716
Si Si6 0.600147 0.114671 0.945278
Si Si7 0.735332 0.365893 0.433573
O O1 0.331737 0.818477 0.337493
O O2 0.323944 0.866019 0.116751
O O3 0.231238 0.725957 0.022338
O O4 0.917245 0.129172 0.244407
O O5 0.787467 0.478532 0.229349
O O6 0.647659 0.520735 0.424541
O O7 0.547069 0.808933 0.614284
O O8 0.566977 0.008782 0.786090
O O9 0.156599 0.233706 0.841104
O O10 0.500000 0.000000 0.000000
O O11 0.855630 0.334251 0.870884
O O12 0.182342 0.049097 0.975378
O O13 0.102387 0.695269 0.413725
O O14 0.336005 0.361530 0.086562
O O15 0.500000 0.500000 0.500000
#
# Coordination Sequence:
#
# PCOD9071267 Si02
#       7
#     2   2   2   2   2   2   2
#     4  12  26  47  74 112 152 192 250 304 377 444
#     4  12  27  49  73 111 148 194 251 300 375 441
#     4  12  27  51  75 106 153 197 253 308 362 438
#     4  12  26  47  77 111 150 191 249 312 369 448
#     4  12  26  48  75 111 147 196 248 309 369 427
#     4  12  26  47  75 106 148 202 247 301 369 440
#     4  12  27  44  75 113 152 195 241 306 375 445
#
# _framework density 22.643340999999999
#
# number of rings (size 3 to 8) (size 9 to 14) (size 15 to 20)
#    0.000    0.000    5.714    3.857    4.000    2.286 
#    0.000    0.000    0.000    0.000    0.000    0.000 
#    0.000    0.000    0.000    0.000    0.000    0.000 
#
# Total GULP energy -78345.888286 kJ/mol
# GULP energy per Si atom -5596.134878 kJ/mol
# Density = 2.259180 g / cm^3
# Si number density = 22.643341 Si / 1000 Ang^3
#
#
#
# Elastic Constant Matrix: (Units=GPa)
#
#
# Indices 1 2 3 4 5 6 
#
# 1 91.6746 22.3590 24.4754 3.5857 14.3601 -1.1730
# 2 22.3590 167.3541 41.0366 4.4232 10.8867 -0.1801
# 3 24.4754 41.0366 105.3001 3.7110 25.3067 11.0023
# 4 3.5857 4.4232 3.7110 48.4011 7.0192 -1.6270
# 5 14.3601 10.8867 25.3067 7.0192 32.6373 -4.6194
# 6 -1.1730 -0.1801 11.0023 -1.6270 -4.6194 36.3231
#
#
#
# Elastic Compliance Matrix: (Units=1/GPa)
#
#
# Indices 1 2 3 4 5 6 
#
# 1 0.012164 -0.000991 -0.001586 -0.000138 -0.003707 0.000391
# 2 -0.000991 0.006719 -0.002546 -0.000371 0.000362 0.000802
# 3 -0.001586 -0.002546 0.013837 0.000566 -0.010084 -0.005512
# 4 -0.000138 -0.000371 0.000566 0.021367 -0.004826 0.000165
# 5 -0.003707 0.000362 -0.010084 -0.004826 0.042150 0.008081
# 6 0.000391 0.000802 -0.005512 0.000165 0.008081 0.030252
#
#
# Mechanical properties :
#
#
# Convention : Reuss Voigt Hill
#
# Bulk Modulus (GPa) = 44.49614 60.00786 52.25200
# Shear Modulus (GPa) = 34.66738 41.90283 38.28510
#
# Velocity S-wave (km/s) = 3.91707 4.30648 4.11638
# Velocity P-wave (km/s) = 6.33652 7.16146 6.76158
#
# Compressibility (1/GPa) = 0.02247386
#
# Stress axis : x y z
#
# Youngs Moduli (GPa) = 82.20710 148.82842 72.27009
#
# Poissons Ratio (x) = 0.14749 0.11465
# Poissons Ratio (y) = 0.08147 0.18399
# Poissons Ratio (z) = 0.13041 0.37891
#
# Static dielectric constant tensor:
#      x y z
#    x 1.828560 -0.008850 -0.009210 
#    y -0.008850 1.912140 -0.038220 
#    z -0.009210 -0.038220 1.954620 
# 
# From -- ./inp_files/274457.got.cif
#   From: 2010.05.17/outbox.cif.g08.bks.cpg/sg2_138_cif.got.tgz:274457.got - 2010.06.03 11:33:40.
