data_PCOD9071537
_publ_section_title
;
Structure prediction by ZEFSAII (Michael W. Deem and Ramdas Pophale) SiO2 
 PCOD9071537
Probable space group: P -1
;
_chemical_formula_sum "Si O2"
_cell_formula_units_Z 9
_cell_length_a 9.761068
_cell_length_b 12.965806
_cell_length_c 8.538818
_cell_angle_alpha 46.987448
_cell_angle_beta 30.266014
_cell_angle_gamma 45.076136
_cell_volume 377.670047
_symmetry_space_group_name_H-M "P -1"
_symmetry_group_IT_number 2
_symmetry_cell_setting 'triclinic'
loop_
_space_group_symop_operation_xyz
x,y,z
-x,-y,-z
loop_
_atom_site_type_symbol
_atom_site_label
_atom_site_fract_x
_atom_site_fract_y
_atom_site_fract_z
Si Si1 0.873640 0.441308 0.835816
Si Si2 0.193524 0.839761 0.417235
Si Si3 0.498067 0.254652 0.467744
Si Si4 0.274130 0.240337 0.231334
Si Si5 0.500000 0.000000 0.500000
O O1 0.734699 0.590001 0.918695
O O2 0.000000 0.500000 0.500000
O O3 0.157789 0.325989 0.750212
O O4 0.641387 0.358541 0.121006
O O5 0.359146 0.757154 0.490654
O O6 0.992142 0.763594 0.605462
O O7 0.429995 0.852204 0.047486
O O8 0.000000 0.000000 0.500000
O O9 0.578534 0.096163 0.466827
O O10 0.286389 0.158193 0.470484
#
# Coordination Sequence:
#
# PCOD9071537 Si02
#       5
#     2   2   2   2   1
#     4  12  27  49  74 113 149 191 244 310 360 436
#     4  12  27  48  74 111 148 190 243 311 359 434
#     4  12  28  48  78 106 151 193 249 298 370 431
#     4  12  28  47  78 107 148 194 247 296 372 431
#     4  12  28  46  80 112 140 202 246 298 368 438
#
# _framework density 23.830324000000001
#
# number of rings (size 3 to 8) (size 9 to 14) (size 15 to 20)
#    0.000    0.000    4.444    4.000    6.222    7.111 
#    0.000    0.000    0.000    0.000    0.000    0.000 
#    0.000    0.000    0.000    0.000    0.000    0.000 
#
# Total GULP energy -50189.868589 kJ/mol
# GULP energy per Si atom -5576.652065 kJ/mol
# Density = 2.377609 g / cm^3
# Si number density = 23.830324 Si / 1000 Ang^3
#
#
#
# Elastic Constant Matrix: (Units=GPa)
#
#
# Indices 1 2 3 4 5 6 
#
# 1 24.6432 40.3321 14.0362 19.2914 -27.0150 33.9896
# 2 40.3321 100.3898 32.0880 -25.9291 -13.0154 -8.2890
# 3 14.0362 32.0880 87.5990 -2.1371 -27.1079 14.7566
# 4 19.2914 -25.9291 -2.1371 32.3316 1.3692 -20.1612
# 5 -27.0150 -13.0154 -27.1079 1.3692 31.4575 1.7421
# 6 33.9896 -8.2890 14.7566 -20.1612 1.7421 21.4100
#
#
#
# Elastic Compliance Matrix: (Units=1/GPa)
#
#
# Indices 1 2 3 4 5 6 
#
# 1 0.001498 0.005239 -0.005153 0.012563 -0.002377 0.015226
# 2 0.005239 0.008211 -0.000286 -0.000947 0.008051 -0.006488
# 3 -0.005153 -0.000286 0.014570 0.004505 0.007725 0.001642
# 4 0.012563 -0.000947 0.004505 0.017120 0.014001 -0.008434
# 5 -0.002377 0.008051 0.007725 0.014001 0.038482 0.011619
# 6 0.015226 -0.006488 0.001642 -0.008434 0.011619 0.010003
#
#
# Mechanical properties :
#
#
# Convention : Reuss Voigt Hill
#
# Bulk Modulus (GPa) = 41.87801 42.83830 42.35816
# Shear Modulus (GPa) = 50.89376 25.45154 38.17265
#
# Velocity S-wave (km/s) = 4.62635 3.27162 4.00666
# Velocity P-wave (km/s) = 6.79331 5.68214 6.26242
#
# Compressibility (1/GPa) = 0.02387888
#
# Stress axis : x y z
#
# Youngs Moduli (GPa) = 667.72194 121.78386 68.63443
#
# Poissons Ratio (x) = -0.63807 0.35369
# Poissons Ratio (y) = -3.49845 0.01964
# Poissons Ratio (z) = 3.44090 0.03485
#
# Static dielectric constant tensor:
#      x y z
#    x 1.970620 -0.065260 0.152950 
#    y -0.065260 1.895410 -0.060030 
#    z 0.152950 -0.060030 2.063310 
# 
# From -- ./inp_files/16458.got.cif
#   From: 2010.05.17/outbox.cif.g08.bks.cpg/sg2_9_cif.got.tgz:16458.got - 2010.06.03 11:33:40.
