data_PCOD9071558
_publ_section_title
;
Structure prediction by ZEFSAII (Michael W. Deem and Ramdas Pophale) SiO2 
 PCOD9071558
Probable space group: P -1
;
_chemical_formula_sum "Si O2"
_cell_formula_units_Z 14
_cell_length_a 14.422767
_cell_length_b 13.082317
_cell_length_c 22.303363
_cell_angle_alpha 24.709123
_cell_angle_beta 33.841593
_cell_angle_gamma 29.781033
_cell_volume 855.559002
_symmetry_space_group_name_H-M "P -1"
_symmetry_group_IT_number 2
_symmetry_cell_setting 'triclinic'
loop_
_space_group_symop_operation_xyz
x,y,z
-x,-y,-z
loop_
_atom_site_type_symbol
_atom_site_label
_atom_site_fract_x
_atom_site_fract_y
_atom_site_fract_z
Si Si1 0.961594 0.779997 0.906516
Si Si2 0.359157 0.050763 0.915261
Si Si3 0.790977 0.584429 0.933132
Si Si4 0.324210 0.647685 0.584831
Si Si5 0.042261 0.012295 0.326937
Si Si6 0.743375 0.486584 0.435933
Si Si7 0.060497 0.203539 0.891032
O O1 0.762792 0.903006 0.983496
O O2 0.042412 0.019924 0.250862
O O3 0.000000 0.500000 0.000000
O O4 0.127399 0.666933 0.927870
O O5 0.376902 0.330820 0.744728
O O6 0.226997 0.047149 0.934336
O O7 0.565245 0.780405 0.949835
O O8 0.880195 0.781898 0.799655
O O9 0.883734 0.444948 0.894379
O O10 0.169453 0.857450 0.602124
O O11 0.515466 0.668881 0.467672
O O12 0.764413 0.315022 0.454146
O O13 0.172242 0.715515 0.445459
O O14 0.853116 0.659041 0.273868
O O15 0.000000 0.000000 0.000000
#
# Coordination Sequence:
#
# PCOD9071558 Si02
#       7
#     2   2   2   2   2   2   2
#     4   9  18  30  46  77 112 135 160 200 245 308
#     4  10  18  33  52  77 103 135 168 204 251 295
#     4  10  19  32  52  74 103 137 167 205 250 294
#     4  10  18  29  47  77 106 129 161 202 250 307
#     4  11  18  30  50  78 110 134 159 198 257 304
#     4  10  20  30  50  74 103 133 161 208 255 303
#     4  10  22  38  52  72 100 133 175 212 247 297
#
# _framework density 16.363569999999999
#
# number of rings (size 3 to 8) (size 9 to 14) (size 15 to 20)
#    0.000    2.000    7.143    0.429    0.000    4.000 
#    0.000    0.000    0.000    3.429    0.000    6.000 
#    0.000    0.000    0.000    0.000    0.000    0.000 
#
# Total GULP energy -78024.473015 kJ/mol
# GULP energy per Si atom -5573.176644 kJ/mol
# Density = 1.632633 g / cm^3
# Si number density = 16.363570 Si / 1000 Ang^3
#
#
#
# Elastic Constant Matrix: (Units=GPa)
#
#
# Indices 1 2 3 4 5 6 
#
# 1 38.0169 23.9076 33.1337 2.3699 1.4444 -7.8713
# 2 23.9076 60.9063 10.7435 19.9176 -11.9643 -20.7479
# 3 33.1337 10.7435 62.3528 9.0143 7.7147 -1.2362
# 4 2.3699 19.9176 9.0143 22.8737 1.3913 -1.7772
# 5 1.4444 -11.9643 7.7147 1.3913 28.4150 -3.4396
# 6 -7.8713 -20.7479 -1.2362 -1.7772 -3.4396 22.2569
#
#
#
# Elastic Compliance Matrix: (Units=1/GPa)
#
#
# Indices 1 2 3 4 5 6 
#
# 1 0.108849 -0.074799 -0.052524 0.073841 -0.030371 -0.032947
# 2 -0.074799 0.110668 0.029312 -0.097459 0.056817 0.079338
# 3 -0.052524 0.029312 0.043670 -0.036949 0.006074 0.009163
# 4 0.073841 -0.097459 -0.036949 0.133524 -0.049006 -0.063701
# 5 -0.030371 0.056817 0.006074 -0.049006 0.067348 0.049056
# 6 -0.032947 0.079338 0.009163 -0.063701 0.049056 0.110241
#
#
# Mechanical properties :
#
#
# Convention : Reuss Voigt Hill
#
# Bulk Modulus (GPa) = 14.88873 32.98285 23.93579
# Shear Modulus (GPa) = 6.30747 20.94185 13.62466
#
# Velocity S-wave (km/s) = 1.96544 3.58129 2.88865
# Velocity P-wave (km/s) = 3.77744 6.10744 5.07789
#
# Compressibility (1/GPa) = 0.06716491
#
# Stress axis : x y z
#
# Youngs Moduli (GPa) = 9.18702 9.03606 22.89901
#
# Poissons Ratio (x) = 0.67588 1.20275
# Poissons Ratio (y) = 0.68718 -0.67121
# Poissons Ratio (z) = 0.48254 -0.26486
#
# Static dielectric constant tensor:
#      x y z
#    x 1.555490 -0.018580 0.032940 
#    y -0.018580 1.544740 0.011910 
#    z 0.032940 0.011910 1.566150 
# 
# From -- ./inp_files/407385.got.cif
#   From: 2010.05.17/outbox.cif.g08.bks.cpg/sg2_204_cif.got.tgz:407385.got - 2010.06.03 11:33:40.
