data_PCOD9071819
_publ_section_title
;
Structure prediction by ZEFSAII (Michael W. Deem and Ramdas Pophale) SiO2 
 PCOD9071819
Probable space group: P -1
;
_chemical_formula_sum "Si O2"
_cell_formula_units_Z 16
_cell_length_a 21.661828
_cell_length_b 5.556479
_cell_length_c 7.764658
_cell_angle_alpha 60.860803
_cell_angle_beta 131.770321
_cell_angle_gamma 105.648495
_cell_volume 606.668988
_symmetry_space_group_name_H-M "P -1"
_symmetry_group_IT_number 2
_symmetry_cell_setting 'triclinic'
loop_
_space_group_symop_operation_xyz
x,y,z
-x,-y,-z
loop_
_atom_site_type_symbol
_atom_site_label
_atom_site_fract_x
_atom_site_fract_y
_atom_site_fract_z
Si Si1 0.079502 0.534436 0.020565
Si Si2 0.646299 0.177264 0.444689
Si Si3 0.435399 0.274419 0.430220
Si Si4 0.826936 0.972733 0.822880
Si Si5 0.695258 0.268555 0.896331
Si Si6 0.840405 0.643624 0.326959
Si Si7 0.112596 0.821282 0.645426
Si Si8 0.649676 0.731102 0.072506
O O1 0.125216 0.240834 0.145957
O O2 0.136726 0.734064 0.166129
O O3 0.060850 0.702233 0.746162
O O4 0.000000 0.500000 0.000000
O O5 0.671590 0.184534 0.690327
O O6 0.627989 0.489161 0.240606
O O7 0.567949 0.993089 0.362940
O O8 0.731343 0.041510 0.564943
O O9 0.500000 0.500000 0.500000
O O10 0.347282 0.434383 0.255569
O O11 0.422758 0.228748 0.220212
O O12 0.835475 0.809325 0.078017
O O13 0.792085 0.264903 0.094595
O O14 0.660769 0.045299 0.040030
O O15 0.891639 0.351927 0.478000
O O16 0.744512 0.635868 0.213753
O O17 0.885606 0.849540 0.464069
#
# Coordination Sequence:
#
# PCOD9071819 Si02
#       8
#     2   2   2   2   2   2   2   2
#     4  10  18  29  52  88 122 156 203 249 303 372
#     4  11  22  37  61  88 119 153 209 264 295 371
#     4  11  23  41  61  84 123 159 197 256 316 375
#     4  10  18  34  54  83 120 160 203 256 303 358
#     4  10  19  40  58  81 118 154 203 248 306 365
#     4   9  15  31  52  78 107 146 198 242 283 355
#     4   9  15  29  55  74 111 150 194 239 290 349
#     4  10  21  36  58  89 113 155 209 247 317 359
#
# _framework density 26.373525999999998
#
# number of rings (size 3 to 8) (size 9 to 14) (size 15 to 20)
#    0.000    2.000    6.250    1.125    0.000    3.500 
#    0.000    1.250    0.000    0.000    0.000   33.250 
#    0.000    0.000    0.000    0.000    0.000    0.000 
#
# Total GULP energy -89484.748392 kJ/mol
# GULP energy per Si atom -5592.796774 kJ/mol
# Density = 2.631350 g / cm^3
# Si number density = 26.373526 Si / 1000 Ang^3
#
#
#
# Elastic Constant Matrix: (Units=GPa)
#
#
# Indices 1 2 3 4 5 6 
#
# 1 82.0166 47.5122 8.3231 -12.9590 -0.8291 -0.1240
# 2 47.5122 173.1306 12.8478 -32.2727 -6.0400 2.5677
# 3 8.3231 12.8478 61.0212 -18.7333 -18.9994 9.6686
# 4 -12.9590 -32.2727 -18.7333 32.0812 7.7023 -9.8262
# 5 -0.8291 -6.0400 -18.9994 7.7023 25.6812 1.4404
# 6 -0.1240 2.5677 9.6686 -9.8262 1.4404 52.0656
#
#
#
# Elastic Compliance Matrix: (Units=1/GPa)
#
#
# Indices 1 2 3 4 5 6 
#
# 1 0.014769 -0.003601 -0.001347 0.002365 -0.002130 0.000968
# 2 -0.003601 0.008074 0.001036 0.007453 0.000269 0.000800
# 3 -0.001347 0.001036 0.024912 0.010300 0.015719 -0.003172
# 4 0.002365 0.007453 0.010300 0.049206 -0.005710 0.007170
# 5 -0.002130 0.000269 0.015719 -0.005710 0.052582 -0.005470
# 6 0.000968 0.000800 -0.003172 0.007170 -0.005470 0.021263
#
#
# Mechanical properties :
#
#
# Convention : Reuss Voigt Hill
#
# Bulk Modulus (GPa) = 25.04234 50.39273 37.71754
# Shear Modulus (GPa) = 26.04981 38.46463 32.25722
#
# Velocity S-wave (km/s) = 3.14622 3.82312 3.50107
# Velocity P-wave (km/s) = 4.76594 6.21587 5.53856
#
# Compressibility (1/GPa) = 0.03993237
#
# Stress axis : x y z
#
# Youngs Moduli (GPa) = 67.70957 123.85185 40.14091
#
# Poissons Ratio (x) = 0.44598 0.05407
# Poissons Ratio (y) = 0.24382 -0.04160
# Poissons Ratio (z) = 0.09120 -0.12836
#
# Static dielectric constant tensor:
#      x y z
#    x 2.102750 -0.031600 -0.024310 
#    y -0.031600 2.182500 -0.019460 
#    z -0.024310 -0.019460 2.040780 
# 
# From -- ./inp_files/350914.got.cif
#   From: 2010.05.17/outbox.cif.g08.bks.cpg/sg2_176_cif.got.tgz:350914.got - 2010.06.03 11:33:40.
