data_PCOD9071133
_publ_section_title
;
Structure prediction by ZEFSAII (Michael W. Deem and Ramdas Pophale) SiO2 
 PCOD9071133
Probable space group: P -1
;
_chemical_formula_sum "Si O2"
_cell_formula_units_Z 12
_cell_length_a 9.588918
_cell_length_b 4.703395
_cell_length_c 11.129972
_cell_angle_alpha 74.866709
_cell_angle_beta 117.351776
_cell_angle_gamma 80.983581
_cell_volume 407.364772
_symmetry_space_group_name_H-M "P -1"
_symmetry_group_IT_number 2
_symmetry_cell_setting 'triclinic'
loop_
_space_group_symop_operation_xyz
x,y,z
-x,-y,-z
loop_
_atom_site_type_symbol
_atom_site_label
_atom_site_fract_x
_atom_site_fract_y
_atom_site_fract_z
Si Si1 0.067998 0.814303 0.426555
Si Si2 0.050089 0.444563 0.252063
Si Si3 0.351776 0.475931 0.726373
Si Si4 0.647344 0.170963 0.099784
Si Si5 0.390637 0.226104 0.325300
Si Si6 0.831275 0.911430 0.958236
O O1 0.975915 0.650354 0.317430
O O2 0.226450 0.525343 0.560353
O O3 0.104609 0.079911 0.334791
O O4 0.000000 0.000000 0.500000
O O5 0.228458 0.482870 0.288925
O O6 0.916501 0.560365 0.082088
O O7 0.258684 0.721523 0.766651
O O8 0.492553 0.609221 0.714660
O O9 0.397023 0.127264 0.834668
O O10 0.500000 0.500000 0.000000
O O11 0.733836 0.093984 0.015029
O O12 0.500000 0.000000 0.500000
O O13 0.298500 0.087690 0.199194
O O14 0.000000 0.000000 0.000000
#
# Coordination Sequence:
#
# PCOD9071133 Si02
#       6
#     2   2   2   2   2   2
#     4  12  25  50  85 125 175 236 297 380 458 550
#     4  12  27  52  84 125 180 235 307 368 459 550
#     4  12  29  53  90 133 187 234 314 390 459 561
#     4  12  31  56  90 136 180 248 311 385 477 554
#     4  12  30  56  91 137 188 248 310 383 477 557
#     4  12  31  58  93 133 190 244 316 388 466 563
#
# _framework density 29.457623999999999
#
# number of rings (size 3 to 8) (size 9 to 14) (size 15 to 20)
#    0.000    0.000    1.667    5.500    7.000    3.333 
#    0.000    0.000    0.000    0.000    0.000    0.000 
#    0.000    0.000    0.000    0.000    0.000    0.000 
#
# Total GULP energy -67278.457177 kJ/mol
# GULP energy per Si atom -5606.538098 kJ/mol
# Density = 2.939058 g / cm^3
# Si number density = 29.457624 Si / 1000 Ang^3
#
#
#
# Elastic Constant Matrix: (Units=GPa)
#
#
# Indices 1 2 3 4 5 6 
#
# 1 197.7337 83.0017 93.9508 2.7711 -20.0567 9.0174
# 2 83.0017 210.3149 98.7363 14.0576 -25.3079 10.7243
# 3 93.9508 98.7363 283.9579 -1.9580 9.4086 9.2580
# 4 2.7711 14.0576 -1.9580 62.2705 5.3804 -4.6135
# 5 -20.0567 -25.3079 9.4086 5.3804 50.7931 -2.0431
# 6 9.0174 10.7243 9.2580 -4.6135 -2.0431 67.8467
#
#
#
# Elastic Compliance Matrix: (Units=1/GPa)
#
#
# Indices 1 2 3 4 5 6 
#
# 1 0.006798 -0.001543 -0.001777 -0.000232 0.002254 -0.000365
# 2 -0.001543 0.006851 -0.001975 -0.001876 0.003343 -0.000635
# 3 -0.001777 -0.001975 0.004896 0.000901 -0.002694 -0.000140
# 4 -0.000232 -0.001876 0.000901 0.016868 -0.002929 0.001263
# 5 0.002254 0.003343 -0.002694 -0.002929 0.023054 0.000035
# 6 -0.000365 -0.000635 -0.000140 0.001263 0.000035 0.014994
#
#
# Mechanical properties :
#
#
# Convention : Reuss Voigt Hill
#
# Bulk Modulus (GPa) = 125.69902 138.15379 131.92640
# Shear Modulus (GPa) = 57.66859 63.93658 60.80259
#
# Velocity S-wave (km/s) = 4.42937 4.66387 4.54813
# Velocity P-wave (km/s) = 8.30198 8.71798 8.51252
#
# Compressibility (1/GPa) = 0.00795551
#
# Stress axis : x y z
#
# Youngs Moduli (GPa) = 147.10261 145.96729 204.24104
#
# Poissons Ratio (x) = 0.22526 0.36293
# Poissons Ratio (y) = 0.22701 0.40328
# Poissons Ratio (z) = 0.26140 0.28822
#
# Static dielectric constant tensor:
#      x y z
#    x 2.455850 -0.030710 0.009760 
#    y -0.030710 2.262540 0.000530 
#    z 0.009760 0.000530 2.481540 
# 
# From -- ./inp_files/407859.got.cif
#   From: 2010.05.17/outbox.cif.g08.bks.cpg/sg2_204_cif.got.tgz:407859.got - 2010.06.03 11:33:40.
