data_PCOD9071117
_publ_section_title
;
Structure prediction by ZEFSAII (Michael W. Deem and Ramdas Pophale) SiO2 
 PCOD9071117
Probable space group: P -1
;
_chemical_formula_sum "Si O2"
_cell_formula_units_Z 13
_cell_length_a 11.377834
_cell_length_b 11.639760
_cell_length_c 11.786477
_cell_angle_alpha 53.387371
_cell_angle_beta 121.270381
_cell_angle_gamma 155.986906
_cell_volume 508.300292
_symmetry_space_group_name_H-M "P -1"
_symmetry_group_IT_number 2
_symmetry_cell_setting 'triclinic'
loop_
_space_group_symop_operation_xyz
x,y,z
-x,-y,-z
loop_
_atom_site_type_symbol
_atom_site_label
_atom_site_fract_x
_atom_site_fract_y
_atom_site_fract_z
Si Si1 0.084740 0.892524 0.409439
Si Si2 0.798493 0.948855 0.966537
Si Si3 0.723633 0.377707 0.201963
Si Si4 0.000000 0.500000 0.500000
Si Si5 0.581367 0.011883 0.154983
Si Si6 0.906991 0.659086 0.694756
Si Si7 0.493734 0.481519 0.725227
O O1 0.070317 0.730797 0.432133
O O2 0.115395 0.889045 0.560333
O O3 0.779346 0.692542 0.364105
O O4 0.322725 0.224871 0.298631
O O5 0.558063 0.779392 0.856022
O O6 0.621907 0.737882 0.112758
O O7 0.005762 0.273957 0.899498
O O8 0.000000 0.000000 0.000000
O O9 0.800819 0.374271 0.362109
O O10 0.656703 0.197127 0.179257
O O11 0.875617 0.190007 0.186570
O O12 0.308327 0.665404 0.259502
O O13 0.500000 0.000000 0.000000
O O14 0.701976 0.596112 0.672541
#
# Coordination Sequence:
#
# PCOD9071117 Si02
#       7
#     2   2   2   1   2   2   2
#     4  12  27  50  80 119 163 216 272 333 404 492
#     4  12  28  53  80 122 160 220 280 340 414 488
#     4  12  28  52  82 119 166 213 278 341 410 497
#     4  12  30  52  82 114 168 218 278 324 414 486
#     4  12  26  48  79 120 163 213 265 338 419 485
#     4  12  25  50  78 123 164 209 276 332 416 491
#     4  12  27  50  82 118 162 214 271 341 409 479
#
# _framework density 25.575431999999999
#
# number of rings (size 3 to 8) (size 9 to 14) (size 15 to 20)
#    0.000    0.000    1.538    7.385    0.000    7.385 
#    0.000    0.000    0.000    0.000    0.000    0.000 
#    0.000    0.000    0.000    0.000    0.000    0.000 
#
# Total GULP energy -72739.152325 kJ/mol
# GULP energy per Si atom -5595.319410 kJ/mol
# Density = 2.551722 g / cm^3
# Si number density = 25.575432 Si / 1000 Ang^3
#
#
#
# Elastic Constant Matrix: (Units=GPa)
#
#
# Indices 1 2 3 4 5 6 
#
# 1 136.0045 53.5687 21.3527 -9.3737 12.6574 -24.1221
# 2 53.5687 169.7880 66.9536 11.7979 15.9424 -11.1265
# 3 21.3527 66.9536 165.0061 40.7963 18.1092 -17.6565
# 4 -9.3737 11.7979 40.7963 64.1965 6.3389 10.2298
# 5 12.6574 15.9424 18.1092 6.3389 41.7567 12.0591
# 6 -24.1221 -11.1265 -17.6565 10.2298 12.0591 43.5071
#
#
#
# Elastic Compliance Matrix: (Units=1/GPa)
#
#
# Indices 1 2 3 4 5 6 
#
# 1 0.009789 -0.002638 0.000650 0.000961 -0.004099 0.005927
# 2 -0.002638 0.007890 -0.002828 0.000110 -0.000895 -0.000371
# 3 0.000650 -0.002828 0.009781 -0.006177 -0.004220 0.006228
# 4 0.000961 0.000110 -0.006177 0.020636 0.001278 -0.007152
# 5 -0.004099 -0.000895 -0.004220 0.001278 0.030950 -0.013094
# 6 0.005927 -0.000371 0.006228 -0.007152 -0.013094 0.034015
#
#
# Mechanical properties :
#
#
# Convention : Reuss Voigt Hill
#
# Bulk Modulus (GPa) = 56.09788 83.83874 69.96831
# Shear Modulus (GPa) = 38.86975 51.82031 45.34503
#
# Velocity S-wave (km/s) = 3.90270 4.50619 4.21526
# Velocity P-wave (km/s) = 6.50308 7.74122 7.14900
#
# Compressibility (1/GPa) = 0.01782599
#
# Stress axis : x y z
#
# Youngs Moduli (GPa) = 102.15864 126.74907 102.24286
#
# Poissons Ratio (x) = 0.33440 -0.06648
# Poissons Ratio (y) = 0.26952 0.28919
# Poissons Ratio (z) = -0.06642 0.35850
#
# Static dielectric constant tensor:
#      x y z
#    x 2.048950 0.037620 -0.020950 
#    y 0.037620 1.962920 -0.009660 
#    z -0.020950 -0.009660 1.998930 
# 
# From -- ./inp_files/427868.got.cif
#   From: 2010.05.17/outbox.cif.g08.bks.cpg/sg2_214_cif.got.tgz:427868.got - 2010.06.03 11:33:40.
