data_PCOD9071929
_publ_section_title
;
Structure prediction by ZEFSAII (Michael W. Deem and Ramdas Pophale) SiO2 
 PCOD9071929
Probable space group: P -1
;
_chemical_formula_sum "Si O2"
_cell_formula_units_Z 16
_cell_length_a 20.652892
_cell_length_b 9.434626
_cell_length_c 23.823815
_cell_angle_alpha 116.772773
_cell_angle_beta 9.939982
_cell_angle_gamma 117.740238
_cell_volume 708.231995
_symmetry_space_group_name_H-M "P -1"
_symmetry_group_IT_number 2
_symmetry_cell_setting 'triclinic'
loop_
_space_group_symop_operation_xyz
x,y,z
-x,-y,-z
loop_
_atom_site_type_symbol
_atom_site_label
_atom_site_fract_x
_atom_site_fract_y
_atom_site_fract_z
Si Si1 0.456424 0.690230 0.235559
Si Si2 0.310147 0.489225 0.099795
Si Si3 0.759657 0.866527 0.380718
Si Si4 0.039893 0.528189 0.179998
Si Si5 0.182932 0.294796 0.493693
Si Si6 0.224887 0.694847 0.719470
Si Si7 0.382945 0.129708 0.691222
Si Si8 0.596891 0.936510 0.658017
O O1 0.088809 0.626323 0.574596
O O2 0.450109 0.877187 0.266148
O O3 0.444322 0.588985 0.169972
O O4 0.822662 0.635803 0.943343
O O5 0.178394 0.656515 0.221969
O O6 0.500000 0.500000 0.000000
O O7 0.446787 0.735873 0.595314
O O8 0.758255 0.888040 0.452363
O O9 0.674942 0.038404 0.459190
O O10 0.174759 0.840534 0.003573
O O11 0.805274 0.598943 0.440910
O O12 0.811407 0.477685 0.309755
O O13 0.429113 0.648259 0.860437
O O14 0.174965 0.117409 0.493201
O O15 0.460500 0.816055 0.494227
O O16 0.790489 0.724771 0.105820
O O17 0.000000 0.000000 0.000000
#
# Coordination Sequence:
#
# PCOD9071929 Si02
#       8
#     2   2   2   2   2   2   2   2
#     4  10  21  37  63  91 116 150 190 230 283 346
#     4  10  21  42  68  93 116 145 186 231 279 348
#     4  11  21  33  52  79 115 159 199 246 293 329
#     4  10  20  38  58  80 112 156 203 244 285 341
#     4  10  23  40  59  83 119 157 186 231 299 350
#     4  11  20  33  53  80 110 154 209 255 288 328
#     4  10  18  30  48  76 108 138 187 254 305 330
#     4  12  23  39  56  84 122 157 192 237 290 350
#
# _framework density 22.591466
#
# number of rings (size 3 to 8) (size 9 to 14) (size 15 to 20)
#    0.000    1.500    0.000    7.875    0.000    2.000 
#    0.000    5.000    0.000    0.000    0.000    0.000 
#    0.000    0.000    0.000    0.000    0.000    0.000 
#
# Total GULP energy -89387.706205 kJ/mol
# GULP energy per Si atom -5586.731638 kJ/mol
# Density = 2.254005 g / cm^3
# Si number density = 22.591466 Si / 1000 Ang^3
#
#
#
# Elastic Constant Matrix: (Units=GPa)
#
#
# Indices 1 2 3 4 5 6 
#
# 1 86.4427 21.8830 7.0161 11.8489 1.4942 -20.3047
# 2 21.8830 59.3845 8.8566 11.7844 -12.1242 -30.7804
# 3 7.0161 8.8566 66.1774 9.2912 18.1639 -6.9045
# 4 11.8489 11.7844 9.2912 20.9313 -6.4756 -2.9320
# 5 1.4942 -12.1242 18.1639 -6.4756 38.9268 6.4385
# 6 -20.3047 -30.7804 -6.9045 -2.9320 6.4385 33.0204
#
#
#
# Elastic Compliance Matrix: (Units=1/GPa)
#
#
# Indices 1 2 3 4 5 6 
#
# 1 0.015096 0.000296 0.002064 -0.009682 -0.004724 0.010052
# 2 0.000296 0.037930 -0.000582 -0.015362 0.004016 0.033271
# 3 0.002064 -0.000582 0.021277 -0.013547 -0.013536 0.006612
# 4 -0.009682 -0.015362 -0.013547 0.070336 0.016944 -0.020164
# 5 -0.004724 0.004016 -0.013536 0.016944 0.037548 -0.007809
# 6 0.010052 0.033271 0.006612 -0.020164 -0.007809 0.068594
#
#
# Mechanical properties :
#
#
# Convention : Reuss Voigt Hill
#
# Bulk Modulus (GPa) = 12.84341 31.94622 22.39481
# Shear Modulus (GPa) = 18.30326 30.19230 24.24778
#
# Velocity S-wave (km/s) = 2.84946 3.65971 3.27970
# Velocity P-wave (km/s) = 4.06489 5.65946 4.92711
#
# Compressibility (1/GPa) = 0.07786094
#
# Stress axis : x y z
#
# Youngs Moduli (GPa) = 66.24429 26.36427 46.99900
#
# Poissons Ratio (x) = -0.00782 -0.09703
# Poissons Ratio (y) = -0.01964 0.02735
# Poissons Ratio (z) = -0.13676 0.01534
#
# Static dielectric constant tensor:
#      x y z
#    x 1.860540 -0.033760 -0.025010 
#    y -0.033760 1.950780 0.034070 
#    z -0.025010 0.034070 1.831040 
# 
# From -- ./inp_files/571712.got.cif
#   From: 2010.05.17/outbox.cif.g08.bks.cpg/sg2_286_cif.got.tgz:571712.got - 2010.06.03 11:33:40.
