data_PCOD9071592
_publ_section_title
;
Structure prediction by ZEFSAII (Michael W. Deem and Ramdas Pophale) SiO2 
 PCOD9071592
Probable space group: P -1
;
_chemical_formula_sum "Si O2"
_cell_formula_units_Z 10
_cell_length_a 8.764174
_cell_length_b 9.513468
_cell_length_c 8.718521
_cell_angle_alpha 45.420693
_cell_angle_beta 54.015756
_cell_angle_gamma 45.630908
_cell_volume 363.390979
_symmetry_space_group_name_H-M "P -1"
_symmetry_group_IT_number 2
_symmetry_cell_setting 'triclinic'
loop_
_space_group_symop_operation_xyz
x,y,z
-x,-y,-z
loop_
_atom_site_type_symbol
_atom_site_label
_atom_site_fract_x
_atom_site_fract_y
_atom_site_fract_z
Si Si1 0.648391 0.108206 0.378880
Si Si2 0.873514 0.337320 0.898797
Si Si3 0.315399 0.529898 0.419877
Si Si4 0.945058 0.700920 0.711061
Si Si5 0.725683 0.986718 0.915355
O O1 0.526357 0.290521 0.446232
O O2 0.500000 0.000000 0.500000
O O3 0.861649 0.898118 0.482892
O O4 0.717843 0.238265 0.116447
O O5 0.823597 0.429817 0.685125
O O6 0.827238 0.553420 0.866333
O O7 0.124752 0.141888 0.925884
O O8 0.191485 0.532610 0.645504
O O9 0.335419 0.753059 0.244703
O O10 0.889702 0.829517 0.804495
O O11 0.500000 0.000000 0.000000
#
# Coordination Sequence:
#
# PCOD9071592 Si02
#       5
#     2   2   2   2   2
#     4  12  28  48  84 117 154 202 265 320 388 461
#     4  12  27  53  79 113 160 203 263 319 380 469
#     4  12  27  50  84 113 157 209 257 322 388 460
#     4  12  28  50  79 118 158 200 262 319 388 461
#     4  12  29  50  80 114 162 208 255 322 396 454
#
# _framework density 27.518567000000001
#
# number of rings (size 3 to 8) (size 9 to 14) (size 15 to 20)
#    0.000    0.000    4.000    4.200    5.600    0.800 
#    0.000    0.000    0.000    0.000    0.000    0.000 
#    0.000    0.000    0.000    0.000    0.000    0.000 
#
# Total GULP energy -56145.973831 kJ/mol
# GULP energy per Si atom -5614.597383 kJ/mol
# Density = 2.745593 g / cm^3
# Si number density = 27.518567 Si / 1000 Ang^3
#
#
#
# Elastic Constant Matrix: (Units=GPa)
#
#
# Indices 1 2 3 4 5 6 
#
# 1 103.8191 19.8919 18.3784 -18.1501 -23.2172 6.2767
# 2 19.8919 194.6489 18.7998 -11.7521 -21.9945 18.5889
# 3 18.3784 18.7998 76.2127 -24.0647 -20.1921 2.6216
# 4 -18.1501 -11.7521 -24.0647 45.4901 11.4191 -12.7037
# 5 -23.2172 -21.9945 -20.1921 11.4191 57.9197 -12.9981
# 6 6.2767 18.5889 2.6216 -12.7037 -12.9981 60.3194
#
#
#
# Elastic Compliance Matrix: (Units=1/GPa)
#
#
# Indices 1 2 3 4 5 6 
#
# 1 0.011170 -0.000533 -0.000622 0.003236 0.003526 0.000470
# 2 -0.000533 0.005549 -0.000824 0.000092 0.001292 -0.001321
# 3 -0.000622 -0.000824 0.017102 0.008126 0.004294 0.002212
# 4 0.003236 0.000092 0.008126 0.029187 -0.000390 0.005345
# 5 0.003526 0.001292 0.004294 -0.000390 0.021553 0.003611
# 6 0.000470 -0.001321 0.002212 0.005345 0.003611 0.018744
#
#
# Mechanical properties :
#
#
# Convention : Reuss Voigt Hill
#
# Bulk Modulus (GPa) = 33.48504 54.31343 43.89924
# Shear Modulus (GPa) = 42.65581 53.91989 48.28785
#
# Velocity S-wave (km/s) = 3.94137 4.43131 4.19350
# Velocity P-wave (km/s) = 5.73647 6.77952 6.27969
#
# Compressibility (1/GPa) = 0.02986408
#
# Stress axis : x y z
#
# Youngs Moduli (GPa) = 89.52405 180.20815 58.47334
#
# Poissons Ratio (x) = 0.09596 0.03640
# Poissons Ratio (y) = 0.04767 0.04816
# Poissons Ratio (z) = 0.05572 0.14841
#
# Static dielectric constant tensor:
#      x y z
#    x 2.196210 -0.007160 0.002700 
#    y -0.007160 2.047380 0.028990 
#    z 0.002700 0.028990 2.165780 
# 
# From -- ./inp_files/143971.got.cif
#   From: 2010.05.17/outbox.cif.g08.bks.cpg/sg2_72_cif.got.tgz:143971.got - 2010.06.03 11:33:40.
