data_PCOD9071685
_publ_section_title
;
Structure prediction by ZEFSAII (Michael W. Deem and Ramdas Pophale) SiO2 
 PCOD9071685
Probable space group: P -1
;
_chemical_formula_sum "Si O2"
_cell_formula_units_Z 12
_cell_length_a 21.147641
_cell_length_b 5.866452
_cell_length_c 5.017756
_cell_angle_alpha 101.610094
_cell_angle_beta 47.580266
_cell_angle_gamma 97.425772
_cell_volume 450.131147
_symmetry_space_group_name_H-M "P -1"
_symmetry_group_IT_number 2
_symmetry_cell_setting 'triclinic'
loop_
_space_group_symop_operation_xyz
x,y,z
-x,-y,-z
loop_
_atom_site_type_symbol
_atom_site_label
_atom_site_fract_x
_atom_site_fract_y
_atom_site_fract_z
Si Si1 0.894732 0.382842 0.523094
Si Si2 0.362864 0.111859 0.222645
Si Si3 0.249274 0.379726 0.261617
Si Si4 0.212309 0.946845 0.868645
Si Si5 0.052401 0.162215 0.190911
Si Si6 0.424712 0.330155 0.598794
O O1 0.835457 0.465771 0.467426
O O2 0.922813 0.610409 0.658329
O O3 0.983638 0.243994 0.183467
O O4 0.832589 0.244155 0.865924
O O5 0.286487 0.301231 0.420970
O O6 0.305095 0.905759 0.457480
O O7 0.427859 0.211801 0.276055
O O8 0.409327 0.122814 0.809450
O O9 0.229121 0.153476 0.084535
O O10 0.335169 0.475978 0.901274
O O11 0.142131 0.029012 0.865068
O O12 0.000000 0.000000 0.500000
O O13 0.500000 0.500000 0.500000
#
# Coordination Sequence:
#
# PCOD9071685 Si02
#       6
#     2   2   2   2   2   2
#     4   9  15  29  52  77 109 148 185 225 277 321
#     4   9  18  32  54  81 111 143 183 226 273 327
#     4   8  18  30  49  78 107 140 183 225 272 321
#     4   9  16  31  50  76 111 146 184 227 270 323
#     4   8  15  27  51  80 110 145 187 228 268 322
#     4   9  17  32  58  83 106 145 184 221 276 334
#
# _framework density 26.658899999999999
#
# number of rings (size 3 to 8) (size 9 to 14) (size 15 to 20)
#    1.000    2.333    0.000    0.500    0.000    0.000 
#    0.000    5.833    0.000   39.000    0.000    0.000 
#    0.000    0.000    0.000    0.000    0.000    0.000 
#
# Total GULP energy -67014.551138 kJ/mol
# GULP energy per Si atom -5584.545928 kJ/mol
# Density = 2.659822 g / cm^3
# Si number density = 26.658900 Si / 1000 Ang^3
#
#
#
# Elastic Constant Matrix: (Units=GPa)
#
#
# Indices 1 2 3 4 5 6 
#
# 1 168.4506 36.0543 48.4249 -10.0809 -10.4447 16.5257
# 2 36.0543 92.2419 31.2192 -0.2550 -16.9303 12.2352
# 3 48.4249 31.2192 67.3542 -15.5910 1.4587 1.1685
# 4 -10.0809 -0.2550 -15.5910 41.0151 9.9137 -7.7592
# 5 -10.4447 -16.9303 1.4587 9.9137 56.2874 -13.8701
# 6 16.5257 12.2352 1.1685 -7.7592 -13.8701 14.5344
#
#
#
# Elastic Compliance Matrix: (Units=1/GPa)
#
#
# Indices 1 2 3 4 5 6 
#
# 1 0.008779 0.000301 -0.006817 -0.002485 -0.000497 -0.011488
# 2 0.000301 0.016152 -0.009052 -0.006608 0.002860 -0.014010
# 3 -0.006817 -0.009052 0.026534 0.012253 -0.002562 0.017333
# 4 -0.002485 -0.006608 0.012253 0.033350 -0.003175 0.022177
# 5 -0.000497 0.002860 -0.002562 -0.003175 0.023977 0.019549
# 6 -0.011488 -0.014010 0.017333 0.022177 0.019549 0.122760
#
#
# Mechanical properties :
#
#
# Convention : Reuss Voigt Hill
#
# Bulk Modulus (GPa) = 49.18481 62.16041 55.67261
# Shear Modulus (GPa) = 18.55543 36.52392 27.53967
#
# Velocity S-wave (km/s) = 2.64110 3.70543 3.21758
# Velocity P-wave (km/s) = 5.27165 6.45558 5.89342
#
# Compressibility (1/GPa) = 0.02033148
#
# Stress axis : x y z
#
# Youngs Moduli (GPa) = 113.90757 61.91256 37.68698
#
# Poissons Ratio (x) = -0.01866 0.25690
# Poissons Ratio (y) = -0.03433 0.34113
# Poissons Ratio (z) = 0.77646 0.56041
#
# Static dielectric constant tensor:
#      x y z
#    x 2.095760 -0.057660 -0.049900 
#    y -0.057660 2.209410 0.046880 
#    z -0.049900 0.046880 2.086890 
# 
# From -- ./inp_files/121499.got.cif
#   From: 2010.05.17/outbox.cif.g08.bks.cpg/sg2_61_cif.got.tgz:121499.got - 2010.06.03 11:33:40.
