data_PCOD9071833
_publ_section_title
;
Structure prediction by ZEFSAII (Michael W. Deem and Ramdas Pophale) SiO2 
 PCOD9071833
Probable space group: P -1
;
_chemical_formula_sum "Si O2"
_cell_formula_units_Z 12
_cell_length_a 14.844030
_cell_length_b 10.245837
_cell_length_c 10.272870
_cell_angle_alpha 73.933923
_cell_angle_beta 151.855070
_cell_angle_gamma 106.359123
_cell_volume 705.757933
_symmetry_space_group_name_H-M "P -1"
_symmetry_group_IT_number 2
_symmetry_cell_setting 'triclinic'
loop_
_space_group_symop_operation_xyz
x,y,z
-x,-y,-z
loop_
_atom_site_type_symbol
_atom_site_label
_atom_site_fract_x
_atom_site_fract_y
_atom_site_fract_z
Si Si1 0.617282 0.141820 0.585359
Si Si2 0.955608 0.856613 0.825813
Si Si3 0.112698 0.847921 0.306001
Si Si4 0.470753 0.425596 0.345198
Si Si5 0.857519 0.561085 0.694158
Si Si6 0.964193 0.560467 0.297345
O O1 0.691403 0.157551 0.525642
O O2 0.499918 0.266538 0.440260
O O3 0.500000 0.000000 0.500000
O O4 0.818802 0.146670 0.917883
O O5 0.852189 0.721468 0.670688
O O6 0.956196 0.844651 0.988472
O O7 0.889321 0.005029 0.669948
O O8 0.058614 0.715677 0.358908
O O9 0.500000 0.500000 0.500000
O O10 0.647210 0.486979 0.464949
O O11 0.261962 0.442961 0.018586
O O12 0.942318 0.525907 0.672922
O O13 0.000000 0.500000 0.000000
O O14 0.000000 0.500000 0.500000
#
# Coordination Sequence:
#
# PCOD9071833 Si02
#       6
#     2   2   2   2   2   2
#     4  10  18  29  53  90 117 142 194 246 296 340
#     4   9  17  32  60  81 119 147 190 255 295 323
#     4   9  18  36  54  84 123 154 187 252 293 342
#     4  12  22  34  65  89 116 154 204 241 298 347
#     4  12  19  40  58  90 123 148 201 254 285 351
#     4  12  25  41  59  88 126 162 196 243 302 359
#
# _framework density 17.002998000000002
#
# number of rings (size 3 to 8) (size 9 to 14) (size 15 to 20)
#    1.000    0.333    6.667    1.000    2.333    0.667 
#    0.000    0.833    0.000    1.000    0.000    0.000 
#    0.000    0.000    0.000    0.000    0.000    0.000 
#
# Total GULP energy -66884.746940 kJ/mol
# GULP energy per Si atom -5573.728912 kJ/mol
# Density = 1.696430 g / cm^3
# Si number density = 17.002998 Si / 1000 Ang^3
#
#
#
# Elastic Constant Matrix: (Units=GPa)
#
#
# Indices 1 2 3 4 5 6 
#
# 1 109.9491 62.9473 51.9527 -5.5962 1.9104 5.0302
# 2 62.9473 188.7508 44.6863 -3.3131 -3.1158 0.4220
# 3 51.9527 44.6863 60.9855 -3.4807 8.4110 3.8267
# 4 -5.5962 -3.3131 -3.4807 19.0658 6.2650 8.0274
# 5 1.9104 -3.1158 8.4110 6.2650 28.9420 0.2810
# 6 5.0302 0.4220 3.8267 8.0274 0.2810 37.3363
#
#
#
# Elastic Compliance Matrix: (Units=1/GPa)
#
#
# Indices 1 2 3 4 5 6 
#
# 1 0.016445 -0.002531 -0.012177 0.002199 0.001718 -0.001425
# 2 -0.002531 0.006948 -0.003353 -0.001210 0.002143 0.000850
# 3 -0.012177 -0.003353 0.031090 0.005890 -0.009841 -0.002700
# 4 0.002199 -0.001210 0.005890 0.065473 -0.016016 -0.014843
# 5 0.001718 0.002143 -0.009841 -0.016016 0.040958 0.003888
# 6 -0.001425 0.000850 -0.002700 -0.014843 0.003888 0.030405
#
#
# Mechanical properties :
#
#
# Convention : Reuss Voigt Hill
#
# Bulk Modulus (GPa) = 54.46066 75.42867 64.94466
# Shear Modulus (GPa) = 21.40760 30.40876 25.90818
#
# Velocity S-wave (km/s) = 3.55216 4.23358 3.90775
# Velocity P-wave (km/s) = 6.99452 8.26776 7.65765
#
# Compressibility (1/GPa) = 0.01836188
#
# Stress axis : x y z
#
# Youngs Moduli (GPa) = 60.80718 143.92251 32.16454
#
# Poissons Ratio (x) = 0.36433 0.39166
# Poissons Ratio (y) = 0.15393 0.10784
# Poissons Ratio (z) = 0.74044 0.48252
#
# Static dielectric constant tensor:
#      x y z
#    x 1.585850 0.000900 0.004780 
#    y 0.000900 1.596850 0.000970 
#    z 0.004780 0.000970 1.516830 
# 
# From -- ./inp_files/230153.got.cif
#   From: 2010.05.17/outbox.cif.g08.bks.cpg/sg2_116_cif.got.tgz:230153.got - 2010.06.03 11:33:40.
