data_PCOD9071447
_publ_section_title
;
Structure prediction by ZEFSAII (Michael W. Deem and Ramdas Pophale) SiO2 
 PCOD9071447
Probable space group: P -1
;
_chemical_formula_sum "Si O2"
_cell_formula_units_Z 12
_cell_length_a 8.574876
_cell_length_b 11.970645
_cell_length_c 5.018535
_cell_angle_alpha 108.534099
_cell_angle_beta 83.261719
_cell_angle_gamma 99.499728
_cell_volume 480.560273
_symmetry_space_group_name_H-M "P -1"
_symmetry_group_IT_number 2
_symmetry_cell_setting 'triclinic'
loop_
_space_group_symop_operation_xyz
x,y,z
-x,-y,-z
loop_
_atom_site_type_symbol
_atom_site_label
_atom_site_fract_x
_atom_site_fract_y
_atom_site_fract_z
Si Si1 0.452887 0.354687 0.384323
Si Si2 0.105977 0.480560 0.207501
Si Si3 0.817758 0.770893 0.933876
Si Si4 0.638009 0.302414 0.790082
Si Si5 0.823766 0.117131 0.932499
Si Si6 0.681285 0.986255 0.378651
O O1 0.500000 0.500000 0.500000
O O2 0.270967 0.288139 0.359583
O O3 0.534546 0.278237 0.526905
O O4 0.522764 0.333640 0.066336
O O5 0.162426 0.355027 0.039368
O O6 0.251292 0.582295 0.247420
O O7 0.000000 0.500000 0.500000
O O8 0.000000 0.500000 0.000000
O O9 0.710846 0.861019 0.153709
O O10 0.996726 0.841318 0.973466
O O11 0.792117 0.011805 0.638899
O O12 0.747568 0.216768 0.851358
O O13 0.732580 0.076675 0.192245
O O14 0.500000 0.000000 0.500000
#
# Coordination Sequence:
#
# PCOD9071447 Si02
#       6
#     2   2   2   2   2   2
#     4  12  27  47  76 118 167 210 267 328 404 485
#     4  12  27  47  78 119 164 209 265 335 407 477
#     4  12  29  50  85 121 164 212 275 334 404 480
#     4  12  26  50  76 117 162 215 267 328 407 484
#     4  12  28  52  85 116 162 212 275 337 403 484
#     4  12  29  56  82 121 160 214 275 340 410 483
#
# _framework density 24.970853000000002
#
# number of rings (size 3 to 8) (size 9 to 14) (size 15 to 20)
#    0.000    0.000    3.333    5.000    2.333    5.333 
#    0.000    0.000    0.000    0.000    0.000    0.000 
#    0.000    0.000    0.000    0.000    0.000    0.000 
#
# Total GULP energy -67030.130543 kJ/mol
# GULP energy per Si atom -5585.844212 kJ/mol
# Density = 2.491402 g / cm^3
# Si number density = 24.970853 Si / 1000 Ang^3
#
#
#
# Elastic Constant Matrix: (Units=GPa)
#
#
# Indices 1 2 3 4 5 6 
#
# 1 176.9917 89.1644 71.4110 11.3636 19.8701 -2.3543
# 2 89.1644 146.3811 65.5770 4.7824 -10.4192 7.5254
# 3 71.4110 65.5770 157.7428 -13.7827 14.4052 9.8938
# 4 11.3636 4.7824 -13.7827 54.8456 -0.4878 -0.3544
# 5 19.8701 -10.4192 14.4052 -0.4878 48.0784 19.5313
# 6 -2.3543 7.5254 9.8938 -0.3544 19.5313 46.6125
#
#
#
# Elastic Compliance Matrix: (Units=1/GPa)
#
#
# Indices 1 2 3 4 5 6 
#
# 1 0.010652 -0.006255 -0.002072 -0.002214 -0.007183 0.004980
# 2 -0.006255 0.012877 -0.003006 -0.000542 0.008420 -0.005289
# 3 -0.002072 -0.003006 0.009024 0.002935 -0.002235 -0.000576
# 4 -0.002214 -0.000542 0.002935 0.019476 0.000384 -0.000660
# 5 -0.007183 0.008420 -0.002235 0.000384 0.032264 -0.014764
# 6 0.004980 -0.005289 -0.000576 -0.000660 -0.014764 0.028862
#
#
# Mechanical properties :
#
#
# Convention : Reuss Voigt Hill
#
# Bulk Modulus (GPa) = 101.14274 103.71339 102.42806
# Shear Modulus (GPa) = 35.94132 46.90486 41.42309
#
# Velocity S-wave (km/s) = 3.79797 4.33873 4.07733
# Velocity P-wave (km/s) = 7.73466 8.16844 7.95451
#
# Compressibility (1/GPa) = 0.00988702
#
# Stress axis : x y z
#
# Youngs Moduli (GPa) = 93.88080 77.65636 110.82006
#
# Poissons Ratio (x) = 0.48576 0.22957
# Poissons Ratio (y) = 0.58724 0.33313
# Poissons Ratio (z) = 0.19448 0.23344
#
# Static dielectric constant tensor:
#      x y z
#    x 2.033910 0.016400 0.041800 
#    y 0.016400 2.004200 0.054620 
#    z 0.041800 0.054620 1.964610 
# 
# From -- ./inp_files/33262.got.cif
#   From: 2010.05.17/outbox.cif.g08.bks.cpg/sg2_17_cif.got.tgz:33262.got - 2010.06.03 11:33:40.
