data_PCOD9071483
_publ_section_title
;
Structure prediction by ZEFSAII (Michael W. Deem and Ramdas Pophale) SiO2 
 PCOD9071483
Probable space group: P -1
;
_chemical_formula_sum "Si O2"
_cell_formula_units_Z 15
_cell_length_a 15.293429
_cell_length_b 11.824736
_cell_length_c 9.007853
_cell_angle_alpha 56.046774
_cell_angle_beta 149.987919
_cell_angle_gamma 133.009803
_cell_volume 593.499273
_symmetry_space_group_name_H-M "P -1"
_symmetry_group_IT_number 2
_symmetry_cell_setting 'triclinic'
loop_
_space_group_symop_operation_xyz
x,y,z
-x,-y,-z
loop_
_atom_site_type_symbol
_atom_site_label
_atom_site_fract_x
_atom_site_fract_y
_atom_site_fract_z
Si Si1 0.628558 0.658340 0.662711
Si Si2 0.490571 0.314836 0.212295
Si Si3 0.826453 0.834378 0.409547
Si Si4 0.535048 0.852523 0.182077
Si Si5 0.500000 0.000000 0.500000
Si Si6 0.870487 0.331865 0.366335
Si Si7 0.926343 0.579073 0.710885
Si Si8 0.929361 0.127605 0.843977
O O1 0.500000 0.500000 0.500000
O O2 0.601273 0.641791 0.811774
O O3 0.549056 0.781290 0.411594
O O4 0.858421 0.726370 0.906452
O O5 0.712652 0.457149 0.417023
O O6 0.524541 0.169050 0.401118
O O7 0.333650 0.253860 0.891618
O O8 0.730084 0.879394 0.368102
O O9 0.905907 0.717366 0.655324
O O10 0.000000 0.000000 0.500000
O O11 0.359060 0.713750 0.935504
O O12 0.500000 0.000000 0.000000
O O13 0.262943 0.934459 0.285689
O O14 0.883426 0.196926 0.576007
O O15 0.000000 0.500000 0.500000
O O16 0.926396 0.341214 0.268940
O O17 0.000000 0.500000 0.000000
O O18 0.000000 0.000000 0.000000
#
# Coordination Sequence:
#
# PCOD9071483 Si02
#       8
#     2   2   2   2   1   2   2   2
#     4  12  27  50  82 121 165 225 286 355 439 525
#     4  12  28  50  83 121 173 224 289 359 436 526
#     4  12  29  51  80 119 164 222 288 355 437 518
#     4  12  27  47  73 115 162 210 273 345 426 507
#     4  12  28  46  88 126 172 226 302 348 452 522
#     4  12  26  51  78 117 162 217 277 349 430 513
#     4  12  28  52  82 122 169 224 288 359 439 524
#     4  12  26  51  84 123 169 226 290 359 437 525
#
# _framework density 25.273831000000001
#
# number of rings (size 3 to 8) (size 9 to 14) (size 15 to 20)
#    0.000    0.000    1.333    7.600    5.600    2.133 
#    0.000    0.000    0.000    0.000    0.000    0.000 
#    0.000    0.000    0.000    0.000    0.000    0.000 
#
# Total GULP energy -83745.785623 kJ/mol
# GULP energy per Si atom -5583.052375 kJ/mol
# Density = 2.521631 g / cm^3
# Si number density = 25.273831 Si / 1000 Ang^3
#
#
#
# Elastic Constant Matrix: (Units=GPa)
#
#
# Indices 1 2 3 4 5 6 
#
# 1 112.4474 28.5366 44.4491 -23.6901 15.2583 4.4302
# 2 28.5366 143.7177 50.8052 -18.0210 14.8804 2.4142
# 3 44.4491 50.8052 123.4687 1.0109 -1.1842 8.4118
# 4 -23.6901 -18.0210 1.0109 54.6005 1.7952 12.0359
# 5 15.2583 14.8804 -1.1842 1.7952 49.3157 5.6046
# 6 4.4302 2.4142 8.4118 12.0359 5.6046 43.4177
#
#
#
# Elastic Compliance Matrix: (Units=1/GPa)
#
#
# Indices 1 2 3 4 5 6 
#
# 1 0.012559 0.000381 -0.004662 0.006143 -0.004159 -0.001566
# 2 0.000381 0.008991 -0.003871 0.003378 -0.003009 -0.000337
# 3 -0.004662 -0.003871 0.011496 -0.003396 0.003123 -0.000998
# 4 0.006143 0.003378 -0.003396 0.023652 -0.003146 -0.006307
# 5 -0.004159 -0.003009 0.003123 -0.003146 0.022900 -0.002098
# 6 -0.001566 -0.000337 -0.000998 -0.006307 -0.002098 0.025423
#
#
# Mechanical properties :
#
#
# Convention : Reuss Voigt Hill
#
# Bulk Modulus (GPa) = 59.72126 69.69060 64.70593
# Shear Modulus (GPa) = 39.39951 46.52298 42.96125
#
# Velocity S-wave (km/s) = 3.95258 4.29506 4.12737
# Velocity P-wave (km/s) = 6.67169 7.22709 6.95494
#
# Compressibility (1/GPa) = 0.01674446
#
# Stress axis : x y z
#
# Youngs Moduli (GPa) = 79.62274 111.21729 86.98706
#
# Poissons Ratio (x) = -0.04242 0.40552
# Poissons Ratio (y) = -0.03037 0.33670
# Poissons Ratio (z) = 0.37119 0.43049
#
# Static dielectric constant tensor:
#      x y z
#    x 2.038820 0.031430 -0.011420 
#    y 0.031430 1.944530 0.014390 
#    z -0.011420 0.014390 2.094750 
# 
# From -- ./inp_files/306865.got.cif
#   From: 2010.05.17/outbox.cif.g08.bks.cpg/sg2_154_cif.got.tgz:306865.got - 2010.06.03 11:33:40.
