data_PCOD9071020
_publ_section_title
;
Structure prediction by ZEFSAII (Michael W. Deem and Ramdas Pophale) SiO2 
 PCOD9071020
Probable space group: P -1
;
_chemical_formula_sum "Si O2"
_cell_formula_units_Z 14
_cell_length_a 22.849567
_cell_length_b 22.582316
_cell_length_c 13.063485
_cell_angle_alpha 154.057488
_cell_angle_beta 18.498928
_cell_angle_gamma 163.339270
_cell_volume 609.982603
_symmetry_space_group_name_H-M "P -1"
_symmetry_group_IT_number 2
_symmetry_cell_setting 'triclinic'
loop_
_space_group_symop_operation_xyz
x,y,z
-x,-y,-z
loop_
_atom_site_type_symbol
_atom_site_label
_atom_site_fract_x
_atom_site_fract_y
_atom_site_fract_z
Si Si1 0.320792 0.634793 0.679179
Si Si2 0.969420 0.426796 0.318700
Si Si3 0.483237 0.767151 0.844835
Si Si4 0.647154 0.025072 0.605470
Si Si5 0.018908 0.126493 0.754737
Si Si6 0.790118 0.678269 0.734509
Si Si7 0.330405 0.115357 0.842617
O O1 0.436513 0.735693 0.753318
O O2 0.286839 0.457065 0.444283
O O3 0.495915 0.810228 0.573388
O O4 0.000000 0.500000 0.000000
O O5 0.000000 0.500000 0.500000
O O6 0.668102 0.312211 0.598998
O O7 0.216573 0.615397 0.127195
O O8 0.981201 0.268812 0.035109
O O9 0.670928 0.741108 0.515275
O O10 0.577429 0.976460 0.026545
O O11 0.929710 0.207759 0.489323
O O12 0.730968 0.043547 0.378166
O O13 0.000000 0.000000 0.500000
O O14 0.793060 0.962284 0.960704
O O15 0.500000 0.500000 0.000000
O O16 0.818878 0.845297 0.907255
#
# Coordination Sequence:
#
# PCOD9071020 Si02
#       7
#     2   2   2   2   2   2   2
#     4  12  26  44  70 108 149 184 233 289 359 439
#     4  12  27  51  72 103 141 191 252 302 357 431
#     4  12  26  44  76 101 144 186 233 302 363 414
#     4  12  25  49  69 110 149 190 231 289 361 451
#     4  12  28  47  72 105 137 186 250 308 357 414
#     4  12  26  44  71 109 146 187 237 284 355 449
#     4  12  26  45  76  99 146 192 234 293 367 426
#
# _framework density 22.951474000000001
#
# number of rings (size 3 to 8) (size 9 to 14) (size 15 to 20)
#    0.000    0.000    2.857    6.857    8.000    0.000 
#    0.000    0.000    0.000    0.000    0.000    0.000 
#    0.000    0.000    0.000    0.000    0.000    0.000 
#
# Total GULP energy -78130.992963 kJ/mol
# GULP energy per Si atom -5580.785212 kJ/mol
# Density = 2.289924 g / cm^3
# Si number density = 22.951474 Si / 1000 Ang^3
#
#
#
# Elastic Constant Matrix: (Units=GPa)
#
#
# Indices 1 2 3 4 5 6 
#
# 1 64.8826 1.0484 21.4771 9.3544 16.3560 6.7108
# 2 1.0484 44.6824 12.2756 2.3623 7.6197 5.7151
# 3 21.4771 12.2756 104.4066 13.7033 8.4204 11.1535
# 4 9.3544 2.3623 13.7033 54.3092 7.6814 12.3909
# 5 16.3560 7.6197 8.4204 7.6814 43.1825 12.4824
# 6 6.7108 5.7151 11.1535 12.3909 12.4824 14.6433
#
#
#
# Elastic Compliance Matrix: (Units=1/GPa)
#
#
# Indices 1 2 3 4 5 6 
#
# 1 0.018266 0.001604 -0.003253 -0.001542 -0.006350 0.000199
# 2 0.001604 0.024297 -0.002367 0.001300 -0.002540 -0.007350
# 3 -0.003253 -0.002367 0.011232 -0.000851 0.001563 -0.006753
# 4 -0.001542 0.001300 -0.000851 0.023264 0.002425 -0.020905
# 5 -0.006350 -0.002540 0.001563 0.002425 0.033286 -0.027715
# 6 0.000199 -0.007350 -0.006753 -0.020905 -0.027715 0.117527
#
#
# Mechanical properties :
#
#
# Convention : Reuss Voigt Hill
#
# Bulk Modulus (GPa) = 21.85132 31.50821 26.67976
# Shear Modulus (GPa) = 19.90773 34.37169 27.13971
#
# Velocity S-wave (km/s) = 2.94833 3.87406 3.44245
# Velocity P-wave (km/s) = 4.59691 5.81112 5.23930
#
# Compressibility (1/GPa) = 0.04576383
#
# Stress axis : x y z
#
# Youngs Moduli (GPa) = 54.74699 41.15662 89.02786
#
# Poissons Ratio (x) = -0.06602 0.28958
# Poissons Ratio (y) = -0.08782 0.21076
# Poissons Ratio (z) = 0.17807 0.09743
#
# Static dielectric constant tensor:
#      x y z
#    x 1.841720 -0.016580 -0.054650 
#    y -0.016580 1.806860 -0.003650 
#    z -0.054650 -0.003650 1.619570 
# 
# From -- ./inp_files/60738.got.cif
#   From: 2010.05.17/outbox.cif.g08.bks.cpg/sg2_31_cif.got.tgz:60738.got - 2010.06.03 11:33:40.
