data_PCOD9071895
_publ_section_title
;
Structure prediction by ZEFSAII (Michael W. Deem and Ramdas Pophale) SiO2 
 PCOD9071895
Probable space group: P -1
;
_chemical_formula_sum "Si O2"
_cell_formula_units_Z 16
_cell_length_a 9.790256
_cell_length_b 9.282746
_cell_length_c 11.523688
_cell_angle_alpha 54.821233
_cell_angle_beta 127.244220
_cell_angle_gamma 119.499261
_cell_volume 664.597918
_symmetry_space_group_name_H-M "P -1"
_symmetry_group_IT_number 2
_symmetry_cell_setting 'triclinic'
loop_
_space_group_symop_operation_xyz
x,y,z
-x,-y,-z
loop_
_atom_site_type_symbol
_atom_site_label
_atom_site_fract_x
_atom_site_fract_y
_atom_site_fract_z
Si Si1 0.527249 0.568478 0.728193
Si Si2 0.388077 0.652753 0.398901
Si Si3 0.303852 0.015794 0.664208
Si Si4 0.605938 0.840127 0.126799
Si Si5 0.546937 0.768954 0.872055
Si Si6 0.892074 0.818158 0.694556
Si Si7 0.980774 0.479401 0.858439
Si Si8 0.890996 0.863809 0.919290
O O1 0.378633 0.631552 0.544342
O O2 0.511293 0.354866 0.805992
O O3 0.506337 0.601239 0.839750
O O4 0.711399 0.681804 0.715535
O O5 0.500000 0.500000 0.500000
O O6 0.514087 0.841016 0.341867
O O7 0.204743 0.615390 0.253270
O O8 0.258282 0.089952 0.731322
O O9 0.167487 0.042418 0.484892
O O10 0.367578 0.830073 0.778092
O O11 0.647121 0.798895 0.034148
O O12 0.500000 0.000000 0.000000
O O13 0.693838 0.894083 0.807032
O O14 0.997443 0.690485 0.739759
O O15 0.976571 0.894934 0.822578
O O16 0.000000 0.500000 0.000000
O O17 0.107288 0.345903 0.952297
O O18 0.000000 0.000000 0.000000
#
# Coordination Sequence:
#
# PCOD9071895 Si02
#       8
#     2   2   2   2   2   2   2   2
#     4  10  18  32  53  79 108 132 171 225 270 307
#     4  11  17  30  57  82 101 132 177 226 264 307
#     4  10  18  33  55  79 104 131 179 225 265 309
#     4  10  19  32  51  75 107 141 174 218 266 315
#     4  10  22  33  49  79 110 142 173 216 267 321
#     4   9  18  33  55  81 101 133 178 223 263 311
#     4  10  18  30  47  73 106 136 169 205 260 317
#     4  10  21  33  48  73 110 142 170 215 268 320
#
# _framework density 24.074705000000002
#
# number of rings (size 3 to 8) (size 9 to 14) (size 15 to 20)
#    0.000    2.000    3.750    1.125    0.000    6.500 
#    0.000    0.000    0.000    3.750    0.000   10.500 
#    0.000    0.000    0.000    0.000    0.000    0.000 
#
# Total GULP energy -89115.279572 kJ/mol
# GULP energy per Si atom -5569.704973 kJ/mol
# Density = 2.401991 g / cm^3
# Si number density = 24.074705 Si / 1000 Ang^3
#
#
#
# Elastic Constant Matrix: (Units=GPa)
#
#
# Indices 1 2 3 4 5 6 
#
# 1 89.6500 34.5113 21.7648 0.4793 -2.2657 -10.4304
# 2 34.5113 109.8723 25.8430 23.5445 -1.3557 -38.1723
# 3 21.7648 25.8430 111.7168 28.7431 3.5233 -14.4738
# 4 0.4793 23.5445 28.7431 38.7032 -5.2020 -5.8412
# 5 -2.2657 -1.3557 3.5233 -5.2020 34.8659 3.9407
# 6 -10.4304 -38.1723 -14.4738 -5.8412 3.9407 35.0563
#
#
#
# Elastic Compliance Matrix: (Units=1/GPa)
#
#
# Indices 1 2 3 4 5 6 
#
# 1 0.013843 -0.005711 -0.003235 0.005579 0.002147 -0.002747
# 2 -0.005711 0.019127 0.001952 -0.010688 -0.003516 0.018548
# 3 -0.003235 0.001952 0.012499 -0.010139 -0.003478 0.005025
# 4 0.005579 -0.010688 -0.010139 0.039577 0.007832 -0.008450
# 5 0.002147 -0.003516 -0.003478 0.007832 0.030973 -0.006802
# 6 -0.002747 0.018548 0.005025 -0.008450 -0.006802 0.049337
#
#
# Mechanical properties :
#
#
# Convention : Reuss Voigt Hill
#
# Bulk Modulus (GPa) = 31.76437 52.83078 42.29758
# Shear Modulus (GPa) = 26.33823 36.99974 31.66899
#
# Velocity S-wave (km/s) = 3.31119 3.92455 3.63084
# Velocity P-wave (km/s) = 5.27649 6.52137 5.93168
#
# Compressibility (1/GPa) = 0.03148181
#
# Stress axis : x y z
#
# Youngs Moduli (GPa) = 72.23851 52.28157 80.00469
#
# Poissons Ratio (x) = 0.29856 0.25881
# Poissons Ratio (y) = 0.41253 -0.15614
# Poissons Ratio (z) = 0.23368 -0.10204
#
# Static dielectric constant tensor:
#      x y z
#    x 1.967310 0.010800 -0.047280 
#    y 0.010800 2.042180 0.035580 
#    z -0.047280 0.035580 2.036290 
# 
# From -- ./inp_files/416699.got.cif
#   From: 2010.05.17/outbox.cif.g08.bks.cpg/sg2_209_cif.got.tgz:416699.got - 2010.06.03 11:33:40.
