data_PCOD9071502
_publ_section_title
;
Structure prediction by ZEFSAII (Michael W. Deem and Ramdas Pophale) SiO2 
 PCOD9071502
Probable space group: P -1
;
_chemical_formula_sum "Si O2"
_cell_formula_units_Z 9
_cell_length_a 11.354353
_cell_length_b 8.970670
_cell_length_c 5.100665
_cell_angle_alpha 94.730761
_cell_angle_beta 73.012620
_cell_angle_gamma 133.337561
_cell_volume 356.141349
_symmetry_space_group_name_H-M "P -1"
_symmetry_group_IT_number 2
_symmetry_cell_setting 'triclinic'
loop_
_space_group_symop_operation_xyz
x,y,z
-x,-y,-z
loop_
_atom_site_type_symbol
_atom_site_label
_atom_site_fract_x
_atom_site_fract_y
_atom_site_fract_z
Si Si1 0.388572 0.455760 0.313861
Si Si2 0.156229 0.735695 0.521721
Si Si3 0.500000 0.000000 0.000000
Si Si4 0.294118 0.618492 0.768295
Si Si5 0.064499 0.185478 0.172511
O O1 0.500000 0.500000 0.500000
O O2 0.354037 0.596792 0.451051
O O3 0.196911 0.244047 0.320547
O O4 0.500000 0.500000 0.000000
O O5 0.312787 0.851316 0.242165
O O6 0.215233 0.712271 0.754276
O O7 0.000000 0.500000 0.500000
O O8 0.089227 0.846464 0.615222
O O9 0.548351 0.205230 0.129074
O O10 0.170273 0.396039 0.956603
O O11 0.000000 0.000000 0.000000
#
# Coordination Sequence:
#
# PCOD9071502 Si02
#       5
#     2   2   1   2   2
#     4  12  27  51  80 122 177 229 290 360 444 533
#     4  12  26  52  83 125 172 223 302 357 444 531
#     4  12  28  46  86 126 170 230 286 368 444 522
#     4  12  26  53  84 123 174 230 300 361 450 529
#     4  12  29  53  86 129 176 237 292 377 447 535
#
# _framework density 25.270866999999999
#
# number of rings (size 3 to 8) (size 9 to 14) (size 15 to 20)
#    0.000    0.000    6.667    1.333    3.111    2.667 
#    0.000    0.000    0.000    0.000    0.000    0.000 
#    0.000    0.000    0.000    0.000    0.000    0.000 
#
# Total GULP energy -50116.435432 kJ/mol
# GULP energy per Si atom -5568.492826 kJ/mol
# Density = 2.521335 g / cm^3
# Si number density = 25.270867 Si / 1000 Ang^3
#
#
#
# Elastic Constant Matrix: (Units=GPa)
#
#
# Indices 1 2 3 4 5 6 
#
# 1 155.9452 46.0935 53.4995 -12.2411 4.0473 -2.1125
# 2 46.0935 191.2111 98.4033 17.1673 -14.3417 0.0851
# 3 53.4995 98.4033 183.6015 3.3529 -11.1031 8.9223
# 4 -12.2411 17.1673 3.3529 49.8853 9.6445 -22.6855
# 5 4.0473 -14.3417 -11.1031 9.6445 54.2425 10.1132
# 6 -2.1125 0.0851 8.9223 -22.6855 10.1132 7.4531
#
#
#
# Elastic Compliance Matrix: (Units=1/GPa)
#
#
# Indices 1 2 3 4 5 6 
#
# 1 0.006362 -0.000650 -0.000758 -0.003766 0.002005 -0.011465
# 2 -0.000650 0.007456 -0.004141 0.000536 -0.000135 0.006502
# 3 -0.000758 -0.004141 0.007305 0.004698 -0.001851 0.007900
# 4 -0.003766 0.000536 0.004698 -0.010664 0.014165 -0.058378
# 5 0.002005 -0.000135 -0.001851 0.014165 0.009096 0.033557
# 6 -0.011465 0.006502 0.007900 -0.058378 0.033557 -0.101831
#
#
# Mechanical properties :
#
#
# Convention : Reuss Voigt Hill
#
# Bulk Modulus (GPa) = 99.74599 102.97226 101.35913
# Shear Modulus (GPa) = -73.70736 44.50027 -14.60355
#
# Velocity S-wave (km/s) = -5.40650 4.20090 -2.40652
# Velocity P-wave (km/s) = 0.76339 8.02284 5.69863
#
# Compressibility (1/GPa) = 0.01002547
#
# Stress axis : x y z
#
# Youngs Moduli (GPa) = 157.18907 134.11373 136.88779
#
# Poissons Ratio (x) = 0.08713 0.10381
# Poissons Ratio (y) = 0.10212 0.56684
# Poissons Ratio (z) = 0.11921 0.55535
#
# Static dielectric constant tensor:
#      x y z
#    x 2.141240 0.032130 0.126010 
#    y 0.032130 1.985750 0.003560 
#    z 0.126010 0.003560 2.055410 
# 
# From -- ./inp_files/58636.got.cif
#   From: 2010.05.17/outbox.cif.g08.bks.cpg/sg2_30_cif.got.tgz:58636.got - 2010.06.03 11:33:40.
