data_PCOD9071271
_publ_section_title
;
Structure prediction by ZEFSAII (Michael W. Deem and Ramdas Pophale) SiO2 
 PCOD9071271
Probable space group: P -1
;
_chemical_formula_sum "Si O2"
_cell_formula_units_Z 16
_cell_length_a 9.049965
_cell_length_b 9.693792
_cell_length_c 17.808277
_cell_angle_alpha 82.559701
_cell_angle_beta 149.559383
_cell_angle_gamma 95.420473
_cell_volume 784.404655
_symmetry_space_group_name_H-M "P -1"
_symmetry_group_IT_number 2
_symmetry_cell_setting 'triclinic'
loop_
_space_group_symop_operation_xyz
x,y,z
-x,-y,-z
loop_
_atom_site_type_symbol
_atom_site_label
_atom_site_fract_x
_atom_site_fract_y
_atom_site_fract_z
Si Si1 0.864209 0.431517 0.873579
Si Si2 0.729485 0.110065 0.868166
Si Si3 0.441544 0.127397 0.906186
Si Si4 0.781449 0.201077 0.574295
Si Si5 0.757382 0.971068 0.457130
Si Si6 0.763078 0.485844 0.461309
Si Si7 0.784333 0.716380 0.582865
Si Si8 0.244009 0.597696 0.913620
O O1 0.834216 0.266656 0.885998
O O2 0.547331 0.500565 0.715331
O O3 0.065246 0.488591 0.891979
O O4 0.000000 0.500000 0.000000
O O5 0.553693 0.101472 0.871130
O O6 0.522023 0.072695 0.710026
O O7 0.000000 0.000000 0.000000
O O8 0.090586 0.152492 0.748510
O O9 0.608097 0.268006 0.993035
O O10 0.500000 0.000000 0.000000
O O11 0.830960 0.342407 0.542196
O O12 0.522289 0.234851 0.516993
O O13 0.685230 0.093727 0.475600
O O14 0.891147 0.848956 0.576167
O O15 0.000000 0.000000 0.500000
O O16 0.749639 0.600914 0.512321
O O17 0.000000 0.500000 0.500000
O O18 0.013346 0.660265 0.748075
O O19 0.500000 0.500000 0.000000
#
# Coordination Sequence:
#
# PCOD9071271 Si02
#       8
#     2   2   2   2   2   2   2   2
#     4  12  27  51  73 108 150 193 249 304 373 446
#     4  12  29  48  75 107 150 198 244 306 376 443
#     4  12  28  50  73 111 153 197 246 307 374 440
#     4  12  26  47  75 105 149 195 248 304 364 447
#     4  12  26  48  73 108 146 194 252 299 369 441
#     4  12  26  47  77 106 145 191 248 309 368 437
#     4  12  27  48  74 108 146 196 249 304 372 439
#     4  12  29  47  77 111 149 196 245 306 379 443
#
# _framework density 20.397635999999999
#
# number of rings (size 3 to 8) (size 9 to 14) (size 15 to 20)
#    0.000    0.000    5.000    3.750   10.500    0.000 
#    0.000    0.000    0.000    0.000    0.000    0.000 
#    0.000    0.000    0.000    0.000    0.000    0.000 
#
# Total GULP energy -89472.356949 kJ/mol
# GULP energy per Si atom -5592.022309 kJ/mol
# Density = 2.035121 g / cm^3
# Si number density = 20.397636 Si / 1000 Ang^3
#
#
#
# Elastic Constant Matrix: (Units=GPa)
#
#
# Indices 1 2 3 4 5 6 
#
# 1 216.8216 50.8486 30.9222 -17.9888 36.5240 -2.3646
# 2 50.8486 157.9368 94.3027 -5.2052 -22.2281 15.3063
# 3 30.9222 94.3027 239.5056 -2.5425 -30.8601 2.4825
# 4 -17.9888 -5.2052 -2.5425 49.6750 -6.5260 -10.1119
# 5 36.5240 -22.2281 -30.8601 -6.5260 57.5807 -9.2120
# 6 -2.3646 15.3063 2.4825 -10.1119 -9.2120 54.5251
#
#
#
# Elastic Compliance Matrix: (Units=1/GPa)
#
#
# Indices 1 2 3 4 5 6 
#
# 1 0.006181 -0.002383 -0.000477 0.001404 -0.004874 0.000396
# 2 -0.002383 0.009561 -0.003017 -0.000017 0.003247 -0.002105
# 3 -0.000477 -0.003017 0.005728 0.000332 0.002411 0.001034
# 4 0.001404 -0.000017 0.000332 0.021904 0.002488 0.004533
# 5 -0.004874 0.003247 0.002411 0.002488 0.023806 0.003251
# 6 0.000396 -0.002105 0.001034 0.004533 0.003251 0.020291
#
#
# Mechanical properties :
#
#
# Convention : Reuss Voigt Hill
#
# Bulk Modulus (GPa) = 102.92290 107.37902 105.15096
# Shear Modulus (GPa) = 48.79838 61.56887 55.18363
#
# Velocity S-wave (km/s) = 4.89648 5.49999 5.20698
# Velocity P-wave (km/s) = 9.08488 9.64833 9.37084
#
# Compressibility (1/GPa) = 0.00971601
#
# Stress axis : x y z
#
# Youngs Moduli (GPa) = 161.79147 104.59674 174.57994
#
# Poissons Ratio (x) = 0.24928 0.08323
# Poissons Ratio (y) = 0.38559 0.52665
# Poissons Ratio (z) = 0.07714 0.31553
#
# Static dielectric constant tensor:
#      x y z
#    x 1.653230 0.028530 -0.037170 
#    y 0.028530 1.683890 0.028830 
#    z -0.037170 0.028830 1.689260 
# 
# From -- ./inp_files/184397.got.cif
#   From: 2010.05.17/outbox.cif.g08.bks.cpg/sg2_93_cif.got.tgz:184397.got - 2010.06.03 11:33:40.
