data_PCOD9071688
_publ_section_title
;
Structure prediction by ZEFSAII (Michael W. Deem and Ramdas Pophale) SiO2 
 PCOD9071688
Probable space group: P -1
;
_chemical_formula_sum "Si O2"
_cell_formula_units_Z 10
_cell_length_a 11.249133
_cell_length_b 8.653923
_cell_length_c 9.822883
_cell_angle_alpha 137.585812
_cell_angle_beta 116.852136
_cell_angle_gamma 37.642382
_cell_volume 372.837956
_symmetry_space_group_name_H-M "P -1"
_symmetry_group_IT_number 2
_symmetry_cell_setting 'triclinic'
loop_
_space_group_symop_operation_xyz
x,y,z
-x,-y,-z
loop_
_atom_site_type_symbol
_atom_site_label
_atom_site_fract_x
_atom_site_fract_y
_atom_site_fract_z
Si Si1 0.024115 0.265027 0.561840
Si Si2 0.472304 0.827684 0.266846
Si Si3 0.581108 0.788631 0.750059
Si Si4 0.022982 0.205884 0.221829
Si Si5 0.510854 0.494948 0.691625
O O1 0.941161 0.293137 0.389282
O O2 0.826448 0.509906 0.715747
O O3 0.080889 0.458346 0.700848
O O4 0.240236 0.855311 0.424465
O O5 0.557295 0.505233 0.194109
O O6 0.500000 0.000000 0.500000
O O7 0.524141 0.873598 0.177011
O O8 0.246041 0.022142 0.247748
O O9 0.465594 0.818297 0.837602
O O10 0.576709 0.573555 0.504508
O O11 0.000000 0.000000 0.000000
#
# Coordination Sequence:
#
# PCOD9071688 Si02
#       5
#     2   2   2   2   2
#     4   9  17  30  50  71  99 132 165 203 248 297
#     4   8  15  28  47  70  95 126 162 198 241 290
#     4   9  16  27  48  74  97 128 167 203 244 294
#     4   9  17  30  51  77 101 129 168 208 247 297
#     4   9  16  27  48  74  97 128 167 203 244 294
#
# _framework density 26.821301999999999
#
# number of rings (size 3 to 8) (size 9 to 14) (size 15 to 20)
#    0.000    3.200    0.000    1.800    0.000    0.000 
#    0.000    0.000    0.000  106.800    0.000   36.400 
#    0.000    0.000    0.000    0.000    0.000    0.000 
#
# Total GULP energy -55758.456036 kJ/mol
# GULP energy per Si atom -5575.845604 kJ/mol
# Density = 2.676026 g / cm^3
# Si number density = 26.821302 Si / 1000 Ang^3
#
#
#
# Elastic Constant Matrix: (Units=GPa)
#
#
# Indices 1 2 3 4 5 6 
#
# 1 163.1552 68.1355 37.6484 0.5037 7.6591 27.0719
# 2 68.1355 92.2996 22.7320 -10.9185 11.1973 10.3465
# 3 37.6484 22.7320 124.9697 5.1099 23.4046 6.5253
# 4 0.5037 -10.9185 5.1099 32.7037 8.2973 13.6702
# 5 7.6591 11.1973 23.4046 8.2973 50.6506 5.7869
# 6 27.0719 10.3465 6.5253 13.6702 5.7869 85.1225
#
#
#
# Elastic Compliance Matrix: (Units=1/GPa)
#
#
# Indices 1 2 3 4 5 6 
#
# 1 0.009651 -0.006845 -0.001747 -0.001702 0.001360 -0.001923
# 2 -0.006845 0.017450 -0.000693 0.007296 -0.003604 -0.000818
# 3 -0.001747 -0.000693 0.009387 -0.000833 -0.003820 0.000314
# 4 -0.001702 0.007296 -0.000833 0.037229 -0.006404 -0.005825
# 5 0.001360 -0.003604 -0.003820 -0.006404 0.023177 -0.000249
# 6 -0.001923 -0.000818 0.000314 -0.005825 -0.000249 0.013387
#
#
# Mechanical properties :
#
#
# Convention : Reuss Voigt Hill
#
# Bulk Modulus (GPa) = 55.80696 70.82846 63.31771
# Shear Modulus (GPa) = 37.08546 50.48928 43.78737
#
# Velocity S-wave (km/s) = 3.72248 4.34341 4.04488
# Velocity P-wave (km/s) = 6.27120 7.18460 6.74338
#
# Compressibility (1/GPa) = 0.01791891
#
# Stress axis : x y z
#
# Youngs Moduli (GPa) = 103.61300 57.30719 106.52695
#
# Poissons Ratio (x) = 0.39227 0.18611
# Poissons Ratio (y) = 0.70924 0.07378
# Poissons Ratio (z) = 0.18102 0.03969
#
# Static dielectric constant tensor:
#      x y z
#    x 2.155330 0.065110 -0.043400 
#    y 0.065110 2.220060 0.066750 
#    z -0.043400 0.066750 2.111740 
# 
# From -- ./inp_files/20157.got.cif
#   From: 2010.05.17/outbox.cif.g08.bks.cpg/sg2_11_cif.got.tgz:20157.got - 2010.06.03 11:33:40.
