data_PCOD9071782
_publ_section_title
;
Structure prediction by ZEFSAII (Michael W. Deem and Ramdas Pophale) SiO2 
 PCOD9071782
Probable space group: P -1
;
_chemical_formula_sum "Si O2"
_cell_formula_units_Z 16
_cell_length_a 5.388874
_cell_length_b 21.694535
_cell_length_c 9.031757
_cell_angle_alpha 136.827138
_cell_angle_beta 80.148330
_cell_angle_gamma 79.275546
_cell_volume 631.588931
_symmetry_space_group_name_H-M "P -1"
_symmetry_group_IT_number 2
_symmetry_cell_setting 'triclinic'
loop_
_space_group_symop_operation_xyz
x,y,z
-x,-y,-z
loop_
_atom_site_type_symbol
_atom_site_label
_atom_site_fract_x
_atom_site_fract_y
_atom_site_fract_z
Si Si1 0.998849 0.728492 0.004363
Si Si2 0.924774 0.964910 0.598668
Si Si3 0.426901 0.931241 0.668316
Si Si4 0.342545 0.438125 0.843989
Si Si5 0.912534 0.827557 0.904798
Si Si6 0.450045 0.339605 0.956048
Si Si7 0.355369 0.548019 0.445174
Si Si8 0.434403 0.837562 0.815794
O O1 0.256005 0.704741 0.053776
O O2 0.109153 0.650974 0.715396
O O3 0.899447 0.827759 0.084594
O O4 0.749100 0.710735 0.068075
O O5 0.723203 0.911107 0.529598
O O6 0.221402 0.902560 0.542706
O O7 0.000000 0.000000 0.500000
O O8 0.741707 0.066820 0.890225
O O9 0.472588 0.878498 0.727767
O O10 0.247795 0.053488 0.921246
O O11 0.438472 0.431498 0.651361
O O12 0.500000 0.500000 0.000000
O O13 0.456124 0.343699 0.783004
O O14 0.000000 0.500000 0.000000
O O15 0.736981 0.777867 0.756274
O O16 0.229957 0.786376 0.743116
O O17 0.292305 0.460407 0.227619
O O18 0.500000 0.500000 0.500000
#
# Coordination Sequence:
#
# PCOD9071782 Si02
#       8
#     2   2   2   2   2   2   2   2
#     4  11  21  34  54  76 106 138 173 218 255 305
#     4  10  18  29  50  79 103 125 164 217 260 294
#     4  10  19  34  55  77 102 137 175 216 257 315
#     4  10  19  33  54  77 102 132 169 212 255 303
#     4  10  19  32  53  79 102 135 176 212 260 308
#     4  10  20  35  52  77 104 139 173 210 258 308
#     4   9  19  34  55  81 103 130 174 217 253 295
#     4  10  19  35  56  76 101 136 177 216 255 316
#
# _framework density 25.332933000000001
#
# number of rings (size 3 to 8) (size 9 to 14) (size 15 to 20)
#    0.000    2.000    0.000    7.500    0.000    3.000 
#    0.000    0.000    0.000   24.000    0.000    0.000 
#    0.000    0.000    0.000    0.000    0.000    0.000 
#
# Total GULP energy -89407.166430 kJ/mol
# GULP energy per Si atom -5587.947902 kJ/mol
# Density = 2.527527 g / cm^3
# Si number density = 25.332933 Si / 1000 Ang^3
#
#
#
# Elastic Constant Matrix: (Units=GPa)
#
#
# Indices 1 2 3 4 5 6 
#
# 1 312.8950 108.0758 83.1982 -62.2008 -66.0520 -12.0570
# 2 108.0758 202.9914 59.7121 -76.1475 -26.8347 -14.3215
# 3 83.1982 59.7121 132.9832 -57.0660 -32.2534 0.0498
# 4 -62.2008 -76.1475 -57.0660 73.5952 34.0270 7.7283
# 5 -66.0520 -26.8347 -32.2534 34.0270 46.3584 -2.3451
# 6 -12.0570 -14.3215 0.0498 7.7283 -2.3451 56.4122
#
#
#
# Elastic Compliance Matrix: (Units=1/GPa)
#
#
# Indices 1 2 3 4 5 6 
#
# 1 0.005552 -0.002374 -0.001772 -0.002650 0.007312 0.001253
# 2 -0.002374 0.009251 0.000503 0.010377 -0.005285 0.000199
# 3 -0.001772 0.000503 0.012045 0.008640 -0.000268 -0.001456
# 4 -0.002650 0.010377 0.008640 0.038594 -0.020292 -0.004070
# 5 0.007312 -0.005285 -0.000268 -0.020292 0.043882 0.004826
# 6 0.001253 0.000199 -0.001456 -0.004070 0.004826 0.018804
#
#
# Mechanical properties :
#
#
# Convention : Reuss Voigt Hill
#
# Bulk Modulus (GPa) = 51.11788 127.87131 89.49459
# Shear Modulus (GPa) = 35.22724 61.79872 48.51298
#
# Velocity S-wave (km/s) = 3.73308 4.94445 4.38084
# Velocity P-wave (km/s) = 6.22924 9.12045 7.80980
#
# Compressibility (1/GPa) = 0.01956263
#
# Stress axis : x y z
#
# Youngs Moduli (GPa) = 180.11066 108.10105 83.01867
#
# Poissons Ratio (x) = 0.25662 0.14709
# Poissons Ratio (y) = 0.42756 -0.04175
# Poissons Ratio (z) = 0.31911 -0.05436
#
# Static dielectric constant tensor:
#      x y z
#    x 2.035700 0.012730 0.145260 
#    y 0.012730 2.124040 0.236980 
#    z 0.145260 0.236980 2.715160 
# 
# From -- ./inp_files/104786.got.cif
#   From: 2010.05.17/outbox.cif.g08.bks.cpg/sg2_53_cif.got.tgz:104786.got - 2010.06.03 11:33:40.
