data_PCOD9071218
_publ_section_title
;
Structure prediction by ZEFSAII (Michael W. Deem and Ramdas Pophale) SiO2 
 PCOD9071218
Probable space group: P -1
;
_chemical_formula_sum "Si O2"
_cell_formula_units_Z 8
_cell_length_a 4.847802
_cell_length_b 15.287891
_cell_length_c 8.911702
_cell_angle_alpha 32.426735
_cell_angle_beta 98.076720
_cell_angle_gamma 85.778126
_cell_volume 326.857064
_symmetry_space_group_name_H-M "P -1"
_symmetry_group_IT_number 2
_symmetry_cell_setting 'triclinic'
loop_
_space_group_symop_operation_xyz
x,y,z
-x,-y,-z
loop_
_atom_site_type_symbol
_atom_site_label
_atom_site_fract_x
_atom_site_fract_y
_atom_site_fract_z
Si Si1 0.227438 0.978309 0.419052
Si Si2 0.213185 0.602461 0.922270
Si Si3 0.892436 0.178533 0.829412
Si Si4 0.198801 0.419494 0.480648
O O1 0.218297 0.796656 0.615653
O O2 0.500000 0.000000 0.500000
O O3 0.000000 0.000000 0.500000
O O4 0.104834 0.121883 0.073392
O O5 0.500000 0.500000 0.000000
O O6 0.217523 0.567659 0.153560
O O7 0.000000 0.500000 0.000000
O O8 0.001756 0.313869 0.551888
O O9 0.545865 0.277689 0.711949
O O10 0.000000 0.000000 0.000000
O O11 0.000000 0.500000 0.500000
#
# Coordination Sequence:
#
# PCOD9071218 Si02
#       4
#     2   2   2   2
#     4  12  26  46  72 108 148 192 245 311 376 442
#     4  12  26  48  74 106 148 199 250 307 375 451
#     4  12  26  47  75 109 148 199 253 309 375 454
#     4  12  26  47  74 109 148 196 252 313 374 447
#
# _framework density 24.475528000000001
#
# number of rings (size 3 to 8) (size 9 to 14) (size 15 to 20)
#    0.000    0.000    0.000   10.500    0.000    4.000 
#    0.000    0.000    0.000    0.000    0.000    0.000 
#    0.000    0.000    0.000    0.000    0.000    0.000 
#
# Total GULP energy -44546.304931 kJ/mol
# GULP energy per Si atom -5568.288116 kJ/mol
# Density = 2.441982 g / cm^3
# Si number density = 24.475528 Si / 1000 Ang^3
#
#
#
# Elastic Constant Matrix: (Units=GPa)
#
#
# Indices 1 2 3 4 5 6 
#
# 1 225.9220 62.5525 51.3958 -4.6054 -26.3585 5.7827
# 2 62.5525 114.6328 39.7671 -13.5467 11.9513 4.8585
# 3 51.3958 39.7671 153.9928 -8.9813 -12.7598 -1.7209
# 4 -4.6054 -13.5467 -8.9813 67.3425 -2.2416 -4.7190
# 5 -26.3585 11.9513 -12.7598 -2.2416 47.2774 -5.3307
# 6 5.7827 4.8585 -1.7209 -4.7190 -5.3307 52.0761
#
#
#
# Elastic Compliance Matrix: (Units=1/GPa)
#
#
# Indices 1 2 3 4 5 6 
#
# 1 0.006029 -0.003461 -0.000801 -0.000256 0.004009 0.000014
# 2 -0.003461 0.012298 -0.002417 0.001633 -0.005758 -0.001284
# 3 -0.000801 -0.002417 0.007625 0.000615 0.002349 0.000863
# 4 -0.000256 0.001633 0.000615 0.015352 0.000489 0.001338
# 5 0.004009 -0.005758 0.002349 0.000489 0.025822 0.002857
# 6 0.000014 -0.001284 0.000863 0.001338 0.002857 0.019763
#
#
# Mechanical properties :
#
#
# Convention : Reuss Voigt Hill
#
# Bulk Modulus (GPa) = 79.39781 89.10873 84.25327
# Shear Modulus (GPa) = 47.87137 56.06134 51.96635
#
# Velocity S-wave (km/s) = 4.42734 4.79112 4.61281
# Velocity P-wave (km/s) = 7.65802 8.19101 7.92899
#
# Compressibility (1/GPa) = 0.01259481
#
# Stress axis : x y z
#
# Youngs Moduli (GPa) = 165.86559 81.31194 131.13991
#
# Poissons Ratio (x) = 0.28141 0.10505
# Poissons Ratio (y) = 0.57404 0.31697
# Poissons Ratio (z) = 0.13286 0.19653
#
# Static dielectric constant tensor:
#      x y z
#    x 1.905490 0.010600 0.038620 
#    y 0.010600 1.978230 0.107970 
#    z 0.038620 0.107970 1.765200 
# 
# From -- ./inp_files/131269.got.cif
#   From: 2010.05.17/outbox.cif.g08.bks.cpg/sg2_66_cif.got.tgz:131269.got - 2010.06.03 11:33:40.
