data_PCOD9071328
_publ_section_title
;
Structure prediction by ZEFSAII (Michael W. Deem and Ramdas Pophale) SiO2 
 PCOD9071328
Probable space group: P -1
;
_chemical_formula_sum "Si O2"
_cell_formula_units_Z 16
_cell_length_a 8.195362
_cell_length_b 11.679994
_cell_length_c 14.363985
_cell_angle_alpha 117.511849
_cell_angle_beta 136.419896
_cell_angle_gamma 39.807848
_cell_volume 592.732765
_symmetry_space_group_name_H-M "P -1"
_symmetry_group_IT_number 2
_symmetry_cell_setting 'triclinic'
loop_
_space_group_symop_operation_xyz
x,y,z
-x,-y,-z
loop_
_atom_site_type_symbol
_atom_site_label
_atom_site_fract_x
_atom_site_fract_y
_atom_site_fract_z
Si Si1 0.382640 0.521101 0.855780
Si Si2 0.635371 0.716823 0.625121
Si Si3 0.443366 0.259606 0.010118
Si Si4 0.342200 0.176333 0.753073
Si Si5 0.553531 0.649750 0.772441
Si Si6 0.858651 0.111827 0.832218
Si Si7 0.212516 0.097692 0.496338
Si Si8 0.208104 0.728306 0.321441
O O1 0.416216 0.651709 0.879158
O O2 0.648742 0.314419 0.854393
O O3 0.500000 0.500000 0.000000
O O4 0.307178 0.302909 0.864632
O O5 0.632958 0.685862 0.720271
O O6 0.495460 0.649851 0.484495
O O7 0.009333 0.616329 0.716519
O O8 0.369795 0.930283 0.567744
O O9 0.291479 0.311194 0.070807
O O10 0.745276 0.040704 0.048093
O O11 0.717764 0.049545 0.816711
O O12 0.167146 0.236639 0.601498
O O13 0.147153 0.145567 0.723730
O O14 0.712081 0.443034 0.754791
O O15 0.149104 0.792503 0.652988
O O16 0.800060 0.153181 0.712825
O O17 0.500000 0.000000 0.500000
#
# Coordination Sequence:
#
# PCOD9071328 Si02
#       8
#     2   2   2   2   2   2   2   2
#     4  12  27  49  79 111 151 211 262 317 400 465
#     4  12  27  49  77 109 155 207 260 334 388 460
#     4  12  28  51  76 118 160 206 259 327 391 469
#     4  12  27  49  81 114 158 204 265 323 392 470
#     4  12  26  48  75 114 158 202 265 317 395 469
#     4  12  27  49  79 111 160 206 258 324 391 463
#     4  12  27  49  80 113 153 207 262 323 396 471
#     4  12  28  49  79 116 153 211 264 326 393 463
#
# _framework density 26.993614999999998
#
# number of rings (size 3 to 8) (size 9 to 14) (size 15 to 20)
#    0.000    0.000    3.750    5.625    5.250    2.500 
#    0.000    0.000    0.000    0.000    0.000    0.000 
#    0.000    0.000    0.000    0.000    0.000    0.000 
#
# Total GULP energy -89311.556076 kJ/mol
# GULP energy per Si atom -5581.972255 kJ/mol
# Density = 2.693218 g / cm^3
# Si number density = 26.993615 Si / 1000 Ang^3
#
#
#
# Elastic Constant Matrix: (Units=GPa)
#
#
# Indices 1 2 3 4 5 6 
#
# 1 108.0693 30.5135 38.7757 13.5844 -11.5793 -17.3853
# 2 30.5135 106.7712 60.2174 1.2635 1.6772 -19.5042
# 3 38.7757 60.2174 141.3364 21.1137 -13.6357 -28.1043
# 4 13.5844 1.2635 21.1137 61.8030 -8.0082 -2.4832
# 5 -11.5793 1.6772 -13.6357 -8.0082 52.1388 4.9989
# 6 -17.3853 -19.5042 -28.1043 -2.4832 4.9989 35.2322
#
#
#
# Elastic Compliance Matrix: (Units=1/GPa)
#
#
# Indices 1 2 3 4 5 6 
#
# 1 0.011117 -0.001941 -0.001198 -0.001654 0.001667 0.003102
# 2 -0.001941 0.013288 -0.005035 0.001705 -0.002183 0.002812
# 3 -0.001198 -0.005035 0.011187 -0.003009 0.001874 0.005067
# 4 -0.001654 0.001705 -0.003009 0.017698 0.001630 -0.001256
# 5 0.001667 -0.002183 0.001874 0.001630 0.020522 -0.001689
# 6 0.003102 0.002812 0.005067 -0.001256 -0.001689 0.035664
#
#
# Mechanical properties :
#
#
# Convention : Reuss Voigt Hill
#
# Bulk Modulus (GPa) = 51.96660 68.35443 60.16052
# Shear Modulus (GPa) = 37.81029 44.94615 41.37822
#
# Velocity S-wave (km/s) = 3.74667 4.08495 3.91946
# Velocity P-wave (km/s) = 6.16522 6.90120 6.54356
#
# Compressibility (1/GPa) = 0.01924313
#
# Stress axis : x y z
#
# Youngs Moduli (GPa) = 89.95365 75.25533 89.38769
#
# Poissons Ratio (x) = 0.14609 0.10710
# Poissons Ratio (y) = 0.17462 0.45008
# Poissons Ratio (z) = 0.10778 0.37892
#
# Static dielectric constant tensor:
#      x y z
#    x 2.108580 0.711420 0.370550 
#    y 0.711420 0.429590 -0.965030 
#    z 0.370550 -0.965030 1.551650 
# 
# From -- ./inp_files/349703.got.cif
#   From: 2010.05.17/outbox.cif.g08.bks.cpg/sg2_175_cif.got.tgz:349703.got - 2010.06.03 11:33:40.
