data_PCOD9071352
_publ_section_title
;
Structure prediction by ZEFSAII (Michael W. Deem and Ramdas Pophale) SiO2 
 PCOD9071352
Probable space group: P -1
;
_chemical_formula_sum "Si O2"
_cell_formula_units_Z 12
_cell_length_a 21.044279
_cell_length_b 6.891315
_cell_length_c 15.610907
_cell_angle_alpha 46.183778
_cell_angle_beta 162.966747
_cell_angle_gamma 130.809208
_cell_volume 478.136692
_symmetry_space_group_name_H-M "P -1"
_symmetry_group_IT_number 2
_symmetry_cell_setting 'triclinic'
loop_
_space_group_symop_operation_xyz
x,y,z
-x,-y,-z
loop_
_atom_site_type_symbol
_atom_site_label
_atom_site_fract_x
_atom_site_fract_y
_atom_site_fract_z
Si Si1 0.089200 0.330959 0.836449
Si Si2 0.377533 0.513389 0.748883
Si Si3 0.682395 0.210791 0.107303
Si Si4 0.478057 0.908551 0.251580
Si Si5 0.127583 0.278687 0.085527
Si Si6 0.982653 0.136421 0.238139
O O1 0.871437 0.483677 0.544018
O O2 0.199234 0.518540 0.852134
O O3 0.020631 0.052358 0.791891
O O4 0.226287 0.293937 0.111351
O O5 0.434733 0.802916 0.697826
O O6 0.500000 0.500000 0.000000
O O7 0.490101 0.296867 0.897601
O O8 0.584618 0.099987 0.926810
O O9 0.861987 0.023092 0.444807
O O10 0.681005 0.718836 0.599390
O O11 0.258899 0.859570 0.035036
O O12 0.977390 0.550109 0.825559
O O13 0.000000 0.000000 0.000000
#
# Coordination Sequence:
#
# PCOD9071352 Si02
#       6
#     2   2   2   2   2   2
#     4  12  26  50  80 113 161 205 254 325 384 464
#     4  12  26  48  77 117 160 196 263 319 390 457
#     4  12  27  49  83 118 157 202 254 330 389 457
#     4  12  27  48  77 115 154 211 261 310 394 463
#     4  12  29  52  74 114 160 208 264 319 381 468
#     4  12  26  48  83 113 153 207 261 318 392 462
#
# _framework density 25.097425000000001
#
# number of rings (size 3 to 8) (size 9 to 14) (size 15 to 20)
#    0.000    0.000    6.667    2.500    2.333    4.667 
#    0.000    0.000    0.000    0.000    0.000    0.000 
#    0.000    0.000    0.000    0.000    0.000    0.000 
#
# Total GULP energy -67223.751518 kJ/mol
# GULP energy per Si atom -5601.979293 kJ/mol
# Density = 2.504030 g / cm^3
# Si number density = 25.097425 Si / 1000 Ang^3
#
#
#
# Elastic Constant Matrix: (Units=GPa)
#
#
# Indices 1 2 3 4 5 6 
#
# 1 81.8486 36.4304 42.3066 -7.2446 19.3694 -5.5088
# 2 36.4304 132.2395 35.2938 -22.0234 -5.9577 -16.5360
# 3 42.3066 35.2938 142.1342 2.5998 -12.5491 -16.6590
# 4 -7.2446 -22.0234 2.5998 46.5478 0.4151 2.4686
# 5 19.3694 -5.9577 -12.5491 0.4151 47.5887 3.5148
# 6 -5.5088 -16.5360 -16.6590 2.4686 3.5148 58.4631
#
#
#
# Elastic Compliance Matrix: (Units=1/GPa)
#
#
# Indices 1 2 3 4 5 6 
#
# 1 0.019446 -0.004072 -0.005730 0.001531 -0.009918 -0.000421
# 2 -0.004072 0.009931 -0.000889 0.003994 0.002495 0.001853
# 3 -0.005730 -0.000889 0.009614 -0.001984 0.004644 0.001753
# 4 0.001531 0.003994 -0.001984 0.023742 -0.000835 -0.000244
# 5 -0.009918 0.002495 0.004644 -0.000835 0.026629 -0.000471
# 6 -0.000421 0.001853 0.001753 -0.000244 -0.000471 0.018127
#
#
# Mechanical properties :
#
#
# Convention : Reuss Voigt Hill
#
# Bulk Modulus (GPa) = 56.79549 64.92045 60.85797
# Shear Modulus (GPa) = 37.10799 46.66602 41.88700
#
# Velocity S-wave (km/s) = 3.84937 4.31675 4.08974
# Velocity P-wave (km/s) = 6.51429 7.12526 6.82661
#
# Compressibility (1/GPa) = 0.01760703
#
# Stress axis : x y z
#
# Youngs Moduli (GPa) = 51.42359 100.69939 104.01847
#
# Poissons Ratio (x) = 0.41010 0.59602
# Poissons Ratio (y) = 0.20942 0.09251
# Poissons Ratio (z) = 0.29466 0.08955
#
# Static dielectric constant tensor:
#      x y z
#    x 2.006330 0.037350 -0.103760 
#    y 0.037350 2.078950 -0.007590 
#    z -0.103760 -0.007590 1.999530 
# 
# From -- ./inp_files/539765.got.cif
#   From: 2010.05.17/outbox.cif.g08.bks.cpg/sg2_270_cif.got.tgz:539765.got - 2010.06.03 11:33:40.
