data_PCOD9071780
_publ_section_title
;
Structure prediction by ZEFSAII (Michael W. Deem and Ramdas Pophale) SiO2 
 PCOD9071780
Probable space group: P -1
;
_chemical_formula_sum "Si O2"
_cell_formula_units_Z 14
_cell_length_a 9.000000
_cell_length_b 15.000000
_cell_length_c 15.000000
_cell_angle_alpha 20.000000
_cell_angle_beta 90.000000
_cell_angle_gamma 90.000000
_cell_volume 692.590790
_symmetry_space_group_name_H-M "P -1"
_symmetry_group_IT_number 2
_symmetry_cell_setting 'triclinic'
loop_
_space_group_symop_operation_xyz
x,y,z
-x,-y,-z
loop_
_atom_site_type_symbol
_atom_site_label
_atom_site_fract_x
_atom_site_fract_y
_atom_site_fract_z
Si Si1 0.742050 0.416403 0.818598
Si Si2 0.621026 0.647248 0.132125
Si Si3 0.635599 0.110209 0.582508
Si Si4 0.834211 0.506089 0.533772
Si Si5 0.393704 0.750524 0.742019
Si Si6 0.672102 0.971299 0.002034
Si Si7 0.719871 0.967507 0.360561
O O1 0.560690 0.382032 0.841489
O O2 0.817495 0.471417 0.672643
O O3 0.775223 0.670225 0.641819
O O4 0.789840 0.142218 0.118697
O O5 0.677465 0.351643 0.418556
O O6 0.672097 0.821451 0.049818
O O7 0.677892 0.818893 0.885840
O O8 0.677250 0.233317 0.370976
O O9 0.456009 0.080241 0.612800
O O10 0.755609 0.777323 0.252199
O O11 0.000000 0.500000 0.500000
O O12 0.745882 0.254451 0.733157
O O13 0.500000 0.000000 0.500000
O O14 0.281566 0.838624 0.736657
O O15 0.500000 0.500000 0.000000
O O16 0.500000 0.000000 0.000000
#
# Coordination Sequence:
#
# PCOD9071780 Si02
#       7
#     2   2   2   2   2   2   2
#     4  10  19  32  51  75 105 142 189 227 276 328
#     4  10  19  31  51  77 104 141 187 227 271 329
#     4   9  17  27  43  70 107 140 174 222 275 327
#     4  12  26  42  59  84 119 153 191 247 296 334
#     4  10  16  26  39  66 105 145 175 208 276 337
#     4  12  24  40  62  86 112 150 202 240 281 352
#     4   9  17  27  45  70 102 144 182 218 264 342
#
# _framework density 20.213956
#
# number of rings (size 3 to 8) (size 9 to 14) (size 15 to 20)
#    0.000    1.714    1.429    6.857    4.000    0.000 
#    0.000    0.000    0.000    0.000    0.000    0.000 
#    0.000   22.857    0.000    0.000    0.000    0.000 
#
# Total GULP energy -77944.245634 kJ/mol
# GULP energy per Si atom -5567.446117 kJ/mol
# Density = 2.016795 g / cm^3
# Si number density = 20.213956 Si / 1000 Ang^3
#
#
#
# Elastic Constant Matrix: (Units=GPa)
#
#
# Indices 1 2 3 4 5 6 
#
# 1 45.2783 5.9053 18.1970 2.4918 -6.1883 -9.8816
# 2 5.9053 90.0562 34.4071 -1.4027 -8.2224 -10.8841
# 3 18.1970 34.4071 122.3428 0.9180 -9.7755 -10.8105
# 4 2.4918 -1.4027 0.9180 39.5851 1.1220 -5.7826
# 5 -6.1883 -8.2224 -9.7755 1.1220 14.9790 -2.0127
# 6 -9.8816 -10.8841 -10.8105 -5.7826 -2.0127 9.0453
#
#
#
# Elastic Compliance Matrix: (Units=1/GPa)
#
#
# Indices 1 2 3 4 5 6 
#
# 1 0.037497 0.007342 -0.000323 0.005777 0.026816 0.059072
# 2 0.007342 0.016608 -0.001767 0.004425 0.014972 0.032053
# 3 -0.000323 -0.001767 0.010381 0.001321 0.007236 0.012382
# 4 0.005777 0.004425 0.001321 0.029768 0.008020 0.034029
# 5 0.026816 0.014972 0.007236 0.008020 0.101419 0.083653
# 6 0.059072 0.032053 0.012382 0.034029 0.083653 0.268825
#
#
# Mechanical properties :
#
#
# Convention : Reuss Voigt Hill
#
# Bulk Modulus (GPa) = 13.33512 41.63290 27.48401
# Shear Modulus (GPa) = 10.43859 25.99974 18.21916
#
# Velocity S-wave (km/s) = 2.27492 3.59029 3.00545
# Velocity P-wave (km/s) = 3.67582 6.15043 5.06653
#
# Compressibility (1/GPa) = 0.07498994
#
# Stress axis : x y z
#
# Youngs Moduli (GPa) = 26.66883 60.21259 96.32763
#
# Poissons Ratio (x) = -0.44210 0.03112
# Poissons Ratio (y) = -0.19581 0.17025
# Poissons Ratio (z) = 0.00862 0.10642
#
# Static dielectric constant tensor:
#      x y z
#    x 1.626420 -0.052480 0.054050 
#    y -0.052480 1.869020 0.072030 
#    z 0.054050 0.072030 1.692390 
# 
# From -- ./inp_files/357910.got.cif
#   From: 2010.05.17/outbox.ucp.g08.bks.cvg/sg2_179_cif.got.tgz:357910.got - 2010.06.11 11:32:03.
