data_PCOD9071693
_publ_section_title
;
Structure prediction by ZEFSAII (Michael W. Deem and Ramdas Pophale) SiO2 
 PCOD9071693
Probable space group: P -1
;
_chemical_formula_sum "Si O2"
_cell_formula_units_Z 12
_cell_length_a 7.283771
_cell_length_b 5.674633
_cell_length_c 13.601457
_cell_angle_alpha 84.656708
_cell_angle_beta 120.120796
_cell_angle_gamma 122.326552
_cell_volume 398.924883
_symmetry_space_group_name_H-M "P -1"
_symmetry_group_IT_number 2
_symmetry_cell_setting 'triclinic'
loop_
_space_group_symop_operation_xyz
x,y,z
-x,-y,-z
loop_
_atom_site_type_symbol
_atom_site_label
_atom_site_fract_x
_atom_site_fract_y
_atom_site_fract_z
Si Si1 0.106679 0.792271 0.534511
Si Si2 0.183186 0.738199 0.960512
Si Si3 0.521134 0.249602 0.463346
Si Si4 0.637948 0.478600 0.133902
Si Si5 0.597150 0.870945 0.221386
Si Si6 0.747273 0.751128 0.794917
O O1 0.178977 0.528743 0.517621
O O2 0.759037 0.748534 0.229034
O O3 0.239363 0.859797 0.676296
O O4 0.000000 0.000000 0.500000
O O5 0.169314 0.579436 0.862367
O O6 0.042536 0.895407 0.894886
O O7 0.457214 0.881156 0.084526
O O8 0.000000 0.500000 0.000000
O O9 0.500000 0.500000 0.500000
O O10 0.353526 0.984416 0.512308
O O11 0.329413 0.147096 0.322150
O O12 0.400376 0.247088 0.148839
O O13 0.500000 0.500000 0.000000
O O14 0.380995 0.593194 0.237062
#
# Coordination Sequence:
#
# PCOD9071693 Si02
#       6
#     2   2   2   2   2   2
#     4   9  19  41  69 100 144 194 250 308 357 431
#     4   9  15  30  61 110 152 184 231 303 374 445
#     4   8  21  39  68 102 140 193 251 315 349 435
#     4   8  15  29  57 106 155 181 238 297 355 456
#     4   8  17  31  64 108 141 187 242 294 368 441
#     4   9  17  34  65 105 149 189 230 312 372 430
#
# _framework density 30.080849000000001
#
# number of rings (size 3 to 8) (size 9 to 14) (size 15 to 20)
#    2.000    1.333    1.667    0.000    0.000    0.667 
#    0.000    8.333    0.000    9.000    0.000    4.667 
#    0.000    0.167    0.000    0.000    0.000    0.000 
#
# Total GULP energy -67072.505399 kJ/mol
# GULP energy per Si atom -5589.375450 kJ/mol
# Density = 3.001238 g / cm^3
# Si number density = 30.080849 Si / 1000 Ang^3
#
#
#
# Elastic Constant Matrix: (Units=GPa)
#
#
# Indices 1 2 3 4 5 6 
#
# 1 329.1775 71.1213 103.5311 13.2641 -14.2223 -13.3683
# 2 71.1213 222.8509 78.4729 6.3875 -10.1894 3.1795
# 3 103.5311 78.4729 240.7982 -12.9553 -8.9555 -4.8249
# 4 13.2641 6.3875 -12.9553 74.9256 -8.2508 -9.0108
# 5 -14.2223 -10.1894 -8.9555 -8.2508 66.6223 5.0391
# 6 -13.3683 3.1795 -4.8249 -9.0108 5.0391 45.7890
#
#
#
# Elastic Compliance Matrix: (Units=1/GPa)
#
#
# Indices 1 2 3 4 5 6 
#
# 1 0.003692 -0.000668 -0.001378 -0.000699 0.000353 0.000802
# 2 -0.000668 0.005268 -0.001465 -0.000641 0.000454 -0.000891
# 3 -0.001378 -0.001465 0.005319 0.001385 0.000331 0.000496
# 4 -0.000699 -0.000641 0.001385 0.014246 0.001505 0.002624
# 5 0.000353 0.000454 0.000331 0.001505 0.015484 -0.001301
# 6 0.000802 -0.000891 0.000496 0.002624 -0.001301 0.022847
#
#
# Mechanical properties :
#
#
# Convention : Reuss Voigt Hill
#
# Bulk Modulus (GPa) = 137.79525 144.34189 141.06857
# Shear Modulus (GPa) = 65.53254 73.44748 69.49001
#
# Velocity S-wave (km/s) = 4.67255 4.94669 4.81157
# Velocity P-wave (km/s) = 8.66130 8.98416 8.82420
#
# Compressibility (1/GPa) = 0.00725714
#
# Stress axis : x y z
#
# Youngs Moduli (GPa) = 270.88188 189.81383 187.98940
#
# Poissons Ratio (x) = 0.12684 0.25902
# Poissons Ratio (y) = 0.18101 0.27541
# Poissons Ratio (z) = 0.37324 0.27809
#
# Static dielectric constant tensor:
#      x y z
#    x 2.535730 -0.121980 0.002620 
#    y -0.121980 2.670700 -0.032470 
#    z 0.002620 -0.032470 2.204800 
# 
# From -- ./inp_files/352813.got.cif
#   From: 2010.05.17/outbox.cif.g08.bks.cpg/sg2_177_cif.got.tgz:352813.got - 2010.06.03 11:33:40.
