data_PCOD9071609
_publ_section_title
;
Structure prediction by ZEFSAII (Michael W. Deem and Ramdas Pophale) SiO2 
 PCOD9071609
Probable space group: P -1
;
_chemical_formula_sum "Si O2"
_cell_formula_units_Z 8
_cell_length_a 11.690638
_cell_length_b 8.860118
_cell_length_c 9.190308
_cell_angle_alpha 78.601138
_cell_angle_beta 45.772911
_cell_angle_gamma 40.825898
_cell_volume 316.381049
_symmetry_space_group_name_H-M "P -1"
_symmetry_group_IT_number 2
_symmetry_cell_setting 'triclinic'
loop_
_space_group_symop_operation_xyz
x,y,z
-x,-y,-z
loop_
_atom_site_type_symbol
_atom_site_label
_atom_site_fract_x
_atom_site_fract_y
_atom_site_fract_z
Si Si1 0.425957 0.242781 0.528465
Si Si2 0.250543 0.076327 0.163408
Si Si3 0.736980 0.169288 0.030523
Si Si4 0.354499 0.778198 0.385915
O O1 0.714748 0.090005 0.212850
O O2 0.430799 0.300929 0.677789
O O3 0.075980 0.580076 0.694592
O O4 0.500000 0.000000 0.500000
O O5 0.170599 0.046508 0.384453
O O6 0.500000 0.000000 0.000000
O O7 0.424430 0.808441 0.949151
O O8 0.559075 0.480277 0.167356
O O9 0.094656 0.903198 0.691436
#
# Coordination Sequence:
#
# PCOD9071609 Si02
#       4
#     2   2   2   2
#     4  12  30  52  81 118 163 211 261 327 400 473
#     4  12  30  52  81 118 163 211 261 327 400 473
#     4  12  27  54  83 118 154 212 266 332 393 466
#     4  12  29  52  85 116 158 204 274 330 391 468
#
# _framework density 25.285962999999999
#
# number of rings (size 3 to 8) (size 9 to 14) (size 15 to 20)
#    0.000    0.000    2.500    4.500   10.500    4.000 
#    0.000    0.000    0.000    0.000    0.000    0.000 
#    0.000    0.000    0.000    0.000    0.000    0.000 
#
# Total GULP energy -44896.316307 kJ/mol
# GULP energy per Si atom -5612.039538 kJ/mol
# Density = 2.522841 g / cm^3
# Si number density = 25.285963 Si / 1000 Ang^3
#
#
#
# Elastic Constant Matrix: (Units=GPa)
#
#
# Indices 1 2 3 4 5 6 
#
# 1 243.1240 94.4950 41.1421 30.6045 28.9061 7.5815
# 2 94.4950 206.6139 42.3050 16.7007 11.4727 4.3421
# 3 41.1421 42.3050 91.0486 28.1325 19.6846 2.6220
# 4 30.6045 16.7007 28.1325 41.6957 -1.8784 4.8782
# 5 28.9061 11.4727 19.6846 -1.8784 34.5183 -3.6980
# 6 7.5815 4.3421 2.6220 4.8782 -3.6980 51.6327
#
#
#
# Elastic Compliance Matrix: (Units=1/GPa)
#
#
# Indices 1 2 3 4 5 6 
#
# 1 0.006007 -0.002269 0.000710 -0.004123 -0.004981 -0.000695
# 2 -0.002269 0.006233 -0.002399 0.000850 0.001236 -0.000061
# 3 0.000710 -0.002399 0.017798 -0.011998 -0.010647 -0.000435
# 4 -0.004123 0.000850 -0.011998 0.035455 0.011796 -0.001362
# 5 -0.004981 0.001236 -0.010647 0.011796 0.039754 0.002901
# 6 -0.000695 -0.000061 -0.000435 -0.001362 0.002901 0.019833
#
#
# Mechanical properties :
#
#
# Convention : Reuss Voigt Hill
#
# Bulk Modulus (GPa) = 45.20001 99.63009 72.41505
# Shear Modulus (GPa) = 35.62017 49.75899 42.68958
#
# Velocity S-wave (km/s) = 3.75733 4.44086 4.11332
# Velocity P-wave (km/s) = 6.06116 8.11060 7.15959
#
# Compressibility (1/GPa) = 0.02212389
#
# Stress axis : x y z
#
# Youngs Moduli (GPa) = 166.45875 160.44687 56.18498
#
# Poissons Ratio (x) = 0.36398 -0.03990
# Poissons Ratio (y) = 0.37762 0.13479
# Poissons Ratio (z) = -0.11822 0.38491
#
# Static dielectric constant tensor:
#      x y z
#    x 2.028590 -0.049070 -0.042980 
#    y -0.049070 1.954810 0.017500 
#    z -0.042980 0.017500 2.003960 
# 
# From -- ./inp_files/22957.got.cif
#   From: 2010.05.17/outbox.cif.g08.bks.cpg/sg2_12_cif.got.tgz:22957.got - 2010.06.03 11:33:40.
