data_PCOD9071664
_publ_section_title
;
Structure prediction by ZEFSAII (Michael W. Deem and Ramdas Pophale) SiO2 
 PCOD9071664
Probable space group: P -1
;
_chemical_formula_sum "Si O2"
_cell_formula_units_Z 12
_cell_length_a 10.785610
_cell_length_b 10.249003
_cell_length_c 6.651206
_cell_angle_alpha 114.718230
_cell_angle_beta 61.136564
_cell_angle_gamma 134.651503
_cell_volume 454.378488
_symmetry_space_group_name_H-M "P -1"
_symmetry_group_IT_number 2
_symmetry_cell_setting 'triclinic'
loop_
_space_group_symop_operation_xyz
x,y,z
-x,-y,-z
loop_
_atom_site_type_symbol
_atom_site_label
_atom_site_fract_x
_atom_site_fract_y
_atom_site_fract_z
Si Si1 0.108308 0.233603 0.861051
Si Si2 0.548258 0.009750 0.204022
Si Si3 0.945973 0.406861 0.202824
Si Si4 0.616302 0.823819 0.460267
Si Si5 0.287118 0.157386 0.132268
Si Si6 0.227149 0.430265 0.458724
O O1 0.232552 0.173809 0.770536
O O2 0.177754 0.337022 0.658736
O O3 0.908333 0.041413 0.864538
O O4 0.084153 0.361693 0.096822
O O5 0.745218 0.207993 0.212995
O O6 0.400503 0.013447 0.439525
O O7 0.500000 0.000000 0.000000
O O8 0.568587 0.850526 0.106271
O O9 0.920660 0.536634 0.435257
O O10 0.000000 0.500000 0.000000
O O11 0.656650 0.825501 0.666880
O O12 0.422243 0.629298 0.448052
O O13 0.258903 0.308462 0.223445
#
# Coordination Sequence:
#
# PCOD9071664 Si02
#       6
#     2   2   2   2   2   2
#     4   9  14  19  24  29  34  39  44  49  54  59
#     4   8  14  20  24  28  34  40  44  48  54  60
#     4   8  14  20  24  28  34  40  44  48  54  60
#     4   9  14  19  24  29  34  39  44  49  54  59
#     4   9  14  19  24  29  34  39  44  49  54  59
#     4   9  14  19  24  29  34  39  44  49  54  59
#
# _framework density 26.409703
#
# number of rings (size 3 to 8) (size 9 to 14) (size 15 to 20)
#    0.000    3.333    0.000    4.000    0.000    2.667 
#    0.000    0.000    0.000    0.000    0.000    0.000 
#    0.000    0.000    0.000    0.000    0.000    0.000 
#
# Total GULP energy -67048.983005 kJ/mol
# GULP energy per Si atom -5587.415250 kJ/mol
# Density = 2.634959 g / cm^3
# Si number density = 26.409703 Si / 1000 Ang^3
#
#
#
# Elastic Constant Matrix: (Units=GPa)
#
#
# Indices 1 2 3 4 5 6 
#
# 1 175.2967 16.9765 89.4331 12.1624 -83.4099 -28.2299
# 2 16.9765 87.9203 40.5045 -11.8624 -0.8195 -31.3860
# 3 89.4331 40.5045 322.6932 41.8000 -69.8515 -1.8146
# 4 12.1624 -11.8624 41.8000 34.0750 -25.7248 -16.7158
# 5 -83.4099 -0.8195 -69.8515 -25.7248 84.8725 -7.8701
# 6 -28.2299 -31.3860 -1.8146 -16.7158 -7.8701 1.3600
#
#
#
# Elastic Compliance Matrix: (Units=1/GPa)
#
#
# Indices 1 2 3 4 5 6 
#
# 1 0.007421 -0.005434 0.000386 -0.005479 0.005084 -0.008771
# 2 -0.005434 0.008946 -0.000853 -0.004429 -0.008129 -0.008955
# 3 0.000386 -0.000853 0.004048 -0.000970 0.003716 0.003312
# 4 -0.005479 -0.004429 -0.000970 0.017271 -0.003130 -0.023069
# 5 0.005084 -0.008129 0.003716 -0.003130 0.017466 -0.014499
# 6 -0.008771 -0.008955 0.003312 -0.023069 -0.014499 -0.016457
#
#
# Mechanical properties :
#
#
# Convention : Reuss Voigt Hill
#
# Bulk Modulus (GPa) = 116.10318 97.74872 106.92595
# Shear Modulus (GPa) = 93.69357 53.32789 73.51073
#
# Velocity S-wave (km/s) = 5.96271 4.49849 5.28159
# Velocity P-wave (km/s) = 9.56363 8.00466 8.81866
#
# Compressibility (1/GPa) = 0.00861303
#
# Stress axis : x y z
#
# Youngs Moduli (GPa) = 134.76116 111.78135 247.06393
#
# Poissons Ratio (x) = 0.60739 -0.09546
# Poissons Ratio (y) = 0.73226 0.21079
# Poissons Ratio (z) = -0.05207 0.09537
#
# Static dielectric constant tensor:
#      x y z
#    x 2.193960 0.003470 -0.013330 
#    y 0.003470 1.899250 0.040740 
#    z -0.013330 0.040740 2.153870 
# 
# From -- ./inp_files/249886.got.cif
#   From: 2010.05.17/outbox.cif.g08.bks.cpg/sg2_125_cif.got.tgz:249886.got - 2010.06.03 11:33:40.
