data_PCOD9071057
_publ_section_title
;
Structure prediction by ZEFSAII (Michael W. Deem and Ramdas Pophale) SiO2 
 PCOD9071057
Probable space group: P -1
;
_chemical_formula_sum "Si O2"
_cell_formula_units_Z 14
_cell_length_a 8.255353
_cell_length_b 15.180367
_cell_length_c 5.087938
_cell_angle_alpha 67.133396
_cell_angle_beta 94.066137
_cell_angle_gamma 109.032882
_cell_volume 554.248272
_symmetry_space_group_name_H-M "P -1"
_symmetry_group_IT_number 2
_symmetry_cell_setting 'triclinic'
loop_
_space_group_symop_operation_xyz
x,y,z
-x,-y,-z
loop_
_atom_site_type_symbol
_atom_site_label
_atom_site_fract_x
_atom_site_fract_y
_atom_site_fract_z
Si Si1 0.983944 0.062598 0.672687
Si Si2 0.096861 0.629877 0.889865
Si Si3 0.139967 0.410500 0.596680
Si Si4 0.498713 0.892383 0.993621
Si Si5 0.700250 0.152997 0.493436
Si Si6 0.285899 0.243423 0.658527
Si Si7 0.410448 0.571736 0.757500
O O1 0.797997 0.073527 0.636870
O O2 0.128831 0.171893 0.554984
O O3 0.000000 0.000000 0.500000
O O4 0.000000 0.000000 0.000000
O O5 0.168642 0.749808 0.737288
O O6 0.263994 0.597936 0.879075
O O7 0.949169 0.593931 0.691050
O O8 0.006116 0.598100 0.194050
O O9 0.205870 0.313507 0.741743
O O10 0.303154 0.507750 0.573339
O O11 0.354119 0.820394 0.257689
O O12 0.644843 0.839903 0.099730
O O13 0.449089 0.886624 0.690785
O O14 0.500000 0.000000 0.000000
O O15 0.440294 0.325791 0.426701
O O16 0.500000 0.500000 0.000000
#
# Coordination Sequence:
#
# PCOD9071057 Si02
#       7
#     2   2   2   2   2   2   2
#     4  12  28  50  79 114 157 211 268 324 396 484
#     4  12  27  53  80 109 161 208 257 322 392 482
#     4  12  28  50  82 115 157 214 264 319 400 475
#     4  12  27  49  79 114 156 206 263 334 406 465
#     4  12  25  49  77 109 154 207 260 315 405 477
#     4  12  28  51  81 120 165 204 269 345 392 466
#     4  12  29  52  82 123 161 210 269 332 405 477
#
# _framework density 25.259436999999998
#
# number of rings (size 3 to 8) (size 9 to 14) (size 15 to 20)
#    0.000    0.000    2.857    6.000    4.000    3.429 
#    0.000    0.000    0.000    0.000    0.000    0.000 
#    0.000    0.000    0.000    0.000    0.000    0.000 
#
# Total GULP energy -78463.210648 kJ/mol
# GULP energy per Si atom -5604.515046 kJ/mol
# Density = 2.520195 g / cm^3
# Si number density = 25.259437 Si / 1000 Ang^3
#
#
#
# Elastic Constant Matrix: (Units=GPa)
#
#
# Indices 1 2 3 4 5 6 
#
# 1 156.0085 52.6187 46.0977 -1.7489 29.2555 -15.8044
# 2 52.6187 134.2517 32.8236 -13.8266 -1.0323 4.3133
# 3 46.0977 32.8236 121.6948 1.7304 16.2999 -4.1462
# 4 -1.7489 -13.8266 1.7304 51.7779 -7.6630 0.4575
# 5 29.2555 -1.0323 16.2999 -7.6630 55.4681 -18.6952
# 6 -15.8044 4.3133 -4.1462 0.4575 -18.6952 64.3037
#
#
#
# Elastic Compliance Matrix: (Units=1/GPa)
#
#
# Indices 1 2 3 4 5 6 
#
# 1 0.008902 -0.003197 -0.001926 -0.001084 -0.003956 0.001136
# 2 -0.003197 0.009468 -0.001745 0.002854 0.002490 -0.000830
# 3 -0.001926 -0.001745 0.009710 -0.001171 -0.002149 -0.000347
# 4 -0.001084 0.002854 -0.001171 0.020664 0.003985 0.000478
# 5 -0.003956 0.002490 -0.002149 0.003985 0.023173 0.005431
# 6 0.001136 -0.000830 -0.000347 0.000478 0.005431 0.017439
#
#
# Mechanical properties :
#
#
# Convention : Reuss Voigt Hill
#
# Bulk Modulus (GPa) = 69.71265 75.00390 72.35828
# Shear Modulus (GPa) = 46.35071 53.00429 49.67750
#
# Velocity S-wave (km/s) = 4.28832 4.58579 4.43955
# Velocity P-wave (km/s) = 7.22345 7.60245 7.41537
#
# Compressibility (1/GPa) = 0.01434460
#
# Stress axis : x y z
#
# Youngs Moduli (GPa) = 112.33657 105.61813 102.98528
#
# Poissons Ratio (x) = 0.33763 0.19834
# Poissons Ratio (y) = 0.35910 0.17973
# Poissons Ratio (z) = 0.21634 0.18432
#
# Static dielectric constant tensor:
#      x y z
#    x 2.002760 0.040730 -0.018260 
#    y 0.040730 1.977930 -0.011530 
#    z -0.018260 -0.011530 1.858280 
# 
# From -- ./inp_files/37029.got.cif
#   From: 2010.05.17/outbox.cif.g08.bks.cpg/sg2_19_cif.got.tgz:37029.got - 2010.06.03 11:33:40.
