data_PCOD9071055
_publ_section_title
;
Structure prediction by ZEFSAII (Michael W. Deem and Ramdas Pophale) SiO2 
 PCOD9071055
Probable space group: P -1
;
_chemical_formula_sum "Si O2"
_cell_formula_units_Z 16
_cell_length_a 11.338474
_cell_length_b 8.885705
_cell_length_c 13.543318
_cell_angle_alpha 74.211382
_cell_angle_beta 148.820443
_cell_angle_gamma 121.457910
_cell_volume 553.623898
_symmetry_space_group_name_H-M "P -1"
_symmetry_group_IT_number 2
_symmetry_cell_setting 'triclinic'
loop_
_space_group_symop_operation_xyz
x,y,z
-x,-y,-z
loop_
_atom_site_type_symbol
_atom_site_label
_atom_site_fract_x
_atom_site_fract_y
_atom_site_fract_z
Si Si1 0.556618 0.757062 0.016939
Si Si2 0.861511 0.168097 0.757119
Si Si3 0.360623 0.801198 0.217307
Si Si4 0.123808 0.347169 0.373662
Si Si5 0.047823 0.106214 0.191641
Si Si6 0.194126 0.861726 0.646205
Si Si7 0.305403 0.572898 0.052106
Si Si8 0.056720 0.602008 0.409723
O O1 0.431168 0.877794 0.882882
O O2 0.576464 0.714120 0.153114
O O3 0.285424 0.544409 0.825966
O O4 0.845041 0.901410 0.141855
O O5 0.671349 0.193649 0.690980
O O6 0.827317 0.221921 0.613892
O O7 0.810336 0.963565 0.765562
O O8 0.172634 0.351746 0.978489
O O9 0.650932 0.962310 0.346698
O O10 0.308670 0.613071 0.162540
O O11 0.141998 0.846090 0.012378
O O12 0.010677 0.178656 0.404479
O O13 0.905131 0.377802 0.154122
O O14 0.217713 0.513794 0.493878
O O15 0.222727 0.278154 0.365800
O O16 0.103536 0.685850 0.537931
#
# Coordination Sequence:
#
# PCOD9071055 Si02
#       8
#     2   2   2   2   2   2   2   2
#     4   8  15  28  48  71  88 108 143 187 228 261
#     4  10  20  30  43  67  97 122 142 175 223 271
#     4  10  18  30  48  66  89 120 152 182 212 260
#     4   8  15  29  49  69  87 110 147 190 225 258
#     4  10  18  29  47  70  93 115 142 181 231 272
#     4   9  16  29  50  69  85 114 156 189 212 250
#     4   8  16  29  47  69  88 110 146 190 229 254
#     4   9  18  30  46  68  90 117 151 184 218 255
#
# _framework density 28.900485
#
# number of rings (size 3 to 8) (size 9 to 14) (size 15 to 20)
#    0.000    3.500    0.000    3.000    0.000    8.000 
#    0.000    0.625    0.000    3.750    0.000    0.000 
#    0.000    1.000    0.000    0.000    0.000    0.000 
#
# Total GULP energy -89170.305340 kJ/mol
# GULP energy per Si atom -5573.144084 kJ/mol
# Density = 2.883471 g / cm^3
# Si number density = 28.900485 Si / 1000 Ang^3
#
#
#
# Elastic Constant Matrix: (Units=GPa)
#
#
# Indices 1 2 3 4 5 6 
#
# 1 81.3404 49.9451 25.6512 -4.9211 -30.6120 -28.4301
# 2 49.9451 86.3548 30.3158 17.1520 0.8654 -15.9754
# 3 25.6512 30.3158 89.0265 3.8921 -24.4178 -12.1766
# 4 -4.9211 17.1520 3.8921 39.2253 -3.3265 -7.8988
# 5 -30.6120 0.8654 -24.4178 -3.3265 45.8912 14.4104
# 6 -28.4301 -15.9754 -12.1766 -7.8988 14.4104 61.4114
#
#
#
# Elastic Compliance Matrix: (Units=1/GPa)
#
#
# Indices 1 2 3 4 5 6 
#
# 1 0.052476 -0.037178 0.008456 0.027452 0.038829 0.010718
# 2 -0.037178 0.041823 -0.011900 -0.025396 -0.032393 -0.004356
# 3 0.008456 -0.011900 0.016843 0.006146 0.014810 0.001474
# 4 0.027452 -0.025396 0.006146 0.042875 0.022820 0.007481
# 5 0.038829 -0.032393 0.014810 0.022820 0.057210 0.001996
# 6 0.010718 -0.004356 0.001474 0.007481 0.001996 0.020898
#
#
# Mechanical properties :
#
#
# Convention : Reuss Voigt Hill
#
# Bulk Modulus (GPa) = 33.44703 52.06066 42.75385
# Shear Modulus (GPa) = 15.46383 39.35956 27.41170
#
# Velocity S-wave (km/s) = 2.31567 3.69440 3.08309
# Velocity P-wave (km/s) = 4.32990 6.02088 5.24400
#
# Compressibility (1/GPa) = 0.02989802
#
# Stress axis : x y z
#
# Youngs Moduli (GPa) = 19.05645 23.91015 59.37077
#
# Poissons Ratio (x) = 0.88893 -0.50203
# Poissons Ratio (y) = 0.70848 0.70651
# Poissons Ratio (z) = -0.16114 0.28453
#
# Static dielectric constant tensor:
#      x y z
#    x 2.392390 -0.021510 0.084260 
#    y -0.021510 2.285530 0.093590 
#    z 0.084260 0.093590 2.390640 
# 
# From -- ./inp_files/514380.got.cif
#   From: 2010.05.17/outbox.cif.g08.bks.cpg/sg2_258_cif.got.tgz:514380.got - 2010.06.03 11:33:40.
