data_PCOD9071070
_publ_section_title
;
Structure prediction by ZEFSAII (Michael W. Deem and Ramdas Pophale) SiO2 
 PCOD9071070
Probable space group: P -1
;
_chemical_formula_sum "Si O2"
_cell_formula_units_Z 14
_cell_length_a 5.295877
_cell_length_b 11.754119
_cell_length_c 11.984691
_cell_angle_alpha 53.920899
_cell_angle_beta 72.962868
_cell_angle_gamma 83.937137
_cell_volume 574.316781
_symmetry_space_group_name_H-M "P -1"
_symmetry_group_IT_number 2
_symmetry_cell_setting 'triclinic'
loop_
_space_group_symop_operation_xyz
x,y,z
-x,-y,-z
loop_
_atom_site_type_symbol
_atom_site_label
_atom_site_fract_x
_atom_site_fract_y
_atom_site_fract_z
Si Si1 0.229129 0.582994 0.354265
Si Si2 0.050084 0.034956 0.343010
Si Si3 0.009195 0.331380 0.877435
Si Si4 0.620892 0.391075 0.298356
Si Si5 0.387747 0.804104 0.381380
Si Si6 0.284912 0.083094 0.916144
Si Si7 0.612769 0.212636 0.186685
O O1 0.386213 0.477391 0.323521
O O2 0.387398 0.668379 0.380548
O O3 0.000000 0.500000 0.500000
O O4 0.104322 0.683214 0.224193
O O5 0.319326 0.141158 0.239648
O O6 0.799786 0.102984 0.284137
O O7 0.129325 0.891445 0.357039
O O8 0.000000 0.000000 0.500000
O O9 0.124876 0.493658 0.788804
O O10 0.244875 0.227600 0.905693
O O11 0.780443 0.278289 0.023117
O O12 0.612049 0.255014 0.459619
O O13 0.588122 0.335523 0.210060
O O14 0.620790 0.898540 0.235052
O O15 0.500000 0.000000 0.000000
O O16 0.000000 0.000000 0.000000
#
# Coordination Sequence:
#
# PCOD9071070 Si02
#       7
#     2   2   2   2   2   2   2
#     4  12  26  45  78 113 155 204 253 320 390 458
#     4  12  28  53  79 114 155 207 262 318 383 462
#     4  12  27  50  74 117 156 200 262 315 396 460
#     4  12  27  48  77 115 155 206 256 322 387 468
#     4  12  25  49  79 113 154 200 265 321 388 461
#     4  12  26  47  74 108 151 198 248 315 377 449
#     4  12  30  51  82 114 157 206 261 320 387 460
#
# _framework density 24.376791000000001
#
# number of rings (size 3 to 8) (size 9 to 14) (size 15 to 20)
#    0.000    0.000    4.286    4.714    6.000    1.714 
#    0.000    0.000    0.000    0.000    0.000    0.000 
#    0.000    0.000    0.000    0.000    0.000    0.000 
#
# Total GULP energy -78461.371064 kJ/mol
# GULP energy per Si atom -5604.383647 kJ/mol
# Density = 2.432131 g / cm^3
# Si number density = 24.376791 Si / 1000 Ang^3
#
#
#
# Elastic Constant Matrix: (Units=GPa)
#
#
# Indices 1 2 3 4 5 6 
#
# 1 83.0593 6.3818 26.3989 -4.8092 -4.5630 -9.2844
# 2 6.3818 108.8918 17.7611 19.2734 -2.6596 -22.0747
# 3 26.3989 17.7611 168.1165 21.8528 -20.5566 3.4593
# 4 -4.8092 19.2734 21.8528 38.9422 -3.1894 -1.1167
# 5 -4.5630 -2.6596 -20.5566 -3.1894 40.3310 1.2371
# 6 -9.2844 -22.0747 3.4593 -1.1167 1.2371 36.3708
#
#
#
# Elastic Compliance Matrix: (Units=1/GPa)
#
#
# Indices 1 2 3 4 5 6 
#
# 1 0.013491 -0.000217 -0.002562 0.003345 0.000359 0.003646
# 2 -0.000217 0.011628 -0.000687 -0.005217 -0.000233 0.006915
# 3 -0.002562 -0.000687 0.007359 -0.003904 0.003168 -0.001998
# 4 0.003345 -0.005217 -0.003904 0.030878 0.000518 -0.001011
# 5 0.000359 -0.000233 0.003168 0.000518 0.026514 -0.001237
# 6 0.003646 0.006915 -0.001998 -0.001011 -0.001237 0.032823
#
#
# Mechanical properties :
#
#
# Convention : Reuss Voigt Hill
#
# Bulk Modulus (GPa) = 39.14320 51.23905 45.19113
# Shear Modulus (GPa) = 36.19515 43.76385 39.97950
#
# Velocity S-wave (km/s) = 3.85752 4.24170 4.05416
# Velocity P-wave (km/s) = 5.99441 6.71228 6.36348
#
# Compressibility (1/GPa) = 0.02554722
#
# Stress axis : x y z
#
# Youngs Moduli (GPa) = 74.12141 86.00174 135.88751
#
# Poissons Ratio (x) = 0.01866 0.34808
# Poissons Ratio (y) = 0.01608 0.09335
# Poissons Ratio (z) = 0.18986 0.05908
#
# Static dielectric constant tensor:
#      x y z
#    x 1.989990 0.041860 -0.094000 
#    y 0.041860 1.993200 -0.137160 
#    z -0.094000 -0.137160 2.108270 
# 
# From -- ./inp_files/71131.got.cif
#   From: 2010.05.17/outbox.cif.g08.bks.cpg/sg2_36_cif.got.tgz:71131.got - 2010.06.03 11:33:40.
