data_PCOD9071903
_publ_section_title
;
Structure prediction by ZEFSAII (Michael W. Deem and Ramdas Pophale) SiO2 
 PCOD9071903
Probable space group: P -1
;
_chemical_formula_sum "Si O2"
_cell_formula_units_Z 16
_cell_length_a 12.000000
_cell_length_b 15.000000
_cell_length_c 15.000000
_cell_angle_alpha 150.000000
_cell_angle_beta 140.000000
_cell_angle_gamma 60.000000
_cell_volume 747.221570
_symmetry_space_group_name_H-M "P -1"
_symmetry_group_IT_number 2
_symmetry_cell_setting 'triclinic'
loop_
_space_group_symop_operation_xyz
x,y,z
-x,-y,-z
loop_
_atom_site_type_symbol
_atom_site_label
_atom_site_fract_x
_atom_site_fract_y
_atom_site_fract_z
Si Si1 0.834038 0.696106 0.698444
Si Si2 0.343585 0.725345 0.877134
Si Si3 0.280571 0.004312 0.213670
Si Si4 0.109357 0.024413 0.711959
Si Si5 0.266529 0.296468 0.866728
Si Si6 0.732381 0.274986 0.746256
Si Si7 0.337587 0.830894 0.597105
Si Si8 0.822943 0.617926 0.821813
O O1 0.804608 0.497439 0.451252
O O2 0.758238 0.597325 0.662411
O O3 0.722155 0.809040 0.682496
O O4 0.061682 0.885882 0.022515
O O5 0.260481 0.813373 0.977517
O O6 0.518390 0.686051 0.987331
O O7 0.459050 0.940986 0.076317
O O8 0.498859 0.105487 0.483261
O O9 0.163629 0.174593 0.789566
O O10 0.196337 0.875325 0.613012
O O11 0.196857 0.191693 0.987898
O O12 0.872035 0.861581 0.431937
O O13 0.263321 0.507913 0.051717
O O14 0.732609 0.210111 0.585959
O O15 0.939410 0.311293 0.950431
O O16 0.312957 0.611308 0.417936
#
# Coordination Sequence:
#
# PCOD9071903 Si02
#       8
#     2   2   2   2   2   2   2   2
#     4  11  25  42  62  86 116 158 200 250 295 342
#     4  10  21  39  65  87 112 156 205 239 288 353
#     4  10  23  45  66  81 110 159 211 245 288 349
#     4  10  19  32  55  89 128 155 188 232 289 353
#     4  10  17  33  61  89 115 159 198 231 280 353
#     4  11  19  38  64  88 119 156 196 240 292 348
#     4  10  21  35  61  92 122 159 193 231 291 364
#     4  12  23  36  59  93 129 151 186 246 300 346
#
# _framework density 21.412658
#
# number of rings (size 3 to 8) (size 9 to 14) (size 15 to 20)
#    0.000    1.500    3.750    3.750    0.000    2.000 
#    0.000    8.750    0.000    1.500    0.000    0.000 
#    0.000    0.000    0.000    0.000    0.000    0.000 
#
# Total GULP energy -89134.096435 kJ/mol
# GULP energy per Si atom -5570.881027 kJ/mol
# Density = 2.136392 g / cm^3
# Si number density = 21.412658 Si / 1000 Ang^3
#
#
#
# Elastic Constant Matrix: (Units=GPa)
#
#
# Indices 1 2 3 4 5 6 
#
# 1 22.7075 15.3490 5.6533 6.4113 -7.2355 -22.5538
# 2 15.3490 42.6544 16.2294 18.9888 -7.3199 -3.1977
# 3 5.6533 16.2294 103.1390 27.1644 -10.8935 -13.5612
# 4 6.4113 18.9888 27.1644 25.5595 -22.4538 -7.9983
# 5 -7.2355 -7.3199 -10.8935 -22.4538 43.6236 6.5371
# 6 -22.5538 -3.1977 -13.5612 -7.9983 6.5371 18.3290
#
#
#
# Elastic Compliance Matrix: (Units=1/GPa)
#
#
# Indices 1 2 3 4 5 6 
#
# 1 -0.066171 0.040355 -0.001574 -0.059877 -0.021320 -0.094073
# 2 0.040355 0.018258 0.006266 -0.020355 -0.006801 0.051022
# 3 -0.001574 0.006266 0.015823 -0.030345 -0.011115 0.001586
# 4 -0.059877 -0.020355 -0.030345 0.131101 0.055908 -0.062413
# 5 -0.021320 -0.006801 -0.011115 0.055908 0.048526 -0.028554
# 6 -0.094073 0.051022 0.001586 -0.062413 -0.028554 -0.068174
#
#
# Mechanical properties :
#
#
# Convention : Reuss Voigt Hill
#
# Bulk Modulus (GPa) = 17.23984 26.99606 22.11795
# Shear Modulus (GPa) = 581.30255 26.25369 303.77812
#
# Velocity S-wave (km/s) = 16.49441 3.50535 11.92378
# Velocity P-wave (km/s) = 19.25676 5.38685 14.13932
#
# Compressibility (1/GPa) = 0.05800519
#
# Stress axis : x y z
#
# Youngs Moduli (GPa) = -15.11239 54.77102 63.20080
#
# Poissons Ratio (x) = -2.21029 0.09945
# Poissons Ratio (y) = 0.60986 -0.39604
# Poissons Ratio (z) = -0.02378 -0.34321
#
# Static dielectric constant tensor:
#      x y z
#    x 1.854560 -0.013010 0.045250 
#    y -0.013010 1.770080 -0.037100 
#    z 0.045250 -0.037100 1.813850 
# 
# From -- ./inp_files/451362.got.cif
#   From: 2010.05.17/outbox.ucp.g08.bks.cvg/sg2_226_cif.got.tgz:451362.got - 2010.06.11 11:32:03.
