data_PCOD9071104
_publ_section_title
;
Structure prediction by ZEFSAII (Michael W. Deem and Ramdas Pophale) SiO2 
 PCOD9071104
Probable space group: P -1
;
_chemical_formula_sum "Si O2"
_cell_formula_units_Z 15
_cell_length_a 9.003032
_cell_length_b 6.817534
_cell_length_c 13.682917
_cell_angle_alpha 93.089920
_cell_angle_beta 71.461006
_cell_angle_gamma 60.456535
_cell_volume 669.750242
_symmetry_space_group_name_H-M "P -1"
_symmetry_group_IT_number 2
_symmetry_cell_setting 'triclinic'
loop_
_space_group_symop_operation_xyz
x,y,z
-x,-y,-z
loop_
_atom_site_type_symbol
_atom_site_label
_atom_site_fract_x
_atom_site_fract_y
_atom_site_fract_z
Si Si1 0.055474 0.613391 0.077972
Si Si2 0.398400 0.837890 0.241349
Si Si3 0.000000 0.500000 0.500000
Si Si4 0.223340 0.937145 0.736228
Si Si5 0.962584 0.137095 0.614490
Si Si6 0.567711 0.916048 0.592003
Si Si7 0.604797 0.805639 0.889824
Si Si8 0.687125 0.338039 0.107212
O O1 0.208131 0.414718 0.111899
O O2 0.879473 0.812889 0.180032
O O3 0.158295 0.729370 0.008644
O O4 0.000000 0.500000 0.000000
O O5 0.224689 0.813983 0.294500
O O6 0.561104 0.617065 0.145317
O O7 0.461807 0.865254 0.334973
O O8 0.347168 0.071043 0.201319
O O9 0.952074 0.370760 0.594307
O O10 0.781326 0.712933 0.545035
O O11 0.120697 0.978858 0.656030
O O12 0.435576 0.843695 0.666181
O O13 0.220004 0.763243 0.809809
O O14 0.000000 0.000000 0.500000
O O15 0.500000 0.000000 0.500000
O O16 0.454422 0.743990 0.887033
O O17 0.500000 0.000000 0.000000
#
# Coordination Sequence:
#
# PCOD9071104 Si02
#       8
#     2   2   1   2   2   2   2   2
#     4  12  27  46  74 114 153 199 256 320 387 461
#     4  12  26  47  77 111 149 204 260 311 395 456
#     4  12  26  50  76 104 154 192 248 328 382 444
#     4  12  26  46  76 109 154 201 249 319 387 451
#     4  12  27  47  74 113 146 200 257 315 385 462
#     4  12  25  50  77 108 151 195 258 318 382 467
#     4  12  26  47  77 108 152 206 257 318 380 463
#     4  12  26  49  73 110 154 202 258 315 382 470
#
# _framework density 22.396408999999998
#
# number of rings (size 3 to 8) (size 9 to 14) (size 15 to 20)
#    0.000    0.000    5.333    4.000    5.600    1.067 
#    0.000    2.667    0.000    0.000    0.000    0.000 
#    0.000    0.000    0.000    0.000    0.000    0.000 
#
# Total GULP energy -83744.381317 kJ/mol
# GULP energy per Si atom -5582.958754 kJ/mol
# Density = 2.234543 g / cm^3
# Si number density = 22.396409 Si / 1000 Ang^3
#
#
#
# Elastic Constant Matrix: (Units=GPa)
#
#
# Indices 1 2 3 4 5 6 
#
# 1 80.3216 19.6150 41.1777 -11.8306 -0.7574 2.7095
# 2 19.6150 101.2027 33.8958 -29.2774 1.7156 -8.9286
# 3 41.1777 33.8958 107.3351 -8.5164 -7.1391 -1.9487
# 4 -11.8306 -29.2774 -8.5164 44.0954 -2.3600 -13.4166
# 5 -0.7574 1.7156 -7.1391 -2.3600 46.8808 -5.8810
# 6 2.7095 -8.9286 -1.9487 -13.4166 -5.8810 19.8682
#
#
#
# Elastic Compliance Matrix: (Units=1/GPa)
#
#
# Indices 1 2 3 4 5 6 
#
# 1 0.015969 -0.000689 -0.005825 0.002097 -0.000731 -0.001859
# 2 -0.000689 0.017930 -0.003515 0.017282 0.002192 0.020126
# 3 -0.005825 -0.003515 0.012689 -0.001297 0.001921 0.000152
# 4 0.002097 0.017282 -0.001297 0.047418 0.006782 0.041381
# 5 -0.000731 0.002192 0.001921 0.006782 0.023479 0.012803
# 6 -0.001859 0.020126 0.000152 0.041381 0.012803 0.091378
#
#
# Mechanical properties :
#
#
# Convention : Reuss Voigt Hill
#
# Bulk Modulus (GPa) = 37.69400 53.13738 45.41569
# Shear Modulus (GPa) = 21.02918 35.11360 28.07139
#
# Velocity S-wave (km/s) = 3.06756 3.96387 3.54416
# Velocity P-wave (km/s) = 5.42342 6.68783 6.08853
#
# Compressibility (1/GPa) = 0.02652942
#
# Stress axis : x y z
#
# Youngs Moduli (GPa) = 62.62123 55.77207 78.80911
#
# Poissons Ratio (x) = 0.03844 0.45904
# Poissons Ratio (y) = 0.04316 0.27705
# Poissons Ratio (z) = 0.36475 0.19606
#
# Static dielectric constant tensor:
#      x y z
#    x 1.867660 0.033540 0.007350 
#    y 0.033540 1.794000 -0.010100 
#    z 0.007350 -0.010100 1.821040 
# 
# From -- ./inp_files/488376.got.cif
#   From: 2010.05.17/outbox.cif.g08.bks.cpg/sg2_245_cif.got.tgz:488376.got - 2010.06.03 11:33:40.
