data_PCOD9071148
_publ_section_title
;
Structure prediction by ZEFSAII (Michael W. Deem and Ramdas Pophale) SiO2 
 PCOD9071148
Probable space group: P -1
;
_chemical_formula_sum "Si O2"
_cell_formula_units_Z 8
_cell_length_a 15.228916
_cell_length_b 4.929492
_cell_length_c 11.311955
_cell_angle_alpha 117.240788
_cell_angle_beta 153.641162
_cell_angle_gamma 76.399838
_cell_volume 300.480339
_symmetry_space_group_name_H-M "P -1"
_symmetry_group_IT_number 2
_symmetry_cell_setting 'triclinic'
loop_
_space_group_symop_operation_xyz
x,y,z
-x,-y,-z
loop_
_atom_site_type_symbol
_atom_site_label
_atom_site_fract_x
_atom_site_fract_y
_atom_site_fract_z
Si Si1 0.856396 0.107861 0.081136
Si Si2 0.393248 0.450838 0.161580
Si Si3 0.276054 0.200368 0.720845
Si Si4 0.868963 0.518502 0.730687
O O1 0.070022 0.276134 0.456940
O O2 0.970091 0.197129 0.108540
O O3 0.679960 0.259213 0.901463
O O4 0.727995 0.728779 0.900784
O O5 0.650758 0.565265 0.501531
O O6 0.303303 0.186744 0.891101
O O7 0.219182 0.844602 0.516970
O O8 0.500000 0.500000 0.000000
O O9 0.000000 0.500000 0.000000
#
# Coordination Sequence:
#
# PCOD9071148 Si02
#       4
#     2   2   2   2
#     4  12  27  49  81 113 153 200 260 314 384 449
#     4  12  27  48  82 113 149 201 261 318 377 451
#     4  12  25  51  82 113 153 200 256 322 381 445
#     4  12  30  52  75 114 161 203 251 315 384 461
#
# _framework density 26.624036
#
# number of rings (size 3 to 8) (size 9 to 14) (size 15 to 20)
#    0.000    0.000    5.000    3.750    3.500    3.000 
#    0.000    0.000    0.000    0.000    0.000    0.000 
#    0.000    0.000    0.000    0.000    0.000    0.000 
#
# Total GULP energy -44956.569775 kJ/mol
# GULP energy per Si atom -5619.571222 kJ/mol
# Density = 2.656344 g / cm^3
# Si number density = 26.624036 Si / 1000 Ang^3
#
#
#
# Elastic Constant Matrix: (Units=GPa)
#
#
# Indices 1 2 3 4 5 6 
#
# 1 137.0115 25.8699 81.4753 -3.2950 3.2130 27.5686
# 2 25.8699 113.0310 56.8877 -10.4933 3.0613 8.0862
# 3 81.4753 56.8877 215.8201 -35.8329 7.6259 -0.5878
# 4 -3.2950 -10.4933 -35.8329 58.8639 -12.8760 5.2737
# 5 3.2130 3.0613 7.6259 -12.8760 57.9577 -16.3449
# 6 27.5686 8.0862 -0.5878 5.2737 -16.3449 43.7468
#
#
#
# Elastic Compliance Matrix: (Units=1/GPa)
#
#
# Indices 1 2 3 4 5 6 
#
# 1 0.011797 0.000181 -0.004770 -0.002087 -0.002853 -0.008346
# 2 0.000181 0.010406 -0.002751 0.000225 -0.000828 -0.002411
# 3 -0.004770 -0.002751 0.007777 0.003932 0.001282 0.003624
# 4 -0.002087 0.000225 0.003932 0.020183 0.004201 0.000463
# 5 -0.002853 -0.000828 0.001282 0.004201 0.020827 0.009244
# 6 -0.008346 -0.002411 0.003624 0.000463 0.009244 0.032011
#
#
# Mechanical properties :
#
#
# Convention : Reuss Voigt Hill
#
# Bulk Modulus (GPa) = 65.35834 88.25870 76.80852
# Shear Modulus (GPa) = 40.72308 52.22232 46.47270
#
# Velocity S-wave (km/s) = 3.91520 4.43366 4.18247
# Velocity P-wave (km/s) = 6.71121 7.70920 7.22745
#
# Compressibility (1/GPa) = 0.01530027
#
# Stress axis : x y z
#
# Youngs Moduli (GPa) = 84.76775 96.09690 128.58759
#
# Poissons Ratio (x) = -0.01741 0.61333
# Poissons Ratio (y) = -0.01536 0.35378
# Poissons Ratio (z) = 0.40432 0.26439
#
# Static dielectric constant tensor:
#      x y z
#    x 2.082000 -0.085320 -0.033510 
#    y -0.085320 2.071230 0.026500 
#    z -0.033510 0.026500 2.023870 
# 
# From -- ./inp_files/16280.got.cif
#   From: 2010.05.17/outbox.cif.g08.bks.cpg/sg2_9_cif.got.tgz:16280.got - 2010.06.03 11:33:40.
