data_PCOD9071611
_publ_section_title
;
Structure prediction by ZEFSAII (Michael W. Deem and Ramdas Pophale) SiO2 
 PCOD9071611
Probable space group: P -1
;
_chemical_formula_sum "Si O2"
_cell_formula_units_Z 7
_cell_length_a 9.712511
_cell_length_b 6.843595
_cell_length_c 4.692957
_cell_angle_alpha 75.523066
_cell_angle_beta 119.396008
_cell_angle_gamma 106.349992
_cell_volume 258.438196
_symmetry_space_group_name_H-M "P -1"
_symmetry_group_IT_number 2
_symmetry_cell_setting 'triclinic'
loop_
_space_group_symop_operation_xyz
x,y,z
-x,-y,-z
loop_
_atom_site_type_symbol
_atom_site_label
_atom_site_fract_x
_atom_site_fract_y
_atom_site_fract_z
Si Si1 0.701503 0.715315 0.114211
Si Si2 0.154801 0.622208 0.278093
Si Si3 0.493408 0.787814 0.401365
Si Si4 0.000000 0.000000 0.000000
O O1 0.784140 0.535593 0.389482
O O2 0.607792 0.807012 0.238676
O O3 0.570639 0.650185 0.757662
O O4 0.841286 0.884563 0.058695
O O5 0.306322 0.699707 0.198860
O O6 0.000000 0.500000 0.000000
O O7 0.099405 0.821223 0.275703
O O8 0.500000 0.000000 0.500000
#
# Coordination Sequence:
#
# PCOD9071611 Si02
#       4
#     2   2   2   1
#     4  12  28  54  85 120 165 220 277 338 415 490
#     4  12  29  52  85 124 167 216 276 343 416 491
#     4  12  27  55  87 117 166 221 274 343 411 492
#     4  12  28  52  80 122 170 208 274 340 412 482
#
# _framework density 27.08578
#
# number of rings (size 3 to 8) (size 9 to 14) (size 15 to 20)
#    0.000    0.000    2.857    5.143    0.000    9.143 
#    0.000    0.000    0.000    0.000    0.000    0.000 
#    0.000    0.000    0.000    0.000    0.000    0.000 
#
# Total GULP energy -39062.923755 kJ/mol
# GULP energy per Si atom -5580.417679 kJ/mol
# Density = 2.702413 g / cm^3
# Si number density = 27.085780 Si / 1000 Ang^3
#
#
#
# Elastic Constant Matrix: (Units=GPa)
#
#
# Indices 1 2 3 4 5 6 
#
# 1 253.1378 89.9790 84.0074 8.8613 24.9193 41.1733
# 2 89.9790 115.1680 54.3958 -14.0197 14.9030 28.2885
# 3 84.0074 54.3958 159.1640 -3.0568 30.4679 12.2077
# 4 8.8613 -14.0197 -3.0568 60.6981 -5.5882 8.2601
# 5 24.9193 14.9030 30.4679 -5.5882 56.1518 -8.7953
# 6 41.1733 28.2885 12.2077 8.2601 -8.7953 65.0527
#
#
#
# Elastic Compliance Matrix: (Units=1/GPa)
#
#
# Indices 1 2 3 4 5 6 
#
# 1 0.006361 -0.003680 -0.001701 -0.001712 -0.001420 -0.002081
# 2 -0.003680 0.014342 -0.002343 0.004193 -0.001136 -0.004154
# 3 -0.001701 -0.002343 0.008606 -0.000171 -0.003301 0.000056
# 4 -0.001712 0.004193 -0.000171 0.018176 0.001099 -0.002867
# 5 -0.001420 -0.001136 -0.003301 0.001099 0.021387 0.004764
# 6 -0.002081 -0.004154 0.000056 -0.002867 0.004764 0.019493
#
#
# Mechanical properties :
#
#
# Convention : Reuss Voigt Hill
#
# Bulk Modulus (GPa) = 72.14407 109.35935 90.75171
# Shear Modulus (GPa) = 46.11102 56.31969 51.21535
#
# Velocity S-wave (km/s) = 4.13050 4.56489 4.35312
# Velocity P-wave (km/s) = 7.03145 8.26118 7.67100
#
# Compressibility (1/GPa) = 0.01386115
#
# Stress axis : x y z
#
# Youngs Moduli (GPa) = 157.20194 69.72442 116.20088
#
# Poissons Ratio (x) = 0.25657 0.19770
# Poissons Ratio (y) = 0.57847 0.27224
# Poissons Ratio (z) = 0.26746 0.16335
#
# Static dielectric constant tensor:
#      x y z
#    x 2.047850 -0.043920 -0.025220 
#    y -0.043920 2.230670 0.009650 
#    z -0.025220 0.009650 2.107080 
# 
# From -- ./inp_files/16704.got.cif
#   From: 2010.05.17/outbox.cif.g08.bks.cpg/sg2_9_cif.got.tgz:16704.got - 2010.06.03 11:33:40.
