data_PCOD9071680
_publ_section_title
;
Structure prediction by ZEFSAII (Michael W. Deem and Ramdas Pophale) SiO2 
 PCOD9071680
Probable space group: P -1
;
_chemical_formula_sum "Si O2"
_cell_formula_units_Z 16
_cell_length_a 10.571274
_cell_length_b 6.897177
_cell_length_c 10.677046
_cell_angle_alpha 60.334522
_cell_angle_beta 70.973408
_cell_angle_gamma 68.368958
_cell_volume 618.799411
_symmetry_space_group_name_H-M "P -1"
_symmetry_group_IT_number 2
_symmetry_cell_setting 'triclinic'
loop_
_space_group_symop_operation_xyz
x,y,z
-x,-y,-z
loop_
_atom_site_type_symbol
_atom_site_label
_atom_site_fract_x
_atom_site_fract_y
_atom_site_fract_z
Si Si1 0.636655 0.933721 0.692804
Si Si2 0.283341 0.457162 0.873423
Si Si3 0.904144 0.613290 0.818718
Si Si4 0.015104 0.976450 0.217381
Si Si5 0.532533 0.197678 0.016525
Si Si6 0.138951 0.163133 0.872632
Si Si7 0.534385 0.330966 0.422102
Si Si8 0.711631 0.325094 0.726403
O O1 0.774776 0.724902 0.734219
O O2 0.588268 0.073632 0.538541
O O3 0.671495 0.127946 0.714623
O O4 0.503407 0.862844 0.814379
O O5 0.406686 0.407325 0.948802
O O6 0.269306 0.244545 0.855017
O O7 0.334795 0.621120 0.708992
O O8 0.155019 0.470613 0.005291
O O9 0.021325 0.396599 0.806996
O O10 0.979463 0.816468 0.758345
O O11 0.121921 0.746025 0.309755
O O12 0.865879 0.969828 0.213047
O O13 0.087073 0.042725 0.046350
O O14 0.665561 0.266175 0.899604
O O15 0.500000 0.000000 0.000000
O O16 0.500000 0.500000 0.500000
O O17 0.390106 0.431676 0.359768
#
# Coordination Sequence:
#
# PCOD9071680 Si02
#       8
#     2   2   2   2   2   2   2   2
#     4   8  14  24  42  67  92 123 159 190 233 286
#     4   9  16  26  43  69  97 123 156 198 238 277
#     4   9  17  31  49  71 100 126 155 199 237 274
#     4   9  17  28  47  74  98 123 157 193 240 286
#     4   8  12  21  40  64  89 117 154 198 238 276
#     4  10  18  29  48  73 100 126 157 197 236 280
#     4   9  16  26  45  72  97 124 161 198 236 286
#     4   8  14  25  42  67  95 120 153 199 239 276
#
# _framework density 25.856521999999998
#
# number of rings (size 3 to 8) (size 9 to 14) (size 15 to 20)
#    0.000    3.250    0.000    4.500    0.000    0.000 
#    0.000    0.625    0.000   14.250    0.000   29.750 
#    0.000    4.000    0.000    0.000    0.000    0.000 
#
# Total GULP energy -89209.848350 kJ/mol
# GULP energy per Si atom -5575.615522 kJ/mol
# Density = 2.579767 g / cm^3
# Si number density = 25.856522 Si / 1000 Ang^3
#
#
#
# Elastic Constant Matrix: (Units=GPa)
#
#
# Indices 1 2 3 4 5 6 
#
# 1 120.1031 25.7199 21.2372 -6.7572 22.6497 6.9179
# 2 25.7199 75.3090 7.0496 -12.2094 4.5825 -5.0170
# 3 21.2372 7.0496 121.4188 -18.2519 14.5599 -4.1497
# 4 -6.7572 -12.2094 -18.2519 25.9425 -8.8559 11.2412
# 5 22.6497 4.5825 14.5599 -8.8559 22.6467 -6.5955
# 6 6.9179 -5.0170 -4.1497 11.2412 -6.5955 38.7403
#
#
#
# Elastic Compliance Matrix: (Units=1/GPa)
#
#
# Indices 1 2 3 4 5 6 
#
# 1 0.011754 -0.003734 -0.000737 -0.001577 -0.012400 -0.004315
# 2 -0.003734 0.015570 0.000477 0.007372 0.003507 0.001192
# 3 -0.000737 0.000477 0.009637 0.006114 -0.003497 -0.001144
# 4 -0.001577 0.007372 0.006114 0.056044 0.014610 -0.011883
# 5 -0.012400 0.003507 -0.003497 0.014610 0.066543 0.009384
# 6 -0.004315 0.001192 -0.001144 -0.011883 0.009384 0.031661
#
#
# Mechanical properties :
#
#
# Convention : Reuss Voigt Hill
#
# Bulk Modulus (GPa) = 34.51311 47.20493 40.85902
# Shear Modulus (GPa) = 23.94015 34.98752 29.46383
#
# Velocity S-wave (km/s) = 3.04614 3.68250 3.37933
# Velocity P-wave (km/s) = 5.07433 6.03135 5.57342
#
# Compressibility (1/GPa) = 0.02897450
#
# Stress axis : x y z
#
# Youngs Moduli (GPa) = 85.07444 64.22442 103.77190
#
# Poissons Ratio (x) = 0.23982 0.07646
# Poissons Ratio (y) = 0.31768 -0.04955
# Poissons Ratio (z) = 0.06268 -0.03066
#
# Static dielectric constant tensor:
#      x y z
#    x 2.143950 0.013060 0.023280 
#    y 0.013060 2.171390 -0.081620 
#    z 0.023280 -0.081620 1.986510 
# 
# From -- ./inp_files/513926.got.cif
#   From: 2010.05.17/outbox.cif.g08.bks.cpg/sg2_257_cif.got.tgz:513926.got - 2010.06.03 11:33:40.
