data_PCOD9071317
_publ_section_title
;
Structure prediction by ZEFSAII (Michael W. Deem and Ramdas Pophale) SiO2 
 PCOD9071317
Probable space group: P -1
;
_chemical_formula_sum "Si O2"
_cell_formula_units_Z 14
_cell_length_a 6.275573
_cell_length_b 20.177616
_cell_length_c 8.088738
_cell_angle_alpha 41.042178
_cell_angle_beta 72.664881
_cell_angle_gamma 62.802043
_cell_volume 596.252603
_symmetry_space_group_name_H-M "P -1"
_symmetry_group_IT_number 2
_symmetry_cell_setting 'triclinic'
loop_
_space_group_symop_operation_xyz
x,y,z
-x,-y,-z
loop_
_atom_site_type_symbol
_atom_site_label
_atom_site_fract_x
_atom_site_fract_y
_atom_site_fract_z
Si Si1 0.731051 0.576009 0.955932
Si Si2 0.359483 0.587212 0.504047
Si Si3 0.804485 0.076303 0.277395
Si Si4 0.924122 0.766633 0.110570
Si Si5 0.966248 0.905784 0.297903
Si Si6 0.490467 0.743463 0.408702
Si Si7 0.272809 0.224467 0.228509
O O1 0.612376 0.652980 0.687013
O O2 0.726584 0.657321 0.953025
O O3 0.618750 0.489716 0.199121
O O4 0.000000 0.500000 0.000000
O O5 0.500000 0.500000 0.500000
O O6 0.448670 0.680157 0.375788
O O7 0.096059 0.651630 0.364348
O O8 0.547954 0.146073 0.280454
O O9 0.000000 0.000000 0.500000
O O10 0.792370 0.987939 0.317937
O O11 0.936700 0.153439 0.032414
O O12 0.668649 0.800786 0.195960
O O13 0.878916 0.768380 0.919521
O O14 0.245707 0.825674 0.391397
O O15 0.840208 0.815818 0.510716
O O16 0.000000 0.000000 0.000000
#
# Coordination Sequence:
#
# PCOD9071317 Si02
#       7
#     2   2   2   2   2   2   2
#     4  12  26  48  74 108 152 197 241 310 378 427
#     4  12  27  47  77 106 147 203 248 299 373 441
#     4  12  26  49  75 108 144 202 249 303 374 436
#     4  12  26  48  75 107 151 193 255 300 361 458
#     4  12  27  46  78 106 150 195 241 313 374 428
#     4  12  28  49  73 115 152 187 253 311 364 452
#     4  12  28  49  73 112 150 194 254 302 365 457
#
# _framework density 23.479982
#
# number of rings (size 3 to 8) (size 9 to 14) (size 15 to 20)
#    0.000    0.000    2.857    6.857    8.000    1.714 
#    0.000    0.000    0.000    0.000    0.000    0.000 
#    0.000    0.000    0.000    0.000    0.000    0.000 
#
# Total GULP energy -78142.197383 kJ/mol
# GULP energy per Si atom -5581.585527 kJ/mol
# Density = 2.342654 g / cm^3
# Si number density = 23.479982 Si / 1000 Ang^3
#
#
#
# Elastic Constant Matrix: (Units=GPa)
#
#
# Indices 1 2 3 4 5 6 
#
# 1 91.1315 39.3267 42.1906 -11.1428 -7.1241 -18.8160
# 2 39.3267 112.0701 10.6507 -25.6336 13.1740 -29.0547
# 3 42.1906 10.6507 145.4111 -10.1633 -1.9733 -18.5112
# 4 -11.1428 -25.6336 -10.1633 39.8960 -7.8112 4.7477
# 5 -7.1241 13.1740 -1.9733 -7.8112 54.7007 1.6059
# 6 -18.8160 -29.0547 -18.5112 4.7477 1.6059 54.9258
#
#
#
# Elastic Compliance Matrix: (Units=1/GPa)
#
#
# Indices 1 2 3 4 5 6 
#
# 1 0.015494 -0.004981 -0.003891 0.000603 0.003128 0.001218
# 2 -0.004981 0.013885 0.001573 0.006636 -0.003155 0.005687
# 3 -0.003891 0.001573 0.008278 0.001697 -0.000408 0.002154
# 4 0.000603 0.006636 0.001697 0.030293 0.002821 0.001588
# 5 0.003128 -0.003155 -0.000408 0.002821 0.019882 -0.001560
# 6 0.001218 0.005687 0.002154 0.001588 -0.001560 0.022266
#
#
# Mechanical properties :
#
#
# Convention : Reuss Voigt Hill
#
# Bulk Modulus (GPa) = 43.36748 59.21651 51.29199
# Shear Modulus (GPa) = 37.76948 47.00083 42.38516
#
# Velocity S-wave (km/s) = 4.01506 4.47894 4.25333
# Velocity P-wave (km/s) = 6.32490 7.21267 6.78332
#
# Compressibility (1/GPa) = 0.02305875
#
# Stress axis : x y z
#
# Youngs Moduli (GPa) = 64.54202 72.02250 120.80068
#
# Poissons Ratio (x) = 0.35875 0.47004
# Poissons Ratio (y) = 0.32149 -0.19005
# Poissons Ratio (z) = 0.25113 -0.11331
#
# Static dielectric constant tensor:
#      x y z
#    x 1.857230 0.017700 0.024600 
#    y 0.017700 1.807730 0.059690 
#    z 0.024600 0.059690 1.872180 
# 
# From -- ./inp_files/27187.got.cif
#   From: 2010.05.17/outbox.cif.g08.bks.cpg/sg2_14_cif.got.tgz:27187.got - 2010.06.03 11:33:40.
