data_PCOD9071566
_publ_section_title
;
Structure prediction by ZEFSAII (Michael W. Deem and Ramdas Pophale) SiO2 
 PCOD9071566
Probable space group: P -1
;
_chemical_formula_sum "Si O2"
_cell_formula_units_Z 14
_cell_length_a 9.370917
_cell_length_b 11.029910
_cell_length_c 9.233331
_cell_angle_alpha 71.254855
_cell_angle_beta 63.918045
_cell_angle_gamma 118.181189
_cell_volume 562.142141
_symmetry_space_group_name_H-M "P -1"
_symmetry_group_IT_number 2
_symmetry_cell_setting 'triclinic'
loop_
_space_group_symop_operation_xyz
x,y,z
-x,-y,-z
loop_
_atom_site_type_symbol
_atom_site_label
_atom_site_fract_x
_atom_site_fract_y
_atom_site_fract_z
Si Si1 0.578810 0.899828 0.034709
Si Si2 0.178961 0.524788 0.502718
Si Si3 0.911874 0.402859 0.224820
Si Si4 0.114719 0.231097 0.768171
Si Si5 0.608450 0.827961 0.487140
Si Si6 0.045687 0.224265 0.145386
Si Si7 0.607036 0.707276 0.855572
O O1 0.412877 0.736700 0.288801
O O2 0.525149 0.778440 0.965005
O O3 0.500000 0.000000 0.000000
O O4 0.845711 0.055063 0.910138
O O5 0.037214 0.457296 0.740283
O O6 0.212434 0.393796 0.547415
O O7 0.000000 0.500000 0.500000
O O8 0.638952 0.255790 0.399041
O O9 0.050447 0.352816 0.196391
O O10 0.000000 0.500000 0.000000
O O11 0.271327 0.200423 0.668146
O O12 0.137396 0.273136 0.917804
O O13 0.601936 0.751493 0.675533
O O14 0.777559 0.045503 0.323945
O O15 0.149402 0.174709 0.218975
O O16 0.500000 0.500000 0.000000
#
# Coordination Sequence:
#
# PCOD9071566 Si02
#       7
#     2   2   2   2   2   2   2
#     4  12  28  48  82 117 157 207 269 325 388 473
#     4  12  28  47  79 112 160 207 262 320 399 462
#     4  12  28  49  75 114 156 202 257 326 392 474
#     4  12  27  52  79 115 156 207 261 328 394 472
#     4  12  28  49  79 110 155 204 260 322 397 462
#     4  12  27  49  79 111 156 201 265 317 397 471
#     4  12  29  49  78 114 161 202 263 325 398 465
#
# _framework density 24.904733
#
# number of rings (size 3 to 8) (size 9 to 14) (size 15 to 20)
#    0.000    0.000    4.286    3.857   12.000    0.571 
#    0.000    0.000    0.000    0.000    0.000    0.000 
#    0.000    0.000    0.000    0.000    0.000    0.000 
#
# Total GULP energy -78006.246957 kJ/mol
# GULP energy per Si atom -5571.874783 kJ/mol
# Density = 2.484805 g / cm^3
# Si number density = 24.904733 Si / 1000 Ang^3
#
#
#
# Elastic Constant Matrix: (Units=GPa)
#
#
# Indices 1 2 3 4 5 6 
#
# 1 116.6625 10.3866 28.4467 13.5759 -14.8605 -14.5196
# 2 10.3866 66.1255 13.1226 8.6136 -10.1448 -24.4747
# 3 28.4467 13.1226 116.2537 3.5220 -4.2036 0.9289
# 4 13.5759 8.6136 3.5220 49.0857 -3.4196 1.1937
# 5 -14.8605 -10.1448 -4.2036 -3.4196 47.0293 1.5531
# 6 -14.5196 -24.4747 0.9289 1.1937 1.5531 46.4782
#
#
#
# Elastic Compliance Matrix: (Units=1/GPa)
#
#
# Indices 1 2 3 4 5 6 
#
# 1 0.010240 0.001092 -0.002471 -0.002735 0.002926 0.003796
# 2 0.001092 0.020694 -0.002437 -0.003757 0.003946 0.011252
# 3 -0.002471 -0.002437 0.009473 0.000461 -0.000352 -0.002244
# 4 -0.002735 -0.003757 0.000461 0.021843 0.000067 -0.003405
# 5 0.002926 0.003946 -0.000352 0.000067 0.022939 0.002231
# 6 0.003796 0.011252 -0.002244 -0.003405 0.002231 0.028684
#
#
# Mechanical properties :
#
#
# Convention : Reuss Voigt Hill
#
# Bulk Modulus (GPa) = 30.50928 44.77259 37.64093
# Shear Modulus (GPa) = 37.75603 44.99104 41.37354
#
# Velocity S-wave (km/s) = 3.89783 4.25494 4.08029
# Velocity P-wave (km/s) = 5.70390 6.49276 6.11107
#
# Compressibility (1/GPa) = 0.03277692
#
# Stress axis : x y z
#
# Youngs Moduli (GPa) = 97.65216 48.32272 105.56647
#
# Poissons Ratio (x) = -0.05277 0.26082
# Poissons Ratio (y) = -0.10664 0.25721
# Poissons Ratio (z) = 0.24127 0.11774
#
# Static dielectric constant tensor:
#      x y z
#    x 1.606690 -0.142910 -0.039360 
#    y -0.142910 1.785580 -0.126100 
#    z -0.039360 -0.126100 1.923940 
# 
# From -- ./inp_files/181406.got.cif
#   From: 2010.05.17/outbox.cif.g08.bks.cpg/sg2_91_cif.got.tgz:181406.got - 2010.06.03 11:33:40.
