data_PCOD9071037
_publ_section_title
;
Structure prediction by ZEFSAII (Michael W. Deem and Ramdas Pophale) SiO2 
 PCOD9071037
Probable space group: P -1
;
_chemical_formula_sum "Si O2"
_cell_formula_units_Z 16
_cell_length_a 12.487436
_cell_length_b 15.557648
_cell_length_c 18.308639
_cell_angle_alpha 156.083378
_cell_angle_beta 152.142720
_cell_angle_gamma 41.705208
_cell_volume 637.155146
_symmetry_space_group_name_H-M "P -1"
_symmetry_group_IT_number 2
_symmetry_cell_setting 'triclinic'
loop_
_space_group_symop_operation_xyz
x,y,z
-x,-y,-z
loop_
_atom_site_type_symbol
_atom_site_label
_atom_site_fract_x
_atom_site_fract_y
_atom_site_fract_z
Si Si1 0.473249 0.602996 0.139796
Si Si2 0.645156 0.529497 0.477158
Si Si3 0.823652 0.878177 0.090196
Si Si4 0.248553 0.952817 0.592943
Si Si5 0.277255 0.996694 0.035251
Si Si6 0.254418 0.332008 0.510488
Si Si7 0.651858 0.078794 0.543259
Si Si8 0.925081 0.324604 0.599230
O O1 0.671996 0.568233 0.287438
O O2 0.524407 0.859453 0.345038
O O3 0.500000 0.500000 0.000000
O O4 0.202778 0.461720 0.889919
O O5 0.662183 0.780884 0.705050
O O6 0.743073 0.534027 0.457734
O O7 0.809579 0.464247 0.585881
O O8 0.382326 0.340298 0.174264
O O9 0.074793 0.829863 0.190301
O O10 0.881177 0.091818 0.345920
O O11 0.730656 0.943886 0.008448
O O12 0.506132 0.104393 0.898114
O O13 0.294007 0.951328 0.533155
O O14 0.204984 0.731971 0.445173
O O15 0.000000 0.000000 0.500000
O O16 0.012223 0.843084 0.779111
O O17 0.473837 0.225449 0.551735
#
# Coordination Sequence:
#
# PCOD9071037 Si02
#       8
#     2   2   2   2   2   2   2   2
#     4  12  25  49  75 113 150 201 250 309 378 452
#     4  12  28  46  76 113 152 201 256 307 380 455
#     4  12  26  49  75 109 154 204 249 313 377 445
#     4  12  26  47  79 110 151 200 249 318 380 447
#     4  12  26  51  76 109 156 201 250 312 380 451
#     4  12  28  50  76 116 152 201 252 314 377 455
#     4  12  26  48  78 110 156 198 256 313 375 447
#     4  12  27  48  74 109 157 198 254 314 378 446
#
# _framework density 25.111623000000002
#
# number of rings (size 3 to 8) (size 9 to 14) (size 15 to 20)
#    0.000    0.000    6.250    2.250    5.250    1.500 
#    0.000    1.250    0.000    0.000    0.000    0.000 
#    0.000    0.000    0.000    0.000    0.000    0.000 
#
# Total GULP energy -89579.202002 kJ/mol
# GULP energy per Si atom -5598.700125 kJ/mol
# Density = 2.505447 g / cm^3
# Si number density = 25.111623 Si / 1000 Ang^3
#
#
#
# Elastic Constant Matrix: (Units=GPa)
#
#
# Indices 1 2 3 4 5 6 
#
# 1 116.7899 20.4323 51.2462 4.7460 2.0434 22.7905
# 2 20.4323 100.3727 34.3042 -27.2558 -1.7395 19.7416
# 3 51.2462 34.3042 180.1487 -17.0618 22.4072 3.8970
# 4 4.7460 -27.2558 -17.0618 48.7855 0.4679 11.3750
# 5 2.0434 -1.7395 22.4072 0.4679 42.2027 -4.1283
# 6 22.7905 19.7416 3.8970 11.3750 -4.1283 57.4353
#
#
#
# Elastic Compliance Matrix: (Units=1/GPa)
#
#
# Indices 1 2 3 4 5 6 
#
# 1 0.010801 -0.001007 -0.003089 -0.001934 0.000775 -0.003291
# 2 -0.001007 0.014374 -0.001559 0.009014 0.000766 -0.006165
# 3 -0.003089 -0.001559 0.007364 0.001898 -0.003785 0.000614
# 4 -0.001934 0.009014 0.001898 0.028310 -0.001657 -0.008185
# 5 0.000775 0.000766 -0.003785 -0.001657 0.025901 0.001876
# 6 -0.003291 -0.006165 0.000614 -0.008185 0.001876 0.022550
#
#
# Mechanical properties :
#
#
# Convention : Reuss Voigt Hill
#
# Bulk Modulus (GPa) = 47.10573 67.69742 57.40158
# Shear Modulus (GPa) = 39.15793 49.10661 44.13227
#
# Velocity S-wave (km/s) = 3.95315 4.42694 4.19674
# Velocity P-wave (km/s) = 6.29570 7.29023 6.81114
#
# Compressibility (1/GPa) = 0.02122884
#
# Stress axis : x y z
#
# Youngs Moduli (GPa) = 92.58010 69.56904 135.79733
#
# Poissons Ratio (x) = 0.07008 0.41951
# Poissons Ratio (y) = 0.09326 0.21168
# Poissons Ratio (z) = 0.28600 0.10845
#
# Static dielectric constant tensor:
#      x y z
#    x 2.040610 -0.084060 -0.052700 
#    y -0.084060 2.139310 0.010060 
#    z -0.052700 0.010060 1.985810 
# 
# From -- ./inp_files/569991.got.cif
#   From: 2010.05.17/outbox.cif.g08.bks.cpg/sg2_285_cif.got.tgz:569991.got - 2010.06.03 11:33:40.
