data_PCOD9071762
_publ_section_title
;
Structure prediction by ZEFSAII (Michael W. Deem and Ramdas Pophale) SiO2 
 PCOD9071762
Probable space group: P -1
;
_chemical_formula_sum "Si O2"
_cell_formula_units_Z 16
_cell_length_a 8.501445
_cell_length_b 12.372894
_cell_length_c 27.627545
_cell_angle_alpha 16.452733
_cell_angle_beta 111.070344
_cell_angle_gamma 110.422954
_cell_volume 767.944447
_symmetry_space_group_name_H-M "P -1"
_symmetry_group_IT_number 2
_symmetry_cell_setting 'triclinic'
loop_
_space_group_symop_operation_xyz
x,y,z
-x,-y,-z
loop_
_atom_site_type_symbol
_atom_site_label
_atom_site_fract_x
_atom_site_fract_y
_atom_site_fract_z
Si Si1 0.048502 0.809578 0.308578
Si Si2 0.242044 0.270631 0.063417
Si Si3 0.764650 0.878816 0.430345
Si Si4 0.260475 0.665266 0.482658
Si Si5 0.076812 0.143709 0.396730
Si Si6 0.583003 0.012700 0.261522
Si Si7 0.619087 0.242634 0.445277
Si Si8 0.684052 0.350139 0.739289
O O1 0.149062 0.459131 0.445616
O O2 0.144063 0.887280 0.336602
O O3 0.865534 0.637533 0.374058
O O4 0.076728 0.147056 0.128129
O O5 0.400321 0.148951 0.166884
O O6 0.263144 0.026252 0.121492
O O7 0.276314 0.706698 0.867149
O O8 0.704393 0.684201 0.557120
O O9 0.620025 0.033782 0.313419
O O10 0.916566 0.177731 0.329491
O O11 0.347424 0.898355 0.435486
O O12 0.387532 0.404114 0.578449
O O13 0.191732 0.514825 0.261842
O O14 0.198139 0.805424 0.537447
O O15 0.000000 0.000000 0.500000
O O16 0.511165 0.627120 0.275592
O O17 0.500000 0.000000 0.500000
#
# Coordination Sequence:
#
# PCOD9071762 Si02
#       8
#     2   2   2   2   2   2   2   2
#     4   9  19  30  52  72 103 126 162 206 247 289
#     4  10  20  35  47  72 102 139 164 198 244 292
#     4   9  17  31  49  76  98 127 163 205 242 291
#     4  10  18  32  50  79  97 128 162 206 245 288
#     4   9  17  31  50  76 100 122 157 206 252 289
#     4  10  21  32  50  71 104 134 167 199 243 293
#     4  10  18  29  49  79 101 121 156 205 248 290
#     4   9  18  30  52  74  98 129 163 202 242 288
#
# _framework density 20.83484
#
# number of rings (size 3 to 8) (size 9 to 14) (size 15 to 20)
#    0.000    2.500    2.500    0.000    1.750    2.000 
#    0.000    0.625    0.000    0.000    0.000    9.625 
#    0.000    0.000    0.000    0.000    0.000    0.000 
#
# Total GULP energy -89135.239452 kJ/mol
# GULP energy per Si atom -5570.952466 kJ/mol
# Density = 2.078742 g / cm^3
# Si number density = 20.834840 Si / 1000 Ang^3
#
#
#
# Elastic Constant Matrix: (Units=GPa)
#
#
# Indices 1 2 3 4 5 6 
#
# 1 70.7875 15.9567 7.8800 -5.4251 -5.7349 -12.8814
# 2 15.9567 138.2379 13.7179 -3.1157 4.1447 10.9177
# 3 7.8800 13.7179 33.8958 -4.7037 -9.7065 2.8415
# 4 -5.4251 -3.1157 -4.7037 14.4041 -4.2388 1.0820
# 5 -5.7349 4.1447 -9.7065 -4.2388 22.3712 -3.7467
# 6 -12.8814 10.9177 2.8415 1.0820 -3.7467 32.8443
#
#
#
# Elastic Compliance Matrix: (Units=1/GPa)
#
#
# Indices 1 2 3 4 5 6 
#
# 1 0.017510 -0.002700 -0.000469 0.007465 0.007611 0.008428
# 2 -0.002700 0.008381 -0.004106 -0.001722 -0.005024 -0.004006
# 3 -0.000469 -0.004106 0.039974 0.018314 0.021381 -0.000442
# 4 0.007465 -0.001722 0.018314 0.085554 0.026749 0.002149
# 5 0.007611 -0.005024 0.021381 0.026749 0.063462 0.009164
# 6 0.008428 -0.004006 -0.000442 0.002149 0.009164 0.036097
#
#
# Mechanical properties :
#
#
# Convention : Reuss Voigt Hill
#
# Bulk Modulus (GPa) = 19.48750 35.33670 27.41210
# Shear Modulus (GPa) = 17.69075 27.61503 22.65289
#
# Velocity S-wave (km/s) = 2.91708 3.64459 3.30094
# Velocity P-wave (km/s) = 4.55186 5.89134 5.26438
#
# Compressibility (1/GPa) = 0.05131495
#
# Stress axis : x y z
#
# Youngs Moduli (GPa) = 57.11011 119.31402 25.01624
#
# Poissons Ratio (x) = 0.32217 0.01173
# Poissons Ratio (y) = 0.15421 0.10272
# Poissons Ratio (z) = 0.02678 0.48991
#
# Static dielectric constant tensor:
#      x y z
#    x 1.830680 0.017580 -0.024820 
#    y 0.017580 1.810730 0.003970 
#    z -0.024820 0.003970 1.743220 
# 
# From -- ./inp_files/169434.got.cif
#   From: 2010.05.17/outbox.cif.g08.bks.cpg/sg2_85_cif.got.tgz:169434.got - 2010.06.03 11:33:40.
