data_PCOD9071406
_publ_section_title
;
Structure prediction by ZEFSAII (Michael W. Deem and Ramdas Pophale) SiO2 
 PCOD9071406
Probable space group: P -1
;
_chemical_formula_sum "Si O2"
_cell_formula_units_Z 12
_cell_length_a 14.007319
_cell_length_b 5.996112
_cell_length_c 8.314614
_cell_angle_alpha 80.919213
_cell_angle_beta 47.601429
_cell_angle_gamma 88.995568
_cell_volume 505.443497
_symmetry_space_group_name_H-M "P -1"
_symmetry_group_IT_number 2
_symmetry_cell_setting 'triclinic'
loop_
_space_group_symop_operation_xyz
x,y,z
-x,-y,-z
loop_
_atom_site_type_symbol
_atom_site_label
_atom_site_fract_x
_atom_site_fract_y
_atom_site_fract_z
Si Si1 0.527888 0.268674 0.905487
Si Si2 0.546095 0.433210 0.281680
Si Si3 0.212199 0.855396 0.003520
Si Si4 0.270853 0.160248 0.581888
Si Si5 0.956957 0.543306 0.224063
Si Si6 0.196603 0.847226 0.391966
O O1 0.448656 0.318465 0.832453
O O2 0.682829 0.299694 0.720626
O O3 0.500000 0.500000 0.000000
O O4 0.500000 0.000000 0.000000
O O5 0.500000 0.500000 0.500000
O O6 0.423463 0.252430 0.384756
O O7 0.676171 0.316205 0.120106
O O8 0.201836 0.937391 0.192061
O O9 0.070033 0.720383 0.148955
O O10 0.243913 0.026025 0.796871
O O11 0.177661 0.354766 0.662720
O O12 0.227925 0.019337 0.485170
O O13 0.930496 0.320956 0.392291
O O14 0.000000 0.500000 0.000000
#
# Coordination Sequence:
#
# PCOD9071406 Si02
#       6
#     2   2   2   2   2   2
#     4  12  26  49  77 118 161 203 259 338 401 471
#     4  12  26  49  78 116 157 204 263 332 399 481
#     4  12  27  47  80 115 155 208 269 323 400 485
#     4  12  27  52  78 112 160 208 265 334 406 471
#     4  12  26  54  74 109 163 206 264 331 409 475
#     4  12  27  48  79 112 154 209 269 329 398 484
#
# _framework density 23.741527999999999
#
# number of rings (size 3 to 8) (size 9 to 14) (size 15 to 20)
#    0.000    0.000    5.000    4.500    2.333    0.667 
#    3.000    0.000    0.000    0.000    0.000    0.000 
#    0.000    0.000    0.000    0.000    0.000    0.000 
#
# Total GULP energy -66960.281245 kJ/mol
# GULP energy per Si atom -5580.023437 kJ/mol
# Density = 2.368749 g / cm^3
# Si number density = 23.741528 Si / 1000 Ang^3
#
#
#
# Elastic Constant Matrix: (Units=GPa)
#
#
# Indices 1 2 3 4 5 6 
#
# 1 87.8804 35.7572 35.0374 -28.7103 28.3284 -7.0666
# 2 35.7572 110.1135 55.9008 -27.3095 33.1768 -8.3652
# 3 35.0374 55.9008 117.4324 -27.4101 37.9536 -1.0337
# 4 -28.7103 -27.3095 -27.4101 55.3698 6.2956 0.4115
# 5 28.3284 33.1768 37.9536 6.2956 68.5155 1.4027
# 6 -7.0666 -8.3652 -1.0337 0.4115 1.4027 28.5968
#
#
#
# Elastic Compliance Matrix: (Units=1/GPa)
#
#
# Indices 1 2 3 4 5 6 
#
# 1 0.017784 -0.000524 -0.000151 0.009765 -0.008005 0.004488
# 2 -0.000524 0.014415 -0.003626 0.005621 -0.005356 0.004138
# 3 -0.000151 -0.003626 0.013593 0.005572 -0.006216 -0.000382
# 4 0.009765 0.005621 0.005572 0.030066 -0.012700 0.004449
# 5 -0.008005 -0.005356 -0.006216 -0.012700 0.025207 -0.004823
# 6 0.004488 0.004138 -0.000382 0.004449 -0.004823 0.037447
#
#
# Mechanical properties :
#
#
# Convention : Reuss Voigt Hill
#
# Bulk Modulus (GPa) = 26.88875 63.20190 45.04532
# Shear Modulus (GPa) = 31.34627 43.07846 37.21236
#
# Velocity S-wave (km/s) = 3.63755 4.26429 3.96333
# Velocity P-wave (km/s) = 5.38448 7.13612 6.32126
#
# Compressibility (1/GPa) = 0.03719028
#
# Stress axis : x y z
#
# Youngs Moduli (GPa) = 56.23072 69.37397 73.56965
#
# Poissons Ratio (x) = 0.03633 0.01109
# Poissons Ratio (y) = 0.02945 0.26676
# Poissons Ratio (z) = 0.00848 0.25154
#
# Static dielectric constant tensor:
#      x y z
#    x 2.386140 0.154820 0.198070 
#    y 0.154820 1.928620 -0.011500 
#    z 0.198070 -0.011500 2.018370 
# 
# From -- ./inp_files/288571.got.cif
#   From: 2010.05.17/outbox.cif.g08.bks.cpg/sg2_145_cif.got.tgz:288571.got - 2010.06.03 11:33:40.
