data_PCOD9071972
_publ_section_title
;
Structure prediction by ZEFSAII (Michael W. Deem and Ramdas Pophale) SiO2 
 PCOD9071972
Probable space group: P -1
;
_chemical_formula_sum "Si O2"
_cell_formula_units_Z 14
_cell_length_a 15.106547
_cell_length_b 12.271146
_cell_length_c 14.021454
_cell_angle_alpha 120.274010
_cell_angle_beta 42.173350
_cell_angle_gamma 150.303476
_cell_volume 784.624039
_symmetry_space_group_name_H-M "P -1"
_symmetry_group_IT_number 2
_symmetry_cell_setting 'triclinic'
loop_
_space_group_symop_operation_xyz
x,y,z
-x,-y,-z
loop_
_atom_site_type_symbol
_atom_site_label
_atom_site_fract_x
_atom_site_fract_y
_atom_site_fract_z
Si Si1 0.379495 0.314427 0.811254
Si Si2 0.681023 0.235716 0.897031
Si Si3 0.683260 0.147018 0.641723
Si Si4 0.091705 0.650508 0.900195
Si Si5 0.959487 0.090051 0.941307
Si Si6 0.499823 0.345283 0.007124
Si Si7 0.202603 0.479535 0.344010
O O1 0.422281 0.471827 0.912878
O O2 0.650801 0.467117 0.662263
O O3 0.230018 0.244026 0.807852
O O4 0.194310 0.067700 0.907727
O O5 0.730395 0.214999 0.745673
O O6 0.932827 0.472170 0.858626
O O7 0.542870 0.254689 0.993494
O O8 0.500000 0.000000 0.000000
O O9 0.727738 0.314889 0.624146
O O10 0.899944 0.226403 0.473555
O O11 0.390409 0.873603 0.745399
O O12 0.039390 0.757855 0.002926
O O13 0.000000 0.500000 0.000000
O O14 0.785833 0.889614 0.908428
O O15 0.678197 0.478805 0.830124
#
# Coordination Sequence:
#
# PCOD9071972 Si02
#       7
#     2   2   2   2   2   2   2
#     4  10  18  31  54  79 108 138 176 214 266 314
#     4  11  20  34  54  78 102 139 183 223 258 308
#     4  10  20  36  50  78 114 139 175 212 272 319
#     4  12  20  34  56  78 104 139 185 223 257 310
#     4  10  18  30  49  81 104 131 178 220 259 301
#     4  10  18  33  53  80 107 139 178 212 266 311
#     4   9  18  34  53  75 117 145 158 220 271 321
#
# _framework density 17.842939999999999
#
# number of rings (size 3 to 8) (size 9 to 14) (size 15 to 20)
#    0.000    1.714    7.143    1.714    0.000    0.000 
#    0.000   12.143    0.000    3.429    0.000    7.000 
#    0.000    0.000    0.000    0.000    0.000    0.000 
#
# Total GULP energy -78053.579754 kJ/mol
# GULP energy per Si atom -5575.255697 kJ/mol
# Density = 1.780233 g / cm^3
# Si number density = 17.842940 Si / 1000 Ang^3
#
#
#
# Elastic Constant Matrix: (Units=GPa)
#
#
# Indices 1 2 3 4 5 6 
#
# 1 131.5886 50.7056 45.1120 -15.6562 -27.9656 8.1534
# 2 50.7056 89.9081 26.0124 -15.8835 -7.9061 13.4752
# 3 45.1120 26.0124 60.0042 -18.4445 -28.5303 6.9109
# 4 -15.6562 -15.8835 -18.4445 24.1471 7.4398 -6.8052
# 5 -27.9656 -7.9061 -28.5303 7.4398 23.1993 -11.2823
# 6 8.1534 13.4752 6.9109 -6.8052 -11.2823 46.2839
#
#
#
# Elastic Compliance Matrix: (Units=1/GPa)
#
#
# Indices 1 2 3 4 5 6 
#
# 1 0.013180 -0.006444 -0.000401 0.000401 0.014647 0.003244
# 2 -0.006444 0.017465 -0.008865 0.004041 -0.017020 -0.006181
# 3 -0.000401 -0.008865 0.057753 0.021091 0.067343 0.013545
# 4 0.000401 0.004041 0.021091 0.058630 0.012537 0.007280
# 5 0.014647 -0.017020 0.067343 0.012537 0.148526 0.030368
# 6 0.003244 -0.006181 0.013545 0.007280 0.030368 0.029285
#
#
# Mechanical properties :
#
#
# Convention : Reuss Voigt Hill
#
# Bulk Modulus (GPa) = 17.55100 58.35119 37.95110
# Shear Modulus (GPa) = 13.32440 29.37078 21.34759
#
# Velocity S-wave (km/s) = 2.73566 4.06158 3.46268
# Velocity P-wave (km/s) = 4.45378 7.40061 6.10758
#
# Compressibility (1/GPa) = 0.05697682
#
# Stress axis : x y z
#
# Youngs Moduli (GPa) = 75.87447 57.25681 17.31517
#
# Poissons Ratio (x) = 0.36897 0.00695
# Poissons Ratio (y) = 0.48895 0.15350
# Poissons Ratio (z) = 0.03043 0.50759
#
# Static dielectric constant tensor:
#      x y z
#    x 1.650570 0.011110 -0.035750 
#    y 0.011110 1.615140 -0.007460 
#    z -0.035750 -0.007460 1.620220 
# 
# From -- ./inp_files/390717.got.cif
#   From: 2010.05.17/outbox.cif.g08.bks.cpg/sg2_196_cif.got.tgz:390717.got - 2010.06.03 11:33:40.
