data_PCOD9071695
_publ_section_title
;
Structure prediction by ZEFSAII (Michael W. Deem and Ramdas Pophale) SiO2 
 PCOD9071695
Probable space group: P -1
;
_chemical_formula_sum "Si O2"
_cell_formula_units_Z 16
_cell_length_a 8.188754
_cell_length_b 11.468313
_cell_length_c 9.920045
_cell_angle_alpha 56.428380
_cell_angle_beta 51.690735
_cell_angle_gamma 61.328681
_cell_volume 595.551172
_symmetry_space_group_name_H-M "P -1"
_symmetry_group_IT_number 2
_symmetry_cell_setting 'triclinic'
loop_
_space_group_symop_operation_xyz
x,y,z
-x,-y,-z
loop_
_atom_site_type_symbol
_atom_site_label
_atom_site_fract_x
_atom_site_fract_y
_atom_site_fract_z
Si Si1 0.284905 0.212395 0.148556
Si Si2 0.135556 0.615876 0.816744
Si Si3 0.763911 0.060199 0.137587
Si Si4 0.867509 0.851590 0.444930
Si Si5 0.341074 0.170466 0.841828
Si Si6 0.708076 0.310882 0.568660
Si Si7 0.528965 0.467436 0.830268
Si Si8 0.932573 0.318861 0.809455
O O1 0.035685 0.239235 0.212735
O O2 0.634000 0.975098 0.162599
O O3 0.377735 0.149091 0.996252
O O4 0.379649 0.356267 0.017272
O O5 0.214451 0.586283 0.642435
O O6 0.345728 0.608057 0.804614
O O7 0.000000 0.500000 0.000000
O O8 0.276780 0.165135 0.340598
O O9 0.771353 0.000020 0.323086
O O10 0.759502 0.220714 0.994616
O O11 0.000000 0.000000 0.000000
O O12 0.925536 0.734479 0.364780
O O13 0.107161 0.824871 0.397722
O O14 0.516874 0.250225 0.645104
O O15 0.110114 0.273946 0.862473
O O16 0.626607 0.403407 0.680278
O O17 0.754346 0.466155 0.792243
#
# Coordination Sequence:
#
# PCOD9071695 Si02
#       8
#     2   2   2   2   2   2   2   2
#     4   9  17  30  49  76 100 121 160 213 249 279
#     4   9  17  30  50  75 100 128 161 203 247 291
#     4   8  16  33  51  68  96 138 168 193 240 299
#     4   8  15  30  50  70  95 127 166 199 237 293
#     4   9  17  31  50  73 105 128 155 209 250 283
#     4   9  16  28  50  77  98 125 167 205 242 289
#     4   9  17  31  51  71  96 134 171 195 235 302
#     4   9  18  35  51  68  97 139 172 193 235 302
#
# _framework density 26.865869
#
# number of rings (size 3 to 8) (size 9 to 14) (size 15 to 20)
#    0.000    3.500    0.000    0.375    0.000    0.000 
#    0.000   28.125    0.000    9.000    0.000    6.125 
#    0.000    0.000    0.000    0.000    0.000    0.000 
#
# Total GULP energy -89079.885321 kJ/mol
# GULP energy per Si atom -5567.492833 kJ/mol
# Density = 2.680472 g / cm^3
# Si number density = 26.865869 Si / 1000 Ang^3
#
#
#
# Elastic Constant Matrix: (Units=GPa)
#
#
# Indices 1 2 3 4 5 6 
#
# 1 106.7590 30.8118 43.7793 0.6630 22.2958 -27.8800
# 2 30.8118 53.4866 26.6165 13.7267 6.2968 -11.0091
# 3 43.7793 26.6165 192.2420 -2.9723 50.0494 16.6984
# 4 0.6630 13.7267 -2.9723 23.0140 -3.5286 4.0003
# 5 22.2958 6.2968 50.0494 -3.5286 32.6702 4.8919
# 6 -27.8800 -11.0091 16.6984 4.0003 4.8919 60.2900
#
#
#
# Elastic Compliance Matrix: (Units=1/GPa)
#
#
# Indices 1 2 3 4 5 6 
#
# 1 0.015035 -0.005887 -0.000939 0.000445 -0.008659 0.006811
# 2 -0.005887 0.029608 -0.003853 -0.018608 0.001476 0.004866
# 3 -0.000939 -0.003853 0.009482 0.002140 -0.012478 -0.002894
# 4 0.000445 -0.018608 0.002140 0.057377 0.007429 -0.008194
# 5 -0.008659 0.001476 -0.012478 0.007429 0.056960 -0.005393
# 6 0.006811 0.004866 -0.002894 -0.008194 -0.005393 0.022408
#
#
# Mechanical properties :
#
#
# Convention : Reuss Voigt Hill
#
# Bulk Modulus (GPa) = 30.51844 61.65585 46.08715
# Shear Modulus (GPa) = 22.40616 39.94683 31.17650
#
# Velocity S-wave (km/s) = 2.89104 3.86022 3.41023
# Velocity P-wave (km/s) = 4.74641 6.54734 5.71822
#
# Compressibility (1/GPa) = 0.03276708
#
# Stress axis : x y z
#
# Youngs Moduli (GPa) = 66.50951 33.77414 105.45917
#
# Poissons Ratio (x) = 0.19883 0.09906
# Poissons Ratio (y) = 0.39154 0.40637
# Poissons Ratio (z) = 0.06248 0.13014
#
# Static dielectric constant tensor:
#      x y z
#    x 2.170810 -0.098500 0.083850 
#    y -0.098500 2.308900 -0.036060 
#    z 0.083850 -0.036060 2.146190 
# 
# From -- ./inp_files/398506.got.cif
#   From: 2010.05.17/outbox.cif.g08.bks.cpg/sg2_200_cif.got.tgz:398506.got - 2010.06.03 11:33:40.
