data_PCOD9071632
_publ_section_title
;
Structure prediction by ZEFSAII (Michael W. Deem and Ramdas Pophale) SiO2 
 PCOD9071632
Probable space group: P -1
;
_chemical_formula_sum "Si O2"
_cell_formula_units_Z 12
_cell_length_a 8.464857
_cell_length_b 21.199038
_cell_length_c 12.563718
_cell_angle_alpha 14.273244
_cell_angle_beta 59.590644
_cell_angle_gamma 59.928647
_cell_volume 478.788882
_symmetry_space_group_name_H-M "P -1"
_symmetry_group_IT_number 2
_symmetry_cell_setting 'triclinic'
loop_
_space_group_symop_operation_xyz
x,y,z
-x,-y,-z
loop_
_atom_site_type_symbol
_atom_site_label
_atom_site_fract_x
_atom_site_fract_y
_atom_site_fract_z
Si Si1 0.494126 0.728615 0.042036
Si Si2 0.947433 0.069307 0.696677
Si Si3 0.117158 0.730947 0.037212
Si Si4 0.161978 0.418619 0.335269
Si Si5 0.332399 0.080699 0.673735
Si Si6 0.219248 0.593248 0.641231
O O1 0.500000 0.500000 0.500000
O O2 0.304430 0.725170 0.049348
O O3 0.655112 0.655647 0.023733
O O4 0.490443 0.988206 0.688555
O O5 0.824637 0.318220 0.367817
O O6 0.141458 0.093257 0.651955
O O7 0.856220 0.826368 0.179214
O O8 0.997157 0.985533 0.697024
O O9 0.164215 0.661751 0.013356
O O10 0.000000 0.500000 0.500000
O O11 0.324120 0.328309 0.347039
O O12 0.972458 0.432629 0.311324
O O13 0.312629 0.835849 0.159000
#
# Coordination Sequence:
#
# PCOD9071632 Si02
#       6
#     2   2   2   2   2   2
#     4   9  14  19  24  29  34  39  44  49  54  59
#     4   7  11  18  25  28  33  42  45  44  53  66
#     4   9  14  19  24  29  34  39  44  49  54  59
#     4   8  12  19  26  29  32  39  46  49  52  59
#     4   7  11  18  25  28  33  42  45  44  53  66
#     4   8  12  19  26  29  32  39  46  49  52  59
#
# _framework density 25.063241000000001
#
# number of rings (size 3 to 8) (size 9 to 14) (size 15 to 20)
#    0.000    4.000    0.000    5.000    0.000    0.000 
#    0.000   15.000    0.000    0.000    0.000    0.000 
#    0.000    0.000    0.000    0.000    0.000    0.000 
#
# Total GULP energy -66943.952373 kJ/mol
# GULP energy per Si atom -5578.662698 kJ/mol
# Density = 2.500620 g / cm^3
# Si number density = 25.063241 Si / 1000 Ang^3
#
#
#
# Elastic Constant Matrix: (Units=GPa)
#
#
# Indices 1 2 3 4 5 6 
#
# 1 44.6986 51.2404 30.7514 -16.5843 0.3980 3.5083
# 2 51.2404 156.7973 135.7825 -104.5115 6.3665 -6.5643
# 3 30.7514 135.7825 69.8608 -35.5864 1.4291 10.2841
# 4 -16.5843 -104.5115 -35.5864 103.5030 5.7895 1.7906
# 5 0.3980 6.3665 1.4291 5.7895 28.9349 -3.0321
# 6 3.5083 -6.5643 10.2841 1.7906 -3.0321 33.2138
#
#
#
# Elastic Compliance Matrix: (Units=1/GPa)
#
#
# Indices 1 2 3 4 5 6 
#
# 1 0.031468 -0.002154 -0.009865 -0.000546 0.000573 -0.000613
# 2 -0.002154 -0.006989 0.013995 -0.002546 0.000833 -0.005274
# 3 -0.009865 0.013995 -0.003021 0.011714 -0.004753 0.003678
# 4 -0.000546 -0.002546 0.011714 0.011272 -0.002783 -0.004934
# 5 0.000573 0.000833 -0.004753 -0.002783 0.035683 0.004983
# 6 -0.000613 -0.005274 0.003678 -0.004934 0.004983 0.028713
#
#
# Mechanical properties :
#
#
# Convention : Reuss Voigt Hill
#
# Bulk Modulus (GPa) = 39.35433 78.54503 58.94968
# Shear Modulus (GPa) = 49.19155 36.70251 42.94703
#
# Velocity S-wave (km/s) = 4.43504 3.83089 4.14399
# Velocity P-wave (km/s) = 6.47782 7.13964 6.81677
#
# Compressibility (1/GPa) = 0.02541016
#
# Stress axis : x y z
#
# Youngs Moduli (GPa) = 31.77786 -143.07908 -330.99462
#
# Poissons Ratio (x) = -0.30821 -3.26513
# Poissons Ratio (y) = 0.06845 4.63218
# Poissons Ratio (z) = 0.31348 2.00235
#
# Static dielectric constant tensor:
#      x y z
#    x 1.898690 0.008690 0.019190 
#    y 0.008690 2.053010 -0.062770 
#    z 0.019190 -0.062770 1.989650 
# 
# From -- ./inp_files/166144.got.cif
#   From: 2010.05.17/outbox.cif.g08.bks.cpg/sg2_84_cif.got.tgz:166144.got - 2010.06.03 11:33:40.
