data_PCOD9071820
_publ_section_title
;
Structure prediction by ZEFSAII (Michael W. Deem and Ramdas Pophale) SiO2 
 PCOD9071820
Probable space group: P -1
;
_chemical_formula_sum "Si O2"
_cell_formula_units_Z 16
_cell_length_a 12.514607
_cell_length_b 8.301063
_cell_length_c 11.968564
_cell_angle_alpha 94.408054
_cell_angle_beta 135.521724
_cell_angle_gamma 114.958644
_cell_volume 634.781040
_symmetry_space_group_name_H-M "P -1"
_symmetry_group_IT_number 2
_symmetry_cell_setting 'triclinic'
loop_
_space_group_symop_operation_xyz
x,y,z
-x,-y,-z
loop_
_atom_site_type_symbol
_atom_site_label
_atom_site_fract_x
_atom_site_fract_y
_atom_site_fract_z
Si Si1 0.624846 0.930363 0.121578
Si Si2 0.843465 0.794499 0.278284
Si Si3 0.221616 0.613807 0.254119
Si Si4 0.521800 0.257581 0.333954
Si Si5 0.526784 0.129898 0.755079
Si Si6 0.121395 0.884150 0.286624
Si Si7 0.915013 0.601814 0.495664
Si Si8 0.266998 0.287755 0.268246
O O1 0.867016 0.159523 0.296019
O O2 0.655796 0.770647 0.095734
O O3 0.533705 0.832096 0.172793
O O4 0.500000 0.000000 0.000000
O O5 0.795699 0.606179 0.308025
O O6 0.953752 0.809835 0.250460
O O7 0.000000 0.000000 0.500000
O O8 0.418763 0.755151 0.495554
O O9 0.292233 0.687743 0.183341
O O10 0.103803 0.692913 0.207728
O O11 0.146606 0.371500 0.190287
O O12 0.745565 0.464555 0.459622
O O13 0.345089 0.266426 0.208408
O O14 0.446195 0.040529 0.207362
O O15 0.326332 0.015086 0.522706
O O16 0.155239 0.060609 0.237931
O O17 0.000000 0.500000 0.500000
O O18 0.500000 0.500000 0.500000
#
# Coordination Sequence:
#
# PCOD9071820 Si02
#       8
#     2   2   2   2   2   2   2   2
#     4  11  25  40  57  84 124 169 202 243 309 368
#     4  10  22  35  59  84 118 160 201 252 300 353
#     4  10  20  28  52  87 120 149 184 254 311 347
#     4  10  18  29  52  90 119 143 191 259 302 348
#     4  11  17  35  55  80 122 152 195 242 303 357
#     4  11  17  35  50  89 120 143 197 258 301 356
#     4  11  20  36  61  92 115 153 206 257 298 355
#     4  10  19  25  48  86 125 144 177 248 323 343
#
# _framework density 25.205538000000001
#
# number of rings (size 3 to 8) (size 9 to 14) (size 15 to 20)
#    0.000    1.500    7.500    1.500    8.750    0.000 
#    0.000    0.625    0.000    1.500    0.000    0.000 
#    0.000    0.000    0.000    0.000    0.000    0.000 
#
# Total GULP energy -89150.743380 kJ/mol
# GULP energy per Si atom -5571.921461 kJ/mol
# Density = 2.514817 g / cm^3
# Si number density = 25.205538 Si / 1000 Ang^3
#
#
#
# Elastic Constant Matrix: (Units=GPa)
#
#
# Indices 1 2 3 4 5 6 
#
# 1 150.0599 84.7596 21.7818 -7.4752 57.4192 12.7254
# 2 84.7596 121.3752 47.5183 -28.3271 28.2931 -8.8636
# 3 21.7818 47.5183 100.2877 -11.2594 25.0682 -4.3283
# 4 -7.4752 -28.3271 -11.2594 29.8487 -12.2058 13.9280
# 5 57.4192 28.2931 25.0682 -12.2058 17.0376 -15.3241
# 6 12.7254 -8.8636 -4.3283 13.9280 -15.3241 55.5406
#
#
#
# Elastic Compliance Matrix: (Units=1/GPa)
#
#
# Indices 1 2 3 4 5 6 
#
# 1 -0.002708 -0.000910 -0.004908 0.004642 0.026894 0.006349
# 2 -0.000910 0.015391 -0.001952 0.008571 -0.017497 -0.004464
# 3 -0.004908 -0.001952 0.009609 0.003487 0.011653 0.003902
# 4 0.004642 0.008571 0.003487 0.044270 -0.016973 -0.015209
# 5 0.026894 -0.017497 0.011653 -0.016973 -0.047352 -0.016855
# 6 0.006349 -0.004464 0.003902 -0.015209 -0.016855 0.015305
#
#
# Mechanical properties :
#
#
# Convention : Reuss Voigt Hill
#
# Bulk Modulus (GPa) = 148.07728 75.53802 111.80765
# Shear Modulus (GPa) = 95.59065 34.99625 65.29345
#
# Velocity S-wave (km/s) = 6.16496 3.73021 5.09516
# Velocity P-wave (km/s) = 10.46667 6.97040 8.89207
#
# Compressibility (1/GPa) = 0.00675323
#
# Stress axis : x y z
#
# Youngs Moduli (GPa) = -369.28979 64.97253 104.06438
#
# Poissons Ratio (x) = 0.05909 0.51078
# Poissons Ratio (y) = -0.33588 0.20312
# Poissons Ratio (z) = -1.81259 0.12682
#
# Static dielectric constant tensor:
#      x y z
#    x 2.081650 -0.054150 -0.001330 
#    y -0.054150 2.093130 -0.013710 
#    z -0.001330 -0.013710 2.075200 
# 
# From -- ./inp_files/514339.got.cif
#   From: 2010.05.17/outbox.cif.g08.bks.cpg/sg2_258_cif.got.tgz:514339.got - 2010.06.03 11:33:40.
