data_PCOD9071713
_publ_section_title
;
Structure prediction by ZEFSAII (Michael W. Deem and Ramdas Pophale) SiO2 
 PCOD9071713
Probable space group: P -1
;
_chemical_formula_sum "Si O2"
_cell_formula_units_Z 16
_cell_length_a 8.950118
_cell_length_b 9.106279
_cell_length_c 14.914300
_cell_angle_alpha 43.533078
_cell_angle_beta 106.414612
_cell_angle_gamma 129.506744
_cell_volume 608.387549
_symmetry_space_group_name_H-M "P -1"
_symmetry_group_IT_number 2
_symmetry_cell_setting 'triclinic'
loop_
_space_group_symop_operation_xyz
x,y,z
-x,-y,-z
loop_
_atom_site_type_symbol
_atom_site_label
_atom_site_fract_x
_atom_site_fract_y
_atom_site_fract_z
Si Si1 0.364014 0.417363 0.309962
Si Si2 0.173974 0.347249 0.690038
Si Si3 0.449533 0.608085 0.051727
Si Si4 0.274517 0.877583 0.479516
Si Si5 0.254032 0.316130 0.520484
Si Si6 0.001265 0.763270 0.948271
Si Si7 0.563145 0.886130 0.779554
Si Si8 0.157302 0.775207 0.779554
O O1 0.590681 0.522041 0.318639
O O2 0.403130 0.604313 0.149126
O O3 0.266794 0.436678 0.372554
O O4 0.240780 0.089180 0.410754
O O5 0.139345 0.554339 0.627446
O O6 0.151535 0.321443 0.589246
O O7 0.052254 0.051691 0.850873
O O8 0.228459 0.435385 0.043078
O O9 0.505840 0.408616 0.139267
O O10 0.600506 0.878605 0.894620
O O11 0.500000 0.000000 0.500000
O O12 0.277453 0.894103 0.364227
O O13 0.500000 0.500000 0.500000
O O14 0.141680 0.986783 0.635773
O O15 0.145114 0.826426 0.860730
O O16 0.995131 0.562470 0.105377
O O17 0.379234 0.887702 0.741528
#
# Coordination Sequence:
#
# PCOD9071713 Si02
#       8
#     2   2   2   2   2   2   2   2
#     4   9  17  30  50  74  99 130 170 211 248 295
#     4   9  17  30  50  74  99 130 170 211 248 295
#     4   9  18  31  49  73 100 132 165 203 254 304
#     4   9  16  28  51  77  97 126 173 215 242 286
#     4   9  16  28  51  77  97 126 173 215 242 286
#     4   9  18  31  49  73 100 132 165 203 254 304
#     4   9  16  29  50  70  93 129 170 199 237 297
#     4   9  16  29  50  70  93 129 170 199 237 297
#
# _framework density 26.299023999999999
#
# number of rings (size 3 to 8) (size 9 to 14) (size 15 to 20)
#    0.000    3.000    0.000    2.250    0.000    0.000 
#    0.000    5.000    0.000   97.500    0.000    3.500 
#    0.000    0.000    0.000    0.000    0.000    0.000 
#
# Total GULP energy -89290.101802 kJ/mol
# GULP energy per Si atom -5580.631363 kJ/mol
# Density = 2.623917 g / cm^3
# Si number density = 26.299024 Si / 1000 Ang^3
#
#
#
# Elastic Constant Matrix: (Units=GPa)
#
#
# Indices 1 2 3 4 5 6 
#
# 1 112.1984 9.7641 0.9616 -0.0209 -2.3389 -1.5779
# 2 9.7641 53.3249 52.0591 -2.6171 1.9384 5.7123
# 3 0.9616 52.0591 173.9705 -0.5491 3.7851 -10.5317
# 4 -0.0209 -2.6171 -0.5491 40.2517 -5.0507 1.4487
# 5 -2.3389 1.9384 3.7851 -5.0507 22.4558 -0.6414
# 6 -1.5779 5.7123 -10.5317 1.4487 -0.6414 17.0764
#
#
#
# Elastic Compliance Matrix: (Units=1/GPa)
#
#
# Indices 1 2 3 4 5 6 
#
# 1 0.009217 -0.002925 0.000949 -0.000124 0.001095 0.002467
# 2 -0.002925 0.031517 -0.010440 0.002381 -0.001230 -0.017500
# 3 0.000949 -0.010440 0.009449 -0.000958 -0.000538 0.009469
# 4 -0.000124 0.002381 -0.000958 0.025816 0.005653 -0.003376
# 5 0.001095 -0.001230 -0.000538 0.005653 0.046155 0.001435
# 6 0.002467 -0.017500 0.009469 -0.003376 0.001435 0.070822
#
#
# Mechanical properties :
#
#
# Convention : Reuss Voigt Hill
#
# Bulk Modulus (GPa) = 39.44506 51.67369 45.55938
# Shear Modulus (GPa) = 22.09870 34.40404 28.25137
#
# Velocity S-wave (km/s) = 2.90191 3.62081 3.28111
# Velocity P-wave (km/s) = 5.12439 6.09685 5.63165
#
# Compressibility (1/GPa) = 0.02535172
#
# Stress axis : x y z
#
# Youngs Moduli (GPa) = 108.49914 31.72889 105.83296
#
# Poissons Ratio (x) = 0.09279 -0.10047
# Poissons Ratio (y) = 0.31732 1.10491
# Poissons Ratio (z) = -0.10300 0.33125
#
# Static dielectric constant tensor:
#      x y z
#    x 2.096860 0.065360 0.002340 
#    y 0.065360 2.159410 -0.000660 
#    z 0.002340 -0.000660 2.107090 
# 
# From -- ./inp_files/312016.got.cif
#   From: 2010.05.17/outbox.cif.g08.bks.cpg/sg2_157_cif.got.tgz:312016.got - 2010.06.03 11:33:40.
