data_PCOD9071910
_publ_section_title
;
Structure prediction by ZEFSAII (Michael W. Deem and Ramdas Pophale) SiO2 
 PCOD9071910
Probable space group: P -1
;
_chemical_formula_sum "Si O2"
_cell_formula_units_Z 16
_cell_length_a 29.463081
_cell_length_b 15.556610
_cell_length_c 5.452316
_cell_angle_alpha 67.590800
_cell_angle_beta 70.056925
_cell_angle_gamma 21.200350
_cell_volume 834.717013
_symmetry_space_group_name_H-M "P -1"
_symmetry_group_IT_number 2
_symmetry_cell_setting 'triclinic'
loop_
_space_group_symop_operation_xyz
x,y,z
-x,-y,-z
loop_
_atom_site_type_symbol
_atom_site_label
_atom_site_fract_x
_atom_site_fract_y
_atom_site_fract_z
Si Si1 0.541034 0.044036 0.660281
Si Si2 0.080951 0.298320 0.766295
Si Si3 0.058180 0.969841 0.734023
Si Si4 0.025883 0.216591 0.734001
Si Si5 0.229346 0.354854 0.996995
Si Si6 0.802791 0.405503 0.472336
Si Si7 0.131282 0.385119 0.801607
Si Si8 0.418619 0.247576 0.164880
O O1 0.494380 0.157873 0.353251
O O2 0.679514 0.823352 0.746288
O O3 0.545593 0.924429 0.748591
O O4 0.451048 0.230068 0.855387
O O5 0.116325 0.136444 0.759686
O O6 0.174752 0.210164 0.791600
O O7 0.000000 0.500000 0.500000
O O8 0.980641 0.446331 0.993977
O O9 0.163234 0.733879 0.634205
O O10 0.095207 0.001670 0.748668
O O11 0.936051 0.207196 0.533738
O O12 0.000000 0.000000 0.000000
O O13 0.916022 0.377773 0.945358
O O14 0.939580 0.421386 0.467588
O O15 0.265312 0.386897 0.760320
O O16 0.230654 0.266710 0.903103
O O17 0.722949 0.507290 0.734991
#
# Coordination Sequence:
#
# PCOD9071910 Si02
#       8
#     2   2   2   2   2   2   2   2
#     4  10  21  33  53  72  95 132 176 212 266 313
#     4   8  16  29  46  68  92 131 161 198 256 310
#     4  11  22  33  46  70  98 140 183 212 243 293
#     4  10  18  30  48  67 100 136 169 208 249 297
#     4  11  19  29  48  71  98 134 166 212 256 305
#     4  11  22  32  47  65  99 138 177 215 250 292
#     4   9  17  29  46  69  99 127 160 206 255 307
#     4  10  21  36  49  70  97 134 174 220 258 303
#
# _framework density 19.168172999999999
#
# number of rings (size 3 to 8) (size 9 to 14) (size 15 to 20)
#    0.000    2.000    2.500    3.000    3.500    0.000 
#    0.000    0.000    0.000    0.000    0.000    0.000 
#    0.000    2.000    0.000    2.000    0.000    0.000 
#
# Total GULP energy -89149.889278 kJ/mol
# GULP energy per Si atom -5571.868080 kJ/mol
# Density = 1.912455 g / cm^3
# Si number density = 19.168173 Si / 1000 Ang^3
#
#
#
# Elastic Constant Matrix: (Units=GPa)
#
#
# Indices 1 2 3 4 5 6 
#
# 1 150.0697 41.5345 21.0996 -2.1807 23.3199 30.9586
# 2 41.5345 54.2391 18.8417 19.3018 3.0940 4.7061
# 3 21.0996 18.8417 88.0534 14.5018 7.6571 7.0841
# 4 -2.1807 19.3018 14.5018 27.9569 -1.2759 8.9340
# 5 23.3199 3.0940 7.6571 -1.2759 31.6933 -2.9600
# 6 30.9586 4.7061 7.0841 8.9340 -2.9600 29.8711
#
#
#
# Elastic Compliance Matrix: (Units=1/GPa)
#
#
# Indices 1 2 3 4 5 6 
#
# 1 0.020861 -0.021255 -0.001111 0.024801 -0.014516 -0.026864
# 2 -0.021255 0.046934 -0.001434 -0.041939 0.012400 0.028747
# 3 -0.001111 -0.001434 0.013144 -0.005963 -0.002477 -0.000201
# 4 0.024801 -0.041939 -0.005963 0.083163 -0.013465 -0.043889
# 5 -0.014516 0.012400 -0.002477 -0.013465 0.043132 0.021980
# 6 -0.026864 0.028747 -0.000201 -0.043889 0.021980 0.072142
#
#
# Mechanical properties :
#
#
# Convention : Reuss Voigt Hill
#
# Bulk Modulus (GPa) = 29.99602 50.59043 40.29322
# Shear Modulus (GPa) = 14.78899 31.96334 23.37617
#
# Velocity S-wave (km/s) = 2.78067 4.08796 3.49597
# Velocity P-wave (km/s) = 5.09827 6.98084 6.11247
#
# Compressibility (1/GPa) = 0.03333776
#
# Stress axis : x y z
#
# Youngs Moduli (GPa) = 47.93743 21.30635 76.08288
#
# Poissons Ratio (x) = 0.45287 0.08456
# Poissons Ratio (y) = 1.01891 0.10910
# Poissons Ratio (z) = 0.05328 0.03055
#
# Static dielectric constant tensor:
#      x y z
#    x 1.747760 -0.007690 0.041560 
#    y -0.007690 1.684730 0.035160 
#    z 0.041560 0.035160 1.831690 
# 
# From -- ./inp_files/128639.got.cif
#   From: 2010.05.17/outbox.cif.g08.bks.cpg/sg2_65_cif.got.tgz:128639.got - 2010.06.03 11:33:40.
