data_PCOD9071146
_publ_section_title
;
Structure prediction by ZEFSAII (Michael W. Deem and Ramdas Pophale) SiO2 
 PCOD9071146
Probable space group: P -1
;
_chemical_formula_sum "Si O2"
_cell_formula_units_Z 10
_cell_length_a 10.213130
_cell_length_b 10.966762
_cell_length_c 9.676684
_cell_angle_alpha 127.307696
_cell_angle_beta 106.688129
_cell_angle_gamma 31.283827
_cell_volume 371.235859
_symmetry_space_group_name_H-M "P -1"
_symmetry_group_IT_number 2
_symmetry_cell_setting 'triclinic'
loop_
_space_group_symop_operation_xyz
x,y,z
-x,-y,-z
loop_
_atom_site_type_symbol
_atom_site_label
_atom_site_fract_x
_atom_site_fract_y
_atom_site_fract_z
Si Si1 0.136616 0.235252 0.462424
Si Si2 0.677851 0.463120 0.095088
Si Si3 0.182351 0.379386 0.104322
Si Si4 0.988002 0.867743 0.299426
Si Si5 0.358485 0.516996 0.579318
O O1 0.061926 0.388636 0.688891
O O2 0.917580 0.304836 0.438458
O O3 0.000000 0.500000 0.500000
O O4 0.469257 0.825434 0.267331
O O5 0.717315 0.382369 0.212866
O O6 0.500000 0.500000 0.000000
O O7 0.968350 0.168536 0.878380
O O8 0.248995 0.491025 0.166939
O O9 0.000000 0.500000 0.000000
O O10 0.500000 0.000000 0.000000
O O11 0.000000 0.000000 0.500000
O O12 0.667566 0.108752 0.399558
O O13 0.500000 0.500000 0.500000
#
# Coordination Sequence:
#
# PCOD9071146 Si02
#       5
#     2   2   2   2   2
#     4  12  29  52  78 121 169 218 283 358 428 514
#     4  12  26  49  82 118 161 216 287 352 422 510
#     4  12  27  50  80 116 167 226 276 346 434 516
#     4  12  25  51  80 120 165 213 285 353 423 506
#     4  12  27  50  83 117 169 217 285 347 433 505
#
# _framework density 26.937052000000001
#
# number of rings (size 3 to 8) (size 9 to 14) (size 15 to 20)
#    0.000    0.000    4.000    4.800    2.800    4.000 
#    0.000    0.000    0.000    0.000    0.000    0.000 
#    0.000    0.000    0.000    0.000    0.000    0.000 
#
# Total GULP energy -55847.764126 kJ/mol
# GULP energy per Si atom -5584.776413 kJ/mol
# Density = 2.687574 g / cm^3
# Si number density = 26.937052 Si / 1000 Ang^3
#
#
#
# Elastic Constant Matrix: (Units=GPa)
#
#
# Indices 1 2 3 4 5 6 
#
# 1 113.6535 64.9227 67.2756 -8.6437 -6.0468 14.0239
# 2 64.9227 171.2546 109.3294 -25.7949 8.3855 27.3461
# 3 67.2756 109.3294 260.9483 -21.9224 -28.4020 12.8363
# 4 -8.6437 -25.7949 -21.9224 68.5943 7.2766 -5.2514
# 5 -6.0468 8.3855 -28.4020 7.2766 55.6263 0.5441
# 6 14.0239 27.3461 12.8363 -5.2514 0.5441 76.1224
#
#
#
# Elastic Compliance Matrix: (Units=1/GPa)
#
#
# Indices 1 2 3 4 5 6 
#
# 1 0.011798 -0.003589 -0.001418 -0.000493 0.001171 -0.000687
# 2 -0.003589 0.010426 -0.003559 0.002591 -0.004096 -0.002276
# 3 -0.001418 -0.003559 0.006048 0.000088 0.003454 0.000501
# 4 -0.000493 0.002591 0.000088 0.015800 -0.002469 0.000253
# 5 0.001171 -0.004096 0.003454 -0.002469 0.020805 0.000354
# 6 -0.000687 -0.002276 0.000501 0.000253 0.000354 0.014011
#
#
# Mechanical properties :
#
#
# Convention : Reuss Voigt Hill
#
# Bulk Modulus (GPa) = 89.77336 114.32353 102.04845
# Shear Modulus (GPa) = 50.13340 60.35720 55.24530
#
# Velocity S-wave (km/s) = 4.31876 4.73871 4.53360
# Velocity P-wave (km/s) = 7.63337 8.51315 8.08524
#
# Compressibility (1/GPa) = 0.01113916
#
# Stress axis : x y z
#
# Youngs Moduli (GPa) = 84.76062 95.91052 165.35542
#
# Poissons Ratio (x) = 0.34423 0.23449
# Poissons Ratio (y) = 0.30421 0.58853
# Poissons Ratio (z) = 0.12020 0.34136
#
# Static dielectric constant tensor:
#      x y z
#    x 2.461400 0.164320 0.000830 
#    y 0.164320 2.621960 0.112210 
#    z 0.000830 0.112210 2.267170 
# 
# From -- ./inp_files/263503.got.cif
#   From: 2010.05.17/outbox.cif.g08.bks.cpg/sg2_132_cif.got.tgz:263503.got - 2010.06.03 11:33:40.
