data_PCOD9071432
_publ_section_title
;
Structure prediction by ZEFSAII (Michael W. Deem and Ramdas Pophale) SiO2 
 PCOD9071432
Probable space group: P -1
;
_chemical_formula_sum "Si O2"
_cell_formula_units_Z 12
_cell_length_a 9.447953
_cell_length_b 5.034508
_cell_length_c 11.691595
_cell_angle_alpha 64.554665
_cell_angle_beta 86.299962
_cell_angle_gamma 78.282361
_cell_volume 491.546374
_symmetry_space_group_name_H-M "P -1"
_symmetry_group_IT_number 2
_symmetry_cell_setting 'triclinic'
loop_
_space_group_symop_operation_xyz
x,y,z
-x,-y,-z
loop_
_atom_site_type_symbol
_atom_site_label
_atom_site_fract_x
_atom_site_fract_y
_atom_site_fract_z
Si Si1 0.508697 0.386253 0.150618
Si Si2 0.227266 0.127010 0.255133
Si Si3 0.897415 0.795268 0.995116
Si Si4 0.321338 0.253379 0.782666
Si Si5 0.672987 0.490908 0.501161
Si Si6 0.087723 0.268807 0.447243
O O1 0.362740 0.287428 0.212540
O O2 0.542582 0.642271 0.184445
O O3 0.632543 0.085054 0.203782
O O4 0.500000 0.500000 0.000000
O O5 0.186871 0.069248 0.138588
O O6 0.102646 0.334084 0.299323
O O7 0.264185 0.814701 0.379285
O O8 0.791425 0.735148 0.111804
O O9 0.000000 0.500000 0.000000
O O10 0.000000 0.000000 0.000000
O O11 0.276891 0.475180 0.638170
O O12 0.500000 0.500000 0.500000
O O13 0.744815 0.744664 0.515508
O O14 0.000000 0.500000 0.500000
O O15 0.000000 0.000000 0.500000
#
# Coordination Sequence:
#
# PCOD9071432 Si02
#       6
#     2   2   2   2   2   2
#     4  12  26  49  81 116 158 204 266 334 412 470
#     4  12  29  51  86 114 167 209 272 342 414 480
#     4  12  31  51  78 115 160 215 275 325 399 493
#     4  12  28  48  80 119 160 202 267 338 401 490
#     4  12  28  52  84 126 163 211 275 341 413 487
#     4  12  29  51  79 117 167 217 269 328 414 487
#
# _framework density 24.412755000000001
#
# number of rings (size 3 to 8) (size 9 to 14) (size 15 to 20)
#    0.000    0.000    5.000    2.500    9.333    1.333 
#    0.000    0.000    0.000    0.000    0.000    0.000 
#    0.000    0.000    0.000    0.000    0.000    0.000 
#
# Total GULP energy -67197.007991 kJ/mol
# GULP energy per Si atom -5599.750666 kJ/mol
# Density = 2.435719 g / cm^3
# Si number density = 24.412755 Si / 1000 Ang^3
#
#
#
# Elastic Constant Matrix: (Units=GPa)
#
#
# Indices 1 2 3 4 5 6 
#
# 1 163.7859 49.1682 70.4102 7.7436 -25.6973 29.6534
# 2 49.1682 117.0399 35.4092 5.0742 -13.0715 16.7106
# 3 70.4102 35.4092 224.8303 4.5952 -27.9709 3.2311
# 4 7.7436 5.0742 4.5952 45.6912 -4.6714 3.0783
# 5 -25.6973 -13.0715 -27.9709 -4.6714 54.9556 8.8656
# 6 29.6534 16.7106 3.2311 3.0783 8.8656 56.7349
#
#
#
# Elastic Compliance Matrix: (Units=1/GPa)
#
#
# Indices 1 2 3 4 5 6 
#
# 1 0.008944 -0.002134 -0.001976 -0.000439 0.003347 -0.004433
# 2 -0.002134 0.010112 -0.000722 -0.000418 0.001328 -0.002007
# 3 -0.001976 -0.000722 0.005359 -0.000016 0.001517 0.000704
# 4 -0.000439 -0.000418 -0.000016 0.022265 0.001762 -0.001130
# 5 0.003347 0.001328 0.001517 0.001762 0.021927 -0.005749
# 6 -0.004433 -0.002007 0.000704 -0.001130 -0.005749 0.021453
#
#
# Mechanical properties :
#
#
# Convention : Reuss Voigt Hill
#
# Bulk Modulus (GPa) = 67.78606 90.62568 79.20587
# Shear Modulus (GPa) = 47.78286 54.85423 51.31855
#
# Velocity S-wave (km/s) = 4.42893 4.74534 4.58986
# Velocity P-wave (km/s) = 7.34716 8.19922 7.78486
#
# Compressibility (1/GPa) = 0.01475230
#
# Stress axis : x y z
#
# Youngs Moduli (GPa) = 111.80772 98.89402 186.59482
#
# Poissons Ratio (x) = 0.21102 0.36869
# Poissons Ratio (y) = 0.23858 0.13466
# Poissons Ratio (z) = 0.22092 0.07137
#
# Static dielectric constant tensor:
#      x y z
#    x 1.993570 -0.061430 0.038030 
#    y -0.061430 2.011290 -0.034850 
#    z 0.038030 -0.034850 1.954020 
# 
# From -- ./inp_files/371684.got.cif
#   From: 2010.05.17/outbox.cif.g08.bks.cpg/sg2_186_cif.got.tgz:371684.got - 2010.06.03 11:33:40.
