data_PCOD9071615
_publ_section_title
;
Structure prediction by ZEFSAII (Michael W. Deem and Ramdas Pophale) SiO2 
 PCOD9071615
Probable space group: P -1
;
_chemical_formula_sum "Si O2"
_cell_formula_units_Z 10
_cell_length_a 6.544951
_cell_length_b 7.349527
_cell_length_c 7.577646
_cell_angle_alpha 92.602387
_cell_angle_beta 91.354858
_cell_angle_gamma 104.431085
_cell_volume 352.407043
_symmetry_space_group_name_H-M "P -1"
_symmetry_group_IT_number 2
_symmetry_cell_setting 'triclinic'
loop_
_space_group_symop_operation_xyz
x,y,z
-x,-y,-z
loop_
_atom_site_type_symbol
_atom_site_label
_atom_site_fract_x
_atom_site_fract_y
_atom_site_fract_z
Si Si1 0.821783 0.567938 0.883843
Si Si2 0.409819 0.457091 0.691772
Si Si3 0.181259 0.757852 0.680025
Si Si4 0.729445 0.965975 0.993231
Si Si5 0.036966 0.850779 0.348131
O O1 0.596860 0.430896 0.823197
O O2 0.948442 0.628548 0.707811
O O3 0.000000 0.500000 0.000000
O O4 0.766294 0.758186 0.962489
O O5 0.500000 0.500000 0.500000
O O6 0.347493 0.649650 0.752171
O O7 0.187802 0.301429 0.679792
O O8 0.205467 0.779747 0.472789
O O9 0.187992 0.937067 0.812611
O O10 0.845648 0.079568 0.829488
O O11 0.500000 0.000000 0.000000
O O12 0.000000 0.000000 0.500000
#
# Coordination Sequence:
#
# PCOD9071615 Si02
#       5
#     2   2   2   2   2
#     4  12  29  57  88 134 186 243 304 386 461 552
#     4  12  27  56  89 134 182 244 308 382 464 550
#     4  12  28  54  91 133 184 236 317 377 465 548
#     4  12  28  60  91 136 188 245 310 379 465 553
#     4  12  28  55  94 133 186 241 311 387 457 557
#
# _framework density 28.376279
#
# number of rings (size 3 to 8) (size 9 to 14) (size 15 to 20)
#    0.000    0.000    6.000    1.200    2.800    1.600 
#    7.200    1.000    0.000    0.000    0.000    0.000 
#    0.000    0.000    0.000    0.000    0.000    0.000 
#
# Total GULP energy -55997.332702 kJ/mol
# GULP energy per Si atom -5599.733270 kJ/mol
# Density = 2.831169 g / cm^3
# Si number density = 28.376279 Si / 1000 Ang^3
#
#
#
# Elastic Constant Matrix: (Units=GPa)
#
#
# Indices 1 2 3 4 5 6 
#
# 1 241.1921 86.6539 92.6403 9.6135 13.4310 -10.8103
# 2 86.6539 147.8546 93.4425 20.1002 -2.3887 -21.1588
# 3 92.6403 93.4425 238.8004 -14.4673 2.5596 14.6444
# 4 9.6135 20.1002 -14.4673 56.4183 -3.0343 -18.4294
# 5 13.4310 -2.3887 2.5596 -3.0343 76.1154 7.4603
# 6 -10.8103 -21.1588 14.6444 -18.4294 7.4603 54.1345
#
#
#
# Elastic Compliance Matrix: (Units=1/GPa)
#
#
# Indices 1 2 3 4 5 6 
#
# 1 0.005585 -0.002348 -0.001291 -0.000312 -0.001086 0.000591
# 2 -0.002348 0.011860 -0.004198 -0.003563 0.000390 0.004036
# 3 -0.001291 -0.004198 0.006656 0.002494 0.000255 -0.002885
# 4 -0.000312 -0.003563 0.002494 0.021369 0.000210 0.005117
# 5 -0.001086 0.000390 0.000255 0.000210 0.013530 -0.001927
# 6 0.000591 0.004036 -0.002885 0.005117 -0.001927 0.022956
#
#
# Mechanical properties :
#
#
# Convention : Reuss Voigt Hill
#
# Bulk Modulus (GPa) = 118.65022 130.36895 124.50958
# Shear Modulus (GPa) = 49.78075 61.00766 55.39420
#
# Velocity S-wave (km/s) = 4.19299 4.64179 4.42309
# Velocity P-wave (km/s) = 8.08366 8.64702 8.37008
#
# Compressibility (1/GPa) = 0.00842813
#
# Stress axis : x y z
#
# Youngs Moduli (GPa) = 179.05309 84.31422 150.22957
#
# Poissons Ratio (x) = 0.19794 0.19402
# Poissons Ratio (y) = 0.42035 0.63063
# Poissons Ratio (z) = 0.23124 0.35393
#
# Static dielectric constant tensor:
#      x y z
#    x 2.301740 -0.151040 0.126130 
#    y -0.151040 2.437020 -0.085940 
#    z 0.126130 -0.085940 2.200330 
# 
# From -- ./inp_files/129134.got.cif
#   From: 2010.05.17/outbox.cif.g08.bks.cpg/sg2_65_cif.got.tgz:129134.got - 2010.06.03 11:33:40.
