data_PCOD9071564
_publ_section_title
;
Structure prediction by ZEFSAII (Michael W. Deem and Ramdas Pophale) SiO2 
 PCOD9071564
Probable space group: P -1
;
_chemical_formula_sum "Si O2"
_cell_formula_units_Z 15
_cell_length_a 6.653903
_cell_length_b 15.202313
_cell_length_c 15.012181
_cell_angle_alpha 150.795888
_cell_angle_beta 90.728858
_cell_angle_gamma 77.524548
_cell_volume 672.357913
_symmetry_space_group_name_H-M "P -1"
_symmetry_group_IT_number 2
_symmetry_cell_setting 'triclinic'
loop_
_space_group_symop_operation_xyz
x,y,z
-x,-y,-z
loop_
_atom_site_type_symbol
_atom_site_label
_atom_site_fract_x
_atom_site_fract_y
_atom_site_fract_z
Si Si1 0.486269 0.672162 0.720781
Si Si2 0.894940 0.820639 0.559051
Si Si3 0.162387 0.284445 0.346079
Si Si4 0.272332 0.408874 0.159798
Si Si5 0.000000 0.000000 0.000000
Si Si6 0.937365 0.849042 0.153952
Si Si7 0.416773 0.530189 0.924053
Si Si8 0.486907 0.915887 0.521410
O O1 0.500000 0.500000 0.500000
O O2 0.606224 0.783108 0.762728
O O3 0.620322 0.601885 0.751768
O O4 0.236970 0.813424 0.865661
O O5 0.082525 0.631102 0.344954
O O6 0.815678 0.728602 0.560007
O O7 0.684961 0.925025 0.587942
O O8 0.992045 0.978812 0.726331
O O9 0.000000 0.500000 0.500000
O O10 0.048395 0.144631 0.195285
O O11 0.449164 0.379348 0.056948
O O12 0.165783 0.249964 0.006949
O O13 0.746775 0.955592 0.319857
O O14 0.156483 0.673630 0.041003
O O15 0.467779 0.314182 0.692400
O O16 0.500000 0.500000 0.000000
O O17 0.500000 0.000000 0.500000
#
# Coordination Sequence:
#
# PCOD9071564 Si02
#       8
#     2   2   2   2   1   2   2   2
#     4  12  28  52  78 113 156 201 263 322 381 464
#     4  12  27  49  80 111 156 208 254 320 393 456
#     4  12  27  49  75 113 152 201 260 316 381 459
#     4  12  27  50  80 114 154 206 259 319 389 462
#     4  12  28  48  78 104 150 204 250 314 390 446
#     4  12  28  50  78 113 159 201 257 323 386 460
#     4  12  28  50  80 116 156 205 258 315 392 468
#     4  12  28  49  80 118 154 201 262 321 388 466
#
# _framework density 22.309546000000001
#
# number of rings (size 3 to 8) (size 9 to 14) (size 15 to 20)
#    0.000    0.000    5.333    2.800    9.333    3.200 
#    0.000    0.000    0.000    0.000    0.000    0.000 
#    0.000    0.000    0.000    0.000    0.000    0.000 
#
# Total GULP energy -83730.679541 kJ/mol
# GULP energy per Si atom -5582.045303 kJ/mol
# Density = 2.225877 g / cm^3
# Si number density = 22.309546 Si / 1000 Ang^3
#
#
#
# Elastic Constant Matrix: (Units=GPa)
#
#
# Indices 1 2 3 4 5 6 
#
# 1 105.9488 66.3403 43.6017 -5.8924 -7.2679 -11.5523
# 2 66.3403 131.0426 45.6347 -16.3392 -2.8500 -3.4172
# 3 43.6017 45.6347 161.1774 9.5870 -6.9754 -15.7111
# 4 -5.8924 -16.3392 9.5870 30.5455 -9.8431 -1.0740
# 5 -7.2679 -2.8500 -6.9754 -9.8431 44.3725 4.6507
# 6 -11.5523 -3.4172 -15.7111 -1.0740 4.6507 31.4557
#
#
#
# Elastic Compliance Matrix: (Units=1/GPa)
#
#
# Indices 1 2 3 4 5 6 
#
# 1 0.014908 -0.006774 -0.001717 0.000383 0.001436 0.003683
# 2 -0.006774 0.012623 -0.002293 0.006407 0.000992 -0.002190
# 3 -0.001717 -0.002293 0.007829 -0.004041 -0.000404 0.002952
# 4 0.000383 0.006407 -0.004041 0.040338 0.008905 -0.001121
# 5 0.001436 0.000992 -0.000404 0.008905 0.025058 -0.002967
# 6 0.003683 -0.002190 0.002952 -0.001121 -0.002967 0.034780
#
#
# Mechanical properties :
#
#
# Convention : Reuss Voigt Hill
#
# Bulk Modulus (GPa) = 72.50867 78.81360 75.66113
# Shear Modulus (GPa) = 30.92139 37.44753 34.18446
#
# Velocity S-wave (km/s) = 3.72696 4.10145 3.91868
# Velocity P-wave (km/s) = 7.14787 7.60481 7.37988
#
# Compressibility (1/GPa) = 0.01379145
#
# Stress axis : x y z
#
# Youngs Moduli (GPa) = 67.07751 79.22345 127.73716
#
# Poissons Ratio (x) = 0.53670 0.21927
# Poissons Ratio (y) = 0.45441 0.29289
# Poissons Ratio (z) = 0.11514 0.18165
#
# Static dielectric constant tensor:
#      x y z
#    x 1.855720 0.031620 0.009100 
#    y 0.031620 1.805350 0.003570 
#    z 0.009100 0.003570 1.841130 
# 
# From -- ./inp_files/484648.got.cif
#   From: 2010.05.17/outbox.cif.g08.bks.cpg/sg2_243_cif.got.tgz:484648.got - 2010.06.03 11:33:40.
