data_PCOD9071829
_publ_section_title
;
Structure prediction by ZEFSAII (Michael W. Deem and Ramdas Pophale) SiO2 
 PCOD9071829
Probable space group: P -1
;
_chemical_formula_sum "Si O2"
_cell_formula_units_Z 14
_cell_length_a 11.658555
_cell_length_b 9.488152
_cell_length_c 9.962455
_cell_angle_alpha 66.504899
_cell_angle_beta 85.706645
_cell_angle_gamma 37.572701
_cell_volume 556.042882
_symmetry_space_group_name_H-M "P -1"
_symmetry_group_IT_number 2
_symmetry_cell_setting 'triclinic'
loop_
_space_group_symop_operation_xyz
x,y,z
-x,-y,-z
loop_
_atom_site_type_symbol
_atom_site_label
_atom_site_fract_x
_atom_site_fract_y
_atom_site_fract_z
Si Si1 0.703575 0.344905 0.610784
Si Si2 0.307676 0.912860 0.844537
Si Si3 0.899393 0.273907 0.266795
Si Si4 0.861142 0.442065 0.694144
Si Si5 0.428076 0.783713 0.178143
Si Si6 0.249883 0.625863 0.042635
Si Si7 0.860250 0.706389 0.804204
O O1 0.500000 0.500000 0.500000
O O2 0.712579 0.515706 0.577263
O O3 0.683454 0.257947 0.778539
O O4 0.920315 0.056250 0.629514
O O5 0.515921 0.696057 0.821901
O O6 0.361305 0.918241 0.985969
O O7 0.280150 0.760698 0.926621
O O8 0.088829 0.221416 0.696186
O O9 0.677957 0.489112 0.273223
O O10 0.011633 0.306020 0.283548
O O11 0.835548 0.368838 0.081024
O O12 0.896044 0.263887 0.866355
O O13 0.800810 0.646118 0.721499
O O14 0.336211 0.994329 0.220761
O O15 0.000000 0.500000 0.000000
#
# Coordination Sequence:
#
# PCOD9071829 Si02
#       7
#     2   2   2   2   2   2   2
#     4  11  24  40  60  80 103 149 203 240 270 307
#     4  10  18  29  53  85 113 141 172 222 289 337
#     4  10  21  38  57  82 118 148 179 226 279 337
#     4  12  20  34  54  83 119 140 178 232 271 330
#     4  10  21  38  57  82 118 148 179 226 279 337
#     4  10  18  29  53  85 113 141 172 222 289 337
#     4  11  21  33  54  90 122 149 171 210 287 351
#
# _framework density 25.177913
#
# number of rings (size 3 to 8) (size 9 to 14) (size 15 to 20)
#    0.000    1.429    5.714    1.286    0.000    2.286 
#    0.000    2.857    0.000    1.714    0.000    0.000 
#    0.000    0.000    0.000    0.000    0.000    0.000 
#
# Total GULP energy -78132.084662 kJ/mol
# GULP energy per Si atom -5580.863190 kJ/mol
# Density = 2.512061 g / cm^3
# Si number density = 25.177913 Si / 1000 Ang^3
#
#
#
# Elastic Constant Matrix: (Units=GPa)
#
#
# Indices 1 2 3 4 5 6 
#
# 1 131.3416 84.9344 9.0673 1.0381 39.8200 12.5504
# 2 84.9344 146.2947 12.1519 -12.7145 34.7412 -15.8165
# 3 9.0673 12.1519 45.9116 -4.2541 27.8165 -0.7149
# 4 1.0381 -12.7145 -4.2541 17.7154 -2.6099 9.9944
# 5 39.8200 34.7412 27.8165 -2.6099 36.1748 5.6802
# 6 12.5504 -15.8165 -0.7149 9.9944 5.6802 56.8701
#
#
#
# Elastic Compliance Matrix: (Units=1/GPa)
#
#
# Indices 1 2 3 4 5 6 
#
# 1 0.018375 -0.007216 0.010793 -0.005222 -0.021524 -0.002859
# 2 -0.007216 0.013914 0.003633 0.007153 -0.008498 0.005100
# 3 0.010793 0.003633 0.053683 0.004045 -0.057031 0.004289
# 4 -0.005222 0.007153 0.004045 0.068254 0.002108 -0.009013
# 5 -0.021524 -0.008498 -0.057031 0.002108 0.104945 -0.009183
# 6 -0.002859 0.005100 0.004289 -0.009013 -0.009183 0.022188
#
#
# Mechanical properties :
#
#
# Convention : Reuss Voigt Hill
#
# Bulk Modulus (GPa) = 9.96089 59.53946 34.75018
# Shear Modulus (GPa) = 16.64429 36.64501 26.64465
#
# Velocity S-wave (km/s) = 2.57391 3.81917 3.25661
# Velocity P-wave (km/s) = 3.57745 6.56863 5.28890
#
# Compressibility (1/GPa) = 0.10039259
#
# Stress axis : x y z
#
# Youngs Moduli (GPa) = 54.42160 71.86865 18.62798
#
# Poissons Ratio (x) = 0.51862 -0.20106
# Poissons Ratio (y) = 0.39271 -0.06768
# Poissons Ratio (z) = -0.58738 -0.26112
#
# Static dielectric constant tensor:
#      x y z
#    x 1.971500 0.048030 0.018250 
#    y 0.048030 2.024520 0.023450 
#    z 0.018250 0.023450 2.166450 
# 
# From -- ./inp_files/253412.got.cif
#   From: 2010.05.17/outbox.cif.g08.bks.cpg/sg2_127_cif.got.tgz:253412.got - 2010.06.03 11:33:40.
