data_PCOD9071163
_publ_section_title
;
Structure prediction by ZEFSAII (Michael W. Deem and Ramdas Pophale) SiO2 
 PCOD9071163
Probable space group: P -1
;
_chemical_formula_sum "Si O2"
_cell_formula_units_Z 14
_cell_length_a 6.823755
_cell_length_b 14.442685
_cell_length_c 7.260889
_cell_angle_alpha 120.736713
_cell_angle_beta 91.013586
_cell_angle_gamma 61.225330
_cell_volume 513.758483
_symmetry_space_group_name_H-M "P -1"
_symmetry_group_IT_number 2
_symmetry_cell_setting 'triclinic'
loop_
_space_group_symop_operation_xyz
x,y,z
-x,-y,-z
loop_
_atom_site_type_symbol
_atom_site_label
_atom_site_fract_x
_atom_site_fract_y
_atom_site_fract_z
Si Si1 0.695897 0.614126 0.726854
Si Si2 0.172382 0.827622 0.077617
Si Si3 0.554226 0.670471 0.376634
Si Si4 0.516192 0.114914 0.691014
Si Si5 0.746025 0.885087 0.961184
Si Si6 0.924145 0.385872 0.998604
Si Si7 0.104831 0.670474 0.464309
O O1 0.749305 0.470275 0.581765
O O2 0.430517 0.722807 0.892890
O O3 0.906582 0.777814 0.703208
O O4 0.897667 0.602335 0.852334
O O5 0.229749 0.921300 0.276893
O O6 0.123880 0.722805 0.052712
O O7 0.927655 0.921301 0.065702
O O8 0.537794 0.777812 0.352416
O O9 0.293620 0.706382 0.456382
O O10 0.688975 0.650058 0.549720
O O11 0.689854 0.529725 0.141211
O O12 0.344418 0.155576 0.905575
O O13 0.500000 0.000000 0.500000
O O14 0.500000 0.000000 0.000000
O O15 0.989090 0.349936 0.749602
#
# Coordination Sequence:
#
# PCOD9071163 Si02
#       7
#     2   2   2   2   2   2   2
#     4  12  26  48  94 145 184 232 296 384 477 552
#     4  12  26  56  88 130 182 228 304 380 466 544
#     4  12  25  57  93 135 190 240 297 382 469 548
#     4  12  32  60  89 125 180 252 317 375 450 542
#     4  12  32  60  89 125 180 252 317 375 450 542
#     4  12  26  48  94 145 184 232 296 384 477 552
#     4  12  25  57  93 135 190 240 297 382 469 548
#
# _framework density 27.250157999999999
#
# number of rings (size 3 to 8) (size 9 to 14) (size 15 to 20)
#    0.000    0.000    4.286    4.286    0.000    9.143 
#    2.571    7.143    0.000    0.000    0.000    0.000 
#    0.000    0.000    0.000    0.000    0.000    0.000 
#
# Total GULP energy -78390.861922 kJ/mol
# GULP energy per Si atom -5599.347280 kJ/mol
# Density = 2.718814 g / cm^3
# Si number density = 27.250158 Si / 1000 Ang^3
#
#
#
# Elastic Constant Matrix: (Units=GPa)
#
#
# Indices 1 2 3 4 5 6 
#
# 1 249.0442 119.1937 120.4221 -1.0254 18.4901 -15.5305
# 2 119.1937 128.2139 92.8993 -8.6247 4.6302 6.9299
# 3 120.4221 92.8993 138.6765 -22.2477 -3.9938 -4.9785
# 4 -1.0254 -8.6247 -22.2477 57.5618 -0.6948 -0.7905
# 5 18.4901 4.6302 -3.9938 -0.6948 66.2519 -0.7474
# 6 -15.5305 6.9299 -4.9785 -0.7905 -0.7474 65.2824
#
#
#
# Elastic Compliance Matrix: (Units=1/GPa)
#
#
# Indices 1 2 3 4 5 6 
#
# 1 0.009185 -0.005207 -0.004877 -0.002500 -0.002494 0.002307
# 2 -0.005207 0.018902 -0.008383 -0.000559 -0.000423 -0.003896
# 3 -0.004877 -0.008383 0.018111 0.005711 0.003112 0.001215
# 4 -0.002500 -0.000559 0.005711 0.019469 0.001287 0.000151
# 5 -0.002494 -0.000423 0.003112 0.001287 0.016019 -0.000112
# 6 0.002307 -0.003896 0.001215 0.000151 -0.000112 0.016374
#
#
# Mechanical properties :
#
#
# Convention : Reuss Voigt Hill
#
# Bulk Modulus (GPa) = 107.94530 131.21831 119.58181
# Shear Modulus (GPa) = 36.20993 50.04719 43.12856
#
# Velocity S-wave (km/s) = 3.64922 4.29019 3.98262
# Velocity P-wave (km/s) = 7.57987 8.53222 8.07010
#
# Compressibility (1/GPa) = 0.00926395
#
# Stress axis : x y z
#
# Youngs Moduli (GPa) = 108.87609 52.90311 55.21392
#
# Poissons Ratio (x) = 0.27549 0.26930
# Poissons Ratio (y) = 0.56696 0.46283
# Poissons Ratio (z) = 0.53103 0.44346
#
# Static dielectric constant tensor:
#      x y z
#    x 2.903950 -0.042740 0.061850 
#    y -0.042740 2.265040 -0.021660 
#    z 0.061850 -0.021660 2.274250 
# 
# From -- ./inp_files/366382.got.cif
#   From: 2010.05.17/outbox.cif.g08.bks.cpg/sg2_184_cif.got.tgz:366382.got - 2010.06.03 11:33:40.
