data_PCOD9071418
_publ_section_title
;
Structure prediction by ZEFSAII (Michael W. Deem and Ramdas Pophale) SiO2 
 PCOD9071418
Probable space group: P -1
;
_chemical_formula_sum "Si O2"
_cell_formula_units_Z 12
_cell_length_a 7.973854
_cell_length_b 7.106624
_cell_length_c 10.825982
_cell_angle_alpha 57.793813
_cell_angle_beta 69.999024
_cell_angle_gamma 59.824032
_cell_volume 446.431266
_symmetry_space_group_name_H-M "P -1"
_symmetry_group_IT_number 2
_symmetry_cell_setting 'triclinic'
loop_
_space_group_symop_operation_xyz
x,y,z
-x,-y,-z
loop_
_atom_site_type_symbol
_atom_site_label
_atom_site_fract_x
_atom_site_fract_y
_atom_site_fract_z
Si Si1 0.573191 0.712558 0.932927
Si Si2 0.163593 0.080097 0.873841
Si Si3 0.831848 0.777022 0.455700
Si Si4 0.822691 0.949722 0.670020
Si Si5 0.581932 0.484001 0.620483
Si Si6 0.185883 0.530282 0.823940
O O1 0.763600 0.583626 0.014382
O O2 0.500000 0.500000 0.000000
O O3 0.655595 0.845923 0.767101
O O4 0.367356 0.927020 0.946829
O O5 0.187776 0.077300 0.719501
O O6 0.122752 0.355298 0.817477
O O7 0.000000 0.000000 0.000000
O O8 0.857241 0.912747 0.525767
O O9 0.649327 0.701299 0.545640
O O10 0.000000 0.500000 0.500000
O O11 0.014205 0.783873 0.753895
O O12 0.748700 0.211231 0.665761
O O13 0.500000 0.500000 0.500000
O O14 0.400518 0.511509 0.740918
#
# Coordination Sequence:
#
# PCOD9071418 Si02
#       6
#     2   2   2   2   2   2
#     4  12  27  48  79 117 163 213 269 332 405 488
#     4  12  27  51  79 113 163 215 261 334 405 474
#     4  12  27  51  82 119 162 207 273 334 404 480
#     4  12  27  51  82 121 160 212 272 333 409 477
#     4  12  26  49  79 116 163 209 269 335 400 478
#     4  12  26  52  76 121 162 210 270 329 407 482
#
# _framework density 26.879836999999998
#
# number of rings (size 3 to 8) (size 9 to 14) (size 15 to 20)
#    0.000    0.000    5.000    3.000    2.333    8.000 
#    0.000    0.000    0.000    0.000    0.000    0.000 
#    0.000    0.000    0.000    0.000    0.000    0.000 
#
# Total GULP energy -67199.348686 kJ/mol
# GULP energy per Si atom -5599.945724 kJ/mol
# Density = 2.681866 g / cm^3
# Si number density = 26.879837 Si / 1000 Ang^3
#
#
#
# Elastic Constant Matrix: (Units=GPa)
#
#
# Indices 1 2 3 4 5 6 
#
# 1 160.8574 58.9739 72.8438 -1.4897 -9.9380 13.7011
# 2 58.9739 144.9565 41.3032 -23.4854 -4.0238 -25.6552
# 3 72.8438 41.3032 151.9438 3.2458 -21.2649 -5.5194
# 4 -1.4897 -23.4854 3.2458 40.6081 -3.8609 5.0050
# 5 -9.9380 -4.0238 -21.2649 -3.8609 62.3934 -14.5080
# 6 13.7011 -25.6552 -5.5194 5.0050 -14.5080 66.4162
#
#
#
# Elastic Compliance Matrix: (Units=1/GPa)
#
#
# Indices 1 2 3 4 5 6 
#
# 1 0.009560 -0.003681 -0.003837 -0.001091 -0.000984 -0.003846
# 2 -0.003681 0.010358 -0.000836 0.005476 0.001191 0.004538
# 3 -0.003837 -0.000836 0.009142 -0.001327 0.002821 0.001944
# 4 -0.001091 0.005476 -0.001327 0.027950 0.001565 0.000466
# 5 -0.000984 0.001191 0.002821 0.001565 0.018107 0.004735
# 6 -0.003846 0.004538 0.001944 0.000466 0.004735 0.018764
#
#
# Mechanical properties :
#
#
# Convention : Reuss Voigt Hill
#
# Bulk Modulus (GPa) = 80.95984 89.33328 85.14656
# Shear Modulus (GPa) = 43.58950 52.85932 48.22441
#
# Velocity S-wave (km/s) = 4.03133 4.43934 4.24025
# Velocity P-wave (km/s) = 7.20093 7.71903 7.46448
#
# Compressibility (1/GPa) = 0.01235180
#
# Stress axis : x y z
#
# Youngs Moduli (GPa) = 104.59802 96.54342 109.38633
#
# Poissons Ratio (x) = 0.35538 0.41970
# Poissons Ratio (y) = 0.38503 0.09149
# Poissons Ratio (z) = 0.40133 0.08075
#
# Static dielectric constant tensor:
#      x y z
#    x 2.212110 -0.031020 0.069030 
#    y -0.031020 2.340950 -0.216160 
#    z 0.069030 -0.216160 2.315250 
# 
# From -- ./inp_files/377559.got.cif
#   From: 2010.05.17/outbox.cif.g08.bks.cpg/sg2_189_cif.got.tgz:377559.got - 2010.06.03 11:33:40.
