data_PCOD9071413
_publ_section_title
;
Structure prediction by ZEFSAII (Michael W. Deem and Ramdas Pophale) SiO2 
 PCOD9071413
Probable space group: P -1
;
_chemical_formula_sum "Si O2"
_cell_formula_units_Z 10
_cell_length_a 4.936272
_cell_length_b 10.359152
_cell_length_c 9.267460
_cell_angle_alpha 94.328349
_cell_angle_beta 104.386914
_cell_angle_gamma 123.636329
_cell_volume 368.594954
_symmetry_space_group_name_H-M "P -1"
_symmetry_group_IT_number 2
_symmetry_cell_setting 'triclinic'
loop_
_space_group_symop_operation_xyz
x,y,z
-x,-y,-z
loop_
_atom_site_type_symbol
_atom_site_label
_atom_site_fract_x
_atom_site_fract_y
_atom_site_fract_z
Si Si1 0.701053 0.697009 0.794409
Si Si2 0.007233 0.631328 0.606250
Si Si3 0.177174 0.042604 0.869048
Si Si4 0.067692 0.664775 0.074394
Si Si5 0.856116 0.162102 0.618867
O O1 0.383257 0.707043 0.735860
O O2 0.716341 0.574795 0.684494
O O3 0.043121 0.864428 0.793914
O O4 0.757180 0.663421 0.961563
O O5 0.979796 0.739260 0.496530
O O6 0.000000 0.500000 0.500000
O O7 0.584141 0.178260 0.934847
O O8 0.033635 0.101131 0.734618
O O9 0.000000 0.000000 0.000000
O O10 0.128508 0.711909 0.255342
O O11 0.000000 0.500000 0.000000
O O12 0.500000 0.000000 0.500000
#
# Coordination Sequence:
#
# PCOD9071413 Si02
#       5
#     2   2   2   2   2
#     4  12  26  50  77 110 158 212 263 318 398 479
#     4  12  28  48  77 114 164 206 257 331 404 463
#     4  12  26  49  79 110 157 208 269 319 393 476
#     4  12  29  48  78 114 156 208 266 328 391 470
#     4  12  27  47  77 113 152 203 266 325 387 469
#
# _framework density 27.130051999999999
#
# number of rings (size 3 to 8) (size 9 to 14) (size 15 to 20)
#    0.000    0.000    4.000    4.800    5.600    2.400 
#    0.000    0.000    0.000    0.000    0.000    0.000 
#    0.000    0.000    0.000    0.000    0.000    0.000 
#
# Total GULP energy -55985.251820 kJ/mol
# GULP energy per Si atom -5598.525182 kJ/mol
# Density = 2.706830 g / cm^3
# Si number density = 27.130052 Si / 1000 Ang^3
#
#
#
# Elastic Constant Matrix: (Units=GPa)
#
#
# Indices 1 2 3 4 5 6 
#
# 1 126.2705 18.4749 59.4255 -13.7510 21.7033 -4.5088
# 2 18.4749 94.2977 40.9659 3.8342 26.4380 -3.7487
# 3 59.4255 40.9659 223.2650 -14.5723 -0.9713 0.8972
# 4 -13.7510 3.8342 -14.5723 62.5827 -11.8575 1.1897
# 5 21.7033 26.4380 -0.9713 -11.8575 60.8364 -8.0661
# 6 -4.5088 -3.7487 0.8972 1.1897 -8.0661 47.4277
#
#
#
# Elastic Compliance Matrix: (Units=1/GPa)
#
#
# Indices 1 2 3 4 5 6 
#
# 1 0.009812 0.000128 -0.002593 0.000898 -0.003370 0.000396
# 2 0.000128 0.013735 -0.002760 -0.002703 -0.006572 0.000100
# 3 -0.002593 -0.002760 0.005779 0.001416 0.002467 -0.000190
# 4 0.000898 -0.002703 0.001416 0.017484 0.004303 0.000138
# 5 -0.003370 -0.006572 0.002467 0.004303 0.021732 0.002702
# 6 0.000396 0.000100 -0.000190 0.000138 0.002702 0.021590
#
#
# Mechanical properties :
#
#
# Convention : Reuss Voigt Hill
#
# Bulk Modulus (GPa) = 52.97251 75.72951 64.35101
# Shear Modulus (GPa) = 46.78391 55.83381 51.30886
#
# Velocity S-wave (km/s) = 4.15713 4.54145 4.35353
# Velocity P-wave (km/s) = 6.52764 7.44807 7.00300
#
# Compressibility (1/GPa) = 0.01887772
#
# Stress axis : x y z
#
# Youngs Moduli (GPa) = 101.91407 72.80649 173.02906
#
# Poissons Ratio (x) = -0.00932 0.44862
# Poissons Ratio (y) = -0.01304 0.47750
# Poissons Ratio (z) = 0.26424 0.20092
#
# Static dielectric constant tensor:
#      x y z
#    x 2.176220 -0.073150 -0.051180 
#    y -0.073150 2.215090 0.205700 
#    z -0.051180 0.205700 2.316930 
# 
# From -- ./inp_files/129878.got.cif
#   From: 2010.05.17/outbox.cif.g08.bks.cpg/sg2_65_cif.got.tgz:129878.got - 2010.06.03 11:33:40.
