data_PCOD9071285
_publ_section_title
;
Structure prediction by ZEFSAII (Michael W. Deem and Ramdas Pophale) SiO2 
 PCOD9071285
Probable space group: P -1
;
_chemical_formula_sum "Si O2"
_cell_formula_units_Z 12
_cell_length_a 8.777769
_cell_length_b 14.071080
_cell_length_c 9.678075
_cell_angle_alpha 70.842490
_cell_angle_beta 106.813995
_cell_angle_gamma 45.462876
_cell_volume 512.130263
_symmetry_space_group_name_H-M "P -1"
_symmetry_group_IT_number 2
_symmetry_cell_setting 'triclinic'
loop_
_space_group_symop_operation_xyz
x,y,z
-x,-y,-z
loop_
_atom_site_type_symbol
_atom_site_label
_atom_site_fract_x
_atom_site_fract_y
_atom_site_fract_z
Si Si1 0.735941 0.920780 0.712580
Si Si2 0.764275 0.534653 0.957474
Si Si3 0.238924 0.864849 0.435414
Si Si4 0.336692 0.169951 0.771793
Si Si5 0.564217 0.572883 0.416326
Si Si6 0.440062 0.757992 0.048199
O O1 0.500000 0.000000 0.500000
O O2 0.829776 0.978261 0.654614
O O3 0.528272 0.052652 0.734527
O O4 0.042967 0.673928 0.932826
O O5 0.419082 0.733433 0.685927
O O6 0.679780 0.584300 0.073645
O O7 0.000000 0.500000 0.000000
O O8 0.494998 0.690981 0.463810
O O9 0.886072 0.014986 0.222622
O O10 0.387630 0.250630 0.814377
O O11 0.944226 0.366485 0.562805
O O12 0.500000 0.000000 0.000000
O O13 0.500000 0.500000 0.500000
O O14 0.343368 0.727235 0.151285
#
# Coordination Sequence:
#
# PCOD9071285 Si02
#       6
#     2   2   2   2   2   2
#     4  12  26  47  77 111 154 200 251 311 380 452
#     4  12  26  49  76 109 154 201 253 311 379 454
#     4  12  27  47  77 112 154 198 254 314 379 451
#     4  12  26  47  78 108 148 202 254 308 383 452
#     4  12  27  48  79 112 152 198 257 318 379 448
#     4  12  27  50  76 110 154 199 258 313 377 457
#
# _framework density 23.431538
#
# number of rings (size 3 to 8) (size 9 to 14) (size 15 to 20)
#    0.000    0.000    3.333    6.500    4.667    0.667 
#    6.000    0.000    0.000    0.000    0.000    0.000 
#    0.000    0.000    0.000    0.000    0.000    0.000 
#
# Total GULP energy -67291.695886 kJ/mol
# GULP energy per Si atom -5607.641324 kJ/mol
# Density = 2.337821 g / cm^3
# Si number density = 23.431538 Si / 1000 Ang^3
#
#
#
# Elastic Constant Matrix: (Units=GPa)
#
#
# Indices 1 2 3 4 5 6 
#
# 1 95.0999 43.3551 40.9433 1.3018 -18.1461 13.6401
# 2 43.3551 165.1108 32.3735 11.2640 -9.4492 0.4358
# 3 40.9433 32.3735 133.0872 3.0599 -4.2727 7.0801
# 4 1.3018 11.2640 3.0599 50.2747 3.2176 -8.5778
# 5 -18.1461 -9.4492 -4.2727 3.2176 35.9644 -4.5768
# 6 13.6401 0.4358 7.0801 -8.5778 -4.5768 35.3781
#
#
#
# Elastic Compliance Matrix: (Units=1/GPa)
#
#
# Indices 1 2 3 4 5 6 
#
# 1 0.015129 -0.002887 -0.003507 -0.000678 0.005948 -0.004491
# 2 -0.002887 0.007100 -0.000841 -0.001339 0.000548 0.000940
# 3 -0.003507 -0.000841 0.008804 -0.000295 -0.000994 -0.000600
# 4 -0.000678 -0.001339 -0.000295 0.021245 -0.001964 0.005234
# 5 0.005948 0.000548 -0.000994 -0.001964 0.031194 0.001458
# 6 -0.004491 0.000940 -0.000600 0.005234 0.001458 0.031564
#
#
# Mechanical properties :
#
#
# Convention : Reuss Voigt Hill
#
# Bulk Modulus (GPa) = 60.36819 69.62687 64.99753
# Shear Modulus (GPa) = 37.03026 42.76517 39.89771
#
# Velocity S-wave (km/s) = 3.97969 4.27677 4.13090
# Velocity P-wave (km/s) = 6.85104 7.35984 7.10999
#
# Compressibility (1/GPa) = 0.01656501
#
# Stress axis : x y z
#
# Youngs Moduli (GPa) = 66.09697 140.85306 113.58539
#
# Poissons Ratio (x) = 0.40658 0.39832
# Poissons Ratio (y) = 0.19079 0.09547
# Poissons Ratio (z) = 0.23179 0.11839
#
# Static dielectric constant tensor:
#      x y z
#    x 1.904630 0.001500 0.015800 
#    y 0.001500 1.837270 -0.007910 
#    z 0.015800 -0.007910 1.846890 
# 
# From -- ./inp_files/155854.got.cif
#   From: 2010.05.17/outbox.cif.g08.bks.cpg/sg2_78_cif.got.tgz:155854.got - 2010.06.03 11:33:40.
