data_PCOD9071449
_publ_section_title
;
Structure prediction by ZEFSAII (Michael W. Deem and Ramdas Pophale) SiO2 
 PCOD9071449
Probable space group: P -1
;
_chemical_formula_sum "Si O2"
_cell_formula_units_Z 16
_cell_length_a 11.493863
_cell_length_b 8.823370
_cell_length_c 18.017427
_cell_angle_alpha 148.541157
_cell_angle_beta 46.413115
_cell_angle_gamma 125.231151
_cell_volume 690.419705
_symmetry_space_group_name_H-M "P -1"
_symmetry_group_IT_number 2
_symmetry_cell_setting 'triclinic'
loop_
_space_group_symop_operation_xyz
x,y,z
-x,-y,-z
loop_
_atom_site_type_symbol
_atom_site_label
_atom_site_fract_x
_atom_site_fract_y
_atom_site_fract_z
Si Si1 0.273173 0.616176 0.888063
Si Si2 0.550375 0.171851 0.360880
Si Si3 0.634060 0.377843 0.834060
Si Si4 0.727136 0.073037 0.395350
Si Si5 0.845414 0.205906 0.144093
Si Si6 0.977940 0.218933 0.669071
Si Si7 0.077126 0.011527 0.241136
Si Si8 0.635200 0.580694 0.753951
O O1 0.273923 0.270363 0.733568
O O2 0.212333 0.772472 0.906005
O O3 0.456572 0.690010 0.856065
O O4 0.151423 0.717802 0.048969
O O5 0.500000 0.500000 0.500000
O O6 0.703502 0.093522 0.209910
O O7 0.415438 0.943912 0.305016
O O8 0.612906 0.148519 0.407726
O O9 0.803202 0.368316 0.796780
O O10 0.643543 0.559400 0.829951
O O11 0.500000 0.500000 0.000000
O O12 0.666706 0.265209 0.571155
O O13 0.915676 0.130786 0.321348
O O14 0.892026 0.532057 0.282875
O O15 0.000000 0.000000 0.000000
O O16 0.974774 0.049826 0.677670
O O17 0.000000 0.000000 0.500000
O O18 0.223052 0.227649 0.259992
#
# Coordination Sequence:
#
# PCOD9071449 Si02
#       8
#     2   2   2   2   2   2   2   2
#     4  12  26  50  77 104 147 193 250 301 356 431
#     4  12  28  47  75 108 146 193 243 300 365 430
#     4  12  28  48  73 106 153 191 239 300 368 434
#     4  12  26  50  77 104 147 193 250 301 356 431
#     4  12  28  47  75 108 146 193 243 300 365 430
#     4  12  28  48  73 106 153 191 239 300 368 434
#     4  12  28  48  77 109 145 195 245 301 364 431
#     4  12  28  48  77 109 145 195 245 301 364 431
#
# _framework density 23.174309999999998
#
# number of rings (size 3 to 8) (size 9 to 14) (size 15 to 20)
#    0.000    0.000    2.500    6.000   14.000    0.000 
#    0.000    0.000    0.000    0.000    0.000    0.000 
#    0.000    0.000    0.000    0.000    0.000    0.000 
#
# Total GULP energy -89763.095638 kJ/mol
# GULP energy per Si atom -5610.193477 kJ/mol
# Density = 2.312156 g / cm^3
# Si number density = 23.174310 Si / 1000 Ang^3
#
#
#
# Elastic Constant Matrix: (Units=GPa)
#
#
# Indices 1 2 3 4 5 6 
#
# 1 108.5442 20.4761 9.4278 9.9761 -9.6612 -1.3809
# 2 20.4761 83.9440 8.8615 4.8822 15.7818 2.3707
# 3 9.4278 8.8615 113.3549 -2.0043 3.7937 -9.5675
# 4 9.9761 4.8822 -2.0043 34.9785 3.4077 -3.9297
# 5 -9.6612 15.7818 3.7937 3.4077 45.5757 -3.4034
# 6 -1.3809 2.3707 -9.5675 -3.9297 -3.4034 46.0563
#
#
#
# Elastic Compliance Matrix: (Units=1/GPa)
#
#
# Indices 1 2 3 4 5 6 
#
# 1 0.010428 -0.002967 -0.000779 -0.002914 0.003544 0.000317
# 2 -0.002967 0.013819 -0.000787 -0.000762 -0.005398 -0.001428
# 3 -0.000779 -0.000787 0.009154 0.001136 -0.000592 0.001972
# 4 -0.002914 -0.000762 0.001136 0.030125 -0.002509 0.002573
# 5 0.003544 -0.005398 -0.000592 -0.002509 0.024940 0.001890
# 6 0.000317 -0.001428 0.001972 0.002573 0.001890 0.022564
#
#
# Mechanical properties :
#
#
# Convention : Reuss Voigt Hill
#
# Bulk Modulus (GPa) = 41.09183 42.59709 41.84446
# Shear Modulus (GPa) = 38.99914 43.12728 41.06321
#
# Velocity S-wave (km/s) = 4.10672 4.31861 4.21399
# Velocity P-wave (km/s) = 6.34484 6.57938 6.46317
#
# Compressibility (1/GPa) = 0.02433574
#
# Stress axis : x y z
#
# Youngs Moduli (GPa) = 95.89999 72.36368 109.23626
#
# Poissons Ratio (x) = 0.21471 0.08506
# Poissons Ratio (y) = 0.28455 0.08595
# Poissons Ratio (z) = 0.07468 0.05694
#
# Static dielectric constant tensor:
#      x y z
#    x 1.837180 0.014640 0.014190 
#    y 0.014640 1.852930 0.021490 
#    z 0.014190 0.021490 1.872230 
# 
# From -- ./inp_files/567109.got.cif
#   From: 2010.05.17/outbox.cif.g08.bks.cpg/sg2_284_cif.got.tgz:567109.got - 2010.06.03 11:33:40.
