data_PCOD9071324
_publ_section_title
;
Structure prediction by ZEFSAII (Michael W. Deem and Ramdas Pophale) SiO2 
 PCOD9071324
Probable space group: P -1
;
_chemical_formula_sum "Si O2"
_cell_formula_units_Z 15
_cell_length_a 8.688226
_cell_length_b 19.711622
_cell_length_c 8.595456
_cell_angle_alpha 124.855015
_cell_angle_beta 60.799576
_cell_angle_gamma 145.029798
_cell_volume 691.747240
_symmetry_space_group_name_H-M "P -1"
_symmetry_group_IT_number 2
_symmetry_cell_setting 'triclinic'
loop_
_space_group_symop_operation_xyz
x,y,z
-x,-y,-z
loop_
_atom_site_type_symbol
_atom_site_label
_atom_site_fract_x
_atom_site_fract_y
_atom_site_fract_z
Si Si1 0.247118 0.816768 0.724948
Si Si2 0.267675 0.467102 0.483136
Si Si3 0.000000 0.000000 0.000000
Si Si4 0.027476 0.492489 0.157746
Si Si5 0.535528 0.647302 0.299577
Si Si6 0.215220 0.096792 0.382103
Si Si7 0.969687 0.278159 0.954694
Si Si8 0.460837 0.042559 0.727381
O O1 0.517958 0.859816 0.648715
O O2 0.311605 0.927574 0.767275
O O3 0.000953 0.683039 0.587038
O O4 0.150198 0.791862 0.915237
O O5 0.500000 0.500000 0.500000
O O6 0.372189 0.531669 0.347760
O O7 0.187173 0.524327 0.677716
O O8 0.274860 0.057812 0.857921
O O9 0.139207 0.049656 0.177728
O O10 0.322317 0.613315 0.242835
O O11 0.000000 0.500000 0.000000
O O12 0.977645 0.379302 0.070247
O O13 0.700807 0.776974 0.477698
O O14 0.743539 0.662246 0.129604
O O15 0.000000 0.000000 0.500000
O O16 0.762585 0.173032 0.791867
O O17 0.500000 0.000000 0.500000
#
# Coordination Sequence:
#
# PCOD9071324 Si02
#       8
#     2   2   1   2   2   2   2   2
#     4  12  26  51  75 106 155 204 250 323 398 464
#     4  12  28  48  77 109 152 202 258 320 388 470
#     4  12  28  48  80 114 152 212 264 318 404 472
#     4  12  27  46  75 111 149 203 261 315 390 477
#     4  12  26  50  74 112 156 202 254 333 394 460
#     4  12  27  51  78 113 158 205 264 327 397 471
#     4  12  26  48  75 107 155 197 257 316 395 470
#     4  12  29  49  77 115 154 201 263 331 392 479
#
# _framework density 21.684221999999998
#
# number of rings (size 3 to 8) (size 9 to 14) (size 15 to 20)
#    0.000    0.000    4.000    5.200    9.333    1.067 
#    0.000    0.000    0.000    0.000    0.000    0.000 
#    0.000    0.000    0.000    0.000    0.000    0.000 
#
# Total GULP energy -83651.740277 kJ/mol
# GULP energy per Si atom -5576.782685 kJ/mol
# Density = 2.163487 g / cm^3
# Si number density = 21.684222 Si / 1000 Ang^3
#
#
#
# Elastic Constant Matrix: (Units=GPa)
#
#
# Indices 1 2 3 4 5 6 
#
# 1 110.0815 40.5063 41.6297 -4.3146 4.1677 43.4966
# 2 40.5063 106.6883 43.8702 -11.1447 9.4195 2.6576
# 3 41.6297 43.8702 142.4316 -17.9178 7.5756 17.5256
# 4 -4.3146 -11.1447 -17.9178 56.0170 0.9089 2.8613
# 5 4.1677 9.4195 7.5756 0.9089 50.4674 -22.8152
# 6 43.4966 2.6576 17.5256 2.8613 -22.8152 68.9522
#
#
#
# Elastic Compliance Matrix: (Units=1/GPa)
#
#
# Indices 1 2 3 4 5 6 
#
# 1 0.016107 -0.004681 -0.001514 0.000495 -0.005392 -0.011400
# 2 -0.004681 0.012290 -0.002650 0.001083 -0.000146 0.003060
# 3 -0.001514 -0.002650 0.008878 0.002314 -0.001576 -0.001817
# 4 0.000495 0.001083 0.002314 0.019001 -0.002017 -0.002398
# 5 -0.005392 -0.000146 -0.001576 -0.002017 0.026245 0.012575
# 6 -0.011400 0.003060 -0.001817 -0.002398 0.012575 0.026299
#
#
# Mechanical properties :
#
#
# Convention : Reuss Voigt Hill
#
# Bulk Modulus (GPa) = 51.05871 67.91263 59.48567
# Shear Modulus (GPa) = 37.58316 50.63367 44.10842
#
# Velocity S-wave (km/s) = 4.16769 4.83747 4.51502
# Velocity P-wave (km/s) = 6.83792 7.91129 7.39411
#
# Compressibility (1/GPa) = 0.01958530
#
# Stress axis : x y z
#
# Youngs Moduli (GPa) = 62.08309 81.36889 112.63647
#
# Poissons Ratio (x) = 0.38090 0.17056
# Poissons Ratio (y) = 0.29062 0.29844
# Poissons Ratio (z) = 0.09401 0.21559
#
# Static dielectric constant tensor:
#      x y z
#    x 1.768690 -0.008920 0.058970 
#    y -0.008920 1.779290 0.082980 
#    z 0.058970 0.082980 1.728380 
# 
# From -- ./inp_files/224011.got.cif
#   From: 2010.05.17/outbox.cif.g08.bks.cpg/sg2_113_cif.got.tgz:224011.got - 2010.06.03 11:33:40.
