data_PCOD9071225
_publ_section_title
;
Structure prediction by ZEFSAII (Michael W. Deem and Ramdas Pophale) SiO2 
 PCOD9071225
Probable space group: P -1
;
_chemical_formula_sum "Si O2"
_cell_formula_units_Z 16
_cell_length_a 18.875476
_cell_length_b 12.314969
_cell_length_c 8.948017
_cell_angle_alpha 52.008844
_cell_angle_beta 150.357249
_cell_angle_gamma 128.793706
_cell_volume 788.079945
_symmetry_space_group_name_H-M "P -1"
_symmetry_group_IT_number 2
_symmetry_cell_setting 'triclinic'
loop_
_space_group_symop_operation_xyz
x,y,z
-x,-y,-z
loop_
_atom_site_type_symbol
_atom_site_label
_atom_site_fract_x
_atom_site_fract_y
_atom_site_fract_z
Si Si1 0.911239 0.093997 0.169682
Si Si2 0.613854 0.627386 0.194625
Si Si3 0.063135 0.366850 0.690210
Si Si4 0.939850 0.615056 0.691250
Si Si5 0.439465 0.068008 0.693904
Si Si6 0.397929 0.050974 0.156144
Si Si7 0.625613 0.635494 0.572563
Si Si8 0.098373 0.900367 0.197903
O O1 0.937793 0.243208 0.171657
O O2 0.951129 0.126702 0.042299
O O3 0.000000 0.000000 0.500000
O O4 0.752847 0.999291 0.991090
O O5 0.778730 0.624910 0.446175
O O6 0.624526 0.626307 0.396883
O O7 0.500000 0.500000 0.000000
O O8 0.575866 0.780526 0.965007
O O9 0.078277 0.381978 0.525102
O O10 0.000000 0.500000 0.500000
O O11 0.943961 0.233620 0.655526
O O12 0.217759 0.367346 0.058667
O O13 0.000000 0.500000 0.000000
O O14 0.420849 0.224850 0.566326
O O15 0.566328 0.043768 0.834088
O O16 0.271905 0.975110 0.439004
O O17 0.500000 0.000000 0.000000
O O18 0.500000 0.000000 0.500000
O O19 0.500000 0.500000 0.500000
O O20 0.000000 0.000000 0.000000
#
# Coordination Sequence:
#
# PCOD9071225 Si02
#       8
#     2   2   2   2   2   2   2   2
#     4  12  26  46  75 106 146 192 247 304 368 435
#     4  12  28  49  75 108 152 195 249 309 372 444
#     4  12  28  48  75 106 147 194 248 305 373 442
#     4  12  28  48  75 107 146 195 246 304 374 446
#     4  12  28  48  75 109 150 196 250 302 372 440
#     4  12  28  48  75 109 150 198 249 306 370 440
#     4  12  28  49  75 108 151 196 247 309 373 444
#     4  12  26  46  75 107 146 190 247 307 364 437
#
# _framework density 20.302506999999999
#
# number of rings (size 3 to 8) (size 9 to 14) (size 15 to 20)
#    0.000    0.000    5.000    3.750   10.500    1.000 
#    0.000    0.000    0.000    0.000    0.000    0.000 
#    0.000    0.000    0.000    0.000    0.000    0.000 
#
# Total GULP energy -89075.571138 kJ/mol
# GULP energy per Si atom -5567.223196 kJ/mol
# Density = 2.025630 g / cm^3
# Si number density = 20.302507 Si / 1000 Ang^3
#
#
#
# Elastic Constant Matrix: (Units=GPa)
#
#
# Indices 1 2 3 4 5 6 
#
# 1 159.0827 34.0970 32.2296 -24.3437 -32.9528 -2.9589
# 2 34.0970 134.8946 39.0329 -34.9988 -12.5127 3.3427
# 3 32.2296 39.0329 124.7293 -29.7632 -19.2806 -0.5799
# 4 -24.3437 -34.9988 -29.7632 40.9785 -2.4401 3.2276
# 5 -32.9528 -12.5127 -19.2806 -2.4401 44.8379 0.6056
# 6 -2.9589 3.3427 -0.5799 3.2276 0.6056 36.1018
#
#
#
# Elastic Compliance Matrix: (Units=1/GPa)
#
#
# Indices 1 2 3 4 5 6 
#
# 1 0.008471 -0.000194 0.000162 0.005363 0.006531 0.000126
# 2 -0.000194 0.010139 -0.000696 0.008348 0.002866 -0.001760
# 3 0.000162 -0.000696 0.010795 0.007681 0.004992 -0.000519
# 4 0.005363 0.008348 0.007681 0.041328 0.011878 -0.004104
# 5 0.006531 0.002866 0.004992 0.011878 0.030712 -0.001227
# 6 0.000126 -0.001760 -0.000519 -0.004104 -0.001227 0.028252
#
#
# Mechanical properties :
#
#
# Convention : Reuss Voigt Hill
#
# Bulk Modulus (GPa) = 35.77941 69.93619 52.85780
# Shear Modulus (GPa) = 35.59506 45.27344 40.43425
#
# Velocity S-wave (km/s) = 4.19171 4.72735 4.46756
# Velocity P-wave (km/s) = 6.41004 8.01991 7.25974
#
# Compressibility (1/GPa) = 0.02794903
#
# Stress axis : x y z
#
# Youngs Moduli (GPa) = 118.05439 98.62936 92.63264
#
# Poissons Ratio (x) = 0.01911 -0.01498
# Poissons Ratio (y) = 0.02287 0.06447
# Poissons Ratio (z) = -0.01909 0.06864
#
# Static dielectric constant tensor:
#      x y z
#    x 1.642160 -0.001650 0.110250 
#    y -0.001650 1.730720 0.050520 
#    z 0.110250 0.050520 1.363760 
# 
# From -- ./inp_files/187512.got.cif
#   From: 2010.05.17/outbox.cif.g08.bks.cpg/sg2_94_cif.got.tgz:187512.got - 2010.06.03 11:33:40.
