data_PCOD9071926
_publ_section_title
;
Structure prediction by ZEFSAII (Michael W. Deem and Ramdas Pophale) SiO2 
 PCOD9071926
Probable space group: P -1
;
_chemical_formula_sum "Si O2"
_cell_formula_units_Z 16
_cell_length_a 7.267968
_cell_length_b 10.249720
_cell_length_c 17.334595
_cell_angle_alpha 46.426978
_cell_angle_beta 131.349163
_cell_angle_gamma 130.585502
_cell_volume 655.528548
_symmetry_space_group_name_H-M "P -1"
_symmetry_group_IT_number 2
_symmetry_cell_setting 'triclinic'
loop_
_space_group_symop_operation_xyz
x,y,z
-x,-y,-z
loop_
_atom_site_type_symbol
_atom_site_label
_atom_site_fract_x
_atom_site_fract_y
_atom_site_fract_z
Si Si1 0.265672 0.131776 0.849369
Si Si2 0.506610 0.029356 0.798951
Si Si3 0.877124 0.754271 0.884118
Si Si4 0.978711 0.153782 0.369980
Si Si5 0.789642 0.535401 0.372769
Si Si6 0.633076 0.326183 0.010585
Si Si7 0.414402 0.157263 0.367324
Si Si8 0.347251 0.544609 0.365632
O O1 0.384821 0.073719 0.828379
O O2 0.105967 0.263849 0.724016
O O3 0.491640 0.263580 0.914237
O O4 0.078079 0.930857 0.916349
O O5 0.678080 0.245354 0.730329
O O6 0.298993 0.941814 0.708785
O O7 0.554882 0.835409 0.917755
O O8 0.695895 0.551208 0.952234
O O9 0.709792 0.852681 0.747405
O O10 0.078244 0.692471 0.909180
O O11 0.186563 0.170554 0.353666
O O12 0.078355 0.366159 0.348558
O O13 0.000000 0.000000 0.500000
O O14 0.663932 0.352912 0.358422
O O15 0.549577 0.545360 0.353543
O O16 0.000000 0.500000 0.500000
O O17 0.500000 0.000000 0.500000
O O18 0.500000 0.500000 0.500000
#
# Coordination Sequence:
#
# PCOD9071926 Si02
#       8
#     2   2   2   2   2   2   2   2
#     4  10  18  31  49  74 110 140 173 219 273 314
#     4  10  19  31  50  72 109 138 172 223 268 305
#     4  10  18  30  48  73 109 137 175 217 271 313
#     4  11  21  35  53  78 111 144 182 222 267 321
#     4  10  21  33  51  79 114 139 177 221 269 324
#     4  10  19  30  49  77 109 140 176 222 269 319
#     4  11  21  34  53  80 114 144 178 221 275 325
#     4  10  21  34  53  76 107 143 183 216 267 322
#
# _framework density 24.407785000000001
#
# number of rings (size 3 to 8) (size 9 to 14) (size 15 to 20)
#    0.000    1.750    5.000    2.250    1.750    1.000 
#    0.000    0.000    0.000    0.000    0.000    1.750 
#    7.500    0.125    0.000    0.000    0.000    0.000 
#
# Total GULP energy -89263.605560 kJ/mol
# GULP energy per Si atom -5578.975348 kJ/mol
# Density = 2.435223 g / cm^3
# Si number density = 24.407785 Si / 1000 Ang^3
#
#
#
# Elastic Constant Matrix: (Units=GPa)
#
#
# Indices 1 2 3 4 5 6 
#
# 1 81.6802 16.3304 4.0466 -5.6301 -0.8657 7.0861
# 2 16.3304 201.7855 56.8877 -37.1133 -5.0504 4.1337
# 3 4.0466 56.8877 132.9522 -24.6965 -2.7435 -2.7100
# 4 -5.6301 -37.1133 -24.6965 61.9181 4.3173 -7.7378
# 5 -0.8657 -5.0504 -2.7435 4.3173 22.0494 -3.6708
# 6 7.0861 4.1337 -2.7100 -7.7378 -3.6708 9.9759
#
#
#
# Elastic Compliance Matrix: (Units=1/GPa)
#
#
# Indices 1 2 3 4 5 6 
#
# 1 0.013264 -0.000917 -0.000368 -0.000667 -0.001292 -0.010134
# 2 -0.000917 0.006132 -0.002086 0.002702 0.000554 -0.000157
# 3 -0.000368 -0.002086 0.009153 0.003092 0.001110 0.006419
# 4 -0.000667 0.002702 0.003092 0.021014 -0.000417 0.016340
# 5 -0.001292 0.000554 0.001110 -0.000417 0.048746 0.018603
# 6 -0.010134 -0.000157 0.006419 0.016340 0.018603 0.128767
#
#
# Mechanical properties :
#
#
# Convention : Reuss Voigt Hill
#
# Bulk Modulus (GPa) = 45.85688 63.43861 54.64775
# Shear Modulus (GPa) = 20.73939 41.39889 31.06914
#
# Velocity S-wave (km/s) = 2.91813 4.12288 3.57167
# Velocity P-wave (km/s) = 5.49387 6.97938 6.28070
#
# Compressibility (1/GPa) = 0.02180698
#
# Stress axis : x y z
#
# Youngs Moduli (GPa) = 75.39212 163.07865 109.25087
#
# Poissons Ratio (x) = 0.14954 0.04026
# Poissons Ratio (y) = 0.06913 0.22787
# Poissons Ratio (z) = 0.02778 0.34013
#
# Static dielectric constant tensor:
#      x y z
#    x 2.011590 0.018040 0.022360 
#    y 0.018040 1.972120 -0.037500 
#    z 0.022360 -0.037500 1.980390 
# 
# From -- ./inp_files/404831.got.cif
#   From: 2010.05.17/outbox.cif.g08.bks.cpg/sg2_203_cif.got.tgz:404831.got - 2010.06.03 11:33:40.
