data_PCOD9071087
_publ_section_title
;
Structure prediction by ZEFSAII (Michael W. Deem and Ramdas Pophale) SiO2 
 PCOD9071087
Probable space group: P -1
;
_chemical_formula_sum "Si O2"
_cell_formula_units_Z 14
_cell_length_a 8.585130
_cell_length_b 7.921366
_cell_length_c 11.781419
_cell_angle_alpha 71.125383
_cell_angle_beta 47.833556
_cell_angle_gamma 94.965602
_cell_volume 506.497744
_symmetry_space_group_name_H-M "P -1"
_symmetry_group_IT_number 2
_symmetry_cell_setting 'triclinic'
loop_
_space_group_symop_operation_xyz
x,y,z
-x,-y,-z
loop_
_atom_site_type_symbol
_atom_site_label
_atom_site_fract_x
_atom_site_fract_y
_atom_site_fract_z
Si Si1 0.306961 0.211027 0.808713
Si Si2 0.981012 0.530906 0.150308
Si Si3 0.521713 0.674191 0.865564
Si Si4 0.737529 0.980391 0.886353
Si Si5 0.240045 0.917523 0.695286
Si Si6 0.141556 0.640477 0.502981
Si Si7 0.100326 0.160073 0.536503
O O1 0.242905 0.123446 0.985977
O O2 0.246577 0.040959 0.779122
O O3 0.178595 0.352016 0.817099
O O4 0.588348 0.313411 0.648696
O O5 0.937708 0.443759 0.316919
O O6 0.262026 0.654875 0.978919
O O7 0.886264 0.320000 0.174484
O O8 0.072640 0.823421 0.478689
O O9 0.652226 0.700737 0.674287
O O10 0.500000 0.500000 0.000000
O O11 0.688819 0.854363 0.822321
O O12 0.957967 0.188452 0.710439
O O13 0.500000 0.000000 0.000000
O O14 0.130186 0.988114 0.629666
O O15 0.500000 0.000000 0.500000
O O16 0.000000 0.500000 0.500000
#
# Coordination Sequence:
#
# PCOD9071087 Si02
#       7
#     2   2   2   2   2   2   2
#     4  12  29  56  90 131 186 234 302 372 457 543
#     4  12  28  55  90 132 179 243 298 371 456 538
#     4  12  28  54  87 130 176 232 306 370 444 541
#     4  12  29  53  87 129 169 235 301 370 451 534
#     4  12  30  53  88 134 183 240 293 370 464 535
#     4  12  25  49  88 130 174 229 298 372 441 527
#     4  12  29  52  91 124 177 234 301 374 447 537
#
# _framework density 27.640794
#
# number of rings (size 3 to 8) (size 9 to 14) (size 15 to 20)
#    0.000    0.000    4.286    3.429    8.000    1.714 
#    0.000    2.143    3.143    0.000    0.000    0.000 
#    0.000    0.000    0.000    0.000    0.000    0.000 
#
# Total GULP energy -78249.089318 kJ/mol
# GULP energy per Si atom -5589.220666 kJ/mol
# Density = 2.757788 g / cm^3
# Si number density = 27.640794 Si / 1000 Ang^3
#
#
#
# Elastic Constant Matrix: (Units=GPa)
#
#
# Indices 1 2 3 4 5 6 
#
# 1 298.8753 96.6928 115.6615 -3.2813 -2.2442 -18.5096
# 2 96.6928 187.4177 47.8102 3.3048 11.7881 10.6044
# 3 115.6615 47.8102 246.2519 15.9140 -4.7511 -6.7096
# 4 -3.2813 3.3048 15.9140 29.0141 0.8771 8.7430
# 5 -2.2442 11.7881 -4.7511 0.8771 87.8239 -4.1186
# 6 -18.5096 10.6044 -6.7096 8.7430 -4.1186 57.8179
#
#
#
# Elastic Compliance Matrix: (Units=1/GPa)
#
#
# Indices 1 2 3 4 5 6 
#
# 1 0.004910 -0.002179 -0.001922 0.001374 0.000374 0.001567
# 2 -0.002179 0.006734 -0.000348 -0.000181 -0.001071 -0.002022
# 3 -0.001922 -0.000348 0.005263 -0.003248 0.000342 0.000575
# 4 0.001374 -0.000181 -0.003248 0.038174 -0.000766 -0.005731
# 5 0.000374 -0.001071 0.000342 -0.000766 0.011627 0.001300
# 6 0.001567 -0.002022 0.000575 -0.005731 0.001300 0.019194
#
#
# Mechanical properties :
#
#
# Convention : Reuss Voigt Hill
#
# Bulk Modulus (GPa) = 124.86177 139.20821 132.03499
# Shear Modulus (GPa) = 51.29873 66.42320 58.86097
#
# Velocity S-wave (km/s) = 4.31270 4.90745 4.61965
# Velocity P-wave (km/s) = 8.37080 9.08754 8.73652
#
# Compressibility (1/GPa) = 0.00800886
#
# Stress axis : x y z
#
# Youngs Moduli (GPa) = 203.68655 148.50779 189.99794
#
# Poissons Ratio (x) = 0.32361 0.36513
# Poissons Ratio (y) = 0.44385 0.06611
# Poissons Ratio (z) = 0.39143 0.05167
#
# Static dielectric constant tensor:
#      x y z
#    x 2.142090 0.082500 -0.060770 
#    y 0.082500 2.066200 -0.306370 
#    z -0.060770 -0.306370 2.619120 
# 
# From -- ./inp_files/412583.got.cif
#   From: 2010.05.17/outbox.cif.g08.bks.cpg/sg2_207_cif.got.tgz:412583.got - 2010.06.03 11:33:40.
