data_PCOD9071121
_publ_section_title
;
Structure prediction by ZEFSAII (Michael W. Deem and Ramdas Pophale) SiO2 
 PCOD9071121
Probable space group: P -1
;
_chemical_formula_sum "Si O2"
_cell_formula_units_Z 10
_cell_length_a 8.599879
_cell_length_b 23.318565
_cell_length_c 11.719989
_cell_angle_alpha 20.914418
_cell_angle_beta 40.467878
_cell_angle_gamma 30.310770
_cell_volume 409.610253
_symmetry_space_group_name_H-M "P -1"
_symmetry_group_IT_number 2
_symmetry_cell_setting 'triclinic'
loop_
_space_group_symop_operation_xyz
x,y,z
-x,-y,-z
loop_
_atom_site_type_symbol
_atom_site_label
_atom_site_fract_x
_atom_site_fract_y
_atom_site_fract_z
Si Si1 0.365311 0.640001 0.160614
Si Si2 0.569917 0.582165 0.917745
Si Si3 0.718348 0.883789 0.203510
Si Si4 0.766885 0.748492 0.831568
Si Si5 0.708078 0.678896 0.243868
O O1 0.456888 0.413943 0.526853
O O2 0.065008 0.775198 0.162783
O O3 0.306484 0.704455 0.938473
O O4 0.623475 0.650763 0.040115
O O5 0.666193 0.723247 0.571828
O O6 0.500000 0.500000 0.000000
O O7 0.888706 0.366588 0.198165
O O8 0.500000 0.000000 0.000000
O O9 0.558830 0.081497 0.009184
O O10 0.500000 0.000000 0.500000
O O11 0.839246 0.694584 0.025135
O O12 0.000000 0.500000 0.500000
#
# Coordination Sequence:
#
# PCOD9071121 Si02
#       5
#     2   2   2   2   2
#     4  12  27  49  78 111 158 199 262 322 391 452
#     4  12  28  50  80 112 158 208 263 318 388 476
#     4  12  26  47  78 114 153 205 262 319 387 463
#     4  12  28  50  78 119 158 204 258 328 398 455
#     4  12  25  50  79 112 155 206 262 316 384 470
#
# _framework density 24.413450999999998
#
# number of rings (size 3 to 8) (size 9 to 14) (size 15 to 20)
#    0.000    0.000    4.000    4.800    5.600    1.600 
#    0.000    0.000    0.000    0.000    0.000    0.000 
#    0.000    0.000    0.000    0.000    0.000    0.000 
#
# Total GULP energy -55928.567724 kJ/mol
# GULP energy per Si atom -5592.856772 kJ/mol
# Density = 2.435789 g / cm^3
# Si number density = 24.413451 Si / 1000 Ang^3
#
#
#
# Elastic Constant Matrix: (Units=GPa)
#
#
# Indices 1 2 3 4 5 6 
#
# 1 134.9740 54.2648 40.6818 -14.2586 -22.2935 3.2896
# 2 54.2648 164.7147 62.1722 -3.9767 -26.1150 19.2861
# 3 40.6818 62.1722 112.1614 -27.1363 -3.2723 0.4037
# 4 -14.2586 -3.9767 -27.1363 42.6564 20.5406 -5.0732
# 5 -22.2935 -26.1150 -3.2723 20.5406 47.6161 3.3167
# 6 3.2896 19.2861 0.4037 -5.0732 3.3167 45.2235
#
#
#
# Elastic Compliance Matrix: (Units=1/GPa)
#
#
# Indices 1 2 3 4 5 6 
#
# 1 0.009339 -0.001542 -0.002515 -0.000357 0.003529 -0.000298
# 2 -0.001542 0.011786 -0.008133 -0.010240 0.010069 -0.006729
# 3 -0.002515 -0.008133 0.017892 0.016217 -0.011835 0.006179
# 4 -0.000357 -0.010240 0.016217 0.046269 -0.025415 0.011302
# 5 0.003529 0.010069 -0.011835 -0.025415 0.039034 -0.010159
# 6 -0.000298 -0.006729 0.006179 0.011302 -0.010159 0.026961
#
#
# Mechanical properties :
#
#
# Convention : Reuss Voigt Hill
#
# Bulk Modulus (GPa) = 68.31774 80.67641 74.49708
# Shear Modulus (GPa) = 27.69460 44.08128 35.88794
#
# Velocity S-wave (km/s) = 3.37174 4.25386 3.83823
# Velocity P-wave (km/s) = 6.57287 7.56603 7.08686
#
# Compressibility (1/GPa) = 0.01463749
#
# Stress axis : x y z
#
# Youngs Moduli (GPa) = 107.07640 84.84634 55.88943
#
# Poissons Ratio (x) = 0.13080 0.14057
# Poissons Ratio (y) = 0.16507 0.45457
# Poissons Ratio (z) = 0.26931 0.69008
#
# Static dielectric constant tensor:
#      x y z
#    x 1.916400 -0.066180 0.065700 
#    y -0.066180 1.936370 0.096560 
#    z 0.065700 0.096560 1.914800 
# 
# From -- ./inp_files/58685.got.cif
#   From: 2010.05.17/outbox.cif.g08.bks.cpg/sg2_30_cif.got.tgz:58685.got - 2010.06.03 11:33:40.
