data_PCOD9071553
_publ_section_title
;
Structure prediction by ZEFSAII (Michael W. Deem and Ramdas Pophale) SiO2 
 PCOD9071553
Probable space group: P -1
;
_chemical_formula_sum "Si O2"
_cell_formula_units_Z 14
_cell_length_a 20.208839
_cell_length_b 5.735582
_cell_length_c 11.754110
_cell_angle_alpha 69.509320
_cell_angle_beta 36.490484
_cell_angle_gamma 49.535941
_cell_volume 570.315106
_symmetry_space_group_name_H-M "P -1"
_symmetry_group_IT_number 2
_symmetry_cell_setting 'triclinic'
loop_
_space_group_symop_operation_xyz
x,y,z
-x,-y,-z
loop_
_atom_site_type_symbol
_atom_site_label
_atom_site_fract_x
_atom_site_fract_y
_atom_site_fract_z
Si Si1 0.485538 0.964386 0.166589
Si Si2 0.170604 0.175456 0.324815
Si Si3 0.757360 0.346227 0.872169
Si Si4 0.389163 0.132065 0.739262
Si Si5 0.112241 0.199421 0.067487
Si Si6 0.841155 0.128947 0.156009
Si Si7 0.801480 0.879811 0.453887
O O1 0.535213 0.003166 0.216989
O O2 0.311511 0.180854 0.387782
O O3 0.584681 0.567907 0.102020
O O4 0.500000 0.000000 0.000000
O O5 0.239795 0.353850 0.189191
O O6 0.210502 0.012806 0.420116
O O7 0.000000 0.500000 0.500000
O O8 0.207207 0.897056 0.236721
O O9 0.880655 0.083800 0.837375
O O10 0.267364 0.093990 0.904356
O O11 0.274055 0.533094 0.812324
O O12 0.500000 0.000000 0.500000
O O13 0.118048 0.158814 0.932758
O O14 0.969488 0.549464 0.251876
O O15 0.759850 0.150166 0.375848
O O16 0.000000 0.000000 0.000000
#
# Coordination Sequence:
#
# PCOD9071553 Si02
#       7
#     2   2   2   2   2   2   2
#     4  12  28  52  79 122 167 217 277 349 428 497
#     4  12  27  48  79 119 159 219 272 342 416 500
#     4  12  27  51  81 113 167 213 276 336 422 499
#     4  12  29  53  83 115 166 223 278 348 424 504
#     4  12  27  51  81 112 161 212 283 340 418 504
#     4  12  28  49  79 118 156 212 283 343 417 499
#     4  12  28  47  80 117 159 212 279 343 413 500
#
# _framework density 24.547832
#
# number of rings (size 3 to 8) (size 9 to 14) (size 15 to 20)
#    0.000    0.000    5.714    2.571    6.000    2.857 
#    0.000    0.000    0.000    0.000    0.000    0.000 
#    0.000    0.000    0.000    0.000    0.000    0.000 
#
# Total GULP energy -77977.347188 kJ/mol
# GULP energy per Si atom -5569.810513 kJ/mol
# Density = 2.449196 g / cm^3
# Si number density = 24.547832 Si / 1000 Ang^3
#
#
#
# Elastic Constant Matrix: (Units=GPa)
#
#
# Indices 1 2 3 4 5 6 
#
# 1 165.3501 6.1760 70.4332 -4.6456 9.0052 -5.1999
# 2 6.1760 73.7468 11.7500 -3.5261 12.8382 0.7920
# 3 70.4332 11.7500 118.8626 1.0302 0.4274 15.8710
# 4 -4.6456 -3.5261 1.0302 45.5950 -10.6441 14.1374
# 5 9.0052 12.8382 0.4274 -10.6441 41.8506 10.9604
# 6 -5.1999 0.7920 15.8710 14.1374 10.9604 35.8291
#
#
#
# Elastic Compliance Matrix: (Units=1/GPa)
#
#
# Indices 1 2 3 4 5 6 
#
# 1 0.009018 0.000802 -0.006189 -0.001686 -0.004112 0.005955
# 2 0.000802 0.014772 -0.002298 -0.000961 -0.005692 0.002928
# 3 -0.006189 -0.002298 0.013553 0.003103 0.005221 -0.009672
# 4 -0.001686 -0.000961 0.003103 0.029979 0.012792 -0.017340
# 5 -0.004112 -0.005692 0.005221 0.012792 0.034544 -0.018398
# 6 0.005955 0.002928 -0.009672 -0.017340 -0.018398 0.045465
#
#
# Mechanical properties :
#
#
# Convention : Reuss Voigt Hill
#
# Bulk Modulus (GPa) = 45.50687 59.40865 52.45776
# Shear Modulus (GPa) = 29.40766 42.62831 36.01798
#
# Velocity S-wave (km/s) = 3.46493 4.17170 3.83463
# Velocity P-wave (km/s) = 5.88098 6.88897 6.40483
#
# Compressibility (1/GPa) = 0.02197471
#
# Stress axis : x y z
#
# Youngs Moduli (GPa) = 110.89172 67.69418 73.78337
#
# Poissons Ratio (x) = -0.05429 0.45662
# Poissons Ratio (y) = -0.08894 0.16953
# Poissons Ratio (z) = 0.68627 0.15554
#
# Static dielectric constant tensor:
#      x y z
#    x 1.972250 0.152810 -0.004870 
#    y 0.152810 1.896980 -0.236320 
#    z -0.004870 -0.236320 2.041270 
# 
# From -- ./inp_files/468045.got.cif
#   From: 2010.05.17/outbox.cif.g08.bks.cpg/sg2_235_cif.got.tgz:468045.got - 2010.06.03 11:33:40.
