data_PCOD9071084
_publ_section_title
;
Structure prediction by ZEFSAII (Michael W. Deem and Ramdas Pophale) SiO2 
 PCOD9071084
Probable space group: P -1
;
_chemical_formula_sum "Si O2"
_cell_formula_units_Z 12
_cell_length_a 7.922231
_cell_length_b 12.153751
_cell_length_c 11.702171
_cell_angle_alpha 24.518149
_cell_angle_beta 91.372566
_cell_angle_gamma 94.046666
_cell_volume 464.200761
_symmetry_space_group_name_H-M "P -1"
_symmetry_group_IT_number 2
_symmetry_cell_setting 'triclinic'
loop_
_space_group_symop_operation_xyz
x,y,z
-x,-y,-z
loop_
_atom_site_type_symbol
_atom_site_label
_atom_site_fract_x
_atom_site_fract_y
_atom_site_fract_z
Si Si1 0.558314 0.494417 0.243376
Si Si2 0.322678 0.085713 0.959653
Si Si3 0.695407 0.261183 0.136832
Si Si4 0.784273 0.858704 0.344772
Si Si5 0.179017 0.164388 0.308385
Si Si6 0.845153 0.157448 0.596315
O O1 0.621840 0.665348 0.193146
O O2 0.711278 0.327221 0.375155
O O3 0.389944 0.306490 0.460003
O O4 0.485522 0.659256 0.983430
O O5 0.219147 0.129900 0.802541
O O6 0.217289 0.884172 0.235447
O O7 0.500000 0.000000 0.000000
O O8 0.793683 0.531778 0.935462
O O9 0.779064 0.147313 0.131568
O O10 0.691959 0.010313 0.458912
O O11 0.000000 0.000000 0.500000
O O12 0.955698 0.743807 0.494866
O O13 0.174716 0.116438 0.217982
#
# Coordination Sequence:
#
# PCOD9071084 Si02
#       6
#     2   2   2   2   2   2
#     4  12  26  50  78 117 161 206 266 328 401 469
#     4  12  26  49  79 112 164 205 267 333 396 471
#     4  12  25  49  83 112 162 211 257 331 397 465
#     4  12  26  52  79 119 155 212 265 331 397 475
#     4  12  27  49  81 119 162 207 267 329 392 478
#     4  12  29  48  80 119 153 213 269 321 406 472
#
# _framework density 25.850884000000001
#
# number of rings (size 3 to 8) (size 9 to 14) (size 15 to 20)
#    0.000    0.000    6.667    1.500    2.333    3.333 
#    0.000    0.000    0.000    0.000    0.000    0.000 
#    0.000    0.000    0.000    0.000    0.000    0.000 
#
# Total GULP energy -67259.354276 kJ/mol
# GULP energy per Si atom -5604.946190 kJ/mol
# Density = 2.579205 g / cm^3
# Si number density = 25.850884 Si / 1000 Ang^3
#
#
#
# Elastic Constant Matrix: (Units=GPa)
#
#
# Indices 1 2 3 4 5 6 
#
# 1 183.0766 23.1975 39.3484 -3.3133 14.5595 21.5500
# 2 23.1975 161.2602 40.3033 7.8389 -4.7007 -9.0006
# 3 39.3484 40.3033 122.6170 1.9994 3.9570 4.7816
# 4 -3.3133 7.8389 1.9994 55.7670 3.3287 8.5996
# 5 14.5595 -4.7007 3.9570 3.3287 27.3482 7.9400
# 6 21.5500 -9.0006 4.7816 8.5996 7.9400 34.0325
#
#
#
# Elastic Compliance Matrix: (Units=1/GPa)
#
#
# Indices 1 2 3 4 5 6 
#
# 1 0.006609 -0.000906 -0.001611 0.001335 -0.002453 -0.003963
# 2 -0.000906 0.007150 -0.002190 -0.001499 0.001390 0.002827
# 3 -0.001611 -0.002190 0.009442 0.000027 -0.000675 -0.000735
# 4 0.001335 -0.001499 0.000027 0.019200 -0.001651 -0.005712
# 5 -0.002453 0.001390 -0.000675 -0.001651 0.040442 -0.007003
# 6 -0.003963 0.002827 -0.000735 -0.005712 -0.007003 0.035821
#
#
# Mechanical properties :
#
#
# Convention : Reuss Voigt Hill
#
# Bulk Modulus (GPa) = 72.53045 74.73912 73.63478
# Shear Modulus (GPa) = 37.68615 47.70316 42.69465
#
# Velocity S-wave (km/s) = 3.82229 4.30038 4.06837
# Velocity P-wave (km/s) = 6.89913 7.32339 7.11443
#
# Compressibility (1/GPa) = 0.01378731
#
# Stress axis : x y z
#
# Youngs Moduli (GPa) = 151.30881 139.86066 105.90500
#
# Poissons Ratio (x) = 0.12666 0.17064
# Poissons Ratio (y) = 0.13703 0.23195
# Poissons Ratio (z) = 0.24380 0.30632
#
# Static dielectric constant tensor:
#      x y z
#    x 2.101920 -0.024680 -0.034460 
#    y -0.024680 2.043800 0.007570 
#    z -0.034460 0.007570 2.090540 
# 
# From -- ./inp_files/383926.got.cif
#   From: 2010.05.17/outbox.cif.g08.bks.cpg/sg2_192_cif.got.tgz:383926.got - 2010.06.03 11:33:40.
