data_PCOD9071118
_publ_section_title
;
Structure prediction by ZEFSAII (Michael W. Deem and Ramdas Pophale) SiO2 
 PCOD9071118
Probable space group: P -1
;
_chemical_formula_sum "Si O2"
_cell_formula_units_Z 16
_cell_length_a 4.931957
_cell_length_b 18.645454
_cell_length_c 7.944393
_cell_angle_alpha 88.506174
_cell_angle_beta 88.802440
_cell_angle_gamma 56.491455
_cell_volume 608.913796
_symmetry_space_group_name_H-M "P -1"
_symmetry_group_IT_number 2
_symmetry_cell_setting 'triclinic'
loop_
_space_group_symop_operation_xyz
x,y,z
-x,-y,-z
loop_
_atom_site_type_symbol
_atom_site_label
_atom_site_fract_x
_atom_site_fract_y
_atom_site_fract_z
Si Si1 0.514207 0.220607 0.221072
Si Si2 0.193852 0.063043 0.312329
Si Si3 0.514041 0.207228 0.850893
Si Si4 0.138738 0.409841 0.321493
Si Si5 0.907177 0.971388 0.174386
Si Si6 0.531812 0.344688 0.651888
Si Si7 0.806677 0.816991 0.461139
Si Si8 0.562097 0.493154 0.800924
O O1 0.900803 0.153393 0.231627
O O2 0.384196 0.320006 0.231200
O O3 0.367751 0.199681 0.383003
O O4 0.407005 0.207148 0.041533
O O5 0.230754 0.094624 0.492402
O O6 0.524747 0.020958 0.205460
O O7 0.059522 0.002290 0.310392
O O8 0.894068 0.131252 0.832989
O O9 0.448454 0.299137 0.798993
O O10 0.348494 0.184153 0.711326
O O11 0.251171 0.395240 0.514131
O O12 0.179436 0.482546 0.238366
O O13 0.773096 0.436502 0.294955
O O14 0.000000 0.000000 0.000000
O O15 0.638422 0.403819 0.729754
O O16 0.825679 0.264167 0.551512
O O17 0.500000 0.500000 0.000000
#
# Coordination Sequence:
#
# PCOD9071118 Si02
#       8
#     2   2   2   2   2   2   2   2
#     4  12  26  51  81 117 160 219 263 341 401 483
#     4  12  25  50  79 107 165 210 271 332 411 468
#     4  12  29  48  81 119 158 217 275 335 402 490
#     4  12  26  50  81 113 163 210 260 331 399 477
#     4  12  27  48  80 119 160 214 276 339 404 472
#     4  12  28  49  79 118 163 212 271 326 414 479
#     4  12  26  51  77 117 162 212 272 331 409 475
#     4  12  29  50  81 122 159 208 267 330 400 485
#
# _framework density 26.276294
#
# number of rings (size 3 to 8) (size 9 to 14) (size 15 to 20)
#    0.000    0.000    5.000    3.000    5.250    2.000 
#    0.000    0.000    0.000    0.000    0.000    0.000 
#    0.000    0.000    0.000    0.000    0.000    0.000 
#
# Total GULP energy -89875.482341 kJ/mol
# GULP energy per Si atom -5617.217646 kJ/mol
# Density = 2.621649 g / cm^3
# Si number density = 26.276294 Si / 1000 Ang^3
#
#
#
# Elastic Constant Matrix: (Units=GPa)
#
#
# Indices 1 2 3 4 5 6 
#
# 1 104.2020 7.7127 38.0711 -0.5024 -7.8298 -2.6287
# 2 7.7127 128.7653 25.9190 15.0463 -3.7853 13.7404
# 3 38.0711 25.9190 190.8066 13.1652 -1.1731 8.1688
# 4 -0.5024 15.0463 13.1652 40.5499 5.2633 6.3778
# 5 -7.8298 -3.7853 -1.1731 5.2633 30.8454 9.8814
# 6 -2.6287 13.7404 8.1688 6.3778 9.8814 48.5367
#
#
#
# Elastic Compliance Matrix: (Units=1/GPa)
#
#
# Indices 1 2 3 4 5 6 
#
# 1 0.010579 -0.000250 -0.002119 0.000537 0.002337 0.000454
# 2 -0.000250 0.008595 -0.000806 -0.002842 0.002211 -0.002388
# 3 -0.002119 -0.000806 0.005910 -0.001547 0.000074 -0.000693
# 4 0.000537 -0.002842 -0.001547 0.027040 -0.004383 -0.001567
# 5 0.002337 0.002211 0.000074 -0.004383 0.036388 -0.007344
# 6 0.000454 -0.002388 -0.000693 -0.001567 -0.007344 0.023121
#
#
# Mechanical properties :
#
#
# Convention : Reuss Voigt Hill
#
# Bulk Modulus (GPa) = 53.37521 63.01996 58.19758
# Shear Modulus (GPa) = 40.24903 47.45780 43.85342
#
# Velocity S-wave (km/s) = 3.91802 4.25444 4.08969
# Velocity P-wave (km/s) = 6.38944 6.94041 6.67062
#
# Compressibility (1/GPa) = 0.01873529
#
# Stress axis : x y z
#
# Youngs Moduli (GPa) = 94.52622 116.34530 169.20434
#
# Poissons Ratio (x) = 0.02904 0.35855
# Poissons Ratio (y) = 0.02359 0.13635
# Poissons Ratio (z) = 0.20030 0.09376
#
# Static dielectric constant tensor:
#      x y z
#    x 2.034770 -0.014630 0.018120 
#    y -0.014630 2.083180 -0.030820 
#    z 0.018120 -0.030820 2.068660 
# 
# From -- ./inp_files/140239.got.cif
#   From: 2010.05.17/outbox.cif.g08.bks.cpg/sg2_71_cif.got.tgz:140239.got - 2010.06.03 11:33:40.
