data_PCOD9071028
_publ_section_title
;
Structure prediction by ZEFSAII (Michael W. Deem and Ramdas Pophale) SiO2 
 PCOD9071028
Probable space group: P -1
;
_chemical_formula_sum "Si O2"
_cell_formula_units_Z 13
_cell_length_a 6.498713
_cell_length_b 13.319561
_cell_length_c 13.173858
_cell_angle_alpha 143.726181
_cell_angle_beta 109.029851
_cell_angle_gamma 94.320103
_cell_volume 507.991282
_symmetry_space_group_name_H-M "P -1"
_symmetry_group_IT_number 2
_symmetry_cell_setting 'triclinic'
loop_
_space_group_symop_operation_xyz
x,y,z
-x,-y,-z
loop_
_atom_site_type_symbol
_atom_site_label
_atom_site_fract_x
_atom_site_fract_y
_atom_site_fract_z
Si Si1 0.795815 0.168542 0.771556
Si Si2 0.651764 0.684034 0.592084
Si Si3 0.350766 0.839676 0.593582
Si Si4 0.802850 0.529076 0.140217
Si Si5 0.000000 0.000000 0.500000
Si Si6 0.735035 0.010718 0.103831
Si Si7 0.389601 0.375192 0.125440
O O1 0.809980 0.036682 0.575225
O O2 0.557504 0.005188 0.677982
O O3 0.770858 0.363200 0.916797
O O4 0.089794 0.280658 0.963479
O O5 0.500000 0.500000 0.500000
O O6 0.524067 0.809158 0.674595
O O7 0.570918 0.599863 0.394283
O O8 0.975382 0.828310 0.772058
O O9 0.228352 0.922319 0.716639
O O10 0.090368 0.633628 0.330157
O O11 0.561590 0.391880 0.070973
O O12 0.822771 0.738479 0.284796
O O13 0.500000 0.000000 0.000000
O O14 0.647372 0.777298 0.914629
#
# Coordination Sequence:
#
# PCOD9071028 Si02
#       7
#     2   2   2   2   1   2   2
#     4  12  27  51  80 109 153 207 248 324 394 459
#     4  12  27  43  72 112 155 199 259 316 368 455
#     4  12  25  49  74 106 152 206 256 305 389 458
#     4  12  27  51  80 109 153 207 248 324 394 459
#     4  12  30  52  76 124 152 184 270 326 388 478
#     4  12  27  43  72 112 155 199 259 316 368 455
#     4  12  25  49  74 106 152 206 256 305 389 458
#
# _framework density 25.590993000000001
#
# number of rings (size 3 to 8) (size 9 to 14) (size 15 to 20)
#    0.000    0.000    6.154    3.231    4.308    3.692 
#    0.000    0.000    0.000    0.000    0.000    0.000 
#    0.000    0.000    0.000    0.000    0.000    0.000 
#
# Total GULP energy -72462.259260 kJ/mol
# GULP energy per Si atom -5574.019943 kJ/mol
# Density = 2.553275 g / cm^3
# Si number density = 25.590993 Si / 1000 Ang^3
#
#
#
# Elastic Constant Matrix: (Units=GPa)
#
#
# Indices 1 2 3 4 5 6 
#
# 1 154.4624 65.8239 91.5188 10.9188 3.4522 13.8923
# 2 65.8239 115.3884 52.5874 27.5653 7.8305 15.4116
# 3 91.5188 52.5874 139.7611 4.7438 -9.3251 -0.5964
# 4 10.9188 27.5653 4.7438 52.7738 6.1179 8.2010
# 5 3.4522 7.8305 -9.3251 6.1179 85.5581 -6.8225
# 6 13.8923 15.4116 -0.5964 8.2010 -6.8225 61.4647
#
#
#
# Elastic Compliance Matrix: (Units=1/GPa)
#
#
# Indices 1 2 3 4 5 6 
#
# 1 0.012177 -0.003647 -0.006698 0.000437 -0.001085 -0.002082
# 2 -0.003647 0.013655 -0.002641 -0.005699 -0.001142 -0.001992
# 3 -0.006698 -0.002641 0.012644 0.001026 0.002007 0.002385
# 4 0.000437 -0.005699 0.001026 0.022141 -0.001106 -0.001737
# 5 -0.001085 -0.001142 0.002007 -0.001106 0.012299 0.002064
# 6 -0.002082 -0.001992 0.002385 -0.001737 0.002064 0.017723
#
#
# Mechanical properties :
#
#
# Convention : Reuss Voigt Hill
#
# Bulk Modulus (GPa) = 79.96937 92.16358 86.06647
# Shear Modulus (GPa) = 41.39773 53.27143 47.33458
#
# Velocity S-wave (km/s) = 4.02639 4.56746 4.30543
# Velocity P-wave (km/s) = 7.27548 7.99424 7.64331
#
# Compressibility (1/GPa) = 0.01250479
#
# Stress axis : x y z
#
# Youngs Moduli (GPa) = 82.12094 73.23143 79.08839
#
# Poissons Ratio (x) = 0.26705 0.52972
# Poissons Ratio (y) = 0.29947 0.20890
# Poissons Ratio (z) = 0.55003 0.19343
#
# Static dielectric constant tensor:
#      x y z
#    x 2.051530 -0.017960 -0.077740 
#    y -0.017960 1.992380 -0.040410 
#    z -0.077740 -0.040410 2.058390 
# 
# From -- ./inp_files/34908.got.cif
#   From: 2010.05.17/outbox.cif.g08.bks.cpg/sg2_18_cif.got.tgz:34908.got - 2010.06.03 11:33:40.
