data_PCOD9071520
_publ_section_title
;
Structure prediction by ZEFSAII (Michael W. Deem and Ramdas Pophale) SiO2 
 PCOD9071520
Probable space group: P -1
;
_chemical_formula_sum "Si O2"
_cell_formula_units_Z 10
_cell_length_a 18.572956
_cell_length_b 5.432769
_cell_length_c 4.894638
_cell_angle_alpha 57.186215
_cell_angle_beta 78.220217
_cell_angle_gamma 65.405695
_cell_volume 377.271420
_symmetry_space_group_name_H-M "P -1"
_symmetry_group_IT_number 2
_symmetry_cell_setting 'triclinic'
loop_
_space_group_symop_operation_xyz
x,y,z
-x,-y,-z
loop_
_atom_site_type_symbol
_atom_site_label
_atom_site_fract_x
_atom_site_fract_y
_atom_site_fract_z
Si Si1 0.266534 0.789437 0.837927
Si Si2 0.833031 0.535059 0.239218
Si Si3 0.942673 0.349038 0.766430
Si Si4 0.519711 0.252291 0.895476
Si Si5 0.633444 0.894331 0.746896
O O1 0.214664 0.663734 0.743308
O O2 0.215367 0.101257 0.857638
O O3 0.329120 0.885627 0.558556
O O4 0.314485 0.460168 0.149667
O O5 0.876622 0.368949 0.580490
O O6 0.897676 0.521570 0.967790
O O7 0.000000 0.500000 0.500000
O O8 0.000000 0.000000 0.000000
O O9 0.500000 0.500000 0.500000
O O10 0.616268 0.036380 0.983817
O O11 0.500000 0.500000 0.000000
O O12 0.459752 0.073592 0.173872
#
# Coordination Sequence:
#
# PCOD9071520 Si02
#       5
#     2   2   2   2   2
#     4  12  27  45  74 107 163 195 254 307 401 445
#     4  12  30  50  80 121 156 202 258 316 382 483
#     4  12  28  54  83 114 153 201 254 315 381 454
#     4   8  20  38  68  98 144 185 281 297 375 433
#     4   9  25  42  69 103 146 209 246 325 370 447
#
# _framework density 26.506114
#
# number of rings (size 3 to 8) (size 9 to 14) (size 15 to 20)
#    1.200    0.000    0.000    3.600    5.600   14.400 
#    0.000    2.000    0.000    0.000    0.000    0.000 
#    0.000    0.000    0.000    0.000    0.000    0.000 
#
# Total GULP energy -55825.153991 kJ/mol
# GULP energy per Si atom -5582.515399 kJ/mol
# Density = 2.644578 g / cm^3
# Si number density = 26.506114 Si / 1000 Ang^3
#
#
#
# Elastic Constant Matrix: (Units=GPa)
#
#
# Indices 1 2 3 4 5 6 
#
# 1 89.0950 78.4256 53.7005 -12.0162 -11.4661 3.6510
# 2 78.4256 281.6121 80.0068 -1.1794 -10.4875 0.1203
# 3 53.7005 80.0068 134.3941 -27.1013 -14.2666 7.7968
# 4 -12.0162 -1.1794 -27.1013 62.9582 8.9422 -11.9562
# 5 -11.4661 -10.4875 -14.2666 8.9422 47.9329 1.2741
# 6 3.6510 0.1203 7.7968 -11.9562 1.2741 47.2950
#
#
#
# Elastic Compliance Matrix: (Units=1/GPa)
#
#
# Indices 1 2 3 4 5 6 
#
# 1 0.017374 -0.003505 -0.004430 0.000998 0.001895 -0.000401
# 2 -0.003505 0.005059 -0.001901 -0.001341 -0.000053 0.000234
# 3 -0.004430 -0.001901 0.011246 0.003673 0.001203 -0.000611
# 4 0.000998 -0.001341 0.003673 0.018782 -0.002575 0.004138
# 5 0.001895 -0.000053 0.001203 -0.002575 0.022185 -0.001593
# 6 -0.000401 0.000234 -0.000611 0.004138 -0.001593 0.022364
#
#
# Mechanical properties :
#
#
# Convention : Reuss Voigt Hill
#
# Bulk Modulus (GPa) = 71.38716 103.26302 87.32509
# Shear Modulus (GPa) = 41.20228 51.16844 46.18536
#
# Velocity S-wave (km/s) = 3.94692 4.39844 4.17879
# Velocity P-wave (km/s) = 6.91099 8.05219 7.50332
#
# Compressibility (1/GPa) = 0.01400812
#
# Stress axis : x y z
#
# Youngs Moduli (GPa) = 57.55619 197.64907 88.91662
#
# Poissons Ratio (x) = 0.69277 0.39390
# Poissons Ratio (y) = 0.20174 0.16903
# Poissons Ratio (z) = 0.25498 0.37573
#
# Static dielectric constant tensor:
#      x y z
#    x 1.777820 0.224590 -0.687100 
#    y 0.224590 1.977980 0.277720 
#    z -0.687100 0.277720 0.839970 
# 
# From -- ./inp_files/113623.got.cif
#   From: 2010.05.17/outbox.cif.g08.bks.cpg/sg2_57_cif.got.tgz:113623.got - 2010.06.03 11:33:40.
