data_PCOD9071591
_publ_section_title
;
Structure prediction by ZEFSAII (Michael W. Deem and Ramdas Pophale) SiO2 
 PCOD9071591
Probable space group: P -1
;
_chemical_formula_sum "Si O2"
_cell_formula_units_Z 12
_cell_length_a 21.588047
_cell_length_b 5.020134
_cell_length_c 5.164375
_cell_angle_alpha 89.999951
_cell_angle_beta 65.512918
_cell_angle_gamma 62.284514
_cell_volume 437.810749
_symmetry_space_group_name_H-M "P -1"
_symmetry_group_IT_number 2
_symmetry_cell_setting 'triclinic'
loop_
_space_group_symop_operation_xyz
x,y,z
-x,-y,-z
loop_
_atom_site_type_symbol
_atom_site_label
_atom_site_fract_x
_atom_site_fract_y
_atom_site_fract_z
Si Si1 0.352223 0.825462 0.306656
Si Si2 0.826828 0.969154 0.368442
Si Si3 0.673172 0.776467 0.131558
Si Si4 0.147777 0.734354 0.193343
Si Si5 0.948764 0.350923 0.001609
Si Si6 0.448764 0.354019 0.501608
O O1 0.267096 0.855501 0.429480
O O2 0.421375 0.478018 0.256485
O O3 0.364421 0.989573 0.041400
O O4 0.344716 0.033309 0.570858
O O5 0.864211 0.600014 0.277719
O O6 0.844715 0.087828 0.070859
O O7 0.864421 0.052742 0.541401
O O8 0.767096 0.576115 0.929481
O O9 0.635789 0.556857 0.222282
O O10 0.078625 0.663518 0.243514
O O11 0.000000 0.500000 0.000000
O O12 0.000000 0.000000 0.000000
O O13 0.500000 0.500000 0.500000
O O14 0.500000 0.000000 0.500000
#
# Coordination Sequence:
#
# PCOD9071591 Si02
#       6
#     2   2   2   2   2   2
#     4  12  27  50  83 119 160 219 283 342 407 492
#     4  12  27  50  83 119 160 219 283 342 407 492
#     4  12  27  50  83 119 160 219 283 342 407 492
#     4  12  27  50  83 119 160 219 283 342 407 492
#     4  12  28  52  80 122 168 214 268 342 418 498
#     4  12  28  52  80 122 168 214 268 342 418 498
#
# _framework density 27.409103000000002
#
# number of rings (size 3 to 8) (size 9 to 14) (size 15 to 20)
#    0.000    0.000    6.667    2.000    0.000    2.667 
#    0.000    0.000    0.000    0.000    0.000    0.000 
#    0.000    0.000    0.000    0.000    0.000    0.000 
#
# Total GULP energy -67359.087813 kJ/mol
# GULP energy per Si atom -5613.257318 kJ/mol
# Density = 2.734672 g / cm^3
# Si number density = 27.409103 Si / 1000 Ang^3
#
#
#
# Elastic Constant Matrix: (Units=GPa)
#
#
# Indices 1 2 3 4 5 6 
#
# 1 211.0752 57.2661 50.2884 -19.5953 11.6569 12.6987
# 2 57.2661 187.4654 40.3914 -26.0220 26.1314 0.3262
# 3 50.2884 40.3914 167.0424 -21.6577 27.4357 14.9491
# 4 -19.5953 -26.0220 -21.6577 56.3136 4.6955 2.1121
# 5 11.6569 26.1314 27.4357 4.6955 55.0369 1.6739
# 6 12.6987 0.3262 14.9491 2.1121 1.6739 60.8682
#
#
#
# Elastic Compliance Matrix: (Units=1/GPa)
#
#
# Indices 1 2 3 4 5 6 
#
# 1 0.005502 -0.001303 -0.001139 0.000910 -0.000029 -0.000892
# 2 -0.001303 0.006593 -0.000411 0.002663 -0.002886 0.000325
# 3 -0.001139 -0.000411 0.007484 0.002641 -0.003471 -0.001595
# 4 0.000910 0.002663 0.002641 0.020750 -0.004500 -0.001449
# 5 -0.000029 -0.002886 -0.003471 -0.004500 0.021647 0.000435
# 6 -0.000892 0.000325 -0.001595 -0.001449 0.000435 0.017043
#
#
# Mechanical properties :
#
#
# Convention : Reuss Voigt Hill
#
# Bulk Modulus (GPa) = 72.08869 95.71941 83.90405
# Shear Modulus (GPa) = 55.95928 62.28622 59.12275
#
# Velocity S-wave (km/s) = 4.52334 4.77221 4.64944
# Velocity P-wave (km/s) = 7.32386 8.08478 7.71371
#
# Compressibility (1/GPa) = 0.01387180
#
# Stress axis : x y z
#
# Youngs Moduli (GPa) = 181.73976 151.68690 133.61822
#
# Poissons Ratio (x) = 0.19772 0.15214
# Poissons Ratio (y) = 0.23690 0.05498
# Poissons Ratio (z) = 0.20693 0.06241
#
# Static dielectric constant tensor:
#      x y z
#    x 2.141800 0.005400 -0.030880 
#    y 0.005400 2.166350 0.011890 
#    z -0.030880 0.011890 2.140620 
# 
# From -- ./inp_files/113889.got.cif
#   From: 2010.05.17/outbox.cif.g08.bks.cpg/sg2_57_cif.got.tgz:113889.got - 2010.06.03 11:33:40.
