data_PCOD9071648
_publ_section_title
;
Structure prediction by ZEFSAII (Michael W. Deem and Ramdas Pophale) SiO2 
 PCOD9071648
Probable space group: P -1
;
_chemical_formula_sum "Si O2"
_cell_formula_units_Z 16
_cell_length_a 5.521834
_cell_length_b 8.023024
_cell_length_c 21.393114
_cell_angle_alpha 93.906442
_cell_angle_beta 106.435948
_cell_angle_gamma 38.844925
_cell_volume 551.594569
_symmetry_space_group_name_H-M "P -1"
_symmetry_group_IT_number 2
_symmetry_cell_setting 'triclinic'
loop_
_space_group_symop_operation_xyz
x,y,z
-x,-y,-z
loop_
_atom_site_type_symbol
_atom_site_label
_atom_site_fract_x
_atom_site_fract_y
_atom_site_fract_z
Si Si1 0.469224 0.795391 0.672242
Si Si2 0.867448 0.777730 0.794829
Si Si3 0.704328 0.460516 0.413971
Si Si4 0.939341 0.806727 0.165325
Si Si5 0.315863 0.801851 0.289570
Si Si6 0.235603 0.777190 0.920521
Si Si7 0.415089 0.206518 0.956710
Si Si8 0.087166 0.131280 0.542646
O O1 0.850026 0.626031 0.743506
O O2 0.347447 0.677517 0.635520
O O3 0.078096 0.044320 0.693487
O O4 0.466829 0.912854 0.612963
O O5 0.231515 0.623957 0.867967
O O6 0.462239 0.999963 0.815145
O O7 0.793404 0.969964 0.746694
O O8 0.668903 0.624947 0.364056
O O9 0.070958 0.268826 0.487163
O O10 0.306684 0.649405 0.434817
O O11 0.956512 0.642357 0.114428
O O12 0.330221 0.652279 0.232742
O O13 0.830732 0.027265 0.122881
O O14 0.599143 0.627697 0.993251
O O15 0.823623 0.996913 0.938376
O O16 0.500000 0.000000 0.000000
O O17 0.000000 0.000000 0.500000
#
# Coordination Sequence:
#
# PCOD9071648 Si02
#       8
#     2   2   2   2   2   2   2   2
#     4   9  17  30  47  67  92 121 153 191 235 281
#     4   9  16  27  42  62  92 123 153 195 238 276
#     4   9  16  29  50  70  91 122 155 189 233 281
#     4   8  14  24  39  59  89 124 156 195 236 273
#     4   9  17  29  44  65  93 122 155 195 235 277
#     4   8  13  21  36  60  91 124 157 194 234 276
#     4   8  12  19  34  60  92 123 158 196 232 274
#     4   8  15  29  51  72  91 120 154 189 232 279
#
# _framework density 29.006812
#
# number of rings (size 3 to 8) (size 9 to 14) (size 15 to 20)
#    0.000    3.500    0.000    0.000    0.000    0.000 
#    0.000    4.375    0.000   25.500    0.000    0.875 
#    0.000  195.000    0.000   50.000    0.000   12.250 
#
# Total GULP energy -89505.284523 kJ/mol
# GULP energy per Si atom -5594.080283 kJ/mol
# Density = 2.894079 g / cm^3
# Si number density = 29.006812 Si / 1000 Ang^3
#
#
#
# Elastic Constant Matrix: (Units=GPa)
#
#
# Indices 1 2 3 4 5 6 
#
# 1 84.3868 18.7586 46.1829 -9.0067 -3.7503 -1.1440
# 2 18.7586 73.6150 37.7850 5.0414 9.6253 -0.5358
# 3 46.1829 37.7850 217.0838 21.0258 -2.0557 2.4941
# 4 -9.0067 5.0414 21.0258 39.6892 19.2665 12.3040
# 5 -3.7503 9.6253 -2.0557 19.2665 49.9196 -6.2364
# 6 -1.1440 -0.5358 2.4941 12.3040 -6.2364 49.9996
#
#
#
# Elastic Compliance Matrix: (Units=1/GPa)
#
#
# Indices 1 2 3 4 5 6 
#
# 1 0.014827 -0.002342 -0.003365 0.006417 -0.001206 -0.001247
# 2 -0.002342 0.015807 -0.002335 0.000538 -0.003571 -0.000346
# 3 -0.003365 -0.002335 0.006275 -0.005525 0.002749 0.001287
# 4 0.006417 0.000538 -0.005525 0.041702 -0.017444 -0.012010
# 5 -0.001206 -0.003571 0.002749 -0.017444 0.028430 0.007636
# 6 -0.001247 -0.000346 0.001287 -0.012010 0.007636 0.023811
#
#
# Mechanical properties :
#
#
# Convention : Reuss Voigt Hill
#
# Bulk Modulus (GPa) = 48.01959 64.50427 56.26193
# Shear Modulus (GPa) = 32.49319 46.07896 39.28607
#
# Velocity S-wave (km/s) = 3.35056 3.98999 3.68417
# Velocity P-wave (km/s) = 5.61773 6.59641 6.12664
#
# Compressibility (1/GPa) = 0.02082483
#
# Stress axis : x y z
#
# Youngs Moduli (GPa) = 67.44500 63.26309 159.35528
#
# Poissons Ratio (x) = 0.14815 0.53628
# Poissons Ratio (y) = 0.15794 0.37211
# Poissons Ratio (z) = 0.22697 0.14773
#
# Static dielectric constant tensor:
#      x y z
#    x 2.312890 0.065960 0.131350 
#    y 0.065960 2.267100 0.042940 
#    z 0.131350 0.042940 2.511710 
# 
# From -- ./inp_files/54747.got.cif
#   From: 2010.05.17/outbox.cif.g08.bks.cpg/sg2_28_cif.got.tgz:54747.got - 2010.06.03 11:33:40.
