data_PCOD9071531
_publ_section_title
;
Structure prediction by ZEFSAII (Michael W. Deem and Ramdas Pophale) SiO2 
 PCOD9071531
Probable space group: P -1
;
_chemical_formula_sum "Si O2"
_cell_formula_units_Z 14
_cell_length_a 11.964904
_cell_length_b 5.672185
_cell_length_c 10.760349
_cell_angle_alpha 56.774124
_cell_angle_beta 74.029514
_cell_angle_gamma 85.925479
_cell_volume 584.417024
_symmetry_space_group_name_H-M "P -1"
_symmetry_group_IT_number 2
_symmetry_cell_setting 'triclinic'
loop_
_space_group_symop_operation_xyz
x,y,z
-x,-y,-z
loop_
_atom_site_type_symbol
_atom_site_label
_atom_site_fract_x
_atom_site_fract_y
_atom_site_fract_z
Si Si1 0.062400 0.303601 0.349549
Si Si2 0.083552 0.177049 0.821990
Si Si3 0.254459 0.465710 0.066052
Si Si4 0.454248 0.456300 0.390559
Si Si5 0.284498 0.559392 0.758036
Si Si6 0.216137 0.096021 0.558888
Si Si7 0.628892 0.097621 0.885529
O O1 0.130424 0.321178 0.193632
O O2 0.164457 0.315558 0.418262
O O3 0.984903 0.562125 0.283961
O O4 0.000000 0.000000 0.500000
O O5 0.205257 0.273543 0.828902
O O6 0.127919 0.058284 0.712804
O O7 0.000000 0.000000 0.000000
O O8 0.307774 0.691965 0.088631
O O9 0.320061 0.189744 0.091240
O O10 0.250655 0.624419 0.890749
O O11 0.500000 0.500000 0.500000
O O12 0.575215 0.429697 0.287774
O O13 0.351041 0.207379 0.504865
O O14 0.391565 0.714827 0.282015
O O15 0.236390 0.774755 0.610563
O O16 0.500000 0.000000 0.000000
#
# Coordination Sequence:
#
# PCOD9071531 Si02
#       7
#     2   2   2   2   2   2   2
#     4  12  28  50  77 111 156 210 267 334 390 478
#     4  12  29  50  78 113 154 210 268 328 397 477
#     4  12  30  49  80 114 160 207 267 319 402 476
#     4  12  27  47  80 114 157 199 259 333 397 476
#     4  12  28  49  76 115 155 207 259 329 404 478
#     4  12  27  49  79 110 154 203 267 326 405 463
#     4  12  28  51  78 117 157 209 258 323 399 485
#
# _framework density 23.955499
#
# number of rings (size 3 to 8) (size 9 to 14) (size 15 to 20)
#    0.000    0.000    5.714    2.143   12.000    1.143 
#    0.000    0.000    0.000    0.000    0.000    0.000 
#    0.000    0.000    0.000    0.000    0.000    0.000 
#
# Total GULP energy -78082.853732 kJ/mol
# GULP energy per Si atom -5577.346695 kJ/mol
# Density = 2.390098 g / cm^3
# Si number density = 23.955499 Si / 1000 Ang^3
#
#
#
# Elastic Constant Matrix: (Units=GPa)
#
#
# Indices 1 2 3 4 5 6 
#
# 1 113.7955 40.0432 35.8775 -12.3640 -9.6267 -9.6690
# 2 40.0432 84.2790 26.3790 -19.2609 2.5810 -23.9644
# 3 35.8775 26.3790 133.7550 -5.3935 -6.4447 -15.1360
# 4 -12.3640 -19.2609 -5.3935 41.7102 -8.1368 6.2393
# 5 -9.6267 2.5810 -6.4447 -8.1368 73.2466 -2.8619
# 6 -9.6690 -23.9644 -15.1360 6.2393 -2.8619 55.8908
#
#
#
# Elastic Compliance Matrix: (Units=1/GPa)
#
#
# Indices 1 2 3 4 5 6 
#
# 1 0.011298 -0.004656 -0.002057 0.001343 0.001591 -0.000667
# 2 -0.004656 0.017381 -0.001342 0.005530 -0.000508 0.005640
# 3 -0.002057 -0.001342 0.008470 -0.000239 0.000551 0.001417
# 4 0.001343 0.005530 -0.000239 0.027539 0.003005 -0.000382
# 5 0.001591 -0.000508 0.000551 0.003005 0.014285 0.000603
# 6 -0.000667 0.005640 0.001417 -0.000382 0.000603 0.020652
#
#
# Mechanical properties :
#
#
# Convention : Reuss Voigt Hill
#
# Bulk Modulus (GPa) = 47.53069 59.60321 53.56695
# Shear Modulus (GPa) = 40.73362 49.47153 45.10257
#
# Velocity S-wave (km/s) = 4.12805 4.54931 4.34379
# Velocity P-wave (km/s) = 6.52728 7.24775 6.89693
#
# Compressibility (1/GPa) = 0.02103904
#
# Stress axis : x y z
#
# Youngs Moduli (GPa) = 88.50794 57.53573 118.06167
#
# Poissons Ratio (x) = 0.26787 0.24286
# Poissons Ratio (y) = 0.41207 0.15846
# Poissons Ratio (z) = 0.18207 0.07722
#
# Static dielectric constant tensor:
#      x y z
#    x 1.385590 -0.119710 0.506140 
#    y -0.119710 1.973580 0.138010 
#    z 0.506140 0.138010 1.396350 
# 
# From -- ./inp_files/81459.got.cif
#   From: 2010.05.17/outbox.cif.g08.bks.cpg/sg2_41_cif.got.tgz:81459.got - 2010.06.03 11:33:40.
