data_PCOD9071230
_publ_section_title
;
Structure prediction by ZEFSAII (Michael W. Deem and Ramdas Pophale) SiO2 
 PCOD9071230
Probable space group: P -1
;
_chemical_formula_sum "Si O2"
_cell_formula_units_Z 16
_cell_length_a 9.300983
_cell_length_b 11.216082
_cell_length_c 9.273193
_cell_angle_alpha 96.561499
_cell_angle_beta 95.480834
_cell_angle_gamma 126.763329
_cell_volume 753.405844
_symmetry_space_group_name_H-M "P -1"
_symmetry_group_IT_number 2
_symmetry_cell_setting 'triclinic'
loop_
_space_group_symop_operation_xyz
x,y,z
-x,-y,-z
loop_
_atom_site_type_symbol
_atom_site_label
_atom_site_fract_x
_atom_site_fract_y
_atom_site_fract_z
Si Si1 0.068804 0.752233 0.252017
Si Si2 0.919252 0.590810 0.496779
Si Si3 0.607394 0.273535 0.775301
Si Si4 0.644485 0.975245 0.061511
Si Si5 0.954015 0.771650 0.804347
Si Si6 0.527637 0.370445 0.478200
Si Si7 0.297172 0.450635 0.000428
Si Si8 0.769217 0.912726 0.785465
O O1 0.220101 0.726883 0.231695
O O2 0.030759 0.726531 0.414033
O O3 0.157698 0.921930 0.235991
O O4 0.866918 0.634612 0.144543
O O5 0.914729 0.663439 0.653556
O O6 0.711626 0.457932 0.414670
O O7 0.000000 0.500000 0.500000
O O8 0.432533 0.116694 0.807793
O O9 0.559097 0.321819 0.630116
O O10 0.669945 0.398731 0.920159
O O11 0.676860 0.890933 0.929441
O O12 0.838550 0.142074 0.116329
O O13 0.500000 0.000000 0.000000
O O14 0.799425 0.667514 0.892968
O O15 0.937332 0.905640 0.799163
O O16 0.500000 0.500000 0.500000
O O17 0.370706 0.220103 0.357512
O O18 0.500000 0.500000 0.000000
#
# Coordination Sequence:
#
# PCOD9071230 Si02
#       8
#     2   2   2   2   2   2   2   2
#     4  12  28  46  72 110 146 194 244 298 372 430
#     4  12  27  47  75 104 146 195 241 307 363 434
#     4  12  26  48  73 108 148 193 246 302 363 440
#     4  12  27  46  76 109 145 195 241 302 368 431
#     4  12  26  50  71 107 150 187 245 305 364 435
#     4  12  27  50  74 107 147 191 250 301 371 438
#     4  12  26  46  76 105 145 192 246 300 363 434
#     4  12  27  48  73 105 153 187 243 309 362 442
#
# _framework density 21.236895000000001
#
# number of rings (size 3 to 8) (size 9 to 14) (size 15 to 20)
#    0.000    0.000    6.250    1.500   10.500    1.000 
#    0.000    0.000    0.000    0.000    0.000    0.000 
#    0.000    0.000    0.000    0.000    0.000    0.000 
#
# Total GULP energy -89405.702548 kJ/mol
# GULP energy per Si atom -5587.856409 kJ/mol
# Density = 2.118856 g / cm^3
# Si number density = 21.236895 Si / 1000 Ang^3
#
#
#
# Elastic Constant Matrix: (Units=GPa)
#
#
# Indices 1 2 3 4 5 6 
#
# 1 149.8763 38.3775 42.0850 -6.4303 -0.0715 14.4349
# 2 38.3775 97.7259 39.0322 -17.4921 -3.2836 22.4061
# 3 42.0850 39.0322 100.7262 -6.3229 -5.7050 8.1413
# 4 -6.4303 -17.4921 -6.3229 47.1363 7.1001 3.8691
# 5 -0.0715 -3.2836 -5.7050 7.1001 21.1866 1.0983
# 6 14.4349 22.4061 8.1413 3.8691 1.0983 43.1371
#
#
#
# Elastic Compliance Matrix: (Units=1/GPa)
#
#
# Indices 1 2 3 4 5 6 
#
# 1 0.007990 -0.001794 -0.002577 0.000331 -0.000991 -0.001260
# 2 -0.001794 0.015197 -0.004249 0.005436 -0.000255 -0.006973
# 3 -0.002577 -0.004249 0.012721 -0.000723 0.002966 0.000658
# 4 0.000331 0.005436 -0.000723 0.024687 -0.007374 -0.004824
# 5 -0.000991 -0.000255 0.002966 -0.007374 0.050464 -0.000719
# 6 -0.001260 -0.006973 0.000658 -0.004824 -0.000719 0.027552
#
#
# Mechanical properties :
#
#
# Convention : Reuss Voigt Hill
#
# Bulk Modulus (GPa) = 53.56600 65.25753 59.41177
# Shear Modulus (GPa) = 30.85011 37.54757 34.19884
#
# Velocity S-wave (km/s) = 3.81552 4.20936 4.01727
# Velocity P-wave (km/s) = 6.68497 7.37700 7.03949
#
# Compressibility (1/GPa) = 0.01866856
#
# Stress axis : x y z
#
# Youngs Moduli (GPa) = 125.15448 65.80124 78.61246
#
# Poissons Ratio (x) = 0.11802 0.20257
# Poissons Ratio (y) = 0.22448 0.33405
# Poissons Ratio (z) = 0.32250 0.27961
#
# Static dielectric constant tensor:
#      x y z
#    x 1.710210 0.010790 0.031100 
#    y 0.010790 1.768510 -0.025090 
#    z 0.031100 -0.025090 1.784970 
# 
# From -- ./inp_files/188572.got.cif
#   From: 2010.05.17/outbox.cif.g08.bks.cpg/sg2_95_cif.got.tgz:188572.got - 2010.06.03 11:33:40.
