data_PCOD9071547
_publ_section_title
;
Structure prediction by ZEFSAII (Michael W. Deem and Ramdas Pophale) SiO2 
 PCOD9071547
Probable space group: P -1
;
_chemical_formula_sum "Si O2"
_cell_formula_units_Z 14
_cell_length_a 8.783910
_cell_length_b 14.273069
_cell_length_c 5.467348
_cell_angle_alpha 75.539506
_cell_angle_beta 81.638936
_cell_angle_gamma 119.251985
_cell_volume 549.323389
_symmetry_space_group_name_H-M "P -1"
_symmetry_group_IT_number 2
_symmetry_cell_setting 'triclinic'
loop_
_space_group_symop_operation_xyz
x,y,z
-x,-y,-z
loop_
_atom_site_type_symbol
_atom_site_label
_atom_site_fract_x
_atom_site_fract_y
_atom_site_fract_z
Si Si1 0.763473 0.795983 0.147197
Si Si2 0.482981 0.219304 0.414596
Si Si3 0.466487 0.547636 0.227818
Si Si4 0.010181 0.707363 0.051972
Si Si5 0.801585 0.478143 0.022759
Si Si6 0.818874 0.983730 0.691190
Si Si7 0.783468 0.202529 0.570285
O O1 0.682221 0.770412 0.452708
O O2 0.596677 0.686889 0.112471
O O3 0.936613 0.789439 0.062212
O O4 0.808028 0.920004 0.984921
O O5 0.644658 0.349139 0.222531
O O6 0.373977 0.113314 0.325955
O O7 0.581522 0.180163 0.609115
O O8 0.500000 0.500000 0.500000
O O9 0.500000 0.500000 0.000000
O O10 0.256965 0.510319 0.244739
O O11 0.830925 0.581398 0.120593
O O12 0.122349 0.719589 0.260995
O O13 0.123483 0.743223 0.750145
O O14 0.000000 0.500000 0.000000
O O15 0.808338 0.095117 0.650499
O O16 0.000000 0.000000 0.500000
#
# Coordination Sequence:
#
# PCOD9071547 Si02
#       7
#     2   2   2   2   2   2   2
#     4  12  28  46  82 115 161 207 282 329 410 483
#     4  12  29  50  82 124 160 216 277 338 421 485
#     4  12  27  48  78 118 163 216 268 337 406 492
#     4  12  29  51  82 121 165 219 272 335 419 492
#     4  12  27  52  84 122 175 216 272 342 425 504
#     4  12  27  53  83 114 161 215 281 339 411 483
#     4  12  30  52  81 119 167 215 274 344 407 496
#
# _framework density 25.485897999999999
#
# number of rings (size 3 to 8) (size 9 to 14) (size 15 to 20)
#    0.000    0.000    5.714    2.143    8.000    2.286 
#    0.000    0.000    0.000    0.000    0.000    0.000 
#    0.000    0.000    0.000    0.000    0.000    0.000 
#
# Total GULP energy -78279.717589 kJ/mol
# GULP energy per Si atom -5591.408399 kJ/mol
# Density = 2.542789 g / cm^3
# Si number density = 25.485898 Si / 1000 Ang^3
#
#
#
# Elastic Constant Matrix: (Units=GPa)
#
#
# Indices 1 2 3 4 5 6 
#
# 1 90.6167 19.7504 47.7269 1.5027 28.4880 11.5898
# 2 19.7504 168.3254 51.7862 0.1880 24.4414 16.5946
# 3 47.7269 51.7862 132.6220 4.6902 5.8572 12.4693
# 4 1.5027 0.1880 4.6902 42.7238 8.7962 16.7777
# 5 28.4880 24.4414 5.8572 8.7962 44.4269 6.1881
# 6 11.5898 16.5946 12.4693 16.7777 6.1881 55.8239
#
#
#
# Elastic Compliance Matrix: (Units=1/GPa)
#
#
# Indices 1 2 3 4 5 6 
#
# 1 0.018246 0.001941 -0.006667 0.003627 -0.012244 -0.002609
# 2 0.001941 0.007694 -0.003361 0.002119 -0.005175 -0.002002
# 3 -0.006667 -0.003361 0.011104 -0.001988 0.005062 -0.000061
# 4 0.003627 0.002119 -0.001988 0.028459 -0.007660 -0.008643
# 5 -0.012244 -0.005175 0.005062 -0.007660 0.033847 0.001500
# 6 -0.002609 -0.002002 -0.000061 -0.008643 0.001500 0.021495
#
#
# Mechanical properties :
#
#
# Convention : Reuss Voigt Hill
#
# Bulk Modulus (GPa) = 47.91225 70.01012 58.96118
# Shear Modulus (GPa) = 34.72826 46.74828 40.73827
#
# Velocity S-wave (km/s) = 3.69541 4.28750 4.00242
# Velocity P-wave (km/s) = 6.08674 7.21387 6.67414
#
# Compressibility (1/GPa) = 0.02087149
#
# Stress axis : x y z
#
# Youngs Moduli (GPa) = 54.80535 129.97945 90.05671
#
# Poissons Ratio (x) = -0.25230 0.60037
# Poissons Ratio (y) = -0.10638 0.30266
# Poissons Ratio (z) = 0.36536 0.43684
#
# Static dielectric constant tensor:
#      x y z
#    x 2.235960 -0.054670 -0.067630 
#    y -0.054670 2.013300 -0.006400 
#    z -0.067630 -0.006400 2.078970 
# 
# From -- ./inp_files/37497.got.cif
#   From: 2010.05.17/outbox.cif.g08.bks.cpg/sg2_19_cif.got.tgz:37497.got - 2010.06.03 11:33:40.
