data_PCOD9071801
_publ_section_title
;
Structure prediction by ZEFSAII (Michael W. Deem and Ramdas Pophale) SiO2 
 PCOD9071801
Probable space group: P -1
;
_chemical_formula_sum "Si O2"
_cell_formula_units_Z 12
_cell_length_a 10.268915
_cell_length_b 9.373177
_cell_length_c 15.082190
_cell_angle_alpha 160.026835
_cell_angle_beta 66.969701
_cell_angle_gamma 116.914839
_cell_volume 439.358203
_symmetry_space_group_name_H-M "P -1"
_symmetry_group_IT_number 2
_symmetry_cell_setting 'triclinic'
loop_
_space_group_symop_operation_xyz
x,y,z
-x,-y,-z
loop_
_atom_site_type_symbol
_atom_site_label
_atom_site_fract_x
_atom_site_fract_y
_atom_site_fract_z
Si Si1 0.900484 0.600244 0.192334
Si Si2 0.420017 0.083495 0.405277
Si Si3 0.573777 0.347569 0.108945
Si Si4 0.986304 0.531836 0.418071
Si Si5 0.652143 0.175310 0.267234
Si Si6 0.858540 0.432468 0.774656
O O1 0.742577 0.341679 0.045394
O O2 0.004400 0.365766 0.079964
O O3 0.858795 0.917964 0.464080
O O4 0.995447 0.954418 0.306267
O O5 0.422532 0.217283 0.585520
O O6 0.586230 0.146652 0.366467
O O7 0.370251 0.407747 0.538290
O O8 0.295161 0.628108 0.170149
O O9 0.500000 0.000000 0.000000
O O10 0.465133 0.217225 0.980358
O O11 0.826273 0.239313 0.259088
O O12 0.000000 0.500000 0.500000
O O13 0.107062 0.442649 0.264555
#
# Coordination Sequence:
#
# PCOD9071801 Si02
#       6
#     2   2   2   2   2   2
#     4   8  14  28  50  67  96 131 160 199 243 290
#     4   9  16  30  52  74 101 124 160 210 247 282
#     4   9  16  28  50  76  99 125 161 205 250 286
#     4  10  18  30  50  72  98 136 167 195 246 299
#     4  10  18  29  51  78  97 125 167 203 245 294
#     4   8  13  28  50  66  93 134 159 197 245 287
#
# _framework density 27.312567000000001
#
# number of rings (size 3 to 8) (size 9 to 14) (size 15 to 20)
#    1.000    2.000    1.667    2.000    0.000    0.000 
#    0.000    2.500    3.667    1.000    0.000    0.000 
#    0.000    0.000    0.000    0.000    0.000    0.000 
#
# Total GULP energy -66996.722427 kJ/mol
# GULP energy per Si atom -5583.060202 kJ/mol
# Density = 2.725040 g / cm^3
# Si number density = 27.312567 Si / 1000 Ang^3
#
#
#
# Elastic Constant Matrix: (Units=GPa)
#
#
# Indices 1 2 3 4 5 6 
#
# 1 121.8374 70.5348 32.2414 -13.2589 32.1312 16.8845
# 2 70.5348 195.4322 32.2861 0.9253 24.2429 27.6636
# 3 32.2414 32.2861 92.4151 1.9613 27.1023 10.9167
# 4 -13.2589 0.9253 1.9613 45.6036 5.8633 7.5420
# 5 32.1312 24.2429 27.1023 5.8633 43.1003 5.1647
# 6 16.8845 27.6636 10.9167 7.5420 5.1647 50.2535
#
#
#
# Elastic Compliance Matrix: (Units=1/GPa)
#
#
# Indices 1 2 3 4 5 6 
#
# 1 0.013463 -0.003387 -0.001011 0.005451 -0.007945 -0.002441
# 2 -0.003387 0.006860 -0.000789 -0.000645 -0.000472 -0.002322
# 3 -0.001011 -0.000789 0.013768 0.000322 -0.007323 -0.001513
# 4 0.005451 -0.000645 0.000322 0.025148 -0.006770 -0.004625
# 5 -0.007945 -0.000472 -0.007323 -0.006770 0.034679 0.001972
# 6 -0.002441 -0.002322 -0.001513 -0.004625 0.001972 0.022817
#
#
# Mechanical properties :
#
#
# Convention : Reuss Voigt Hill
#
# Bulk Modulus (GPa) = 42.16194 75.53437 58.84816
# Shear Modulus (GPa) = 37.03330 46.09965 41.56648
#
# Velocity S-wave (km/s) = 3.68626 4.11281 3.90536
# Velocity P-wave (km/s) = 5.79555 7.09007 6.47524
#
# Compressibility (1/GPa) = 0.02371807
#
# Stress axis : x y z
#
# Youngs Moduli (GPa) = 74.28018 145.78029 72.62962
#
# Poissons Ratio (x) = 0.49370 0.07343
# Poissons Ratio (y) = 0.25156 0.05728
# Poissons Ratio (z) = 0.07510 0.11498
#
# Static dielectric constant tensor:
#      x y z
#    x 2.380810 0.016590 -0.217840 
#    y 0.016590 2.057980 0.055880 
#    z -0.217840 0.055880 2.394600 
# 
# From -- ./inp_files/147932.got.cif
#   From: 2010.05.17/outbox.cif.g08.bks.cpg/sg2_74_cif.got.tgz:147932.got - 2010.06.03 11:33:40.
