data_PCOD9071246
_publ_section_title
;
Structure prediction by ZEFSAII (Michael W. Deem and Ramdas Pophale) SiO2 
 PCOD9071246
Probable space group: P -1
;
_chemical_formula_sum "Si O2"
_cell_formula_units_Z 12
_cell_length_a 23.400784
_cell_length_b 26.423267
_cell_length_c 28.290924
_cell_angle_alpha 9.469051
_cell_angle_beta 11.309380
_cell_angle_gamma 10.657213
_cell_volume 494.684634
_symmetry_space_group_name_H-M "P -1"
_symmetry_group_IT_number 2
_symmetry_cell_setting 'triclinic'
loop_
_space_group_symop_operation_xyz
x,y,z
-x,-y,-z
loop_
_atom_site_type_symbol
_atom_site_label
_atom_site_fract_x
_atom_site_fract_y
_atom_site_fract_z
Si Si1 0.665433 0.192981 0.062946
Si Si2 0.256360 0.575868 0.751860
Si Si3 0.637156 0.550421 0.117445
Si Si4 0.686366 0.939990 0.176411
Si Si5 0.231115 0.603667 0.581012
Si Si6 0.625402 0.049109 0.403781
O O1 0.632245 0.009814 0.211955
O O2 0.386983 0.222471 0.299126
O O3 0.632033 0.555136 0.737327
O O4 0.000000 0.000000 0.000000
O O5 0.392897 0.330259 0.913572
O O6 0.565565 0.484719 0.550964
O O7 0.044831 0.984473 0.564943
O O8 0.000000 0.500000 0.000000
O O9 0.407756 0.365091 0.474309
O O10 0.536383 0.777998 0.941920
O O11 0.037058 0.377757 0.948601
O O12 0.036061 0.933894 0.889399
O O13 0.500000 0.500000 0.500000
O O14 0.500000 0.000000 0.500000
#
# Coordination Sequence:
#
# PCOD9071246 Si02
#       6
#     2   2   2   2   2   2
#     4  12  26  46  78 110 148 202 258 315 380 468
#     4  12  27  50  83 118 157 210 269 325 393 477
#     4  12  28  50  74 116 156 202 254 338 392 468
#     4  12  28  50  72 114 154 194 258 318 398 450
#     4  12  27  50  83 118 157 210 269 325 393 477
#     4  12  26  46  78 110 148 202 258 315 380 468
#
# _framework density 24.25788
#
# number of rings (size 3 to 8) (size 9 to 14) (size 15 to 20)
#    0.000    0.000    5.000    4.000    2.333    4.000 
#    6.000    0.000    0.000    0.000    0.000    0.000 
#    0.000    0.000    0.000    0.000    0.000    0.000 
#
# Total GULP energy -67010.319970 kJ/mol
# GULP energy per Si atom -5584.193331 kJ/mol
# Density = 2.420267 g / cm^3
# Si number density = 24.257880 Si / 1000 Ang^3
#
#
#
# Elastic Constant Matrix: (Units=GPa)
#
#
# Indices 1 2 3 4 5 6 
#
# 1 195.2597 31.8888 39.5924 22.7272 1.7257 -6.7696
# 2 31.8888 77.6377 30.6838 9.7441 -3.4651 11.2421
# 3 39.5924 30.6838 149.4691 40.2234 -4.1642 -1.9232
# 4 22.7272 9.7441 40.2234 49.1426 -1.1237 6.7404
# 5 1.7257 -3.4651 -4.1642 -1.1237 60.9033 15.4802
# 6 -6.7696 11.2421 -1.9232 6.7404 15.4802 42.3203
#
#
#
# Elastic Compliance Matrix: (Units=1/GPa)
#
#
# Indices 1 2 3 4 5 6 
#
# 1 0.005947 -0.002336 -0.000499 -0.002209 -0.000948 0.002248
# 2 -0.002336 0.015784 -0.002957 0.001205 0.002236 -0.005711
# 3 -0.000499 -0.002957 0.009391 -0.007200 -0.000247 0.002370
# 4 -0.002209 0.001205 -0.007200 0.027895 0.001695 -0.006064
# 5 -0.000948 0.002236 -0.000247 0.001695 0.018576 -0.007822
# 6 0.002248 -0.005711 0.002370 -0.006064 -0.007822 0.029440
#
#
# Mechanical properties :
#
#
# Convention : Reuss Voigt Hill
#
# Bulk Modulus (GPa) = 51.18215 69.63295 60.40755
# Shear Modulus (GPa) = 39.95829 51.81999 45.88914
#
# Velocity S-wave (km/s) = 4.06301 4.62693 4.35411
# Velocity P-wave (km/s) = 6.56930 7.57049 7.08759
#
# Compressibility (1/GPa) = 0.01953806
#
# Stress axis : x y z
#
# Youngs Moduli (GPa) = 168.13799 63.35531 106.48857
#
# Poissons Ratio (x) = 0.14801 0.05312
# Poissons Ratio (y) = 0.39281 0.31488
# Poissons Ratio (z) = 0.08387 0.18734
#
# Static dielectric constant tensor:
#      x y z
#    x 1.866460 0.006070 0.001250 
#    y 0.006070 2.049390 -0.035940 
#    z 0.001250 -0.035940 1.992340 
# 
# From -- ./inp_files/624218.got.cif
#   From: 2010.05.17/outbox.cif.g08.bks.cpg/sg2_313_cif.got.tgz:624218.got - 2010.06.03 11:33:40.
