data_PCOD9071283
_publ_section_title
;
Structure prediction by ZEFSAII (Michael W. Deem and Ramdas Pophale) SiO2 
 PCOD9071283
Probable space group: P -1
;
_chemical_formula_sum "Si O2"
_cell_formula_units_Z 16
_cell_length_a 9.429217
_cell_length_b 11.511046
_cell_length_c 15.737280
_cell_angle_alpha 136.875943
_cell_angle_beta 141.590228
_cell_angle_gamma 64.929249
_cell_volume 679.842908
_symmetry_space_group_name_H-M "P -1"
_symmetry_group_IT_number 2
_symmetry_cell_setting 'triclinic'
loop_
_space_group_symop_operation_xyz
x,y,z
-x,-y,-z
loop_
_atom_site_type_symbol
_atom_site_label
_atom_site_fract_x
_atom_site_fract_y
_atom_site_fract_z
Si Si1 0.999137 0.200757 0.479336
Si Si2 0.784114 0.021353 0.850402
Si Si3 0.895111 0.398792 0.811327
Si Si4 0.214431 0.966925 0.342409
Si Si5 0.744854 0.650039 0.162966
Si Si6 0.945998 0.405984 0.334831
Si Si7 0.494937 0.117693 0.907399
Si Si8 0.554773 0.619866 0.505865
O O1 0.125536 0.192449 0.624085
O O2 0.065624 0.419464 0.628832
O O3 0.709520 0.080325 0.277646
O O4 0.128043 0.126297 0.424691
O O5 0.577228 0.823698 0.644949
O O6 0.856131 0.072759 0.812638
O O7 0.649346 0.131838 0.900010
O O8 0.000000 0.000000 0.000000
O O9 0.870518 0.195797 0.717146
O O10 0.654751 0.440096 0.694699
O O11 0.073241 0.443439 0.838660
O O12 0.000000 0.500000 0.000000
O O13 0.500000 0.000000 0.500000
O O14 0.656721 0.749908 0.099676
O O15 0.500000 0.500000 0.000000
O O16 0.000000 0.500000 0.500000
O O17 0.181535 0.366007 0.394343
O O18 0.714505 0.220343 0.129297
O O19 0.500000 0.500000 0.500000
#
# Coordination Sequence:
#
# PCOD9071283 Si02
#       8
#     2   2   2   2   2   2   2   2
#     4  12  27  50  77 111 156 199 260 321 384 467
#     4  12  26  47  77 107 150 203 253 312 390 461
#     4  12  30  48  78 118 153 201 262 324 386 462
#     4  12  27  48  76 111 153 201 256 322 385 455
#     4  12  26  47  79 112 155 202 252 321 396 459
#     4  12  28  48  75 107 152 201 251 314 383 461
#     4  12  26  48  75 112 148 199 257 311 390 461
#     4  12  27  51  74 109 154 202 257 313 390 465
#
# _framework density 23.534849999999999
#
# number of rings (size 3 to 8) (size 9 to 14) (size 15 to 20)
#    0.000    0.000    5.000    4.125    7.000    0.500 
#    0.000    0.000    0.000    0.000    0.000    0.000 
#    0.000    0.000    0.000    0.000    0.000    0.000 
#
# Total GULP energy -89336.502315 kJ/mol
# GULP energy per Si atom -5583.531395 kJ/mol
# Density = 2.348128 g / cm^3
# Si number density = 23.534850 Si / 1000 Ang^3
#
#
#
# Elastic Constant Matrix: (Units=GPa)
#
#
# Indices 1 2 3 4 5 6 
#
# 1 128.5306 7.4637 54.0945 -8.2339 4.4172 -10.7443
# 2 7.4637 67.4378 15.9595 -9.4286 10.5009 3.8415
# 3 54.0945 15.9595 163.2873 -18.2373 5.0249 5.6774
# 4 -8.2339 -9.4286 -18.2373 46.3963 2.6575 -0.6211
# 5 4.4172 10.5009 5.0249 2.6575 44.1763 -1.5857
# 6 -10.7443 3.8415 5.6774 -0.6211 -1.5857 44.1067
#
#
#
# Elastic Compliance Matrix: (Units=1/GPa)
#
#
# Indices 1 2 3 4 5 6 
#
# 1 0.009375 -0.000328 -0.003106 0.000438 -0.000436 0.002703
# 2 -0.000328 0.016220 -0.000962 0.003067 -0.003951 -0.001468
# 3 -0.003106 -0.000962 0.007569 0.002236 -0.000515 -0.001634
# 4 0.000438 0.003067 0.002236 0.023270 -0.002434 -0.000208
# 5 -0.000436 -0.003951 -0.000515 -0.002434 0.023865 0.001128
# 6 0.002703 -0.001468 -0.001634 -0.000208 0.001128 0.023706
#
#
# Mechanical properties :
#
#
# Convention : Reuss Voigt Hill
#
# Bulk Modulus (GPa) = 41.02584 57.14345 49.08464
# Shear Modulus (GPa) = 41.34959 45.71838 43.53398
#
# Velocity S-wave (km/s) = 4.19615 4.41225 4.30556
# Velocity P-wave (km/s) = 6.39896 7.09157 6.75415
#
# Compressibility (1/GPa) = 0.02437488
#
# Stress axis : x y z
#
# Youngs Moduli (GPa) = 106.66423 61.65301 132.11040
#
# Poissons Ratio (x) = 0.02020 0.41027
# Poissons Ratio (y) = 0.03494 0.12705
# Poissons Ratio (z) = 0.33125 0.05929
#
# Static dielectric constant tensor:
#      x y z
#    x 1.962730 0.220020 0.022720 
#    y 0.220020 2.230280 -0.028410 
#    z 0.022720 -0.028410 2.058200 
# 
# From -- ./inp_files/500916.got.cif
#   From: 2010.05.17/outbox.cif.g08.bks.cpg/sg2_251_cif.got.tgz:500916.got - 2010.06.03 11:33:40.
