data_PCOD9071205
_publ_section_title
;
Structure prediction by ZEFSAII (Michael W. Deem and Ramdas Pophale) SiO2 
 PCOD9071205
Probable space group: P -1
;
_chemical_formula_sum "Si O2"
_cell_formula_units_Z 14
_cell_length_a 16.849971
_cell_length_b 12.820623
_cell_length_c 22.469970
_cell_angle_alpha 154.661158
_cell_angle_beta 18.054644
_cell_angle_gamma 154.065303
_cell_volume 613.864632
_symmetry_space_group_name_H-M "P -1"
_symmetry_group_IT_number 2
_symmetry_cell_setting 'triclinic'
loop_
_space_group_symop_operation_xyz
x,y,z
-x,-y,-z
loop_
_atom_site_type_symbol
_atom_site_label
_atom_site_fract_x
_atom_site_fract_y
_atom_site_fract_z
Si Si1 0.976964 0.606494 0.507622
Si Si2 0.541938 0.260751 0.070714
Si Si3 0.137921 0.333248 0.855909
Si Si4 0.310679 0.979527 0.893923
Si Si5 0.480839 0.065387 0.392398
Si Si6 0.949444 0.276037 0.247131
Si Si7 0.841885 0.211905 0.713581
O O1 0.878690 0.379321 0.413455
O O2 0.000000 0.500000 0.500000
O O3 0.751194 0.745404 0.744419
O O4 0.269664 0.799131 0.384411
O O5 0.654089 0.484058 0.153040
O O6 0.743502 0.279731 0.882446
O O7 0.500000 0.000000 0.000000
O O8 0.297943 0.202197 0.629805
O O9 0.000000 0.500000 0.000000
O O10 0.917752 0.150476 0.962311
O O11 0.381762 0.808424 0.702188
O O12 0.577121 0.094937 0.801968
O O13 0.197635 0.174412 0.035783
O O14 0.713495 0.059886 0.270811
O O15 0.004348 0.524717 0.293754
O O16 0.000000 0.000000 0.500000
#
# Coordination Sequence:
#
# PCOD9071205 Si02
#       7
#     2   2   2   2   2   2   2
#     4  12  26  45  78 109 150 200 249 311 376 452
#     4  12  26  49  73 109 152 195 253 313 380 457
#     4  12  28  48  76 114 155 199 258 318 382 458
#     4  12  28  49  78 112 155 200 256 319 381 452
#     4  12  27  48  79 111 155 199 256 313 385 452
#     4  12  26  50  75 114 151 199 257 312 380 454
#     4  12  27  47  78 110 150 200 253 315 383 451
#
# _framework density 22.806331
#
# number of rings (size 3 to 8) (size 9 to 14) (size 15 to 20)
#    0.000    0.000    2.857    6.857    8.000    1.714 
#    0.000    0.000    0.000    0.000    0.000    0.000 
#    0.000    0.000    0.000    0.000    0.000    0.000 
#
# Total GULP energy -78339.754941 kJ/mol
# GULP energy per Si atom -5595.696781 kJ/mol
# Density = 2.275442 g / cm^3
# Si number density = 22.806331 Si / 1000 Ang^3
#
#
#
# Elastic Constant Matrix: (Units=GPa)
#
#
# Indices 1 2 3 4 5 6 
#
# 1 136.1612 19.5885 57.9221 7.0998 7.3494 -7.5286
# 2 19.5885 48.3739 21.4214 -2.3824 -13.0390 -2.2735
# 3 57.9221 21.4214 138.1297 -6.3192 -9.1657 -10.4397
# 4 7.0998 -2.3824 -6.3192 17.8856 0.9899 -0.7344
# 5 7.3494 -13.0390 -9.1657 0.9899 72.4428 -1.8154
# 6 -7.5286 -2.2735 -10.4397 -0.7344 -1.8154 51.6162
#
#
#
# Elastic Compliance Matrix: (Units=1/GPa)
#
#
# Indices 1 2 3 4 5 6 
#
# 1 0.009925 -0.003017 -0.004058 -0.005652 -0.001978 0.000344
# 2 -0.003017 0.024146 -0.001999 0.003484 0.004362 0.000422
# 3 -0.004058 -0.001999 0.009655 0.004744 0.001243 0.001384
# 4 -0.005652 0.003484 0.004744 0.060287 0.001006 0.001182
# 5 -0.001978 0.004362 0.001243 0.001006 0.014951 0.000695
# 6 0.000344 0.000422 0.001384 0.001182 0.000695 0.019764
#
#
# Mechanical properties :
#
#
# Convention : Reuss Voigt Hill
#
# Bulk Modulus (GPa) = 39.09423 57.83655 48.46539
# Shear Modulus (GPa) = 30.22936 43.30442 36.76689
#
# Velocity S-wave (km/s) = 3.64467 4.36224 4.01950
# Velocity P-wave (km/s) = 5.90682 7.12651 6.54513
#
# Compressibility (1/GPa) = 0.02557923
#
# Stress axis : x y z
#
# Youngs Moduli (GPa) = 100.75694 41.41391 103.57148
#
# Poissons Ratio (x) = 0.12496 0.42026
# Poissons Ratio (y) = 0.30402 0.20700
# Poissons Ratio (z) = 0.40884 0.08277
#
# Static dielectric constant tensor:
#      x y z
#    x 1.904800 0.512740 -0.571880 
#    y 0.512740 4.576080 -3.102910 
#    z -0.571880 -3.102910 5.408830 
# 
# From -- ./inp_files/274146.got.cif
#   From: 2010.05.17/outbox.cif.g08.bks.cpg/sg2_138_cif.got.tgz:274146.got - 2010.06.03 11:33:40.
