data_PCOD9071467
_publ_section_title
;
Structure prediction by ZEFSAII (Michael W. Deem and Ramdas Pophale) SiO2 
 PCOD9071467
Probable space group: P -1
;
_chemical_formula_sum "Si O2"
_cell_formula_units_Z 13
_cell_length_a 11.397310
_cell_length_b 14.687654
_cell_length_c 8.682997
_cell_angle_alpha 94.077694
_cell_angle_beta 73.076732
_cell_angle_gamma 29.740756
_cell_volume 504.264678
_symmetry_space_group_name_H-M "P -1"
_symmetry_group_IT_number 2
_symmetry_cell_setting 'triclinic'
loop_
_space_group_symop_operation_xyz
x,y,z
-x,-y,-z
loop_
_atom_site_type_symbol
_atom_site_label
_atom_site_fract_x
_atom_site_fract_y
_atom_site_fract_z
Si Si1 0.118068 0.785578 0.117147
Si Si2 0.471307 0.856716 0.803405
Si Si3 0.672300 0.191138 0.566417
Si Si4 0.500000 0.500000 0.500000
Si Si5 0.446245 0.400253 0.235390
Si Si6 0.366315 0.263306 0.906592
Si Si7 0.266896 0.149363 0.461961
O O1 0.500000 0.500000 0.000000
O O2 0.215547 0.819154 0.017971
O O3 0.924865 0.861616 0.065208
O O4 0.829394 0.000636 0.379688
O O5 0.549384 0.700613 0.696598
O O6 0.691632 0.783645 0.635879
O O7 0.558435 0.791660 0.945188
O O8 0.519727 0.381803 0.555494
O O9 0.457073 0.295985 0.797101
O O10 0.000000 0.000000 0.500000
O O11 0.425497 0.502734 0.362870
O O12 0.094701 0.631435 0.309527
O O13 0.602459 0.019081 0.722013
O O14 0.000000 0.500000 0.000000
O O15 0.500000 0.000000 0.500000
#
# Coordination Sequence:
#
# PCOD9071467 Si02
#       7
#     2   2   2   1   2   2   2
#     4  12  26  50  80 118 165 218 275 347 417 501
#     4  12  27  49  79 118 167 220 279 343 424 502
#     4  12  27  52  79 121 165 214 283 342 419 499
#     4  12  28  46  86 116 166 216 276 350 414 490
#     4  12  27  46  79 115 162 208 278 335 424 488
#     4  12  29  52  79 120 169 217 281 342 419 510
#     4  12  27  50  82 118 161 221 275 345 425 502
#
# _framework density 25.780110000000001
#
# number of rings (size 3 to 8) (size 9 to 14) (size 15 to 20)
#    0.000    0.000    1.538    7.846    6.462    2.462 
#    0.000    0.000    0.000    0.000    0.000    0.000 
#    0.000    0.000    0.000    0.000    0.000    0.000 
#
# Total GULP energy -72392.171477 kJ/mol
# GULP energy per Si atom -5568.628575 kJ/mol
# Density = 2.572143 g / cm^3
# Si number density = 25.780110 Si / 1000 Ang^3
#
#
#
# Elastic Constant Matrix: (Units=GPa)
#
#
# Indices 1 2 3 4 5 6 
#
# 1 131.8845 29.9990 54.6928 -21.4264 -3.9930 2.9989
# 2 29.9990 131.7970 41.0235 -45.5116 2.6912 -3.6880
# 3 54.6928 41.0235 92.5755 -20.9177 -13.7303 -14.6438
# 4 -21.4264 -45.5116 -20.9177 40.7980 5.6694 -1.6089
# 5 -3.9930 2.6912 -13.7303 5.6694 64.8803 -0.6971
# 6 2.9989 -3.6880 -14.6438 -1.6089 -0.6971 76.7875
#
#
#
# Elastic Compliance Matrix: (Units=1/GPa)
#
#
# Indices 1 2 3 4 5 6 
#
# 1 0.010505 0.000555 -0.006140 0.003063 -0.000960 -0.001499
# 2 0.000555 0.013343 -0.003462 0.013751 -0.002451 0.000225
# 3 -0.006140 -0.003462 0.017336 0.001474 0.003343 0.003441
# 4 0.003063 0.013751 0.001474 0.042808 -0.003793 0.001684
# 5 -0.000960 -0.002451 0.003343 -0.003793 0.016501 0.000628
# 6 -0.001499 0.000225 0.003441 0.001684 0.000628 0.013789
#
#
# Mechanical properties :
#
#
# Convention : Reuss Voigt Hill
#
# Bulk Modulus (GPa) = 43.30477 67.52085 55.41281
# Shear Modulus (GPa) = 35.69557 51.86260 43.77909
#
# Velocity S-wave (km/s) = 3.72508 4.49010 4.12536
# Velocity P-wave (km/s) = 5.94440 7.28898 6.65075
#
# Compressibility (1/GPa) = 0.02309215
#
# Stress axis : x y z
#
# Youngs Moduli (GPa) = 95.19446 74.94310 57.68251
#
# Poissons Ratio (x) = -0.04161 0.35415
# Poissons Ratio (y) = -0.05285 0.19969
# Poissons Ratio (z) = 0.58446 0.25944
#
# Static dielectric constant tensor:
#      x y z
#    x 1.970120 0.021000 0.067420 
#    y 0.021000 2.254580 0.010890 
#    z 0.067420 0.010890 2.074800 
# 
# From -- ./inp_files/270321.got.cif
#   From: 2010.05.17/outbox.cif.g08.bks.cpg/sg2_136_cif.got.tgz:270321.got - 2010.06.03 11:33:40.
