data_PCOD9071507
_publ_section_title
;
Structure prediction by ZEFSAII (Michael W. Deem and Ramdas Pophale) SiO2 
 PCOD9071507
Probable space group: P -1
;
_chemical_formula_sum "Si O2"
_cell_formula_units_Z 13
_cell_length_a 9.415699
_cell_length_b 5.054207
_cell_length_c 12.814685
_cell_angle_alpha 119.418653
_cell_angle_beta 95.515640
_cell_angle_gamma 97.599306
_cell_volume 517.291362
_symmetry_space_group_name_H-M "P -1"
_symmetry_group_IT_number 2
_symmetry_cell_setting 'triclinic'
loop_
_space_group_symop_operation_xyz
x,y,z
-x,-y,-z
loop_
_atom_site_type_symbol
_atom_site_label
_atom_site_fract_x
_atom_site_fract_y
_atom_site_fract_z
Si Si1 0.356567 0.317491 0.900740
Si Si2 0.745207 0.552053 0.710328
Si Si3 0.464916 0.759242 0.688235
Si Si4 0.786083 0.582618 0.290477
Si Si5 0.898435 0.677500 0.959725
Si Si6 0.500000 0.000000 0.500000
Si Si7 0.018398 0.768407 0.638734
O O1 0.296231 0.504645 0.840530
O O2 0.398200 0.025095 0.789059
O O3 0.500000 0.500000 0.000000
O O4 0.231423 0.257726 0.965449
O O5 0.614269 0.735206 0.750110
O O6 0.826266 0.515122 0.817342
O O7 0.657932 0.231973 0.593312
O O8 0.863351 0.747842 0.677788
O O9 0.347665 0.432805 0.638532
O O10 0.482842 0.836685 0.583970
O O11 0.895899 0.910984 0.342863
O O12 0.881330 0.345354 0.289251
O O13 0.000000 0.500000 0.000000
O O14 0.000000 0.000000 0.000000
O O15 0.000000 0.500000 0.500000
#
# Coordination Sequence:
#
# PCOD9071507 Si02
#       7
#     2   2   2   2   2   1   2
#     4  12  28  52  86 119 165 218 278 340 415 497
#     4  12  30  50  84 124 169 223 279 346 425 496
#     4  12  28  52  83 123 167 223 280 341 425 501
#     4  12  26  53  77 120 157 216 273 337 405 492
#     4  12  30  55  85 124 166 217 280 348 413 494
#     4  12  28  52  80 122 174 214 280 344 414 506
#     4  12  28  50  84 114 165 217 279 333 416 490
#
# _framework density 25.130907000000001
#
# number of rings (size 3 to 8) (size 9 to 14) (size 15 to 20)
#    0.000    0.000    1.538    6.462   10.769    2.462 
#    0.000    0.000    0.000    0.000    0.000    0.000 
#    0.000    0.000    0.000    0.000    0.000    0.000 
#
# Total GULP energy -72725.191913 kJ/mol
# GULP energy per Si atom -5594.245532 kJ/mol
# Density = 2.507371 g / cm^3
# Si number density = 25.130907 Si / 1000 Ang^3
#
#
#
# Elastic Constant Matrix: (Units=GPa)
#
#
# Indices 1 2 3 4 5 6 
#
# 1 210.3240 80.4717 56.9305 -6.6327 7.8398 37.8234
# 2 80.4717 159.8023 47.9976 -6.9315 10.0646 41.4137
# 3 56.9305 47.9976 161.4276 -0.3158 26.5817 18.8708
# 4 -6.6327 -6.9315 -0.3158 24.9397 9.7956 -10.7881
# 5 7.8398 10.0646 26.5817 9.7956 50.1987 -5.0094
# 6 37.8234 41.4137 18.8708 -10.7881 -5.0094 56.6336
#
#
#
# Elastic Compliance Matrix: (Units=1/GPa)
#
#
# Indices 1 2 3 4 5 6 
#
# 1 0.006362 -0.002239 -0.001310 0.000160 -0.000097 -0.002153
# 2 -0.002239 0.009076 -0.001107 0.000392 -0.001442 -0.004826
# 3 -0.001310 -0.001107 0.007763 0.000470 -0.003891 -0.001157
# 4 0.000160 0.000392 0.000470 0.046994 -0.008762 0.007627
# 5 -0.000097 -0.001442 -0.003891 -0.008762 0.024284 0.002895
# 6 -0.002153 -0.004826 -0.001157 0.007627 0.002895 0.024719
#
#
# Mechanical properties :
#
#
# Convention : Reuss Voigt Hill
#
# Bulk Modulus (GPa) = 71.99753 100.26152 86.12952
# Shear Modulus (GPa) = 37.55481 49.43135 43.49308
#
# Velocity S-wave (km/s) = 3.86990 4.43985 4.16463
# Velocity P-wave (km/s) = 6.97706 8.14035 7.58105
#
# Compressibility (1/GPa) = 0.01388937
#
# Stress axis : x y z
#
# Youngs Moduli (GPa) = 157.19161 110.17954 128.82177
#
# Poissons Ratio (x) = 0.24670 0.16873
# Poissons Ratio (y) = 0.35197 0.14255
# Poissons Ratio (z) = 0.20589 0.12192
#
# Static dielectric constant tensor:
#      x y z
#    x 2.052710 -0.066500 -0.077070 
#    y -0.066500 2.090800 0.076420 
#    z -0.077070 0.076420 1.961660 
# 
# From -- ./inp_files/372808.got.cif
#   From: 2010.05.17/outbox.cif.g08.bks.cpg/sg2_187_cif.got.tgz:372808.got - 2010.06.03 11:33:40.
