data_PCOD9071448
_publ_section_title
;
Structure prediction by ZEFSAII (Michael W. Deem and Ramdas Pophale) SiO2 
 PCOD9071448
Probable space group: P -1
;
_chemical_formula_sum "Si O2"
_cell_formula_units_Z 16
_cell_length_a 15.307786
_cell_length_b 8.844158
_cell_length_c 8.984291
_cell_angle_alpha 31.623619
_cell_angle_beta 85.129138
_cell_angle_gamma 87.095863
_cell_volume 634.920205
_symmetry_space_group_name_H-M "P -1"
_symmetry_group_IT_number 2
_symmetry_cell_setting 'triclinic'
loop_
_space_group_symop_operation_xyz
x,y,z
-x,-y,-z
loop_
_atom_site_type_symbol
_atom_site_label
_atom_site_fract_x
_atom_site_fract_y
_atom_site_fract_z
Si Si1 0.565110 0.146788 0.490327
Si Si2 0.248250 0.465733 0.570172
Si Si3 0.685894 0.079050 0.064220
Si Si4 0.809210 0.630768 0.007330
Si Si5 0.996886 0.821828 0.796397
Si Si6 0.250329 0.931859 0.603426
Si Si7 0.495397 0.236773 0.934344
Si Si8 0.057270 0.217848 0.710655
O O1 0.657578 0.194611 0.357268
O O2 0.529275 0.429401 0.340427
O O3 0.500000 0.000000 0.500000
O O4 0.571927 0.910044 0.816020
O O5 0.267064 0.744629 0.227910
O O6 0.155553 0.320412 0.652541
O O7 0.238767 0.461060 0.753811
O O8 0.326913 0.251089 0.710013
O O9 0.595769 0.230958 0.983056
O O10 0.736111 0.037324 0.247820
O O11 0.897793 0.809343 0.889911
O O12 0.767350 0.807600 0.727371
O O13 0.824251 0.316427 0.200754
O O14 0.000000 0.000000 0.500000
O O15 0.058031 0.024166 0.724123
O O16 0.000000 0.500000 0.000000
O O17 0.500000 0.000000 0.000000
O O18 0.000000 0.500000 0.500000
O O19 0.000000 0.000000 0.000000
#
# Coordination Sequence:
#
# PCOD9071448 Si02
#       8
#     2   2   2   2   2   2   2   2
#     4  12  26  50  77 104 147 202 249 305 372 444
#     4  12  28  48  77 107 151 198 248 306 378 447
#     4  12  28  48  75 111 149 196 250 309 373 448
#     4  12  28  49  74 110 151 197 248 305 376 451
#     4  12  28  48  76 109 150 194 252 311 368 439
#     4  12  28  47  76 109 151 195 250 308 378 446
#     4  12  28  48  76 109 151 194 255 311 369 441
#     4  12  26  50  77 104 146 200 251 303 368 447
#
# _framework density 25.200015
#
# number of rings (size 3 to 8) (size 9 to 14) (size 15 to 20)
#    0.000    0.000    2.500    6.000   14.000    0.000 
#    0.000    0.000    0.000    0.000    0.000    0.000 
#    0.000    0.000    0.000    0.000    0.000    0.000 
#
# Total GULP energy -89310.961610 kJ/mol
# GULP energy per Si atom -5581.935101 kJ/mol
# Density = 2.514266 g / cm^3
# Si number density = 25.200015 Si / 1000 Ang^3
#
#
#
# Elastic Constant Matrix: (Units=GPa)
#
#
# Indices 1 2 3 4 5 6 
#
# 1 88.5772 22.2750 19.0684 -3.5321 -0.0508 2.5958
# 2 22.2750 142.6330 74.0136 -0.0445 3.9604 16.0611
# 3 19.0684 74.0136 184.8409 2.2573 8.6755 2.6540
# 4 -3.5321 -0.0445 2.2573 54.2860 -8.3889 2.9801
# 5 -0.0508 3.9604 8.6755 -8.3889 32.6046 -5.6994
# 6 2.5958 16.0611 2.6540 2.9801 -5.6994 39.0931
#
#
#
# Elastic Compliance Matrix: (Units=1/GPa)
#
#
# Indices 1 2 3 4 5 6 
#
# 1 0.011850 -0.001517 -0.000652 0.000893 0.000588 -0.000102
# 2 -0.001517 0.009543 -0.003574 0.000134 -0.000824 -0.003708
# 3 -0.000652 -0.003574 0.006970 -0.000603 -0.001423 0.000877
# 4 0.000893 0.000134 -0.000603 0.019318 0.004972 -0.000821
# 5 0.000588 -0.000824 -0.001423 0.004972 0.033281 0.004869
# 6 -0.000102 -0.003708 0.000877 -0.000821 0.004869 0.027823
#
#
# Mechanical properties :
#
#
# Convention : Reuss Voigt Hill
#
# Bulk Modulus (GPa) = 59.25333 71.86278 65.55806
# Shear Modulus (GPa) = 39.71478 45.24302 42.47890
#
# Velocity S-wave (km/s) = 3.97417 4.24176 4.11014
# Velocity P-wave (km/s) = 6.68004 7.25044 6.97108
#
# Compressibility (1/GPa) = 0.01687669
#
# Stress axis : x y z
#
# Youngs Moduli (GPa) = 84.38542 104.78724 143.46784
#
# Poissons Ratio (x) = 0.15895 0.09357
# Poissons Ratio (y) = 0.12800 0.51282
# Poissons Ratio (z) = 0.05504 0.37456
#
# Static dielectric constant tensor:
#      x y z
#    x 2.147360 -0.009600 0.057990 
#    y -0.009600 1.760100 0.025590 
#    z 0.057990 0.025590 1.924760 
# 
# From -- ./inp_files/328289.got.cif
#   From: 2010.05.17/outbox.cif.g08.bks.cpg/sg2_165_cif.got.tgz:328289.got - 2010.06.03 11:33:40.
