data_PCOD9071958
_publ_section_title
;
Structure prediction by ZEFSAII (Michael W. Deem and Ramdas Pophale) SiO2 
 PCOD9071958
Probable space group: P -1
;
_chemical_formula_sum "Si O2"
_cell_formula_units_Z 16
_cell_length_a 13.164886
_cell_length_b 11.277082
_cell_length_c 15.113917
_cell_angle_alpha 53.927088
_cell_angle_beta 40.011230
_cell_angle_gamma 84.929853
_cell_volume 835.261666
_symmetry_space_group_name_H-M "P -1"
_symmetry_group_IT_number 2
_symmetry_cell_setting 'triclinic'
loop_
_space_group_symop_operation_xyz
x,y,z
-x,-y,-z
loop_
_atom_site_type_symbol
_atom_site_label
_atom_site_fract_x
_atom_site_fract_y
_atom_site_fract_z
Si Si1 0.755852 0.626066 0.037471
Si Si2 0.708391 0.508234 0.307229
Si Si3 0.225222 0.211141 0.717767
Si Si4 0.392158 0.994927 0.449576
Si Si5 0.898970 0.113021 0.449380
Si Si6 0.707824 0.729204 0.555802
Si Si7 0.757440 0.699810 0.726923
Si Si8 0.821877 0.319474 0.106706
O O1 0.750727 0.649427 0.135100
O O2 0.521406 0.504724 0.204380
O O3 0.791364 0.473134 0.071501
O O4 0.943872 0.819809 0.769270
O O5 0.464273 0.285477 0.545003
O O6 0.721579 0.602194 0.349327
O O7 0.925116 0.548851 0.140391
O O8 0.190120 0.201606 0.640277
O O9 0.000000 0.000000 0.000000
O O10 0.350991 0.140180 0.437647
O O11 0.653964 0.149081 0.219503
O O12 0.288310 0.906640 0.460672
O O13 0.264138 0.818127 0.686812
O O14 0.070101 0.277576 0.337305
O O15 0.788845 0.890332 0.650757
O O16 0.814183 0.728789 0.572248
O O17 0.500000 0.500000 0.000000
#
# Coordination Sequence:
#
# PCOD9071958 Si02
#       8
#     2   2   2   2   2   2   2   2
#     4  10  18  30  50  75 109 134 162 205 257 306
#     4  10  20  33  47  72 104 137 173 200 242 303
#     4  10  21  34  50  70 101 142 175 208 245 294
#     4   9  18  29  48  77 106 135 168 200 256 313
#     4  10  19  30  47  74 103 133 162 203 255 304
#     4   9  18  33  51  73 106 137 164 215 252 294
#     4  10  19  32  50  73 101 133 169 208 258 307
#     4  10  18  30  49  75 107 141 165 201 255 314
#
# _framework density 19.155674999999999
#
# number of rings (size 3 to 8) (size 9 to 14) (size 15 to 20)
#    0.000    2.250    2.500    1.125    1.750    1.000 
#    0.000    0.000    0.000    0.000    0.000    1.750 
#    0.000    0.125    0.000    0.000    0.000    0.000 
#
# Total GULP energy -89103.553137 kJ/mol
# GULP energy per Si atom -5568.972071 kJ/mol
# Density = 1.911208 g / cm^3
# Si number density = 19.155675 Si / 1000 Ang^3
#
#
#
# Elastic Constant Matrix: (Units=GPa)
#
#
# Indices 1 2 3 4 5 6 
#
# 1 119.0526 25.3621 40.0641 -4.4004 -19.7084 42.2743
# 2 25.3621 40.6390 17.6280 -2.6251 -4.7319 22.2560
# 3 40.0641 17.6280 127.2790 -16.5185 -17.6120 13.8429
# 4 -4.4004 -2.6251 -16.5185 29.2787 3.6595 1.9394
# 5 -19.7084 -4.7319 -17.6120 3.6595 30.2174 -7.4380
# 6 42.2743 22.2560 13.8429 1.9394 -7.4380 35.1143
#
#
#
# Elastic Compliance Matrix: (Units=1/GPa)
#
#
# Indices 1 2 3 4 5 6 
#
# 1 0.016490 0.002003 -0.002475 0.001957 0.004646 -0.019270
# 2 0.002003 0.039338 -0.002803 0.004174 -0.001253 -0.026736
# 3 -0.002475 -0.002803 0.009946 0.004458 0.003533 0.001338
# 4 0.001957 0.004174 0.004458 0.038261 -0.002415 -0.009384
# 5 0.004646 -0.001253 0.003533 -0.002415 0.038811 0.002163
# 6 -0.019270 -0.026736 0.001338 -0.009384 0.002163 0.069073
#
#
# Mechanical properties :
#
#
# Convention : Reuss Voigt Hill
#
# Bulk Modulus (GPa) = 16.88480 50.34212 33.61346
# Shear Modulus (GPa) = 20.98977 32.51652 26.75315
#
# Velocity S-wave (km/s) = 3.31380 4.12453 3.74119
# Velocity P-wave (km/s) = 4.84513 7.00142 6.02060
#
# Compressibility (1/GPa) = 0.05922488
#
# Stress axis : x y z
#
# Youngs Moduli (GPa) = 60.64283 25.42058 100.54242
#
# Poissons Ratio (x) = -0.05093 0.24888
# Poissons Ratio (y) = -0.12150 0.28179
# Poissons Ratio (z) = 0.15012 0.07125
#
# Static dielectric constant tensor:
#      x y z
#    x 1.761130 0.025850 -0.031750 
#    y 0.025850 1.721550 -0.020090 
#    z -0.031750 -0.020090 1.718900 
# 
# From -- ./inp_files/531096.got.cif
#   From: 2010.05.17/outbox.cif.g08.bks.cpg/sg2_266_cif.got.tgz:531096.got - 2010.06.03 11:33:40.
