data_PCOD9071631
_publ_section_title
;
Structure prediction by ZEFSAII (Michael W. Deem and Ramdas Pophale) SiO2 
 PCOD9071631
Probable space group: P -1
;
_chemical_formula_sum "Si O2"
_cell_formula_units_Z 10
_cell_length_a 14.834295
_cell_length_b 5.468800
_cell_length_c 4.778595
_cell_angle_alpha 95.896500
_cell_angle_beta 82.921561
_cell_angle_gamma 69.383642
_cell_volume 355.591600
_symmetry_space_group_name_H-M "P -1"
_symmetry_group_IT_number 2
_symmetry_cell_setting 'triclinic'
loop_
_space_group_symop_operation_xyz
x,y,z
-x,-y,-z
loop_
_atom_site_type_symbol
_atom_site_label
_atom_site_fract_x
_atom_site_fract_y
_atom_site_fract_z
Si Si1 0.613967 0.399427 0.363016
Si Si2 0.754907 0.995099 0.622530
Si Si3 0.909077 0.506563 0.337448
Si Si4 0.909074 0.175282 0.753493
Si Si5 0.386034 0.127364 0.977012
O O1 0.500000 0.500000 0.500000
O O2 0.630360 0.619636 0.184800
O O3 0.683464 0.285666 0.587510
O O4 0.633672 0.116325 0.183150
O O5 0.833370 0.801451 0.348605
O O6 0.833361 0.031819 0.818012
O O7 0.683458 0.847422 0.728976
O O8 0.855056 0.394955 0.572498
O O9 0.000000 0.500000 0.500000
O O10 0.934741 0.315245 0.032642
O O11 0.000000 0.000000 0.500000
O O12 0.500000 0.000000 0.000000
#
# Coordination Sequence:
#
# PCOD9071631 Si02
#       5
#     2   2   2   2   2
#     4  12  29  53  85 124 179 239 312 380 459 545
#     4  12  32  48  86 128 180 240 308 380 464 548
#     4  12  29  53  88 129 183 238 310 380 466 556
#     4  12  29  53  88 129 183 238 310 380 466 556
#     4  12  29  53  85 124 179 239 312 380 459 545
#
# _framework density 28.122149
#
# number of rings (size 3 to 8) (size 9 to 14) (size 15 to 20)
#    0.000    0.000    4.000    2.400   11.200    0.000 
#    0.000    0.000    0.000    0.000    0.000    0.000 
#    0.000    0.000    0.000    0.000    0.000    0.000 
#
# Total GULP energy -55877.527003 kJ/mol
# GULP energy per Si atom -5587.752700 kJ/mol
# Density = 2.805814 g / cm^3
# Si number density = 28.122149 Si / 1000 Ang^3
#
#
#
# Elastic Constant Matrix: (Units=GPa)
#
#
# Indices 1 2 3 4 5 6 
#
# 1 225.7964 92.5818 98.2157 1.3882 -27.1983 -16.9402
# 2 92.5818 217.5253 101.8879 -29.8260 -7.7326 -7.2912
# 3 98.2157 101.8879 200.1834 -12.8061 7.7913 6.9679
# 4 1.3882 -29.8260 -12.8061 67.4328 26.9956 -8.2683
# 5 -27.1983 -7.7326 7.7913 26.9956 35.6757 0.2801
# 6 -16.9402 -7.2912 6.9679 -8.2683 0.2801 68.2836
#
#
#
# Elastic Compliance Matrix: (Units=1/GPa)
#
#
# Indices 1 2 3 4 5 6 
#
# 1 0.008714 -0.002217 -0.004086 -0.006559 0.012007 0.001499
# 2 -0.002217 0.007029 -0.002166 0.003923 -0.002670 0.000908
# 3 -0.004086 -0.002166 0.008745 0.003992 -0.008503 -0.001619
# 4 -0.006559 0.003923 0.003992 0.028275 -0.026432 0.001916
# 5 0.012007 -0.002670 -0.008503 -0.026432 0.058462 0.000121
# 6 0.001499 0.000908 -0.001619 0.001916 0.000121 0.015510
#
#
# Mechanical properties :
#
#
# Convention : Reuss Voigt Hill
#
# Bulk Modulus (GPa) = 132.46265 136.54178 134.50221
# Shear Modulus (GPa) = 34.20158 57.66639 45.93399
#
# Velocity S-wave (km/s) = 3.49116 4.53323 4.04589
# Velocity P-wave (km/s) = 7.96591 8.72117 8.35208
#
# Compressibility (1/GPa) = 0.00754930
#
# Stress axis : x y z
#
# Youngs Moduli (GPa) = 114.75484 142.26546 114.34570
#
# Poissons Ratio (x) = 0.31545 0.46721
# Poissons Ratio (y) = 0.25445 0.24772
# Poissons Ratio (z) = 0.46888 0.30821
#
# Static dielectric constant tensor:
#      x y z
#    x 2.241030 0.089950 0.131670 
#    y 0.089950 2.278600 0.179690 
#    z 0.131670 0.179690 2.374730 
# 
# From -- ./inp_files/2255.got.cif
#   From: 2010.05.17/outbox.cif.g08.bks.cpg/sg2_2_cif.got.tgz:2255.got - 2010.06.03 11:33:40.
