data_PCOD9071203
_publ_section_title
;
Structure prediction by ZEFSAII (Michael W. Deem and Ramdas Pophale) SiO2 
 PCOD9071203
Probable space group: P -1
;
_chemical_formula_sum "Si O2"
_cell_formula_units_Z 14
_cell_length_a 23.897676
_cell_length_b 5.698156
_cell_length_c 24.016133
_cell_angle_alpha 54.270556
_cell_angle_beta 168.236985
_cell_angle_gamma 126.022847
_cell_volume 538.552157
_symmetry_space_group_name_H-M "P -1"
_symmetry_group_IT_number 2
_symmetry_cell_setting 'triclinic'
loop_
_space_group_symop_operation_xyz
x,y,z
-x,-y,-z
loop_
_atom_site_type_symbol
_atom_site_label
_atom_site_fract_x
_atom_site_fract_y
_atom_site_fract_z
Si Si1 0.765557 0.231743 0.066870
Si Si2 0.539792 0.656313 0.077305
Si Si3 0.003824 0.573013 0.624972
Si Si4 0.777889 0.208038 0.733311
Si Si5 0.885148 0.812234 0.045029
Si Si6 0.298696 0.014308 0.569980
Si Si7 0.411195 0.188349 0.541173
O O1 0.885397 0.205712 0.249220
O O2 0.743010 0.565181 0.980623
O O3 0.008692 0.139403 0.278082
O O4 0.473938 0.066052 0.790076
O O5 0.835790 0.646280 0.396328
O O6 0.500000 0.500000 0.000000
O O7 0.293105 0.484915 0.896456
O O8 0.500000 0.000000 0.000000
O O9 0.792977 0.324660 0.481893
O O10 0.673505 0.514029 0.608463
O O11 0.935775 0.294735 0.816908
O O12 0.500000 0.000000 0.500000
O O13 0.000000 0.000000 0.000000
O O14 0.126832 0.987957 0.290058
O O15 0.658566 0.030762 0.776534
O O16 0.474683 0.190550 0.668698
#
# Coordination Sequence:
#
# PCOD9071203 Si02
#       7
#     2   2   2   2   2   2   2
#     4  12  26  45  77 113 152 194 250 326 398 463
#     4  12  30  54  80 115 168 219 266 326 390 475
#     4  12  28  50  80 117 152 203 268 310 390 469
#     4  12  28  48  70 102 142 202 260 304 380 476
#     4  12  26  46  73 107 149 191 247 323 399 460
#     4  12  26  45  77 113 152 194 250 326 398 463
#     4  12  26  46  73 107 149 191 247 323 399 460
#
# _framework density 25.995626000000001
#
# number of rings (size 3 to 8) (size 9 to 14) (size 15 to 20)
#    0.000    0.000    2.857    6.000   10.000    3.429 
#    0.000    0.000    0.000    0.000    0.000    0.000 
#    0.000    0.000    0.000    0.000    0.000    0.000 
#
# Total GULP energy -78193.076148 kJ/mol
# GULP energy per Si atom -5585.219725 kJ/mol
# Density = 2.593646 g / cm^3
# Si number density = 25.995626 Si / 1000 Ang^3
#
#
#
# Elastic Constant Matrix: (Units=GPa)
#
#
# Indices 1 2 3 4 5 6 
#
# 1 90.4157 0.4444 17.0844 -0.8214 9.7450 -10.8264
# 2 0.4444 93.7916 40.2960 -7.4789 -6.0950 1.1782
# 3 17.0844 40.2960 189.5564 -2.9784 4.3559 -10.0363
# 4 -0.8214 -7.4789 -2.9784 52.4542 -4.3305 4.9529
# 5 9.7450 -6.0950 4.3559 -4.3305 59.0444 3.1784
# 6 -10.8264 1.1782 -10.0363 4.9529 3.1784 27.8366
#
#
#
# Elastic Compliance Matrix: (Units=1/GPa)
#
#
# Indices 1 2 3 4 5 6 
#
# 1 0.012009 0.000046 -0.000799 -0.000479 -0.002207 0.004718
# 2 0.000046 0.012105 -0.002692 0.001902 0.001688 -0.001996
# 3 -0.000799 -0.002692 0.006044 -0.000314 -0.000729 0.002121
# 4 -0.000479 0.001902 -0.000314 0.019864 0.001978 -0.004140
# 5 -0.002207 0.001688 -0.000729 0.001978 0.017867 -0.003585
# 6 0.004718 -0.001996 0.002121 -0.004140 -0.003585 0.039754
#
#
# Mechanical properties :
#
#
# Convention : Reuss Voigt Hill
#
# Bulk Modulus (GPa) = 42.97948 54.37927 48.67937
# Shear Modulus (GPa) = 40.88660 48.92964 44.90812
#
# Velocity S-wave (km/s) = 3.97019 4.34317 4.16086
# Velocity P-wave (km/s) = 6.13072 6.79079 6.46918
#
# Compressibility (1/GPa) = 0.02326692
#
# Stress axis : x y z
#
# Youngs Moduli (GPa) = 83.26888 82.61316 165.45674
#
# Poissons Ratio (x) = -0.00376 0.13221
# Poissons Ratio (y) = -0.00379 0.44539
# Poissons Ratio (z) = 0.06654 0.22239
#
# Static dielectric constant tensor:
#      x y z
#    x 2.202480 -0.002070 -0.116030 
#    y -0.002070 2.102540 -0.035280 
#    z -0.116030 -0.035280 1.957150 
# 
# From -- ./inp_files/127737.got.cif
#   From: 2010.05.17/outbox.cif.g08.bks.cpg/sg2_64_cif.got.tgz:127737.got - 2010.06.03 11:33:40.
