data_PCOD9071953
_publ_section_title
;
Structure prediction by ZEFSAII (Michael W. Deem and Ramdas Pophale) SiO2 
 PCOD9071953
Probable space group: P -1
;
_chemical_formula_sum "Si O2"
_cell_formula_units_Z 14
_cell_length_a 10.950235
_cell_length_b 15.092729
_cell_length_c 17.627796
_cell_angle_alpha 27.131228
_cell_angle_beta 130.666717
_cell_angle_gamma 151.960516
_cell_volume 487.841017
_symmetry_space_group_name_H-M "P -1"
_symmetry_group_IT_number 2
_symmetry_cell_setting 'triclinic'
loop_
_space_group_symop_operation_xyz
x,y,z
-x,-y,-z
loop_
_atom_site_type_symbol
_atom_site_label
_atom_site_fract_x
_atom_site_fract_y
_atom_site_fract_z
Si Si1 0.155576 0.030776 0.777063
Si Si2 0.032293 0.705679 0.275278
Si Si3 0.224264 0.701638 0.011355
Si Si4 0.799717 0.732923 0.698916
Si Si5 0.012310 0.764162 0.387432
Si Si6 0.243143 0.497412 0.831312
Si Si7 0.304635 0.945334 0.579764
O O1 0.002504 0.905128 0.727409
O O2 0.244557 0.339540 0.609058
O O3 0.375552 0.066013 0.826140
O O4 0.905962 0.715038 0.985486
O O5 0.177118 0.642837 0.366289
O O6 0.958488 0.757660 0.132589
O O7 0.671510 0.251554 0.505787
O O8 0.133260 0.922783 0.227406
O O9 0.397442 0.675224 0.087900
O O10 0.952297 0.361164 0.224382
O O11 0.000000 0.500000 0.000000
O O12 0.632601 0.761080 0.626656
O O13 0.000000 0.000000 0.500000
O O14 0.369259 0.155776 0.276548
O O15 0.196573 0.684480 0.669364
#
# Coordination Sequence:
#
# PCOD9071953 Si02
#       7
#     2   2   2   2   2   2   2
#     4  10  18  30  49  74 104 134 165 208 256 299
#     4  10  20  33  50  76 106 136 171 205 241 300
#     4   8  16  28  47  74  97 125 169 213 253 296
#     4   9  16  29  51  75  96 127 170 209 251 299
#     4  10  20  33  51  75 105 139 170 201 246 301
#     4  10  19  32  50  76 108 134 165 206 247 300
#     4   9  16  29  50  72  99 133 167 205 248 295
#
# _framework density 28.697873999999999
#
# number of rings (size 3 to 8) (size 9 to 14) (size 15 to 20)
#    0.000    2.571    0.000    3.857    0.000    0.571 
#    0.000    0.000    0.000    8.571    0.000   10.000 
#    0.000    0.000    0.000    0.000    0.000    0.000 
#
# Total GULP energy -78019.590366 kJ/mol
# GULP energy per Si atom -5572.827883 kJ/mol
# Density = 2.863256 g / cm^3
# Si number density = 28.697874 Si / 1000 Ang^3
#
#
#
# Elastic Constant Matrix: (Units=GPa)
#
#
# Indices 1 2 3 4 5 6 
#
# 1 153.6945 44.9229 60.6189 2.6401 54.7295 -15.0574
# 2 44.9229 98.7850 35.7975 25.2520 -17.8665 -45.4210
# 3 60.6189 35.7975 127.2760 25.4564 15.8511 -4.4789
# 4 2.6401 25.2520 25.4564 32.6217 -7.5960 -8.9714
# 5 54.7295 -17.8665 15.8511 -7.5960 78.6808 5.4581
# 6 -15.0574 -45.4210 -4.4789 -8.9714 5.4581 35.4142
#
#
#
# Elastic Compliance Matrix: (Units=1/GPa)
#
#
# Indices 1 2 3 4 5 6 
#
# 1 0.014684 -0.011616 -0.003895 0.006695 -0.011022 -0.005753
# 2 -0.011616 0.043704 -0.004186 -0.013943 0.014391 0.044835
# 3 -0.003895 -0.004186 0.012448 -0.008445 -0.001049 -0.007428
# 4 0.006695 -0.013943 -0.008445 0.046009 -0.001386 -0.004236
# 5 -0.011022 0.014391 -0.001049 -0.001386 0.023046 0.009736
# 6 -0.005753 0.044835 -0.007428 -0.004236 0.009736 0.079782
#
#
# Mechanical properties :
#
#
# Convention : Reuss Voigt Hill
#
# Bulk Modulus (GPa) = 31.80407 73.60380 52.70393
# Shear Modulus (GPa) = 18.54959 45.23773 31.89366
#
# Velocity S-wave (km/s) = 2.54515 3.97463 3.33732
# Velocity P-wave (km/s) = 4.44336 6.83864 5.76674
#
# Compressibility (1/GPa) = 0.03144252
#
# Stress axis : x y z
#
# Youngs Moduli (GPa) = 68.10086 22.88113 80.33507
#
# Poissons Ratio (x) = 0.26578 0.31294
# Poissons Ratio (y) = 0.79105 0.33624
# Poissons Ratio (z) = 0.26528 0.09577
#
# Static dielectric constant tensor:
#      x y z
#    x 2.157670 -0.101370 -0.038970 
#    y -0.101370 2.262210 -0.033990 
#    z -0.038970 -0.033990 2.056530 
# 
# From -- ./inp_files/163391.got.cif
#   From: 2010.05.17/outbox.cif.g08.bks.cpg/sg2_82_cif.got.tgz:163391.got - 2010.06.03 11:33:40.
