data_PCOD9071464
_publ_section_title
;
Structure prediction by ZEFSAII (Michael W. Deem and Ramdas Pophale) SiO2 
 PCOD9071464
Probable space group: P -1
;
_chemical_formula_sum "Si O2"
_cell_formula_units_Z 14
_cell_length_a 8.286569
_cell_length_b 11.179339
_cell_length_c 24.154683
_cell_angle_alpha 150.699050
_cell_angle_beta 36.380954
_cell_angle_gamma 122.445500
_cell_volume 533.507945
_symmetry_space_group_name_H-M "P -1"
_symmetry_group_IT_number 2
_symmetry_cell_setting 'triclinic'
loop_
_space_group_symop_operation_xyz
x,y,z
-x,-y,-z
loop_
_atom_site_type_symbol
_atom_site_label
_atom_site_fract_x
_atom_site_fract_y
_atom_site_fract_z
Si Si1 0.181901 0.234588 0.403180
Si Si2 0.689317 0.212066 0.908665
Si Si3 0.403778 0.549262 0.757431
Si Si4 0.158415 0.032935 0.111525
Si Si5 0.688897 0.188250 0.702723
Si Si6 0.614438 0.491575 0.373327
Si Si7 0.299580 0.178998 0.712682
O O1 0.350050 0.412028 0.425336
O O2 0.780827 0.452643 0.605930
O O3 0.298436 0.015365 0.229394
O O4 0.292791 0.023369 0.340542
O O5 0.856436 0.049460 0.855038
O O6 0.919215 0.308739 0.859136
O O7 0.348638 0.522290 0.144049
O O8 0.230706 0.648073 0.785832
O O9 0.441796 0.258539 0.654398
O O10 0.196429 0.797988 0.961341
O O11 0.866634 0.351357 0.297767
O O12 0.500000 0.000000 0.000000
O O13 0.376283 0.300436 0.794638
O O14 0.000000 0.000000 0.500000
O O15 0.467717 0.833445 0.540272
#
# Coordination Sequence:
#
# PCOD9071464 Si02
#       7
#     2   2   2   2   2   2   2
#     4  12  27  50  80 117 160 207 262 329 390 466
#     4  12  27  50  77 115 159 209 264 322 391 474
#     4  12  26  53  77 115 163 210 262 322 391 477
#     4  12  29  50  80 114 161 205 266 330 396 466
#     4  12  26  50  80 116 154 208 265 324 392 467
#     4  12  29  49  80 119 158 206 266 325 401 460
#     4  12  27  49  81 113 160 206 268 317 396 467
#
# _framework density 26.241408
#
# number of rings (size 3 to 8) (size 9 to 14) (size 15 to 20)
#    0.000    0.000    4.286    3.857    8.000    1.143 
#    0.000    0.000    0.000    0.000    0.000    0.000 
#    0.000    0.000    0.000    0.000    0.000    0.000 
#
# Total GULP energy -78561.045733 kJ/mol
# GULP energy per Si atom -5611.503267 kJ/mol
# Density = 2.618168 g / cm^3
# Si number density = 26.241408 Si / 1000 Ang^3
#
#
#
# Elastic Constant Matrix: (Units=GPa)
#
#
# Indices 1 2 3 4 5 6 
#
# 1 88.6960 59.3918 19.2385 -8.0490 13.7947 -20.1975
# 2 59.3918 185.7533 45.5377 1.3570 3.3017 -24.5041
# 3 19.2385 45.5377 140.8293 7.6479 21.8402 -6.7504
# 4 -8.0490 1.3570 7.6479 36.0581 0.3698 -4.0443
# 5 13.7947 3.3017 21.8402 0.3698 47.8777 -6.1433
# 6 -20.1975 -24.5041 -6.7504 -4.0443 -6.1433 60.5306
#
#
#
# Elastic Compliance Matrix: (Units=1/GPa)
#
#
# Indices 1 2 3 4 5 6 
#
# 1 0.016181 -0.004645 -0.000178 0.004244 -0.003858 0.003391
# 2 -0.004645 0.007513 -0.001982 -0.000760 0.001912 0.001414
# 3 -0.000178 -0.001982 0.008414 -0.001759 -0.003690 -0.000415
# 4 0.004244 -0.000760 -0.001759 0.029405 -0.000229 0.002854
# 5 -0.003858 0.001912 -0.003690 -0.000229 0.023740 0.001469
# 6 0.003391 0.001414 -0.000415 0.002854 0.001469 0.018518
#
#
# Mechanical properties :
#
#
# Convention : Reuss Voigt Hill
#
# Bulk Modulus (GPa) = 54.06318 73.73497 63.89908
# Shear Modulus (GPa) = 40.47094 48.30064 44.38579
#
# Velocity S-wave (km/s) = 3.93142 4.29491 4.11717
# Velocity P-wave (km/s) = 6.42301 7.26324 6.85601
#
# Compressibility (1/GPa) = 0.01849688
#
# Stress axis : x y z
#
# Youngs Moduli (GPa) = 61.80148 133.10926 118.85154
#
# Poissons Ratio (x) = 0.61830 0.02116
# Poissons Ratio (y) = 0.28707 0.23558
# Poissons Ratio (z) = 0.01101 0.26384
#
# Static dielectric constant tensor:
#      x y z
#    x 2.069510 0.009770 0.049730 
#    y 0.009770 2.020910 -0.024650 
#    z 0.049730 -0.024650 2.186330 
# 
# From -- ./inp_files/326555.got.cif
#   From: 2010.05.17/outbox.cif.g08.bks.cpg/sg2_164_cif.got.tgz:326555.got - 2010.06.03 11:33:40.
