data_PCOD9071629
_publ_section_title
;
Structure prediction by ZEFSAII (Michael W. Deem and Ramdas Pophale) SiO2 
 PCOD9071629
Probable space group: P -1
;
_chemical_formula_sum "Si O2"
_cell_formula_units_Z 12
_cell_length_a 5.069859
_cell_length_b 18.442668
_cell_length_c 4.795158
_cell_angle_alpha 89.856758
_cell_angle_beta 84.425016
_cell_angle_gamma 67.662844
_cell_volume 412.462237
_symmetry_space_group_name_H-M "P -1"
_symmetry_group_IT_number 2
_symmetry_cell_setting 'triclinic'
loop_
_space_group_symop_operation_xyz
x,y,z
-x,-y,-z
loop_
_atom_site_type_symbol
_atom_site_label
_atom_site_fract_x
_atom_site_fract_y
_atom_site_fract_z
Si Si1 0.309663 0.075666 0.700012
Si Si2 0.155651 0.704336 0.116498
Si Si3 0.661153 0.679047 0.518005
Si Si4 0.041712 0.926479 0.704405
Si Si5 0.492176 0.445052 0.252202
Si Si6 0.378655 0.182328 0.087701
O O1 0.466581 0.130993 0.793643
O O2 0.075944 0.123271 0.492996
O O3 0.500000 0.000000 0.500000
O O4 0.165316 0.054467 0.996249
O O5 0.405540 0.699035 0.312445
O O6 0.269200 0.637627 0.869875
O O7 0.922621 0.686283 0.324699
O O8 0.963336 0.782733 0.965976
O O9 0.740490 0.591581 0.633176
O O10 0.595359 0.740647 0.779059
O O11 0.365334 0.882328 0.763169
O O12 0.000000 0.000000 0.500000
O O13 0.500000 0.500000 0.500000
O O14 0.500000 0.500000 0.000000
#
# Coordination Sequence:
#
# PCOD9071629 Si02
#       6
#     2   2   2   2   2   2
#     4  12  32  56  90 129 178 238 318 396 477 552
#     4  12  29  57  92 137 193 248 315 381 474 555
#     4  12  29  57  92 137 193 248 315 381 474 555
#     4  12  32  56  90 129 178 238 318 396 477 552
#     4  12  28  58  96 139 188 248 308 384 461 568
#     4  12  32  52  94 127 190 242 324 380 469 566
#
# _framework density 29.093571000000001
#
# number of rings (size 3 to 8) (size 9 to 14) (size 15 to 20)
#    0.000    0.000    1.667    4.000   18.667    1.333 
#    0.000    0.000    0.000    0.000    0.000    0.000 
#    0.000    0.000    0.000    0.000    0.000    0.000 
#
# Total GULP energy -66989.690565 kJ/mol
# GULP energy per Si atom -5582.474214 kJ/mol
# Density = 2.902735 g / cm^3
# Si number density = 29.093571 Si / 1000 Ang^3
#
#
#
# Elastic Constant Matrix: (Units=GPa)
#
#
# Indices 1 2 3 4 5 6 
#
# 1 152.8975 7.5509 76.5937 0.7064 13.8993 -8.2245
# 2 7.5509 125.4322 79.8759 31.0532 -11.7928 1.6049
# 3 76.5937 79.8759 331.2818 14.2705 13.7988 5.1158
# 4 0.7064 31.0532 14.2705 73.5557 10.5647 7.5090
# 5 13.8993 -11.7928 13.7988 10.5647 73.0224 -18.4787
# 6 -8.2245 1.6049 5.1158 7.5090 -18.4787 50.6367
#
#
#
# Elastic Compliance Matrix: (Units=1/GPa)
#
#
# Indices 1 2 3 4 5 6 
#
# 1 0.007586 0.000682 -0.001908 -0.000011 -0.000679 0.001157
# 2 0.000682 0.011248 -0.002833 -0.004907 0.003445 0.002025
# 3 -0.001908 -0.002833 0.004185 0.000714 -0.001298 -0.001222
# 4 -0.000011 -0.004907 0.000714 0.016552 -0.004319 -0.003949
# 5 -0.000679 0.003445 -0.001298 -0.004319 0.016956 0.006740
# 6 0.001157 0.002025 -0.001222 -0.003949 0.006740 0.023041
#
#
# Mechanical properties :
#
#
# Convention : Reuss Voigt Hill
#
# Bulk Modulus (GPa) = 67.10291 104.18362 85.64326
# Shear Modulus (GPa) = 53.96504 69.14901 61.55703
#
# Velocity S-wave (km/s) = 4.31150 4.88051 4.60480
# Velocity P-wave (km/s) = 6.92098 8.22477 7.60088
#
# Compressibility (1/GPa) = 0.01490248
#
# Stress axis : x y z
#
# Youngs Moduli (GPa) = 131.81757 88.90185 238.95256
#
# Poissons Ratio (x) = -0.06066 0.45582
# Poissons Ratio (y) = -0.08994 0.67701
# Poissons Ratio (z) = 0.25145 0.25188
#
# Static dielectric constant tensor:
#      x y z
#    x 2.985290 0.301340 -0.059270 
#    y 0.301340 2.621320 -0.166820 
#    z -0.059270 -0.166820 2.275320 
# 
# From -- ./inp_files/8566.got.cif
#   From: 2010.05.17/outbox.cif.g08.bks.cpg/sg2_5_cif.got.tgz:8566.got - 2010.06.03 11:33:40.
