data_PCOD9071975
_publ_section_title
;
Structure prediction by ZEFSAII (Michael W. Deem and Ramdas Pophale) SiO2 
 PCOD9071975
Probable space group: P -1
;
_chemical_formula_sum "Si O2"
_cell_formula_units_Z 16
_cell_length_a 10.627532
_cell_length_b 8.838994
_cell_length_c 11.718161
_cell_angle_alpha 117.751522
_cell_angle_beta 72.967221
_cell_angle_gamma 132.460117
_cell_volume 718.289710
_symmetry_space_group_name_H-M "P -1"
_symmetry_group_IT_number 2
_symmetry_cell_setting 'triclinic'
loop_
_space_group_symop_operation_xyz
x,y,z
-x,-y,-z
loop_
_atom_site_type_symbol
_atom_site_label
_atom_site_fract_x
_atom_site_fract_y
_atom_site_fract_z
Si Si1 0.828072 0.330416 0.773698
Si Si2 0.471058 0.793241 0.994547
Si Si3 0.333983 0.907032 0.755019
Si Si4 0.226976 0.005832 0.161990
Si Si5 0.983540 0.191826 0.071331
Si Si6 0.829532 0.249381 0.484917
Si Si7 0.956762 0.973855 0.369846
Si Si8 0.792580 0.495977 0.206463
O O1 0.780440 0.251973 0.628596
O O2 0.851940 0.554545 0.859535
O O3 0.020974 0.423692 0.785160
O O4 0.730827 0.115598 0.806259
O O5 0.611958 0.799575 0.888108
O O6 0.284730 0.589364 0.929000
O O7 0.500000 0.000000 0.000000
O O8 0.524371 0.859246 0.135741
O O9 0.159941 0.864590 0.820674
O O10 0.318289 0.856122 0.607752
O O11 0.324278 0.714478 0.752800
O O12 0.121654 0.058734 0.280014
O O13 0.096608 0.829148 0.038096
O O14 0.000000 0.000000 0.000000
O O15 0.889882 0.104880 0.410571
O O16 0.000000 0.500000 0.500000
O O17 0.812129 0.712281 0.296052
O O18 0.000000 0.000000 0.500000
#
# Coordination Sequence:
#
# PCOD9071975 Si02
#       8
#     2   2   2   2   2   2   2   2
#     4  10  20  34  56  87 113 144 192 238 289 328
#     4   9  19  36  60  81 116 155 191 228 284 345
#     4   9  18  33  53  83 110 150 185 226 282 342
#     4  10  20  34  56  86 116 141 194 237 280 332
#     4  10  18  30  49  82 117 139 183 239 289 324
#     4  12  19  34  59  83 118 150 187 236 290 346
#     4  11  20  35  57  89 116 140 190 242 286 332
#     4   9  17  35  57  82 110 146 190 228 279 340
#
# _framework density 22.275134000000001
#
# number of rings (size 3 to 8) (size 9 to 14) (size 15 to 20)
#    0.000    2.000    5.000    1.875    0.000    2.000 
#    0.000    1.250    0.000    7.500    0.000    0.875 
#    0.000    0.000    0.000    0.000    0.000    0.000 
#
# Total GULP energy -89211.643274 kJ/mol
# GULP energy per Si atom -5575.727705 kJ/mol
# Density = 2.222443 g / cm^3
# Si number density = 22.275134 Si / 1000 Ang^3
#
#
#
# Elastic Constant Matrix: (Units=GPa)
#
#
# Indices 1 2 3 4 5 6 
#
# 1 54.6532 31.3269 42.0824 5.8803 7.9654 -8.4444
# 2 31.3269 68.0948 47.5475 14.4784 5.0584 -17.6946
# 3 42.0824 47.5475 176.2933 -8.4697 29.6376 -6.5457
# 4 5.8803 14.4784 -8.4697 46.6227 -9.8610 -6.3565
# 5 7.9654 5.0584 29.6376 -9.8610 49.4922 10.5307
# 6 -8.4444 -17.6946 -6.5457 -6.3565 10.5307 38.4772
#
#
#
# Elastic Compliance Matrix: (Units=1/GPa)
#
#
# Indices 1 2 3 4 5 6 
#
# 1 0.026954 -0.008990 -0.003730 -0.001471 -0.001774 0.001389
# 2 -0.008990 0.025770 -0.004550 -0.006892 -0.001625 0.008410
# 3 -0.003730 -0.004550 0.008501 0.002683 -0.003475 -0.000071
# 4 -0.001471 -0.006892 0.002683 0.025176 0.004366 -0.000072
# 5 -0.001774 -0.001625 -0.003475 0.004366 0.025295 -0.007930
# 6 0.001389 0.008410 -0.000071 -0.000072 -0.007930 0.032308
#
#
# Mechanical properties :
#
#
# Convention : Reuss Voigt Hill
#
# Bulk Modulus (GPa) = 37.47575 60.10609 48.79092
# Shear Modulus (GPa) = 26.67546 38.79072 32.73309
#
# Velocity S-wave (km/s) = 3.46431 4.17758 3.83755
# Velocity P-wave (km/s) = 5.73258 7.09307 6.44880
#
# Compressibility (1/GPa) = 0.02668392
#
# Stress axis : x y z
#
# Youngs Moduli (GPa) = 37.10046 38.80515 117.63940
#
# Poissons Ratio (x) = 0.34885 0.43883
# Poissons Ratio (y) = 0.33352 0.53527
# Poissons Ratio (z) = 0.13840 0.17657
#
# Static dielectric constant tensor:
#      x y z
#    x 1.945240 0.092170 -0.029090 
#    y 0.092170 1.936280 -0.059220 
#    z -0.029090 -0.059220 1.919860 
# 
# From -- ./inp_files/419726.got.cif
#   From: 2010.05.17/outbox.cif.g08.bks.cpg/sg2_210_cif.got.tgz:419726.got - 2010.06.03 11:33:40.
