data_PCOD9071459
_publ_section_title
;
Structure prediction by ZEFSAII (Michael W. Deem and Ramdas Pophale) SiO2 
 PCOD9071459
Probable space group: P -1
;
_chemical_formula_sum "Si O2"
_cell_formula_units_Z 13
_cell_length_a 10.845783
_cell_length_b 11.668477
_cell_length_c 4.841584
_cell_angle_alpha 76.786407
_cell_angle_beta 71.358804
_cell_angle_gamma 111.041070
_cell_volume 499.360672
_symmetry_space_group_name_H-M "P -1"
_symmetry_group_IT_number 2
_symmetry_cell_setting 'triclinic'
loop_
_space_group_symop_operation_xyz
x,y,z
-x,-y,-z
loop_
_atom_site_type_symbol
_atom_site_label
_atom_site_fract_x
_atom_site_fract_y
_atom_site_fract_z
Si Si1 0.638599 0.620900 0.684323
Si Si2 0.324209 0.718012 0.517443
Si Si3 0.876305 0.022803 0.914745
Si Si4 0.500000 0.000000 0.500000
Si Si5 0.781984 0.581207 0.090479
Si Si6 0.907370 0.195468 0.289730
Si Si7 0.405794 0.161407 0.115016
O O1 0.668096 0.602816 0.357133
O O2 0.634331 0.757024 0.677112
O O3 0.500000 0.500000 0.000000
O O4 0.770408 0.619225 0.764615
O O5 0.261068 0.572499 0.770643
O O6 0.439474 0.735689 0.187055
O O7 0.186978 0.742785 0.531218
O O8 0.421784 0.840772 0.578698
O O9 0.729588 0.897320 0.976168
O O10 0.060662 0.888820 0.454089
O O11 0.829425 0.100068 0.134338
O O12 0.000000 0.000000 0.000000
O O13 0.419591 0.031857 0.272211
O O14 0.945753 0.684503 0.003205
#
# Coordination Sequence:
#
# PCOD9071459 Si02
#       7
#     2   2   2   1   2   2   2
#     4  12  26  51  79 117 158 207 269 332 396 481
#     4  12  27  49  81 117 163 207 269 335 400 482
#     4  12  28  53  80 118 166 216 269 331 400 482
#     4  12  26  50  78 124 158 210 266 338 404 474
#     4  12  28  51  79 118 160 212 268 327 406 477
#     4  12  28  51  78 118 165 212 271 324 408 483
#     4  12  28  48  86 118 160 208 274 337 402 474
#
# _framework density 26.033290000000001
#
# number of rings (size 3 to 8) (size 9 to 14) (size 15 to 20)
#    0.000    0.000    3.077    5.538    4.308    1.231 
#    0.000    3.077    0.000    0.000    0.000    0.000 
#    0.000    0.000    0.000    0.000    0.000    0.000 
#
# Total GULP energy -72673.854598 kJ/mol
# GULP energy per Si atom -5590.296508 kJ/mol
# Density = 2.597404 g / cm^3
# Si number density = 26.033290 Si / 1000 Ang^3
#
#
#
# Elastic Constant Matrix: (Units=GPa)
#
#
# Indices 1 2 3 4 5 6 
#
# 1 104.3906 30.5557 42.3171 -7.8465 5.2159 -19.6544
# 2 30.5557 150.3551 57.5933 -15.8158 3.6579 -17.5853
# 3 42.3171 57.5933 134.7826 -11.9187 8.4732 -5.8276
# 4 -7.8465 -15.8158 -11.9187 46.7518 2.4733 4.9540
# 5 5.2159 3.6579 8.4732 2.4733 48.6966 -16.2564
# 6 -19.6544 -17.5853 -5.8276 4.9540 -16.2564 37.6209
#
#
#
# Elastic Compliance Matrix: (Units=1/GPa)
#
#
# Indices 1 2 3 4 5 6 
#
# 1 0.012225 -0.000443 -0.003441 0.000294 0.001379 0.006204
# 2 -0.000443 0.008550 -0.003293 0.001549 0.001073 0.003515
# 3 -0.003441 -0.003293 0.010031 0.001286 -0.002158 -0.002885
# 4 0.000294 0.001549 0.001286 0.022744 -0.002532 -0.003012
# 5 0.001379 0.001073 -0.002158 -0.002532 0.024796 0.011935
# 6 0.006204 0.003515 -0.002885 -0.003012 0.011935 0.036572
#
#
# Mechanical properties :
#
#
# Convention : Reuss Voigt Hill
#
# Bulk Modulus (GPa) = 60.78228 72.27340 66.52784
# Shear Modulus (GPa) = 37.10361 43.88468 40.49414
#
# Velocity S-wave (km/s) = 3.77933 4.11020 3.94823
# Velocity P-wave (km/s) = 6.51483 7.09557 6.81139
#
# Compressibility (1/GPa) = 0.01645216
#
# Stress axis : x y z
#
# Youngs Moduli (GPa) = 81.79665 116.95526 99.68610
#
# Poissons Ratio (x) = 0.05185 0.34306
# Poissons Ratio (y) = 0.03626 0.32825
# Poissons Ratio (z) = 0.28149 0.38512
#
# Static dielectric constant tensor:
#      x y z
#    x 2.179430 0.037920 -0.023700 
#    y 0.037920 1.998620 0.013090 
#    z -0.023700 0.013090 2.045690 
# 
# From -- ./inp_files/65943.got.cif
#   From: 2010.05.17/outbox.cif.g08.bks.cpg/sg2_33_cif.got.tgz:65943.got - 2010.06.03 11:33:40.
