data_PCOD9071893
_publ_section_title
;
Structure prediction by ZEFSAII (Michael W. Deem and Ramdas Pophale) SiO2 
 PCOD9071893
Probable space group: P -1
;
_chemical_formula_sum "Si O2"
_cell_formula_units_Z 16
_cell_length_a 30.000000
_cell_length_b 21.000000
_cell_length_c 12.000000
_cell_angle_alpha 40.000000
_cell_angle_beta 140.000000
_cell_angle_gamma 170.000000
_cell_volume 839.239567
_symmetry_space_group_name_H-M "P -1"
_symmetry_group_IT_number 2
_symmetry_cell_setting 'triclinic'
loop_
_space_group_symop_operation_xyz
x,y,z
-x,-y,-z
loop_
_atom_site_type_symbol
_atom_site_label
_atom_site_fract_x
_atom_site_fract_y
_atom_site_fract_z
Si Si1 0.984751 0.660072 0.070986
Si Si2 0.972205 0.804263 0.419652
Si Si3 0.268052 0.590838 0.285324
Si Si4 0.700505 0.345784 0.158508
Si Si5 0.747596 0.640165 0.918692
Si Si6 0.578819 0.871186 0.819027
Si Si7 0.077695 0.458910 0.466152
Si Si8 0.771258 0.177605 0.399350
O O1 0.920833 0.619128 0.123812
O O2 0.802964 0.312952 0.193698
O O3 0.889032 0.601667 0.869824
O O4 0.262344 0.991756 0.132700
O O5 0.926048 0.712878 0.583055
O O6 0.693467 0.466939 0.300399
O O7 0.001424 0.736447 0.508222
O O8 0.191749 0.185980 0.286264
O O9 0.433341 0.920491 0.184445
O O10 0.491772 0.814231 0.402833
O O11 0.758446 0.374703 0.349774
O O12 0.720685 0.492851 0.010295
O O13 0.502001 0.294800 0.996993
O O14 0.000000 0.000000 0.000000
O O15 0.757743 0.219067 0.697657
O O16 0.836835 0.172671 0.457842
O O17 0.000000 0.500000 0.500000
#
# Coordination Sequence:
#
# PCOD9071893 Si02
#       8
#     2   2   2   2   2   2   2   2
#     4  10  22  35  56  87 117 149 182 225 282 341
#     4  11  21  36  58  84 112 145 190 237 276 325
#     4  11  21  37  58  85 117 149 183 225 282 342
#     4  11  18  35  58  85 115 142 180 235 284 322
#     4  10  21  36  56  83 114 144 190 238 278 322
#     4  10  19  36  57  85 112 143 187 236 280 324
#     4  11  18  31  60  88 109 138 183 233 289 318
#     4  10  17  32  56  88 111 137 181 237 281 319
#
# _framework density 19.064878
#
# number of rings (size 3 to 8) (size 9 to 14) (size 15 to 20)
#    0.000    1.500    6.250    3.375    0.000    0.000 
#    0.000   11.875    0.000    0.000    0.000    0.000 
#    0.000    0.000    0.000    0.000    0.000    0.000 
#
# Total GULP energy -89076.907897 kJ/mol
# GULP energy per Si atom -5567.306744 kJ/mol
# Density = 1.902149 g / cm^3
# Si number density = 19.064878 Si / 1000 Ang^3
#
#
#
# Elastic Constant Matrix: (Units=GPa)
#
#
# Indices 1 2 3 4 5 6 
#
# 1 93.8037 23.8318 24.1040 -17.2636 1.6289 27.3425
# 2 23.8318 36.9996 26.0528 -29.1247 0.1374 7.1224
# 3 24.1040 26.0528 112.6442 -29.3889 -16.0191 8.7809
# 4 -17.2636 -29.1247 -29.3889 41.9894 3.5184 -2.3407
# 5 1.6289 0.1374 -16.0191 3.5184 31.8702 -9.5342
# 6 27.3425 7.1224 8.7809 -2.3407 -9.5342 21.6266
#
#
#
# Elastic Compliance Matrix: (Units=1/GPa)
#
#
# Indices 1 2 3 4 5 6 
#
# 1 0.021978 -0.002958 -0.002052 0.004830 -0.011854 -0.030682
# 2 -0.002958 0.071258 -0.004458 0.045132 -0.012991 -0.018760
# 3 -0.002052 -0.004458 0.012172 0.004174 0.006513 0.002444
# 4 0.004830 0.045132 0.004174 0.059793 -0.011276 -0.021165
# 5 -0.011854 -0.012991 0.006513 -0.011276 0.047419 0.036306
# 6 -0.030682 -0.018760 0.002444 -0.021165 0.036306 0.103932
#
#
# Mechanical properties :
#
#
# Convention : Reuss Voigt Hill
#
# Bulk Modulus (GPa) = 11.56458 43.49164 27.52811
# Shear Modulus (GPa) = 13.72451 30.39450 22.05951
#
# Velocity S-wave (km/s) = 2.68598 3.99716 3.40527
# Velocity P-wave (km/s) = 3.96212 6.64568 5.47099
#
# Compressibility (1/GPa) = 0.08647091
#
# Stress axis : x y z
#
# Youngs Moduli (GPa) = 45.50051 14.03359 82.15252
#
# Poissons Ratio (x) = 0.04151 0.16861
# Poissons Ratio (y) = 0.13460 0.36622
# Poissons Ratio (z) = 0.09339 0.06256
#
# Static dielectric constant tensor:
#      x y z
#    x 1.737590 0.027500 -0.019330 
#    y 0.027500 1.666360 0.012590 
#    z -0.019330 0.012590 1.687600 
# 
# From -- ./inp_files/477734.got.cif
#   From: 2010.05.17/outbox.ucp.g08.bks.cvg/sg2_239_cif.got.tgz:477734.got - 2010.06.11 11:32:03.
