data_PCOD9071338
_publ_section_title
;
Structure prediction by ZEFSAII (Michael W. Deem and Ramdas Pophale) SiO2 
 PCOD9071338
Probable space group: P -1
;
_chemical_formula_sum "Si O2"
_cell_formula_units_Z 11
_cell_length_a 12.171928
_cell_length_b 16.988683
_cell_length_c 4.730152
_cell_angle_alpha 108.446129
_cell_angle_beta 99.945606
_cell_angle_gamma 26.435868
_cell_volume 398.663291
_symmetry_space_group_name_H-M "P -1"
_symmetry_group_IT_number 2
_symmetry_cell_setting 'triclinic'
loop_
_space_group_symop_operation_xyz
x,y,z
-x,-y,-z
loop_
_atom_site_type_symbol
_atom_site_label
_atom_site_fract_x
_atom_site_fract_y
_atom_site_fract_z
Si Si1 0.500000 0.500000 0.500000
Si Si2 0.747923 0.725106 0.201612
Si Si3 0.317384 0.949351 0.681919
Si Si4 0.419250 0.381870 0.546018
Si Si5 0.139360 0.843753 0.105626
Si Si6 0.853204 0.764926 0.814432
O O1 0.402926 0.467402 0.416824
O O2 0.264155 0.684816 0.809692
O O3 0.500209 0.850165 0.385462
O O4 0.818220 0.756341 0.471170
O O5 0.695544 0.804604 0.973687
O O6 0.000000 0.500000 0.000000
O O7 0.493786 0.763641 0.712094
O O8 0.058791 0.067559 0.663417
O O9 0.213743 0.098467 0.966275
O O10 0.150740 0.550781 0.767712
O O11 0.637122 0.266883 0.729431
O O12 0.000000 0.000000 0.000000
#
# Coordination Sequence:
#
# PCOD9071338 Si02
#       6
#     1   2   2   2   2   2
#     4  12  26  48  76 112 166 208 278 332 416 480
#     4  12  28  53  84 117 164 216 280 341 413 487
#     4  12  27  49  79 116 165 216 278 331 416 491
#     4  12  28  47  80 118 162 215 273 342 408 490
#     4  12  28  47  78 119 160 217 271 340 412 498
#     4  12  29  52  81 120 163 219 276 345 409 492
#
# _framework density 27.592205
#
# number of rings (size 3 to 8) (size 9 to 14) (size 15 to 20)
#    0.000    0.000    5.455    2.727    2.545    2.909 
#    0.000    0.000    0.000    0.000    0.000    0.000 
#    0.000    0.000    0.000    0.000    0.000    0.000 
#
# Total GULP energy -61398.492552 kJ/mol
# GULP energy per Si atom -5581.681141 kJ/mol
# Density = 2.752940 g / cm^3
# Si number density = 27.592205 Si / 1000 Ang^3
#
#
#
# Elastic Constant Matrix: (Units=GPa)
#
#
# Indices 1 2 3 4 5 6 
#
# 1 145.3625 43.3833 53.8852 27.5694 -36.1807 -5.1739
# 2 43.3833 63.5913 45.8605 25.1368 15.7563 -22.6794
# 3 53.8852 45.8605 189.5034 54.8754 6.3728 -0.8448
# 4 27.5694 25.1368 54.8754 49.7670 8.1100 7.1499
# 5 -36.1807 15.7563 6.3728 8.1100 66.9652 21.9651
# 6 -5.1739 -22.6794 -0.8448 7.1499 21.9651 62.2746
#
#
#
# Elastic Compliance Matrix: (Units=1/GPa)
#
#
# Indices 1 2 3 4 5 6 
#
# 1 0.017233 -0.020287 -0.000762 0.000362 0.018188 -0.012423
# 2 -0.020287 0.056369 -0.002728 -0.013465 -0.032804 0.031923
# 3 -0.000762 -0.002728 0.008266 -0.007346 0.000414 -0.000247
# 4 0.000362 -0.013465 -0.007346 0.035755 0.003065 -0.010160
# 5 0.018188 -0.032804 0.000414 0.003065 0.040262 -0.024983
# 6 -0.012423 0.031923 -0.000247 -0.010160 -0.024983 0.036626
#
#
# Mechanical properties :
#
#
# Convention : Reuss Voigt Hill
#
# Bulk Modulus (GPa) = 29.14380 76.07948 52.61164
# Shear Modulus (GPa) = 19.72357 52.82323 36.27340
#
# Velocity S-wave (km/s) = 2.67652 4.38016 3.62971
# Velocity P-wave (km/s) = 4.48742 7.29478 6.05602
#
# Compressibility (1/GPa) = 0.03431262
#
# Stress axis : x y z
#
# Youngs Moduli (GPa) = 58.02942 17.74033 120.97334
#
# Poissons Ratio (x) = 0.35990 0.09224
# Poissons Ratio (y) = 1.17723 0.33004
# Poissons Ratio (z) = 0.04424 0.04840
#
# Static dielectric constant tensor:
#      x y z
#    x 2.202020 0.013050 -0.059420 
#    y 0.013050 2.286900 -0.012080 
#    z -0.059420 -0.012080 2.162390 
# 
# From -- ./inp_files/31129.got.cif
#   From: 2010.05.17/outbox.cif.g08.bks.cpg/sg2_16_cif.got.tgz:31129.got - 2010.06.03 11:33:40.
