data_PCOD9071731
_publ_section_title
;
Structure prediction by ZEFSAII (Michael W. Deem and Ramdas Pophale) SiO2 
 PCOD9071731
Probable space group: P -1
;
_chemical_formula_sum "Si O2"
_cell_formula_units_Z 16
_cell_length_a 8.323775
_cell_length_b 5.616342
_cell_length_c 16.222357
_cell_angle_alpha 83.272615
_cell_angle_beta 120.116577
_cell_angle_gamma 74.934406
_cell_volume 604.994556
_symmetry_space_group_name_H-M "P -1"
_symmetry_group_IT_number 2
_symmetry_cell_setting 'triclinic'
loop_
_space_group_symop_operation_xyz
x,y,z
-x,-y,-z
loop_
_atom_site_type_symbol
_atom_site_label
_atom_site_fract_x
_atom_site_fract_y
_atom_site_fract_z
Si Si1 0.484538 0.740994 0.893394
Si Si2 0.411632 0.036766 0.384560
Si Si3 0.112500 0.980639 0.905672
Si Si4 0.929552 0.503612 0.075811
Si Si5 0.832037 0.347578 0.390765
Si Si6 0.598894 0.209278 0.859999
Si Si7 0.197094 0.136737 0.621617
Si Si8 0.384917 0.574543 0.323081
O O1 0.298089 0.886944 0.895820
O O2 0.471830 0.488066 0.856773
O O3 0.521132 0.972124 0.842998
O O4 0.687658 0.618389 0.004800
O O5 0.592904 0.949470 0.368416
O O6 0.314973 0.819874 0.356017
O O7 0.500000 0.000000 0.500000
O O8 0.307796 0.344052 0.331142
O O9 0.994248 0.792642 0.865485
O O10 0.019138 0.287371 0.867668
O O11 0.209949 0.904577 0.025472
O O12 0.000000 0.500000 0.000000
O O13 0.828280 0.614147 0.340552
O O14 0.631380 0.428589 0.392759
O O15 0.026385 0.238164 0.502867
O O16 0.827359 0.118784 0.340018
O O17 0.644119 0.302725 0.780212
#
# Coordination Sequence:
#
# PCOD9071731 Si02
#       8
#     2   2   2   2   2   2   2   2
#     4  10  19  33  52  76 102 133 172 210 253 294
#     4  10  19  31  46  69  96 122 162 196 239 286
#     4  10  19  33  51  76 105 131 172 213 251 293
#     4  10  18  29  48  77 101 128 170 217 248 288
#     4   8  14  25  41  64  87 106 139 189 228 269
#     4  10  18  30  49  74  99 128 160 209 254 290
#     4   8  14  25  42  62  85 110 141 182 230 266
#     4  10  19  30  47  74  94 118 161 203 240 287
#
# _framework density 26.446518000000001
#
# number of rings (size 3 to 8) (size 9 to 14) (size 15 to 20)
#    0.000    2.500    0.000    5.250    0.000    0.000 
#    0.000    0.000    0.000    0.000   52.000    0.000 
#    0.000    0.000    0.000    0.000    0.000    0.000 
#
# Total GULP energy -89436.252024 kJ/mol
# GULP energy per Si atom -5589.765751 kJ/mol
# Density = 2.638632 g / cm^3
# Si number density = 26.446518 Si / 1000 Ang^3
#
#
#
# Elastic Constant Matrix: (Units=GPa)
#
#
# Indices 1 2 3 4 5 6 
#
# 1 68.3996 34.2744 6.4396 3.3747 -2.0346 -0.0299
# 2 34.2744 334.8777 46.4913 -17.5744 -9.9194 33.4046
# 3 6.4396 46.4913 99.5992 -14.8294 -1.6686 -6.4940
# 4 3.3747 -17.5744 -14.8294 46.7529 -6.6320 0.3572
# 5 -2.0346 -9.9194 -1.6686 -6.6320 24.8364 -4.3978
# 6 -0.0299 33.4046 -6.4940 0.3572 -4.3978 36.0626
#
#
#
# Elastic Compliance Matrix: (Units=1/GPa)
#
#
# Indices 1 2 3 4 5 6 
#
# 1 0.015664 -0.001815 -0.000330 -0.001883 0.000333 0.001695
# 2 -0.001815 0.003886 -0.001751 0.001197 0.000930 -0.003815
# 3 -0.000330 -0.001751 0.011644 0.003258 0.001613 0.003883
# 4 -0.001883 0.001197 0.003258 0.023996 0.006966 0.000088
# 5 0.000333 0.000930 0.001613 0.006966 0.043456 0.004660
# 6 0.001695 -0.003815 0.003883 0.000088 0.004660 0.032531
#
#
# Mechanical properties :
#
#
# Convention : Reuss Voigt Hill
#
# Bulk Modulus (GPa) = 42.73223 75.25414 58.99318
# Shear Modulus (GPa) = 34.06652 49.24181 41.65416
#
# Velocity S-wave (km/s) = 3.59294 4.31970 3.97298
# Velocity P-wave (km/s) = 5.77974 7.30731 6.58795
#
# Compressibility (1/GPa) = 0.02340154
#
# Stress axis : x y z
#
# Youngs Moduli (GPa) = 63.83948 257.32988 85.87783
#
# Poissons Ratio (x) = 0.46717 0.02831
# Poissons Ratio (y) = 0.11590 0.15041
# Poissons Ratio (z) = 0.02105 0.45070
#
# Static dielectric constant tensor:
#      x y z
#    x 2.113270 0.045750 0.089920 
#    y 0.045750 2.177320 -0.013590 
#    z 0.089920 -0.013590 2.055950 
# 
# From -- ./inp_files/51752.got.cif
#   From: 2010.05.17/outbox.cif.g08.bks.cpg/sg2_26_cif.got.tgz:51752.got - 2010.06.03 11:33:40.
