data_PCOD9071106
_publ_section_title
;
Structure prediction by ZEFSAII (Michael W. Deem and Ramdas Pophale) SiO2 
 PCOD9071106
Probable space group: P -1
;
_chemical_formula_sum "Si O2"
_cell_formula_units_Z 12
_cell_length_a 7.335278
_cell_length_b 11.248723
_cell_length_c 15.935355
_cell_angle_alpha 22.450523
_cell_angle_beta 91.777767
_cell_angle_gamma 81.015938
_cell_volume 439.121056
_symmetry_space_group_name_H-M "P -1"
_symmetry_group_IT_number 2
_symmetry_cell_setting 'triclinic'
loop_
_space_group_symop_operation_xyz
x,y,z
-x,-y,-z
loop_
_atom_site_type_symbol
_atom_site_label
_atom_site_fract_x
_atom_site_fract_y
_atom_site_fract_z
Si Si1 0.561214 0.316281 0.424240
Si Si2 0.700844 0.127210 0.816333
Si Si3 0.816816 0.685653 0.440729
Si Si4 0.425358 0.261619 0.065120
Si Si5 0.994043 0.770520 0.750352
Si Si6 0.862032 0.514255 0.748977
O O1 0.449969 0.693992 0.223673
O O2 0.381639 0.380624 0.312788
O O3 0.573963 0.991106 0.693965
O O4 0.805019 0.164886 0.508181
O O5 0.685284 0.485278 0.542969
O O6 0.645119 0.870871 0.930962
O O7 0.951300 0.892560 0.983975
O O8 0.872078 0.615833 0.585177
O O9 0.000000 0.500000 0.500000
O O10 0.670707 0.111059 0.153785
O O11 0.239723 0.657426 0.819816
O O12 0.921642 0.680251 0.720149
O O13 0.000000 0.500000 0.000000
#
# Coordination Sequence:
#
# PCOD9071106 Si02
#       6
#     2   2   2   2   2   2
#     4   9  14  23  43  70  90 113 147 192 230 260
#     4   9  16  30  48  70  92 116 153 194 222 265
#     4  10  18  29  47  71  95 121 149 187 231 268
#     4   8  16  29  45  68  93 117 152 190 222 268
#     4   9  16  26  43  69  93 117 148 192 232 260
#     4   9  17  29  45  70  95 116 152 193 222 267
#
# _framework density 27.327316
#
# number of rings (size 3 to 8) (size 9 to 14) (size 15 to 20)
#    0.000    3.333    0.000    4.500    0.000    0.000 
#    0.000    3.333    0.000    0.000    0.000  191.333 
#    0.000    0.000    0.000    0.000    0.000    0.000 
#
# Total GULP energy -66897.935270 kJ/mol
# GULP energy per Si atom -5574.827939 kJ/mol
# Density = 2.726512 g / cm^3
# Si number density = 27.327316 Si / 1000 Ang^3
#
#
#
# Elastic Constant Matrix: (Units=GPa)
#
#
# Indices 1 2 3 4 5 6 
#
# 1 62.7001 36.6377 52.1922 -19.3505 33.8175 -14.0283
# 2 36.6377 99.0005 30.0612 -4.4580 1.4382 2.7704
# 3 52.1922 30.0612 173.8853 -19.6380 54.8884 -29.1718
# 4 -19.3505 -4.4580 -19.6380 59.0983 -27.6210 4.8665
# 5 33.8175 1.4382 54.8884 -27.6210 63.7114 -13.7483
# 6 -14.0283 2.7704 -29.1718 4.8665 -13.7483 44.2748
#
#
#
# Elastic Compliance Matrix: (Units=1/GPa)
#
#
# Indices 1 2 3 4 5 6 
#
# 1 0.034282 -0.011615 -0.002970 0.002851 -0.013000 0.005282
# 2 -0.011615 0.014965 -0.001811 0.000134 0.006634 -0.003765
# 3 -0.002970 -0.001811 0.009378 -0.001188 -0.006210 0.003553
# 4 0.002851 0.000134 -0.001188 0.021632 0.009000 0.000529
# 5 -0.013000 0.006634 -0.006210 0.009000 0.031750 0.000244
# 6 0.005282 -0.003765 0.003553 0.000529 0.000244 0.026854
#
#
# Mechanical properties :
#
#
# Convention : Reuss Voigt Hill
#
# Bulk Modulus (GPa) = 38.71396 63.70755 51.21076
# Shear Modulus (GPa) = 27.73704 47.86321 37.80012
#
# Velocity S-wave (km/s) = 3.18935 4.18961 3.72322
# Velocity P-wave (km/s) = 5.26879 6.83865 6.10439
#
# Compressibility (1/GPa) = 0.02583047
#
# Stress axis : x y z
#
# Youngs Moduli (GPa) = 29.17017 66.82476 106.63665
#
# Poissons Ratio (x) = 0.77620 0.31672
# Poissons Ratio (y) = 0.33883 0.19312
# Poissons Ratio (z) = 0.08664 0.12102
#
# Static dielectric constant tensor:
#      x y z
#    x 2.387770 -0.095970 0.061830 
#    y -0.095970 2.161320 -0.001500 
#    z 0.061830 -0.001500 2.171610 
# 
# From -- ./inp_files/167878.got.cif
#   From: 2010.05.17/outbox.cif.g08.bks.cpg/sg2_84_cif.got.tgz:167878.got - 2010.06.03 11:33:40.
