data_PCOD9071347
_publ_section_title
;
Structure prediction by ZEFSAII (Michael W. Deem and Ramdas Pophale) SiO2 
 PCOD9071347
Probable space group: P -1
;
_chemical_formula_sum "Si O2"
_cell_formula_units_Z 12
_cell_length_a 12.653548
_cell_length_b 4.915653
_cell_length_c 16.161781
_cell_angle_alpha 78.106663
_cell_angle_beta 35.456547
_cell_angle_gamma 63.502701
_cell_volume 497.344710
_symmetry_space_group_name_H-M "P -1"
_symmetry_group_IT_number 2
_symmetry_cell_setting 'triclinic'
loop_
_space_group_symop_operation_xyz
x,y,z
-x,-y,-z
loop_
_atom_site_type_symbol
_atom_site_label
_atom_site_fract_x
_atom_site_fract_y
_atom_site_fract_z
Si Si1 0.901605 0.681118 0.938901
Si Si2 0.621913 0.586185 0.348433
Si Si3 0.325124 0.277325 0.421780
Si Si4 0.652661 0.130933 0.920430
Si Si5 0.290935 0.753463 0.864207
Si Si6 0.043136 0.986191 0.570025
O O1 0.144445 0.491839 0.771307
O O2 0.775283 0.957333 0.936142
O O3 0.795002 0.459232 0.024906
O O4 0.864589 0.876223 0.037191
O O5 0.500000 0.500000 0.500000
O O6 0.666468 0.371550 0.250087
O O7 0.478254 0.959949 0.395375
O O8 0.480414 0.298349 0.253417
O O9 0.208961 0.625229 0.514209
O O10 0.145417 0.207165 0.509016
O O11 0.500000 0.500000 0.000000
O O12 0.831342 0.077667 0.745479
O O13 0.500000 0.000000 0.000000
O O14 0.000000 0.000000 0.500000
#
# Coordination Sequence:
#
# PCOD9071347 Si02
#       6
#     2   2   2   2   2   2
#     4  12  28  48  77 110 153 201 251 308 377 453
#     4  12  28  49  80 113 156 196 251 316 378 449
#     4  12  26  48  77 113 150 193 255 305 380 443
#     4  12  29  51  76 111 151 197 256 314 372 441
#     4  12  26  49  76 109 154 199 249 300 384 446
#     4  12  28  50  80 110 151 199 256 308 377 448
#
# _framework density 24.128135
#
# number of rings (size 3 to 8) (size 9 to 14) (size 15 to 20)
#    0.000    0.000    3.333    4.500    9.333    2.000 
#    0.000    0.000    0.000    0.000    0.000    0.000 
#    0.000    0.000    0.000    0.000    0.000    0.000 
#
# Total GULP energy -67244.811034 kJ/mol
# GULP energy per Si atom -5603.734253 kJ/mol
# Density = 2.407322 g / cm^3
# Si number density = 24.128135 Si / 1000 Ang^3
#
#
#
# Elastic Constant Matrix: (Units=GPa)
#
#
# Indices 1 2 3 4 5 6 
#
# 1 73.7060 38.7763 53.5095 -20.1784 -18.8066 -2.5455
# 2 38.7763 151.9171 79.7609 -2.0071 -16.1421 14.1984
# 3 53.5095 79.7609 263.8427 -10.9008 -32.7270 1.3773
# 4 -20.1784 -2.0071 -10.9008 52.7587 5.1035 -11.7015
# 5 -18.8066 -16.1421 -32.7270 5.1035 41.7501 -6.9080
# 6 -2.5455 14.1984 1.3773 -11.7015 -6.9080 53.4803
#
#
#
# Elastic Compliance Matrix: (Units=1/GPa)
#
#
# Indices 1 2 3 4 5 6 
#
# 1 0.021007 -0.003993 -0.001986 0.007904 0.006163 0.004637
# 2 -0.003993 0.008871 -0.001965 -0.002249 -0.000132 -0.003004
# 3 -0.001986 -0.001965 0.005090 0.000124 0.002425 0.000636
# 4 0.007904 -0.002249 0.000124 0.023192 0.000974 0.006170
# 5 0.006163 -0.000132 0.002425 0.000974 0.029162 0.004246
# 6 0.004637 -0.003004 0.000636 0.006170 0.004246 0.021599
#
#
# Mechanical properties :
#
#
# Convention : Reuss Voigt Hill
#
# Bulk Modulus (GPa) = 52.41810 92.61773 72.51792
# Shear Modulus (GPa) = 38.11897 50.75908 44.43902
#
# Velocity S-wave (km/s) = 3.97905 4.59162 4.29627
# Velocity P-wave (km/s) = 6.54847 8.15964 7.39805
#
# Compressibility (1/GPa) = 0.01907738
#
# Stress axis : x y z
#
# Youngs Moduli (GPa) = 47.60364 112.73109 196.47249
#
# Poissons Ratio (x) = 0.45014 0.39028
# Poissons Ratio (y) = 0.19008 0.38615
# Poissons Ratio (z) = 0.09456 0.22156
#
# Static dielectric constant tensor:
#      x y z
#    x 2.006550 -0.048980 0.054930 
#    y -0.048980 1.910580 -0.013820 
#    z 0.054930 -0.013820 1.868520 
# 
# From -- ./inp_files/571605.got.cif
#   From: 2010.05.17/outbox.cif.g08.bks.cpg/sg2_286_cif.got.tgz:571605.got - 2010.06.03 11:33:40.
