data_PCOD9071380
_publ_section_title
;
Structure prediction by ZEFSAII (Michael W. Deem and Ramdas Pophale) SiO2 
 PCOD9071380
Probable space group: P -1
;
_chemical_formula_sum "Si O2"
_cell_formula_units_Z 11
_cell_length_a 5.535437
_cell_length_b 9.278248
_cell_length_c 10.619873
_cell_angle_alpha 120.788842
_cell_angle_beta 119.113649
_cell_angle_gamma 66.116495
_cell_volume 400.435347
_symmetry_space_group_name_H-M "P -1"
_symmetry_group_IT_number 2
_symmetry_cell_setting 'triclinic'
loop_
_space_group_symop_operation_xyz
x,y,z
-x,-y,-z
loop_
_atom_site_type_symbol
_atom_site_label
_atom_site_fract_x
_atom_site_fract_y
_atom_site_fract_z
Si Si1 0.490645 0.358584 0.730521
Si Si2 0.806157 0.292429 0.257851
Si Si3 0.462372 0.271218 0.412162
Si Si4 0.500000 0.000000 0.000000
Si Si5 0.764591 0.905866 0.347778
Si Si6 0.047981 0.294799 0.948923
O O1 0.363064 0.556365 0.806672
O O2 0.594406 0.332128 0.601522
O O3 0.271017 0.236298 0.626413
O O4 0.723183 0.279500 0.856901
O O5 0.655065 0.316715 0.367993
O O6 0.756087 0.107533 0.119454
O O7 0.123076 0.327567 0.353154
O O8 0.506295 0.064321 0.333865
O O9 0.736742 0.811559 0.944580
O O10 0.819269 0.811060 0.187444
O O11 0.000000 0.000000 0.500000
O O12 0.000000 0.500000 0.000000
#
# Coordination Sequence:
#
# PCOD9071380 Si02
#       6
#     2   2   2   1   2   2
#     4  12  27  47  80 118 161 210 276 341 413 482
#     4  12  28  49  80 119 167 213 269 342 408 492
#     4  12  26  49  81 119 159 211 274 341 410 480
#     4  12  26  52  74 118 162 224 268 332 408 498
#     4  12  26  48  82 116 156 213 278 340 408 486
#     4  12  27  51  79 115 164 216 273 330 414 492
#
# _framework density 27.470103999999999
#
# number of rings (size 3 to 8) (size 9 to 14) (size 15 to 20)
#    0.000    0.000    5.455    3.818    2.545    1.455 
#    3.273    0.000    0.000    0.000    0.000    0.000 
#    0.000    0.000    0.000    0.000    0.000    0.000 
#
# Total GULP energy -61328.265639 kJ/mol
# GULP energy per Si atom -5575.296876 kJ/mol
# Density = 2.740758 g / cm^3
# Si number density = 27.470104 Si / 1000 Ang^3
#
#
#
# Elastic Constant Matrix: (Units=GPa)
#
#
# Indices 1 2 3 4 5 6 
#
# 1 110.2140 19.7645 35.4801 -4.2833 18.2645 1.0961
# 2 19.7645 155.3269 17.1435 35.2569 19.4368 1.7260
# 3 35.4801 17.1435 80.9746 8.3333 0.2075 -6.8282
# 4 -4.2833 35.2569 8.3333 54.3981 -3.2927 12.0301
# 5 18.2645 19.4368 0.2075 -3.2927 54.5760 -3.1183
# 6 1.0961 1.7260 -6.8282 12.0301 -3.1183 42.4952
#
#
#
# Elastic Compliance Matrix: (Units=1/GPa)
#
#
# Indices 1 2 3 4 5 6 
#
# 1 0.011682 -0.001046 -0.005344 0.002677 -0.003477 -0.002130
# 2 -0.001046 0.008298 -0.000613 -0.005766 -0.002893 0.001011
# 3 -0.005344 -0.000613 0.015441 -0.003079 0.001971 0.003660
# 4 0.002677 -0.005766 -0.003079 0.024509 0.002242 -0.007103
# 5 -0.003477 -0.002893 0.001971 0.002242 0.020725 0.001410
# 6 -0.002130 0.001011 0.003660 -0.007103 0.001410 0.026248
#
#
# Mechanical properties :
#
#
# Convention : Reuss Voigt Hill
#
# Bulk Modulus (GPa) = 46.68978 54.58799 50.63888
# Shear Modulus (GPa) = 39.04794 48.56900 43.80847
#
# Velocity S-wave (km/s) = 3.77433 4.20940 3.99779
# Velocity P-wave (km/s) = 6.00230 6.59851 6.30745
#
# Compressibility (1/GPa) = 0.02141796
#
# Stress axis : x y z
#
# Youngs Moduli (GPa) = 85.59860 120.50828 64.76205
#
# Poissons Ratio (x) = 0.12600 0.34607
# Poissons Ratio (y) = 0.08950 0.03968
# Poissons Ratio (z) = 0.45741 0.07383
#
# Static dielectric constant tensor:
#      x y z
#    x 2.253820 0.029100 -0.067950 
#    y 0.029100 2.259320 -0.262470 
#    z -0.067950 -0.262470 2.476070 
# 
# From -- ./inp_files/25990.got.cif
#   From: 2010.05.17/outbox.cif.g08.bks.cpg/sg2_13_cif.got.tgz:25990.got - 2010.06.03 11:33:40.
