data_PCOD9071125
_publ_section_title
;
Structure prediction by ZEFSAII (Michael W. Deem and Ramdas Pophale) SiO2 
 PCOD9071125
Probable space group: P -1
;
_chemical_formula_sum "Si O2"
_cell_formula_units_Z 12
_cell_length_a 9.077280
_cell_length_b 4.918869
_cell_length_c 11.860241
_cell_angle_alpha 82.316944
_cell_angle_beta 95.520213
_cell_angle_gamma 67.326692
_cell_volume 477.885799
_symmetry_space_group_name_H-M "P -1"
_symmetry_group_IT_number 2
_symmetry_cell_setting 'triclinic'
loop_
_space_group_symop_operation_xyz
x,y,z
-x,-y,-z
loop_
_atom_site_type_symbol
_atom_site_label
_atom_site_fract_x
_atom_site_fract_y
_atom_site_fract_z
Si Si1 0.951271 0.026967 0.732375
Si Si2 0.361664 0.799235 0.423226
Si Si3 0.907382 0.493842 0.879569
Si Si4 0.848026 0.771737 0.422248
Si Si5 0.585494 0.738628 0.253791
Si Si6 0.529152 0.657855 0.883248
O O1 0.781788 0.247500 0.650993
O O2 0.976530 0.173678 0.841311
O O3 0.085198 0.019089 0.654147
O O4 0.932047 0.725306 0.780643
O O5 0.500000 0.500000 0.500000
O O6 0.727209 0.963613 0.499817
O O7 0.450720 0.910631 0.328678
O O8 0.718917 0.578920 0.886819
O O9 0.000000 0.500000 0.000000
O O10 0.752260 0.651329 0.335151
O O11 0.000000 0.500000 0.500000
O O12 0.541687 0.476145 0.215967
O O13 0.566624 0.984133 0.143835
O O14 0.500000 0.500000 0.000000
#
# Coordination Sequence:
#
# PCOD9071125 Si02
#       6
#     2   2   2   2   2   2
#     4  12  27  49  78 116 163 199 264 327 399 475
#     4  12  25  50  80 114 158 213 263 323 394 472
#     4  12  27  50  80 112 155 207 260 332 405 469
#     4  12  29  48  80 122 162 212 266 325 393 478
#     4  12  27  49  80 114 159 206 263 330 393 470
#     4  12  27  50  80 114 151 205 270 329 395 474
#
# _framework density 25.110600999999999
#
# number of rings (size 3 to 8) (size 9 to 14) (size 15 to 20)
#    0.000    0.000    3.333    5.000    4.667    2.667 
#    0.000    0.000    0.000    0.000    0.000    0.000 
#    0.000    0.000    0.000    0.000    0.000    0.000 
#
# Total GULP energy -67370.755456 kJ/mol
# GULP energy per Si atom -5614.229621 kJ/mol
# Density = 2.505345 g / cm^3
# Si number density = 25.110601 Si / 1000 Ang^3
#
#
#
# Elastic Constant Matrix: (Units=GPa)
#
#
# Indices 1 2 3 4 5 6 
#
# 1 159.9328 42.1502 62.6421 -4.1770 10.7380 19.7808
# 2 42.1502 101.7146 21.0757 -1.4571 5.3889 8.7603
# 3 62.6421 21.0757 113.8798 -0.6129 15.0675 4.8607
# 4 -4.1770 -1.4571 -0.6129 26.6116 3.7913 0.7051
# 5 10.7380 5.3889 15.0675 3.7913 51.2248 -1.7683
# 6 19.7808 8.7603 4.8607 0.7051 -1.7683 45.1511
#
#
#
# Elastic Compliance Matrix: (Units=1/GPa)
#
#
# Indices 1 2 3 4 5 6 
#
# 1 0.009060 -0.002551 -0.004298 0.001346 -0.000572 -0.003055
# 2 -0.002551 0.011120 -0.000539 0.000299 -0.000533 -0.001007
# 3 -0.004298 -0.000539 0.011535 -0.000113 -0.002404 0.000654
# 4 0.001346 0.000299 -0.000113 0.038289 -0.003161 -0.001357
# 5 -0.000572 -0.000533 -0.002404 -0.003161 0.020690 0.001472
# 6 -0.003055 -0.001007 0.000654 -0.001357 0.001472 0.023690
#
#
# Mechanical properties :
#
#
# Convention : Reuss Voigt Hill
#
# Bulk Modulus (GPa) = 59.04259 69.69594 64.36926
# Shear Modulus (GPa) = 37.09028 41.24143 39.16586
#
# Velocity S-wave (km/s) = 3.84744 4.05704 3.95363
# Velocity P-wave (km/s) = 6.58036 7.05421 6.82140
#
# Compressibility (1/GPa) = 0.01693693
#
# Stress axis : x y z
#
# Youngs Moduli (GPa) = 110.37756 89.93083 86.69315
#
# Poissons Ratio (x) = 0.22942 0.37262
# Poissons Ratio (y) = 0.28158 0.04677
# Poissons Ratio (z) = 0.47442 0.04852
#
# Static dielectric constant tensor:
#      x y z
#    x 1.965490 0.012880 -0.007830 
#    y 0.012880 1.984290 -0.009540 
#    z -0.007830 -0.009540 1.998090 
# 
# From -- ./inp_files/371762.got.cif
#   From: 2010.05.17/outbox.cif.g08.bks.cpg/sg2_186_cif.got.tgz:371762.got - 2010.06.03 11:33:40.
