data_PCOD9071645
_publ_section_title
;
Structure prediction by ZEFSAII (Michael W. Deem and Ramdas Pophale) SiO2 
 PCOD9071645
Probable space group: P -1
;
_chemical_formula_sum "Si O2"
_cell_formula_units_Z 16
_cell_length_a 5.636249
_cell_length_b 20.976437
_cell_length_c 4.924774
_cell_angle_alpha 70.272114
_cell_angle_beta 94.444435
_cell_angle_gamma 81.731423
_cell_volume 537.389161
_symmetry_space_group_name_H-M "P -1"
_symmetry_group_IT_number 2
_symmetry_cell_setting 'triclinic'
loop_
_space_group_symop_operation_xyz
x,y,z
-x,-y,-z
loop_
_atom_site_type_symbol
_atom_site_label
_atom_site_fract_x
_atom_site_fract_y
_atom_site_fract_z
Si Si1 0.149211 0.823351 0.863370
Si Si2 0.182851 0.952193 0.380419
Si Si3 0.146898 0.422393 0.431848
Si Si4 0.771550 0.918067 0.007599
Si Si5 0.434284 0.203623 0.630527
Si Si6 0.001874 0.298936 0.785843
Si Si7 0.287958 0.546933 0.082465
Si Si8 0.571889 0.328105 0.266882
O O1 0.275493 0.877627 0.628180
O O2 0.317182 0.808219 0.162085
O O3 0.079644 0.748085 0.911429
O O4 0.886894 0.869317 0.841636
O O5 0.010492 0.932593 0.158768
O O6 0.000000 0.000000 0.500000
O O7 0.348934 0.006198 0.217116
O O8 0.226945 0.495854 0.386829
O O9 0.359969 0.374451 0.354790
O O10 0.082788 0.372394 0.737179
O O11 0.930725 0.437800 0.173132
O O12 0.638500 0.871689 0.255539
O O13 0.482142 0.254977 0.315723
O O14 0.222920 0.249938 0.722195
O O15 0.793584 0.314647 0.517653
O O16 0.500000 0.500000 0.000000
O O17 0.372095 0.619886 0.039088
#
# Coordination Sequence:
#
# PCOD9071645 Si02
#       8
#     2   2   2   2   2   2   2   2
#     4   9  17  30  47  67  90 118 150 186 227 270
#     4   9  18  34  51  67  92 119 145 184 228 270
#     4   8  12  18  30  50  79 118 154 185 225 267
#     4   9  18  33  49  67  91 117 147 185 226 271
#     4   9  16  27  44  63  85 116 150 185 228 272
#     4   8  14  24  38  57  83 115 149 186 227 267
#     4   8  12  17  27  48  81 118 153 188 225 264
#     4   8  13  21  34  54  81 115 151 187 227 267
#
# _framework density 29.773582000000001
#
# number of rings (size 3 to 8) (size 9 to 14) (size 15 to 20)
#    0.000    3.500    0.000    0.000    0.000    0.500 
#    0.000    9.375    0.000    0.000    0.000    0.000 
#    0.000    1.000    0.000  429.375    0.000 1085.750 
#
# Total GULP energy -89524.195459 kJ/mol
# GULP energy per Si atom -5595.262216 kJ/mol
# Density = 2.970582 g / cm^3
# Si number density = 29.773582 Si / 1000 Ang^3
#
#
#
# Elastic Constant Matrix: (Units=GPa)
#
#
# Indices 1 2 3 4 5 6 
#
# 1 129.2221 45.5934 61.8587 -29.6558 -25.0829 8.9736
# 2 45.5934 214.1723 97.4739 -97.0635 -20.0511 25.4493
# 3 61.8587 97.4739 155.2509 -60.1634 -45.1653 25.5526
# 4 -29.6558 -97.0635 -60.1634 101.4593 36.6314 -23.8913
# 5 -25.0829 -20.0511 -45.1653 36.6314 82.6502 -28.5020
# 6 8.9736 25.4493 25.5526 -23.8913 -28.5020 51.7713
#
#
#
# Elastic Compliance Matrix: (Units=1/GPa)
#
#
# Indices 1 2 3 4 5 6 
#
# 1 0.009703 -0.000480 -0.003272 0.000200 0.001285 0.000970
# 2 -0.000480 0.010091 -0.003841 0.008355 -0.003948 -0.001299
# 3 -0.003272 -0.003841 0.011695 0.000708 0.003852 -0.000869
# 4 0.000200 0.008355 0.000708 0.020990 -0.006217 0.001772
# 5 0.001285 -0.003948 0.003852 -0.006217 0.018934 0.007371
# 6 0.000970 -0.001299 -0.000869 0.001772 0.007371 0.025091
#
#
# Mechanical properties :
#
#
# Convention : Reuss Voigt Hill
#
# Bulk Modulus (GPa) = 61.34656 100.94413 81.14535
# Shear Modulus (GPa) = 42.68971 66.75746 54.72358
#
# Velocity S-wave (km/s) = 3.79068 4.74029 4.29183
# Velocity P-wave (km/s) = 6.30936 7.99613 7.20230
#
# Compressibility (1/GPa) = 0.01630083
#
# Stress axis : x y z
#
# Youngs Moduli (GPa) = 103.06363 99.10084 85.50791
#
# Poissons Ratio (x) = 0.04760 0.27982
# Poissons Ratio (y) = 0.04950 0.32844
# Poissons Ratio (z) = 0.33727 0.38065
#
# Static dielectric constant tensor:
#      x y z
#    x 2.396630 -0.014400 -0.147210 
#    y -0.014400 2.353380 -0.088660 
#    z -0.147210 -0.088660 2.333010 
# 
# From -- ./inp_files/12813.got.cif
#   From: 2010.05.17/outbox.cif.g08.bks.cpg/sg2_7_cif.got.tgz:12813.got - 2010.06.03 11:33:40.
