data_PCOD9071756
_publ_section_title
;
Structure prediction by ZEFSAII (Michael W. Deem and Ramdas Pophale) SiO2 
 PCOD9071756
Probable space group: P -1
;
_chemical_formula_sum "Si O2"
_cell_formula_units_Z 16
_cell_length_a 11.033316
_cell_length_b 14.567262
_cell_length_c 14.269444
_cell_angle_alpha 27.569095
_cell_angle_beta 137.697618
_cell_angle_gamma 144.118512
_cell_volume 620.195785
_symmetry_space_group_name_H-M "P -1"
_symmetry_group_IT_number 2
_symmetry_cell_setting 'triclinic'
loop_
_space_group_symop_operation_xyz
x,y,z
-x,-y,-z
loop_
_atom_site_type_symbol
_atom_site_label
_atom_site_fract_x
_atom_site_fract_y
_atom_site_fract_z
Si Si1 0.603824 0.204586 0.444987
Si Si2 0.624762 0.257660 0.609824
Si Si3 0.002037 0.601299 0.623094
Si Si4 0.889727 0.626228 0.739074
Si Si5 0.893795 0.000762 0.148581
Si Si6 0.340599 0.409800 0.077098
Si Si7 0.482102 0.338796 0.865341
Si Si8 0.781327 0.022491 0.264079
O O1 0.681216 0.187329 0.607259
O O2 0.411392 0.245338 0.317263
O O3 0.803623 0.375801 0.344296
O O4 0.500000 0.000000 0.500000
O O5 0.804957 0.369394 0.687178
O O6 0.583605 0.468705 0.371214
O O7 0.422516 0.050696 0.726236
O O8 0.007301 0.604823 0.735399
O O9 0.968209 0.812936 0.380709
O O10 0.671792 0.406222 0.840309
O O11 0.838336 0.825267 0.500102
O O12 0.033173 0.736273 0.812426
O O13 0.731765 0.895711 0.064745
O O14 0.760737 0.005013 0.157175
O O15 0.107368 0.242916 0.059552
O O16 0.417330 0.608449 0.020330
O O17 0.500000 0.500000 0.000000
#
# Coordination Sequence:
#
# PCOD9071756 Si02
#       8
#     2   2   2   2   2   2   2   2
#     4  11  20  34  52  74 105 140 173 209 259 309
#     4   9  18  28  46  79 109 134 167 212 261 308
#     4  10  18  29  49  78 108 136 167 211 261 309
#     4   9  15  25  47  76 106 133 165 209 260 306
#     4  10  18  32  53  77 105 135 171 217 261 302
#     4  11  23  38  54  75 104 139 178 216 255 305
#     4   9  18  32  51  77 104 135 174 215 258 305
#     4   9  15  25  46  76 107 133 164 211 262 303
#
# _framework density 25.798304999999999
#
# number of rings (size 3 to 8) (size 9 to 14) (size 15 to 20)
#    0.000    2.250    2.500    1.875    3.500    3.500 
#    0.000    0.000    0.000    0.750    0.000    1.750 
#    0.000    0.000    0.000    0.000    0.000    0.000 
#
# Total GULP energy -89442.063051 kJ/mol
# GULP energy per Si atom -5590.128941 kJ/mol
# Density = 2.573959 g / cm^3
# Si number density = 25.798305 Si / 1000 Ang^3
#
#
#
# Elastic Constant Matrix: (Units=GPa)
#
#
# Indices 1 2 3 4 5 6 
#
# 1 124.4301 70.8319 21.7617 5.9912 -24.3839 -3.6409
# 2 70.8319 218.0243 46.9032 -2.4407 -23.1302 -4.2297
# 3 21.7617 46.9032 71.6687 -6.2945 -2.7293 -4.9960
# 4 5.9912 -2.4407 -6.2945 42.8548 3.8855 -3.0915
# 5 -24.3839 -23.1302 -2.7293 3.8855 44.9711 1.7056
# 6 -3.6409 -4.2297 -4.9960 -3.0915 1.7056 38.2051
#
#
#
# Elastic Compliance Matrix: (Units=1/GPa)
#
#
# Indices 1 2 3 4 5 6 
#
# 1 0.010879 -0.002742 -0.001527 -0.002307 0.004590 0.000142
# 2 -0.002742 0.006344 -0.003252 0.000121 0.001570 -0.000044
# 3 -0.001527 -0.003252 0.016863 0.002813 -0.001796 0.002007
# 4 -0.002307 0.000121 0.002813 0.024535 -0.003225 0.002291
# 5 0.004590 0.001570 -0.001796 -0.003225 0.025741 -0.001034
# 6 0.000142 -0.000044 0.002007 0.002291 -0.001034 0.026677
#
#
# Mechanical properties :
#
#
# Convention : Reuss Voigt Hill
#
# Bulk Modulus (GPa) = 52.50655 77.01294 64.75975
# Shear Modulus (GPa) = 37.75564 43.51462 40.63513
#
# Velocity S-wave (km/s) = 3.82971 4.11143 3.97307
# Velocity P-wave (km/s) = 6.32080 7.24260 6.79734
#
# Compressibility (1/GPa) = 0.01904524
#
# Stress axis : x y z
#
# Youngs Moduli (GPa) = 91.91745 157.62530 59.29977
#
# Poissons Ratio (x) = 0.43224 0.09054
# Poissons Ratio (y) = 0.25205 0.19284
# Poissons Ratio (z) = 0.14034 0.51258
#
# Static dielectric constant tensor:
#      x y z
#    x 1.956630 -0.097710 0.061900 
#    y -0.097710 1.818120 -0.011930 
#    z 0.061900 -0.011930 2.194850 
# 
# From -- ./inp_files/216717.got.cif
#   From: 2010.05.17/outbox.cif.g08.bks.cpg/sg2_109_cif.got.tgz:216717.got - 2010.06.03 11:33:40.
