data_PCOD9071828
_publ_section_title
;
Structure prediction by ZEFSAII (Michael W. Deem and Ramdas Pophale) SiO2 
 PCOD9071828
Probable space group: P -1
;
_chemical_formula_sum "Si O2"
_cell_formula_units_Z 16
_cell_length_a 9.000000
_cell_length_b 9.000000
_cell_length_c 21.000000
_cell_angle_alpha 30.000000
_cell_angle_beta 120.000000
_cell_angle_gamma 120.000000
_cell_volume 727.687525
_symmetry_space_group_name_H-M "P -1"
_symmetry_group_IT_number 2
_symmetry_cell_setting 'triclinic'
loop_
_space_group_symop_operation_xyz
x,y,z
-x,-y,-z
loop_
_atom_site_type_symbol
_atom_site_label
_atom_site_fract_x
_atom_site_fract_y
_atom_site_fract_z
Si Si1 0.866166 0.751991 0.525899
Si Si2 0.059519 0.279726 0.684802
Si Si3 0.585847 0.842543 0.218890
Si Si4 0.047461 0.094265 0.080429
Si Si5 0.603756 0.506341 0.952259
Si Si6 0.989342 0.705182 0.794757
Si Si7 0.350508 0.879598 0.740274
Si Si8 0.216221 0.604802 0.236461
O O1 0.780687 0.510765 0.648199
O O2 0.959061 0.563821 0.563120
O O3 0.723238 0.922055 0.401108
O O4 0.000000 0.000000 0.500000
O O5 0.260011 0.349746 0.681905
O O6 0.055934 0.141696 0.806101
O O7 0.983343 0.996948 0.728019
O O8 0.400289 0.698905 0.208670
O O9 0.555589 0.911067 0.261562
O O10 0.636513 0.167957 0.075177
O O11 0.220629 0.262665 0.090030
O O12 0.115012 0.893469 0.113339
O O13 0.948769 0.374898 0.940139
O O14 0.470557 0.647614 0.826607
O O15 0.500000 0.500000 0.000000
O O16 0.875335 0.677577 0.718100
O O17 0.183476 0.715494 0.804488
#
# Coordination Sequence:
#
# PCOD9071828 Si02
#       8
#     2   2   2   2   2   2   2   2
#     4  11  24  44  64  89 120 163 220 256 287 368
#     4  10  24  40  65  88 128 165 200 253 312 366
#     4  10  20  39  63  94 126 157 200 256 316 364
#     4  11  19  37  64  96 124 163 204 248 302 377
#     4  10  16  33  63  95 121 155 203 253 299 370
#     4  11  20  36  64  94 125 160 199 254 316 365
#     4  10  19  37  65  86 120 166 204 245 304 359
#     4  11  22  38  63  93 125 162 211 252 297 365
#
# _framework density 21.987459999999999
#
# number of rings (size 3 to 8) (size 9 to 14) (size 15 to 20)
#    0.000    1.500    7.500    0.750    0.000    2.500 
#    0.000    2.500    0.000    0.000    0.000    0.000 
#    0.000    0.000    0.000    0.000    0.000    0.000 
#
# Total GULP energy -89185.032689 kJ/mol
# GULP energy per Si atom -5574.064543 kJ/mol
# Density = 2.193742 g / cm^3
# Si number density = 21.987460 Si / 1000 Ang^3
#
#
#
# Elastic Constant Matrix: (Units=GPa)
#
#
# Indices 1 2 3 4 5 6 
#
# 1 41.7669 30.2078 5.4594 2.8151 7.3940 3.5375
# 2 30.2078 76.1871 16.7465 -10.5796 18.3308 0.5945
# 3 5.4594 16.7465 103.5962 14.0330 23.1871 1.7758
# 4 2.8151 -10.5796 14.0330 21.3810 3.4659 2.2435
# 5 7.3940 18.3308 23.1871 3.4659 31.6460 -9.3360
# 6 3.5375 0.5945 1.7758 2.2435 -9.3360 18.3480
#
#
#
# Elastic Compliance Matrix: (Units=1/GPa)
#
#
# Indices 1 2 3 4 5 6 
#
# 1 0.037860 -0.017468 0.003210 -0.014938 -0.001157 -0.005806
# 2 -0.017468 0.026835 -0.003086 0.020451 -0.013359 -0.006501
# 3 0.003210 -0.003086 0.013359 -0.008601 -0.009451 -0.005569
# 4 -0.014938 0.020451 -0.008601 0.067850 -0.012982 -0.011852
# 5 -0.001157 -0.013359 -0.009451 -0.012982 0.057521 0.032427
# 6 -0.005806 -0.006501 -0.005569 -0.011852 0.032427 0.074320
#
#
# Mechanical properties :
#
#
# Convention : Reuss Voigt Hill
#
# Bulk Modulus (GPa) = 23.05932 36.26419 29.66176
# Shear Modulus (GPa) = 15.29587 25.55076 20.42331
#
# Velocity S-wave (km/s) = 2.64040 3.41260 3.05103
# Velocity P-wave (km/s) = 4.45038 5.66186 5.09228
#
# Compressibility (1/GPa) = 0.04336642
#
# Stress axis : x y z
#
# Youngs Moduli (GPa) = 26.41344 37.26519 74.85870
#
# Poissons Ratio (x) = 0.65093 -0.24033
# Poissons Ratio (y) = 0.46138 0.23102
# Poissons Ratio (z) = -0.08480 0.11500
#
# Static dielectric constant tensor:
#      x y z
#    x 1.839930 0.048040 -0.005390 
#    y 0.048040 1.872720 0.050430 
#    z -0.005390 0.050430 1.892010 
# 
# From -- ./inp_files/327832.got.cif
#   From: 2010.05.17/outbox.ucp.g08.bks.cvg/sg2_164_cif.got.tgz:327832.got - 2010.06.11 11:32:03.
