data_PCOD9071827
_publ_section_title
;
Structure prediction by ZEFSAII (Michael W. Deem and Ramdas Pophale) SiO2 
 PCOD9071827
Probable space group: P -1
;
_chemical_formula_sum "Si O2"
_cell_formula_units_Z 16
_cell_length_a 9.000000
_cell_length_b 12.000000
_cell_length_c 21.000000
_cell_angle_alpha 140.000000
_cell_angle_beta 80.000000
_cell_angle_gamma 130.000000
_cell_volume 851.199412
_symmetry_space_group_name_H-M "P -1"
_symmetry_group_IT_number 2
_symmetry_cell_setting 'triclinic'
loop_
_space_group_symop_operation_xyz
x,y,z
-x,-y,-z
loop_
_atom_site_type_symbol
_atom_site_label
_atom_site_fract_x
_atom_site_fract_y
_atom_site_fract_z
Si Si1 0.454035 0.147876 0.745207
Si Si2 0.514892 0.959163 0.772652
Si Si3 0.470650 0.535414 0.854252
Si Si4 0.209008 0.091306 0.566653
Si Si5 0.091759 0.307772 0.462477
Si Si6 0.896449 0.074860 0.729055
Si Si7 0.667321 0.101657 0.095465
Si Si8 0.211395 0.805477 0.338532
O O1 0.537202 0.421529 0.839349
O O2 0.580781 0.140112 0.678731
O O3 0.535565 0.149474 0.809196
O O4 0.144599 0.853808 0.635363
O O5 0.304148 0.644609 0.612980
O O6 0.441953 0.936328 0.842371
O O7 0.768082 0.074452 0.793276
O O8 0.401819 0.399116 0.726995
O O9 0.202908 0.350705 0.824331
O O10 0.652498 0.874238 0.993664
O O11 0.299436 0.015237 0.481423
O O12 0.000000 0.000000 0.500000
O O13 0.050788 0.862459 0.535450
O O14 0.187819 0.206571 0.387007
O O15 0.829247 0.104661 0.679822
O O16 0.946451 0.454842 0.221040
O O17 0.500000 0.000000 0.000000
#
# Coordination Sequence:
#
# PCOD9071827 Si02
#       8
#     2   2   2   2   2   2   2   2
#     4   9  23  40  61  86 122 161 197 239 299 362
#     4  11  22  37  62  90 118 159 198 245 294 357
#     4  10  22  39  60  84 125 160 194 248 292 353
#     4  10  16  33  61  86 117 153 194 241 303 335
#     4  10  19  35  62  90 125 148 198 250 298 344
#     4   9  19  36  60  88 116 156 198 243 296 346
#     4  12  24  39  63  90 122 149 206 251 294 343
#     4  11  19  38  64  90 116 158 200 245 294 359
#
# _framework density 18.797004999999999
#
# number of rings (size 3 to 8) (size 9 to 14) (size 15 to 20)
#    0.000    2.000    5.000    0.750    0.000    3.500 
#    0.000    0.000    5.500    0.000    0.000    0.000 
#    0.000    0.000    0.000    0.000    0.000    0.000 
#
# Total GULP energy -89115.853942 kJ/mol
# GULP energy per Si atom -5569.740871 kJ/mol
# Density = 1.875422 g / cm^3
# Si number density = 18.797005 Si / 1000 Ang^3
#
#
#
# Elastic Constant Matrix: (Units=GPa)
#
#
# Indices 1 2 3 4 5 6 
#
# 1 123.3835 34.9954 24.7483 -8.6315 -22.6581 2.4452
# 2 34.9954 87.0780 25.7857 -23.6867 -9.8653 7.3330
# 3 24.7483 25.7857 100.7461 -1.9809 -26.5760 3.8249
# 4 -8.6315 -23.6867 -1.9809 32.6173 0.4880 -3.1215
# 5 -22.6581 -9.8653 -26.5760 0.4880 32.5941 -0.0949
# 6 2.4452 7.3330 3.8249 -3.1215 -0.0949 35.3796
#
#
#
# Elastic Compliance Matrix: (Units=1/GPa)
#
#
# Indices 1 2 3 4 5 6 
#
# 1 0.010182 -0.003350 -0.000054 0.000171 0.006018 0.000028
# 2 -0.003350 0.016954 -0.003224 0.011042 0.000003 -0.001960
# 3 -0.000054 -0.003224 0.013381 -0.001778 0.009921 -0.000905
# 4 0.000171 0.011042 -0.001778 0.038719 0.001435 0.001312
# 5 0.006018 0.000003 0.009921 0.001435 0.042928 -0.001247
# 6 0.000028 -0.001960 -0.000905 0.001312 -0.001247 0.028879
#
#
# Mechanical properties :
#
#
# Convention : Reuss Voigt Hill
#
# Bulk Modulus (GPa) = 36.68312 53.58516 45.13414
# Shear Modulus (GPa) = 28.83715 35.16341 32.00028
#
# Velocity S-wave (km/s) = 3.92105 4.32984 4.13051
# Velocity P-wave (km/s) = 6.32909 7.31887 6.84190
#
# Compressibility (1/GPa) = 0.02726050
#
# Stress axis : x y z
#
# Youngs Moduli (GPa) = 98.20868 58.98291 74.73367
#
# Poissons Ratio (x) = 0.19760 0.00404
# Poissons Ratio (y) = 0.32902 0.24095
# Poissons Ratio (z) = 0.00531 0.19017
#
# Static dielectric constant tensor:
#      x y z
#    x 1.726080 -0.006380 0.008940 
#    y -0.006380 1.650160 0.009150 
#    z 0.008940 0.009150 1.696690 
# 
# From -- ./inp_files/589629.got.cif
#   From: 2010.05.17/outbox.ucp.g08.bks.cvg/sg2_295_cif.got.tgz:589629.got - 2010.06.11 11:32:03.
