data_PCOD9071388
_publ_section_title
;
Structure prediction by ZEFSAII (Michael W. Deem and Ramdas Pophale) SiO2 
 PCOD9071388
Probable space group: P -1
;
_chemical_formula_sum "Si O2"
_cell_formula_units_Z 14
_cell_length_a 8.590404
_cell_length_b 24.220496
_cell_length_c 8.518149
_cell_angle_alpha 148.619212
_cell_angle_beta 130.816770
_cell_angle_gamma 42.439934
_cell_volume 621.373552
_symmetry_space_group_name_H-M "P -1"
_symmetry_group_IT_number 2
_symmetry_cell_setting 'triclinic'
loop_
_space_group_symop_operation_xyz
x,y,z
-x,-y,-z
loop_
_atom_site_type_symbol
_atom_site_label
_atom_site_fract_x
_atom_site_fract_y
_atom_site_fract_z
Si Si1 0.336525 0.945764 0.198693
Si Si2 0.093638 0.836652 0.418907
Si Si3 0.396129 0.707145 0.830558
Si Si4 0.526217 0.108877 0.207585
Si Si5 0.300550 0.612149 0.223892
Si Si6 0.093728 0.457421 0.134041
Si Si7 0.023574 0.284783 0.227284
O O1 0.500000 0.000000 0.500000
O O2 0.380264 0.826812 0.032913
O O3 0.390178 0.920529 0.988973
O O4 0.083289 0.049104 0.325012
O O5 0.274125 0.869320 0.525341
O O6 0.245510 0.730575 0.378694
O O7 0.964904 0.783574 0.092588
O O8 0.386699 0.624813 0.482744
O O9 0.636649 0.635763 0.907591
O O10 0.170648 0.731163 0.840415
O O11 0.275343 0.221737 0.318860
O O12 0.500000 0.000000 0.000000
O O13 0.500000 0.500000 0.000000
O O14 0.066489 0.598940 0.044365
O O15 0.053069 0.574973 0.491257
O O16 0.000000 0.500000 0.000000
#
# Coordination Sequence:
#
# PCOD9071388 Si02
#       7
#     2   2   2   2   2   2   2
#     4  12  26  49  73 109 148 196 244 298 369 431
#     4  12  27  48  76 107 154 193 241 305 366 438
#     4  12  28  49  75 106 152 192 245 302 366 442
#     4  12  28  46  75 107 149 193 247 301 361 436
#     4  12  27  47  77 108 145 194 244 303 367 430
#     4  12  28  48  77 108 146 192 244 305 366 435
#     4  12  28  47  74 112 144 193 248 300 368 431
#
# _framework density 22.530732
#
# number of rings (size 3 to 8) (size 9 to 14) (size 15 to 20)
#    0.000    0.000    4.286    4.286    8.000    2.286 
#    0.000    0.000    0.000    0.000    0.000    0.000 
#    0.000    0.000    0.000    0.000    0.000    0.000 
#
# Total GULP energy -78449.608019 kJ/mol
# GULP energy per Si atom -5603.543430 kJ/mol
# Density = 2.247945 g / cm^3
# Si number density = 22.530732 Si / 1000 Ang^3
#
#
#
# Elastic Constant Matrix: (Units=GPa)
#
#
# Indices 1 2 3 4 5 6 
#
# 1 113.8653 41.5467 44.3632 16.3386 12.8613 -22.9236
# 2 41.5467 101.5347 33.8675 24.8629 -8.1451 -24.0698
# 3 44.3632 33.8675 127.4148 5.0908 7.9123 -4.0867
# 4 16.3386 24.8629 5.0908 42.6106 -3.8492 1.3637
# 5 12.8613 -8.1451 7.9123 -3.8492 51.8152 2.9293
# 6 -22.9236 -24.0698 -4.0867 1.3637 2.9293 46.0416
#
#
#
# Elastic Compliance Matrix: (Units=1/GPa)
#
#
# Indices 1 2 3 4 5 6 
#
# 1 0.012934 -0.002308 -0.003346 -0.003710 -0.003636 0.005277
# 2 -0.002308 0.015482 -0.002939 -0.007788 0.002495 0.006756
# 3 -0.003346 -0.002939 0.009698 0.001838 -0.000843 -0.002342
# 4 -0.003710 -0.007788 0.001838 0.029613 0.001998 -0.006760
# 5 -0.003636 0.002495 -0.000843 0.001998 0.020983 -0.001975
# 6 0.005277 0.006756 -0.002342 -0.006760 -0.001975 0.027997
#
#
# Mechanical properties :
#
#
# Convention : Reuss Voigt Hill
#
# Bulk Modulus (GPa) = 47.78332 64.70772 56.24552
# Shear Modulus (GPa) = 35.49376 42.96263 39.22820
#
# Velocity S-wave (km/s) = 3.97337 4.37148 4.17717
# Velocity P-wave (km/s) = 6.50418 7.36627 6.94861
#
# Compressibility (1/GPa) = 0.02092780
#
# Stress axis : x y z
#
# Youngs Moduli (GPa) = 77.31665 64.58917 103.10931
#
# Poissons Ratio (x) = 0.14910 0.34505
# Poissons Ratio (y) = 0.17848 0.30300
# Poissons Ratio (z) = 0.25873 0.18980
#
# Static dielectric constant tensor:
#      x y z
#    x 1.818670 -0.007890 -0.004840 
#    y -0.007890 1.855980 -0.057090 
#    z -0.004840 -0.057090 1.856790 
# 
# From -- ./inp_files/226818.got.cif
#   From: 2010.05.17/outbox.cif.g08.bks.cpg/sg2_114_cif.got.tgz:226818.got - 2010.06.03 11:33:40.
