data_PCOD9071930
_publ_section_title
;
Structure prediction by ZEFSAII (Michael W. Deem and Ramdas Pophale) SiO2 
 PCOD9071930
Probable space group: P -1
;
_chemical_formula_sum "Si O2"
_cell_formula_units_Z 16
_cell_length_a 12.554461
_cell_length_b 7.475356
_cell_length_c 16.353574
_cell_angle_alpha 143.223852
_cell_angle_beta 49.554435
_cell_angle_gamma 130.640407
_cell_volume 669.418429
_symmetry_space_group_name_H-M "P -1"
_symmetry_group_IT_number 2
_symmetry_cell_setting 'triclinic'
loop_
_space_group_symop_operation_xyz
x,y,z
-x,-y,-z
loop_
_atom_site_type_symbol
_atom_site_label
_atom_site_fract_x
_atom_site_fract_y
_atom_site_fract_z
Si Si1 0.918561 0.631244 0.967337
Si Si2 0.680623 0.959274 0.223849
Si Si3 0.462488 0.230493 0.352803
Si Si4 0.124724 0.336716 0.367630
Si Si5 0.820208 0.074792 0.945184
Si Si6 0.778222 0.158255 0.749072
Si Si7 0.491173 0.737648 0.975079
Si Si8 0.373903 0.696025 0.466520
O O1 0.831546 0.886296 0.105319
O O2 0.080456 0.763754 0.970039
O O3 0.834282 0.357658 0.975165
O O4 0.899884 0.474069 0.829451
O O5 0.565650 0.609078 0.161394
O O6 0.598001 0.093919 0.243922
O O7 0.701428 0.199531 0.377774
O O8 0.500000 0.500000 0.500000
O O9 0.444510 0.418539 0.349653
O O10 0.299148 0.984664 0.349433
O O11 0.273367 0.609377 0.406281
O O12 0.000000 0.500000 0.500000
O O13 0.107095 0.150265 0.224261
O O14 0.152973 0.097851 0.336183
O O15 0.658936 0.849777 0.963285
O O16 0.632782 0.226872 0.886885
O O17 0.500000 0.000000 0.000000
O O18 0.500000 0.000000 0.500000
#
# Coordination Sequence:
#
# PCOD9071930 Si02
#       8
#     2   2   2   2   2   2   2   2
#     4   9  18  29  50  76 105 145 174 216 275 323
#     4  10  19  33  54  77 107 143 179 222 277 311
#     4   9  20  36  53  79 109 143 182 223 265 325
#     4  10  18  30  48  76 110 143 174 216 267 323
#     4  10  18  31  47  78 117 138 175 226 273 317
#     4   9  19  34  53  75 107 140 182 220 267 323
#     4  11  18  32  54  81 110 137 174 231 268 309
#     4  10  20  32  54  80 106 138 182 226 264 316
#
# _framework density 23.901344000000002
#
# number of rings (size 3 to 8) (size 9 to 14) (size 15 to 20)
#    0.000    2.250    3.750    1.500    1.750    2.000 
#    0.000    0.000    0.000    6.000    0.000   19.250 
#    0.000    0.000    0.000    0.000    0.000    0.000 
#
# Total GULP energy -89169.806187 kJ/mol
# GULP energy per Si atom -5573.112887 kJ/mol
# Density = 2.384694 g / cm^3
# Si number density = 23.901344 Si / 1000 Ang^3
#
#
#
# Elastic Constant Matrix: (Units=GPa)
#
#
# Indices 1 2 3 4 5 6 
#
# 1 127.6902 19.2247 33.7136 9.8458 2.7095 28.1510
# 2 19.2247 47.2401 5.9046 17.4187 -3.2626 9.5086
# 3 33.7136 5.9046 115.4384 14.3225 -7.7166 -2.3518
# 4 9.8458 17.4187 14.3225 23.9556 9.2537 7.9867
# 5 2.7095 -3.2626 -7.7166 9.2537 55.2362 9.6031
# 6 28.1510 9.5086 -2.3518 7.9867 9.6031 36.8563
#
#
#
# Elastic Compliance Matrix: (Units=1/GPa)
#
#
# Indices 1 2 3 4 5 6 
#
# 1 0.010880 -0.003475 -0.003567 0.003051 -0.000319 -0.008219
# 2 -0.003475 0.032833 0.003075 -0.026508 0.007289 -0.001775
# 3 -0.003567 0.003075 0.011036 -0.009806 0.002842 0.004020
# 4 0.003051 -0.026508 -0.009806 0.073856 -0.013984 -0.008478
# 5 -0.000319 0.007289 0.002842 -0.013984 0.022013 -0.004160
# 6 -0.008219 -0.001775 0.004020 -0.008478 -0.004160 0.037046
#
#
# Mechanical properties :
#
#
# Convention : Reuss Voigt Hill
#
# Bulk Modulus (GPa) = 21.36025 45.33940 33.34982
# Shear Modulus (GPa) = 23.67400 38.64467 31.15933
#
# Velocity S-wave (km/s) = 3.15062 4.02536 3.61455
# Velocity P-wave (km/s) = 4.71078 6.37301 5.60387
#
# Compressibility (1/GPa) = 0.04681593
#
# Stress axis : x y z
#
# Youngs Moduli (GPa) = 91.91202 30.45709 90.61548
#
# Poissons Ratio (x) = 0.10582 0.32324
# Poissons Ratio (y) = 0.31935 -0.27867
# Poissons Ratio (z) = 0.32786 -0.09366
#
# Static dielectric constant tensor:
#      x y z
#    x 2.040900 -0.077000 0.091370 
#    y -0.077000 2.134990 -0.006290 
#    z 0.091370 -0.006290 2.071170 
# 
# From -- ./inp_files/594306.got.cif
#   From: 2010.05.17/outbox.cif.g08.bks.cpg/sg2_298_cif.got.tgz:594306.got - 2010.06.03 11:33:40.
