data_PCOD9071307
_publ_section_title
;
Structure prediction by ZEFSAII (Michael W. Deem and Ramdas Pophale) SiO2 
 PCOD9071307
Probable space group: P -1
;
_chemical_formula_sum "Si O2"
_cell_formula_units_Z 11
_cell_length_a 9.331785
_cell_length_b 7.354385
_cell_length_c 11.280040
_cell_angle_alpha 52.084066
_cell_angle_beta 109.193301
_cell_angle_gamma 72.014569
_cell_volume 419.899015
_symmetry_space_group_name_H-M "P -1"
_symmetry_group_IT_number 2
_symmetry_cell_setting 'triclinic'
loop_
_space_group_symop_operation_xyz
x,y,z
-x,-y,-z
loop_
_atom_site_type_symbol
_atom_site_label
_atom_site_fract_x
_atom_site_fract_y
_atom_site_fract_z
Si Si1 0.568054 0.196817 0.207146
Si Si2 0.203126 0.209706 0.105937
Si Si3 0.455238 0.673371 0.579545
Si Si4 0.927577 0.312852 0.796924
Si Si5 0.000000 0.500000 0.500000
Si Si6 0.649966 0.727097 0.243479
O O1 0.370608 0.236029 0.137080
O O2 0.619894 0.187049 0.362646
O O3 0.719449 0.872491 0.296971
O O4 0.500000 0.500000 0.000000
O O5 0.304592 0.908908 0.338429
O O6 0.000000 0.500000 0.000000
O O7 0.104171 0.277218 0.924444
O O8 0.678893 0.568390 0.660468
O O9 0.460500 0.388076 0.694889
O O10 0.957048 0.330120 0.661186
O O11 0.000000 0.000000 0.000000
O O12 0.886447 0.440156 0.390024
O O13 0.500000 0.000000 0.000000
#
# Coordination Sequence:
#
# PCOD9071307 Si02
#       6
#     2   2   2   2   1   2
#     4  12  26  47  80 113 158 209 261 330 400 473
#     4  12  27  49  77 113 154 207 267 325 395 474
#     4  12  27  52  80 114 161 213 259 338 404 462
#     4  12  27  50  78 116 157 204 269 323 398 483
#     4  12  28  44  80 112 150 208 256 324 392 470
#     4  12  26  50  77 116 159 205 268 326 401 481
#
# _framework density 26.196774999999999
#
# number of rings (size 3 to 8) (size 9 to 14) (size 15 to 20)
#    0.000    0.000    3.636    6.000    2.545    3.636 
#    0.000    1.818    0.000    0.000    0.000    0.000 
#    0.000    0.000    0.000    0.000    0.000    0.000 
#
# Total GULP energy -61314.834801 kJ/mol
# GULP energy per Si atom -5574.075891 kJ/mol
# Density = 2.613715 g / cm^3
# Si number density = 26.196775 Si / 1000 Ang^3
#
#
#
# Elastic Constant Matrix: (Units=GPa)
#
#
# Indices 1 2 3 4 5 6 
#
# 1 189.4039 39.6239 95.2412 -0.5243 -7.3565 3.1173
# 2 39.6239 110.3754 73.2749 16.1140 -19.3817 2.1479
# 3 95.2412 73.2749 285.7815 12.0742 -24.5287 8.8766
# 4 -0.5243 16.1140 12.0742 51.3471 6.0884 -0.5819
# 5 -7.3565 -19.3817 -24.5287 6.0884 71.7920 -3.4315
# 6 3.1173 2.1479 8.8766 -0.5819 -3.4315 47.4051
#
#
#
# Elastic Compliance Matrix: (Units=1/GPa)
#
#
# Indices 1 2 3 4 5 6 
#
# 1 0.006496 -0.001275 -0.001913 0.000965 -0.000416 -0.000029
# 2 -0.001275 0.012014 -0.002282 -0.003558 0.002640 0.000114
# 3 -0.001913 -0.002282 0.004838 -0.000550 0.000858 -0.000621
# 4 0.000965 -0.003558 -0.000550 0.021069 -0.002824 0.000255
# 5 -0.000416 0.002640 0.000858 -0.002824 0.015171 0.000811
# 6 -0.000029 0.000114 -0.000621 0.000255 0.000811 0.021270
#
#
# Mechanical properties :
#
#
# Convention : Reuss Voigt Hill
#
# Bulk Modulus (GPa) = 80.60273 111.31565 95.95919
# Shear Modulus (GPa) = 52.11989 59.27022 55.69506
#
# Velocity S-wave (km/s) = 4.46528 4.76174 4.61589
# Velocity P-wave (km/s) = 7.57760 8.53326 8.06959
#
# Compressibility (1/GPa) = 0.01240653
#
# Stress axis : x y z
#
# Youngs Moduli (GPa) = 153.95004 83.23961 206.69213
#
# Poissons Ratio (x) = 0.10613 0.39549
# Poissons Ratio (y) = 0.19628 0.47167
# Poissons Ratio (z) = 0.29457 0.18995
#
# Static dielectric constant tensor:
#      x y z
#    x 2.128780 -0.220060 -0.032260 
#    y -0.220060 2.003810 -0.317690 
#    z -0.032260 -0.317690 1.734430 
# 
# From -- ./inp_files/375349.got.cif
#   From: 2010.05.17/outbox.cif.g08.bks.cpg/sg2_188_cif.got.tgz:375349.got - 2010.06.03 11:33:40.
