data_PCOD9071860
_publ_section_title
;
Structure prediction by ZEFSAII (Michael W. Deem and Ramdas Pophale) SiO2 
 PCOD9071860
Probable space group: P -1
;
_chemical_formula_sum "Si O2"
_cell_formula_units_Z 14
_cell_length_a 5.848738
_cell_length_b 11.961994
_cell_length_c 10.519336
_cell_angle_alpha 95.633350
_cell_angle_beta 105.124989
_cell_angle_gamma 115.060902
_cell_volume 624.986491
_symmetry_space_group_name_H-M "P -1"
_symmetry_group_IT_number 2
_symmetry_cell_setting 'triclinic'
loop_
_space_group_symop_operation_xyz
x,y,z
-x,-y,-z
loop_
_atom_site_type_symbol
_atom_site_label
_atom_site_fract_x
_atom_site_fract_y
_atom_site_fract_z
Si Si1 0.384246 0.242123 0.865362
Si Si2 0.904638 0.036666 0.618466
Si Si3 0.836626 0.849506 0.922970
Si Si4 0.562472 0.401251 0.664559
Si Si5 0.918531 0.597847 0.565879
Si Si6 0.369160 0.806083 0.518101
Si Si7 0.661537 0.149445 0.074151
O O1 0.485090 0.356737 0.792915
O O2 0.628510 0.221424 0.952409
O O3 0.166553 0.115583 0.748276
O O4 0.220278 0.238606 0.968399
O O5 0.765409 0.123509 0.573578
O O6 0.663348 0.906486 0.618785
O O7 0.000000 0.000000 0.500000
O O8 0.033634 0.822961 0.857665
O O9 0.534455 0.827173 0.855260
O O10 0.000000 0.000000 0.000000
O O11 0.810005 0.538498 0.681975
O O12 0.316367 0.402020 0.553695
O O13 0.609585 0.293955 0.586395
O O14 0.000000 0.500000 0.500000
O O15 0.166524 0.733443 0.593731
O O16 0.500000 0.000000 0.000000
#
# Coordination Sequence:
#
# PCOD9071860 Si02
#       7
#     2   2   2   2   2   2   2
#     4  10  19  26  47  65  95 126 161 188 238 291
#     4  11  20  29  41  66  96 129 161 192 223 285
#     4   8  16  28  42  62  89 121 149 193 237 283
#     4  10  18  30  43  67  87 125 164 193 236 272
#     4   9  18  30  45  59  89 125 159 202 229 270
#     4  10  19  30  44  58  96 127 163 195 230 264
#     4   8  16  28  43  62  90 121 149 194 237 282
#
# _framework density 22.400485
#
# number of rings (size 3 to 8) (size 9 to 14) (size 15 to 20)
#    0.857    1.714    2.857    0.000    2.000    0.000 
#    0.000    0.000    0.000    0.000    0.000    0.000 
#    0.000    2.286    0.000    1.286    0.000    0.000 
#
# Total GULP energy -77958.438570 kJ/mol
# GULP energy per Si atom -5568.459898 kJ/mol
# Density = 2.234950 g / cm^3
# Si number density = 22.400485 Si / 1000 Ang^3
#
#
#
# Elastic Constant Matrix: (Units=GPa)
#
#
# Indices 1 2 3 4 5 6 
#
# 1 177.8113 32.4656 25.2720 -10.9169 -7.6327 -2.4989
# 2 32.4656 94.3328 17.6201 -37.2244 -13.7461 29.0937
# 3 25.2720 17.6201 46.9285 -22.3492 -7.3355 6.4094
# 4 -10.9169 -37.2244 -22.3492 36.6387 11.4707 -10.3755
# 5 -7.6327 -13.7461 -7.3355 11.4707 22.9267 -14.2899
# 6 -2.4989 29.0937 6.4094 -10.3755 -14.2899 59.3618
#
#
#
# Elastic Compliance Matrix: (Units=1/GPa)
#
#
# Indices 1 2 3 4 5 6 
#
# 1 0.006763 -0.003623 -0.004316 -0.004371 0.002334 0.002324
# 2 -0.003623 0.022143 0.005397 0.023318 -0.003002 -0.008235
# 3 -0.004316 0.005397 0.033265 0.024159 -0.001193 -0.002483
# 4 -0.004371 0.023318 0.024159 0.068171 -0.017988 -0.006636
# 5 0.002334 -0.003002 -0.001193 -0.017988 0.059193 0.012804
# 6 0.002324 -0.008235 -0.002483 -0.006636 0.012804 0.023170
#
#
# Mechanical properties :
#
#
# Convention : Reuss Voigt Hill
#
# Bulk Modulus (GPa) = 17.51679 52.19865 34.85772
# Shear Modulus (GPa) = 21.11313 40.03309 30.57311
#
# Velocity S-wave (km/s) = 3.07340 4.23206 3.69838
# Velocity P-wave (km/s) = 4.52008 6.87266 5.81656
#
# Compressibility (1/GPa) = 0.05708807
#
# Stress axis : x y z
#
# Youngs Moduli (GPa) = 147.85445 45.16030 30.06154
#
# Poissons Ratio (x) = 0.16362 0.12975
# Poissons Ratio (y) = 0.53569 -0.16226
# Poissons Ratio (z) = 0.63817 -0.24375
#
# Static dielectric constant tensor:
#      x y z
#    x 1.789600 0.057180 -0.031560 
#    y 0.057180 1.826040 -0.022930 
#    z -0.031560 -0.022930 1.818760 
# 
# From -- ./inp_files/96024.got.cif
#   From: 2010.05.17/outbox.cif.g08.bks.cpg/sg2_49_cif.got.tgz:96024.got - 2010.06.03 11:33:40.
