data_PCOD9071573
_publ_section_title
;
Structure prediction by ZEFSAII (Michael W. Deem and Ramdas Pophale) SiO2 
 PCOD9071573
Probable space group: P -1
;
_chemical_formula_sum "Si O2"
_cell_formula_units_Z 12
_cell_length_a 5.468473
_cell_length_b 9.274793
_cell_length_c 15.417967
_cell_angle_alpha 39.065398
_cell_angle_beta 77.580057
_cell_angle_gamma 83.926959
_cell_volume 478.893392
_symmetry_space_group_name_H-M "P -1"
_symmetry_group_IT_number 2
_symmetry_cell_setting 'triclinic'
loop_
_space_group_symop_operation_xyz
x,y,z
-x,-y,-z
loop_
_atom_site_type_symbol
_atom_site_label
_atom_site_fract_x
_atom_site_fract_y
_atom_site_fract_z
Si Si1 0.813733 0.519563 0.584505
Si Si2 0.259505 0.965077 0.597815
Si Si3 0.485185 0.310566 0.165822
Si Si4 0.068937 0.449204 0.247063
Si Si5 0.440448 0.952245 0.207496
Si Si6 0.013291 0.111353 0.041063
O O1 0.926102 0.460447 0.697530
O O2 0.588423 0.323620 0.670320
O O3 0.000000 0.500000 0.500000
O O4 0.765182 0.783027 0.479516
O O5 0.284367 0.797326 0.756732
O O6 0.060899 0.807133 0.629540
O O7 0.500000 0.000000 0.500000
O O8 0.346674 0.424932 0.201510
O O9 0.346608 0.075166 0.244104
O O10 0.500000 0.500000 0.000000
O O11 0.953246 0.619380 0.109720
O O12 0.733581 0.045655 0.131898
O O13 0.249475 0.038160 0.110453
O O14 0.000000 0.000000 0.000000
#
# Coordination Sequence:
#
# PCOD9071573 Si02
#       6
#     2   2   2   2   2   2
#     4  12  29  50  77 116 163 216 272 333 408 496
#     4  12  29  49  80 113 162 217 267 332 410 490
#     4  12  27  50  80 117 156 209 272 334 403 481
#     4  12  27  50  79 111 161 209 271 338 407 480
#     4  12  29  49  81 123 159 210 269 338 407 486
#     4  12  27  49  83 116 164 204 270 341 411 472
#
# _framework density 25.057772
#
# number of rings (size 3 to 8) (size 9 to 14) (size 15 to 20)
#    0.000    0.000    5.000    3.000    9.333    2.000 
#    0.000    0.000    0.000    0.000    0.000    0.000 
#    0.000    0.000    0.000    0.000    0.000    0.000 
#
# Total GULP energy -67093.229198 kJ/mol
# GULP energy per Si atom -5591.102433 kJ/mol
# Density = 2.500074 g / cm^3
# Si number density = 25.057772 Si / 1000 Ang^3
#
#
#
# Elastic Constant Matrix: (Units=GPa)
#
#
# Indices 1 2 3 4 5 6 
#
# 1 56.6424 21.3039 31.1062 3.0204 -12.6108 -7.2223
# 2 21.3039 188.8092 47.8348 -10.2392 -17.8838 -1.9213
# 3 31.1062 47.8348 138.1715 -28.5642 -10.3457 0.2668
# 4 3.0204 -10.2392 -28.5642 66.6004 -4.5131 -3.0351
# 5 -12.6108 -17.8838 -10.3457 -4.5131 34.4190 -0.7182
# 6 -7.2223 -1.9213 0.2668 -3.0351 -0.7182 43.6510
#
#
#
# Elastic Compliance Matrix: (Units=1/GPa)
#
#
# Indices 1 2 3 4 5 6 
#
# 1 0.022634 -0.000840 -0.004909 -0.002681 0.006106 0.003652
# 2 -0.000840 0.006060 -0.001638 0.000440 0.002411 0.000208
# 3 -0.004909 -0.001638 0.009847 0.004223 0.000851 -0.000637
# 4 -0.002681 0.000440 0.004223 0.017241 0.002793 0.000795
# 5 0.006106 0.002411 0.000851 0.002793 0.033204 0.001852
# 6 0.003652 0.000208 -0.000637 0.000795 0.001852 0.023612
#
#
# Mechanical properties :
#
#
# Convention : Reuss Voigt Hill
#
# Bulk Modulus (GPa) = 42.07238 64.90144 53.48691
# Shear Modulus (GPa) = 36.95607 47.82596 42.39101
#
# Velocity S-wave (km/s) = 3.84452 4.37352 4.11753
# Velocity P-wave (km/s) = 6.04432 7.17360 6.63304
#
# Compressibility (1/GPa) = 0.02376856
#
# Stress axis : x y z
#
# Youngs Moduli (GPa) = 44.18059 165.00439 101.54896
#
# Poissons Ratio (x) = 0.13863 0.49849
# Poissons Ratio (y) = 0.03712 0.16632
# Poissons Ratio (z) = 0.21688 0.27025
#
# Static dielectric constant tensor:
#      x y z
#    x 2.076330 0.043030 0.028430 
#    y 0.043030 2.083250 -0.012420 
#    z 0.028430 -0.012420 2.064170 
# 
# From -- ./inp_files/39314.got.cif
#   From: 2010.05.17/outbox.cif.g08.bks.cpg/sg2_20_cif.got.tgz:39314.got - 2010.06.03 11:33:40.
