data_PCOD9071565
_publ_section_title
;
Structure prediction by ZEFSAII (Michael W. Deem and Ramdas Pophale) SiO2 
 PCOD9071565
Probable space group: P -1
;
_chemical_formula_sum "Si O2"
_cell_formula_units_Z 15
_cell_length_a 5.371314
_cell_length_b 16.194518
_cell_length_c 19.044808
_cell_angle_alpha 27.592791
_cell_angle_beta 61.418093
_cell_angle_gamma 74.386326
_cell_volume 623.070995
_symmetry_space_group_name_H-M "P -1"
_symmetry_group_IT_number 2
_symmetry_cell_setting 'triclinic'
loop_
_space_group_symop_operation_xyz
x,y,z
-x,-y,-z
loop_
_atom_site_type_symbol
_atom_site_label
_atom_site_fract_x
_atom_site_fract_y
_atom_site_fract_z
Si Si1 0.090238 0.823078 0.919225
Si Si2 0.162455 0.599056 0.205573
Si Si3 0.720311 0.975594 0.640425
Si Si4 0.765339 0.418480 0.527541
Si Si5 0.500000 0.000000 0.500000
Si Si6 0.376257 0.006623 0.090858
Si Si7 0.675754 0.664016 0.702881
Si Si8 0.840002 0.643834 0.936067
O O1 0.939507 0.960630 0.873713
O O2 0.936466 0.735714 0.931104
O O3 0.451320 0.929617 0.769141
O O4 0.039521 0.650406 0.110803
O O5 0.340741 0.461680 0.268534
O O6 0.927312 0.490704 0.377909
O O7 0.375622 0.805192 0.050373
O O8 0.577640 0.921657 0.624085
O O9 0.974867 0.189306 0.446490
O O10 0.906650 0.833281 0.736528
O O11 0.500000 0.500000 0.500000
O O12 0.000000 0.500000 0.500000
O O13 0.641894 0.189434 0.723368
O O14 0.508147 0.199167 0.386291
O O15 0.500000 0.000000 0.000000
O O16 0.517818 0.498853 0.906760
O O17 0.000000 0.500000 0.000000
#
# Coordination Sequence:
#
# PCOD9071565 Si02
#       8
#     2   2   2   2   1   2   2   2
#     4  12  27  51  80 119 161 214 275 349 422 496
#     4  12  29  48  81 119 163 216 277 345 420 508
#     4  12  28  51  75 120 160 213 278 346 421 501
#     4  12  30  53  85 125 162 218 276 349 435 523
#     4  12  30  46  82 110 162 214 270 342 412 502
#     4  12  27  54  84 118 168 213 276 347 425 511
#     4  12  27  49  75 117 160 210 275 337 415 493
#     4  12  28  52  81 113 162 220 276 344 421 508
#
# _framework density 24.074304999999999
#
# number of rings (size 3 to 8) (size 9 to 14) (size 15 to 20)
#    0.000    0.000    4.000    3.600   11.200    2.133 
#    0.000    0.667    0.000    0.000    0.000    0.000 
#    0.000    0.000    0.000    0.000    0.000    0.000 
#
# Total GULP energy -83781.109643 kJ/mol
# GULP energy per Si atom -5585.407310 kJ/mol
# Density = 2.401951 g / cm^3
# Si number density = 24.074305 Si / 1000 Ang^3
#
#
#
# Elastic Constant Matrix: (Units=GPa)
#
#
# Indices 1 2 3 4 5 6 
#
# 1 92.4742 61.5546 40.8883 -1.5182 16.4754 0.7951
# 2 61.5546 184.3695 71.4485 -11.6891 15.4120 -20.1284
# 3 40.8883 71.4485 175.6296 -5.7040 -7.0149 -0.5694
# 4 -1.5182 -11.6891 -5.7040 63.0723 -1.4854 4.3682
# 5 16.4754 15.4120 -7.0149 -1.4854 44.5795 2.7184
# 6 0.7951 -20.1284 -0.5694 4.3682 2.7184 47.0895
#
#
#
# Elastic Compliance Matrix: (Units=1/GPa)
#
#
# Indices 1 2 3 4 5 6 
#
# 1 0.015298 -0.004160 -0.002071 -0.000574 -0.004454 -0.001751
# 2 -0.004160 0.008396 -0.002483 0.000932 -0.001948 0.003655
# 3 -0.002071 -0.002483 0.007306 0.000296 0.002852 -0.001130
# 4 -0.000574 0.000932 0.000296 0.016131 0.000542 -0.001116
# 5 -0.004454 -0.001948 0.002852 0.000542 0.025354 -0.002237
# 6 -0.001751 0.003655 -0.001130 -0.001116 -0.002237 0.023047
#
#
# Mechanical properties :
#
#
# Convention : Reuss Voigt Hill
#
# Bulk Modulus (GPa) = 73.68371 88.91737 81.30054
# Shear Modulus (GPa) = 42.55911 49.52039 46.03975
#
# Velocity S-wave (km/s) = 4.20911 4.54032 4.37785
# Velocity P-wave (km/s) = 7.36854 8.03123 7.70701
#
# Compressibility (1/GPa) = 0.01357152
#
# Stress axis : x y z
#
# Youngs Moduli (GPa) = 65.36850 119.10668 136.87539
#
# Poissons Ratio (x) = 0.49548 0.28352
# Poissons Ratio (y) = 0.27193 0.33982
# Poissons Ratio (z) = 0.13540 0.29571
#
# Static dielectric constant tensor:
#      x y z
#    x 1.436890 0.139530 0.045280 
#    y 0.139530 1.856270 -0.015390 
#    z 0.045280 -0.015390 1.924170 
# 
# From -- ./inp_files/549775.got.cif
#   From: 2010.05.17/outbox.cif.g08.bks.cpg/sg2_275_cif.got.tgz:549775.got - 2010.06.03 11:33:40.
