data_PCOD9071689
_publ_section_title
;
Structure prediction by ZEFSAII (Michael W. Deem and Ramdas Pophale) SiO2 
 PCOD9071689
Probable space group: P -1
;
_chemical_formula_sum "Si O2"
_cell_formula_units_Z 16
_cell_length_a 10.927255
_cell_length_b 9.310367
_cell_length_c 10.978382
_cell_angle_alpha 117.142890
_cell_angle_beta 101.002469
_cell_angle_gamma 43.075462
_cell_volume 659.902845
_symmetry_space_group_name_H-M "P -1"
_symmetry_group_IT_number 2
_symmetry_cell_setting 'triclinic'
loop_
_space_group_symop_operation_xyz
x,y,z
-x,-y,-z
loop_
_atom_site_type_symbol
_atom_site_label
_atom_site_fract_x
_atom_site_fract_y
_atom_site_fract_z
Si Si1 0.569954 0.468362 0.675755
Si Si2 0.366705 0.233874 0.151672
Si Si3 0.876458 0.129085 0.820653
Si Si4 0.274874 0.425444 0.968980
Si Si5 0.262843 0.178695 0.663851
Si Si6 0.665841 0.030713 0.797173
Si Si7 0.861736 0.045706 0.401168
Si Si8 0.431148 0.274085 0.599721
O O1 0.538585 0.690754 0.754181
O O2 0.714102 0.304827 0.753651
O O3 0.413252 0.483184 0.673720
O O4 0.673339 0.306877 0.511593
O O5 0.293334 0.183214 0.220568
O O6 0.221310 0.428603 0.097488
O O7 0.500000 0.000000 0.000000
O O8 0.835432 0.991527 0.811350
O O9 0.064790 0.985381 0.730599
O O10 0.838751 0.306646 0.979135
O O11 0.256160 0.287546 0.827851
O O12 0.492266 0.264575 0.934013
O O13 0.133719 0.147875 0.639121
O O14 0.257572 0.326750 0.619003
O O15 0.456619 0.904592 0.561650
O O16 0.575187 0.109064 0.676143
O O17 0.000000 0.000000 0.500000
#
# Coordination Sequence:
#
# PCOD9071689 Si02
#       8
#     2   2   2   2   2   2   2   2
#     4   8  15  29  46  67  92 119 151 184 222 261
#     4   9  17  28  46  70  95 120 146 181 224 271
#     4   9  16  27  45  68  90 118 154 186 219 261
#     4   9  17  28  45  68  94 120 145 183 231 271
#     4   9  16  27  46  69  92 115 147 187 229 265
#     4   9  16  28  47  70  92 117 151 188 220 260
#     4   9  17  29  46  66  89 118 154 190 221 262
#     4   8  15  28  48  69  90 116 148 189 226 259
#
# _framework density 24.245992999999999
#
# number of rings (size 3 to 8) (size 9 to 14) (size 15 to 20)
#    0.000    3.250    0.000    1.125    0.000    3.500 
#    0.000    0.625    0.000   40.500    0.000    0.000 
#    0.000    0.000    0.000    0.000    0.000    0.000 
#
# Total GULP energy -89114.773085 kJ/mol
# GULP energy per Si atom -5569.673318 kJ/mol
# Density = 2.419081 g / cm^3
# Si number density = 24.245993 Si / 1000 Ang^3
#
#
#
# Elastic Constant Matrix: (Units=GPa)
#
#
# Indices 1 2 3 4 5 6 
#
# 1 149.5889 62.5549 56.0193 20.3969 8.6201 73.2537
# 2 62.5549 79.4769 35.9472 9.7212 15.0245 48.0694
# 3 56.0193 35.9472 115.3255 17.6634 10.4498 38.0139
# 4 20.3969 9.7212 17.6634 34.6958 9.7603 10.5688
# 5 8.6201 15.0245 10.4498 9.7603 24.2315 13.6685
# 6 73.2537 48.0694 38.0139 10.5688 13.6685 60.2047
#
#
#
# Elastic Compliance Matrix: (Units=1/GPa)
#
#
# Indices 1 2 3 4 5 6 
#
# 1 0.018990 -0.002498 -0.001350 -0.006029 0.009903 -0.021450
# 2 -0.002498 0.025343 -0.001333 0.001433 -0.006263 -0.015183
# 3 -0.001350 -0.001333 0.011600 -0.003514 -0.000027 -0.003994
# 4 -0.006029 0.001433 -0.003514 0.036295 -0.014907 0.005423
# 5 0.009903 -0.006263 -0.000027 -0.014907 0.057499 -0.017469
# 6 -0.021450 -0.015183 -0.003994 0.005423 -0.017469 0.060368
#
#
# Mechanical properties :
#
#
# Convention : Reuss Voigt Hill
#
# Bulk Modulus (GPa) = 21.94355 72.60377 47.27366
# Shear Modulus (GPa) = 21.21812 36.48439 28.85125
#
# Velocity S-wave (km/s) = 2.96145 3.88333 3.45329
# Velocity P-wave (km/s) = 4.55671 7.07931 5.95316
#
# Compressibility (1/GPa) = 0.04557147
#
# Stress axis : x y z
#
# Youngs Moduli (GPa) = 52.65856 39.45802 86.21010
#
# Poissons Ratio (x) = 0.09856 0.11634
# Poissons Ratio (y) = 0.13154 0.11496
# Poissons Ratio (z) = 0.07106 0.05262
#
# Static dielectric constant tensor:
#      x y z
#    x 2.031870 0.000670 -0.011880 
#    y 0.000670 2.061930 -0.043480 
#    z -0.011880 -0.043480 1.973070 
# 
# From -- ./inp_files/252536.got.cif
#   From: 2010.05.17/outbox.cif.g08.bks.cpg/sg2_127_cif.got.tgz:252536.got - 2010.06.03 11:33:40.
