data_PCOD9071008
_publ_section_title
;
Structure prediction by ZEFSAII (Michael W. Deem and Ramdas Pophale) SiO2 
 PCOD9071008
Probable space group: P -1
;
_chemical_formula_sum "Si O2"
_cell_formula_units_Z 16
_cell_length_a 21.984561
_cell_length_b 12.155288
_cell_length_c 5.441901
_cell_angle_alpha 79.525781
_cell_angle_beta 97.547070
_cell_angle_gamma 152.033445
_cell_volume 669.259232
_symmetry_space_group_name_H-M "P -1"
_symmetry_group_IT_number 2
_symmetry_cell_setting 'triclinic'
loop_
_space_group_symop_operation_xyz
x,y,z
-x,-y,-z
loop_
_atom_site_type_symbol
_atom_site_label
_atom_site_fract_x
_atom_site_fract_y
_atom_site_fract_z
Si Si1 0.440029 0.498419 0.155608
Si Si2 0.690595 0.474693 0.028234
Si Si3 0.452547 0.032510 0.331677
Si Si4 0.921969 0.902953 0.250811
Si Si5 0.225130 0.623932 0.067243
Si Si6 0.365268 0.034092 0.653818
Si Si7 0.922434 0.166131 0.116002
Si Si8 0.784028 0.013279 0.598587
O O1 0.567141 0.769832 0.206261
O O2 0.346333 0.273081 0.369871
O O3 0.500000 0.500000 0.000000
O O4 0.339700 0.442415 0.070267
O O5 0.545308 0.195018 0.084614
O O6 0.781947 0.619215 0.260411
O O7 0.759852 0.486817 0.904286
O O8 0.475971 0.173537 0.466382
O O9 0.500000 0.000000 0.500000
O O10 0.303357 0.782540 0.286974
O O11 0.896465 0.992881 0.194814
O O12 0.000000 0.000000 0.500000
O O13 0.000000 0.000000 0.000000
O O14 0.300651 0.820721 0.825362
O O15 0.077137 0.423463 0.067082
O O16 0.262046 0.934634 0.477451
O O17 0.873737 0.136692 0.359753
O O18 0.851217 0.097863 0.862315
#
# Coordination Sequence:
#
# PCOD9071008 Si02
#       8
#     2   2   2   2   2   2   2   2
#     4  12  26  52  81 117 158 204 262 331 394 472
#     4  12  25  48  79 115 156 204 261 329 402 462
#     4  12  26  45  77 113 154 201 261 329 397 464
#     4  12  27  47  78 115 157 204 256 326 394 466
#     4  12  28  50  75 115 158 204 263 329 393 471
#     4  12  28  48  80 111 154 206 267 323 397 468
#     4  12  29  50  78 116 159 207 266 319 394 473
#     4  12  29  51  79 114 157 212 261 319 393 469
#
# _framework density 23.907028
#
# number of rings (size 3 to 8) (size 9 to 14) (size 15 to 20)
#    0.000    0.000    5.000    3.750    7.000    1.000 
#    0.000    0.000    0.000    0.000    0.000    0.000 
#    0.000    0.000    0.000    0.000    0.000    0.000 
#
# Total GULP energy -89326.918140 kJ/mol
# GULP energy per Si atom -5582.932384 kJ/mol
# Density = 2.385261 g / cm^3
# Si number density = 23.907028 Si / 1000 Ang^3
#
#
#
# Elastic Constant Matrix: (Units=GPa)
#
#
# Indices 1 2 3 4 5 6 
#
# 1 168.3753 21.9723 67.3794 6.1802 6.9635 2.6348
# 2 21.9723 112.7726 30.7026 10.1354 -4.9623 11.9687
# 3 67.3794 30.7026 129.0334 14.6734 11.3175 7.1604
# 4 6.1802 10.1354 14.6734 32.9377 2.7365 -8.8468
# 5 6.9635 -4.9623 11.3175 2.7365 42.8936 -4.2255
# 6 2.6348 11.9687 7.1604 -8.8468 -4.2255 31.1530
#
#
#
# Elastic Compliance Matrix: (Units=1/GPa)
#
#
# Indices 1 2 3 4 5 6 
#
# 1 0.007547 -0.000546 -0.003902 0.000679 -0.000240 0.000629
# 2 -0.000546 0.010273 -0.001639 -0.003622 0.001512 -0.004348
# 3 -0.003902 -0.001639 0.011065 -0.004332 -0.002510 -0.003154
# 4 0.000679 -0.003622 -0.004332 0.036727 -0.000479 0.012694
# 5 -0.000240 0.001512 -0.002510 -0.000479 0.024536 0.003208
# 6 0.000629 -0.004348 -0.003154 0.012694 0.003208 0.038482
#
#
# Mechanical properties :
#
#
# Convention : Reuss Voigt Hill
#
# Bulk Modulus (GPa) = 59.83887 72.25442 66.04665
# Shear Modulus (GPa) = 34.15875 40.73867 37.44871
#
# Velocity S-wave (km/s) = 3.78407 4.13249 3.96211
# Velocity P-wave (km/s) = 6.64653 7.28414 6.97263
#
# Compressibility (1/GPa) = 0.01671154
#
# Stress axis : x y z
#
# Youngs Moduli (GPa) = 132.50181 97.33782 90.37349
#
# Poissons Ratio (x) = 0.05319 0.35264
# Poissons Ratio (y) = 0.07241 0.14809
# Poissons Ratio (z) = 0.51702 0.15950
#
# Static dielectric constant tensor:
#      x y z
#    x 1.873180 -0.035900 0.106880 
#    y -0.035900 1.927650 0.058640 
#    z 0.106880 0.058640 1.869730 
# 
# From -- ./inp_files/118682.got.cif
#   From: 2010.05.17/outbox.cif.g08.bks.cpg/sg2_60_cif.got.tgz:118682.got - 2010.06.03 11:33:40.
