data_PCOD9071542
_publ_section_title
;
Structure prediction by ZEFSAII (Michael W. Deem and Ramdas Pophale) SiO2 
 PCOD9071542
Probable space group: P -1
;
_chemical_formula_sum "Si O2"
_cell_formula_units_Z 16
_cell_length_a 17.834581
_cell_length_b 9.055532
_cell_length_c 17.874465
_cell_angle_alpha 152.031260
_cell_angle_beta 149.615191
_cell_angle_gamma 33.284281
_cell_volume 650.555550
_symmetry_space_group_name_H-M "P -1"
_symmetry_group_IT_number 2
_symmetry_cell_setting 'triclinic'
loop_
_space_group_symop_operation_xyz
x,y,z
-x,-y,-z
loop_
_atom_site_type_symbol
_atom_site_label
_atom_site_fract_x
_atom_site_fract_y
_atom_site_fract_z
Si Si1 0.929881 0.835242 0.281487
Si Si2 0.602265 0.181481 0.216710
Si Si3 0.429881 0.835242 0.281487
Si Si4 0.669345 0.346200 0.043153
Si Si5 0.044825 0.436743 0.596640
Si Si6 0.544825 0.436743 0.596640
Si Si7 0.897735 0.818518 0.783290
Si Si8 0.169345 0.346199 0.043153
O O1 0.062502 0.533916 0.297635
O O2 0.783576 0.980235 0.275609
O O3 0.853844 0.713350 0.090322
O O4 0.999370 0.117427 0.439756
O O5 0.562501 0.533915 0.297634
O O6 0.542667 0.270296 0.289493
O O7 0.500000 0.000000 0.000000
O O8 0.353844 0.713352 0.090323
O O9 0.499370 0.117426 0.439756
O O10 0.283576 0.980235 0.275609
O O11 0.750000 0.000001 0.000001
O O12 0.500000 0.500000 0.000000
O O13 0.775875 0.580026 0.250458
O O14 0.000000 0.500000 0.500000
O O15 0.957333 0.729704 0.710507
O O16 0.500000 0.500000 0.500000
O O17 0.724125 0.419975 0.749542
O O18 0.000000 0.000000 0.000000
O O19 0.000000 0.500000 0.000000
#
# Coordination Sequence:
#
# PCOD9071542 Si02
#       8
#     2   2   2   2   2   2   2   2
#     4  12  27  51  79 111 154 203 258 312 379 458
#     4  12  27  52  79 111 154 204 254 315 382 453
#     4  12  27  51  79 111 154 203 258 312 379 458
#     4  12  27  48  77 115 157 198 253 318 383 450
#     4  12  28  50  81 117 154 203 255 319 383 454
#     4  12  28  50  81 117 154 203 255 319 383 454
#     4  12  27  52  79 111 154 204 254 315 382 453
#     4  12  27  48  77 115 157 198 253 318 383 450
#
# _framework density 24.594363000000001
#
# number of rings (size 3 to 8) (size 9 to 14) (size 15 to 20)
#    0.000    0.000    5.000    3.750    0.000    3.000 
#    0.000    0.000    0.000    0.000    0.000    0.000 
#    0.000    0.000    0.000    0.000    0.000    0.000 
#
# Total GULP energy -89886.714765 kJ/mol
# GULP energy per Si atom -5617.919673 kJ/mol
# Density = 2.453838 g / cm^3
# Si number density = 24.594363 Si / 1000 Ang^3
#
#
#
# Elastic Constant Matrix: (Units=GPa)
#
#
# Indices 1 2 3 4 5 6 
#
# 1 148.7315 28.0783 63.3033 -1.3953 -15.5791 -6.3995
# 2 28.0783 90.3978 1.5833 5.2835 -1.3990 -6.5329
# 3 63.3033 1.5833 199.2414 -8.1395 1.6245 1.9273
# 4 -1.3953 5.2835 -8.1395 31.3589 8.3937 3.1592
# 5 -15.5791 -1.3990 1.6245 8.3937 71.6786 -12.2634
# 6 -6.3995 -6.5329 1.9273 3.1592 -12.2634 44.3537
#
#
#
# Elastic Compliance Matrix: (Units=1/GPa)
#
#
# Indices 1 2 3 4 5 6 
#
# 1 0.008684 -0.002449 -0.002803 -0.000708 0.002276 0.001694
# 2 -0.002449 0.012063 0.000574 -0.002216 0.000227 0.001619
# 3 -0.002803 0.000574 0.005995 0.001733 -0.001110 -0.001011
# 4 -0.000708 -0.002216 0.001733 0.034461 -0.005015 -0.004345
# 5 0.002276 0.000227 -0.001110 -0.005015 0.015948 0.005177
# 6 0.001694 0.001619 -0.001011 -0.004345 0.005177 0.024814
#
#
# Mechanical properties :
#
#
# Convention : Reuss Voigt Hill
#
# Bulk Modulus (GPa) = 57.52134 69.36671 63.44403
# Shear Modulus (GPa) = 42.69281 52.50531 47.59906
#
# Velocity S-wave (km/s) = 4.17091 4.62546 4.40405
# Velocity P-wave (km/s) = 6.82891 7.53605 7.19118
#
# Compressibility (1/GPa) = 0.01738485
#
# Stress axis : x y z
#
# Youngs Moduli (GPa) = 115.15848 82.89885 166.81073
#
# Poissons Ratio (x) = 0.20303 0.46764
# Poissons Ratio (y) = 0.28203 -0.09579
# Poissons Ratio (z) = 0.32284 -0.04760
#
# Static dielectric constant tensor:
#      x y z
#    x 1.919550 0.005700 -0.025460 
#    y 0.005700 1.921320 0.041170 
#    z -0.025460 0.041170 1.936500 
# 
# From -- ./inp_files/575622.got.cif
#   From: 2010.05.17/outbox.cif.g08.bks.cpg/sg2_288_cif.got.tgz:575622.got - 2010.06.03 11:33:40.
