data_PCOD9071637
_publ_section_title
;
Structure prediction by ZEFSAII (Michael W. Deem and Ramdas Pophale) SiO2 
 PCOD9071637
Probable space group: P -1
;
_chemical_formula_sum "Si O2"
_cell_formula_units_Z 12
_cell_length_a 8.678334
_cell_length_b 7.436336
_cell_length_c 11.824472
_cell_angle_alpha 109.988052
_cell_angle_beta 118.521074
_cell_angle_gamma 50.179364
_cell_volume 514.232370
_symmetry_space_group_name_H-M "P -1"
_symmetry_group_IT_number 2
_symmetry_cell_setting 'triclinic'
loop_
_space_group_symop_operation_xyz
x,y,z
-x,-y,-z
loop_
_atom_site_type_symbol
_atom_site_label
_atom_site_fract_x
_atom_site_fract_y
_atom_site_fract_z
Si Si1 0.676932 0.934104 0.392687
Si Si2 0.814707 0.669768 0.607251
Si Si3 0.987888 0.675387 0.887249
Si Si4 0.788728 0.418928 0.840140
Si Si5 0.748016 0.295329 0.567311
Si Si6 0.534037 0.942083 0.869324
O O1 0.425253 0.127630 0.383968
O O2 0.786607 0.070830 0.473558
O O3 0.650733 0.882712 0.244221
O O4 0.786550 0.730603 0.479177
O O5 0.976083 0.685708 0.749591
O O6 0.859196 0.418119 0.589642
O O7 0.968881 0.460799 0.870282
O O8 0.757773 0.897111 0.899377
O O9 0.163154 0.654922 0.028037
O O10 0.779571 0.264147 0.707933
O O11 0.577514 0.686013 0.814833
O O12 0.500000 0.500000 0.500000
O O13 0.500000 0.000000 0.000000
#
# Coordination Sequence:
#
# PCOD9071637 Si02
#       6
#     2   2   2   2   2   2
#     4   9  15  24  40  66  81 103 141 175 207 237
#     4   8  14  24  41  62  83 103 136 181 205 234
#     4   7  13  25  40  61  80 108 143 164 206 250
#     4   8  13  24  41  62  79 108 143 165 208 247
#     4   9  13  24  41  64  83 102 137 182 203 236
#     4   9  15  24  41  62  85 110 137 169 206 250
#
# _framework density 23.335750999999998
#
# number of rings (size 3 to 8) (size 9 to 14) (size 15 to 20)
#    1.000    2.667    3.333    0.000    0.000    0.000 
#    0.000    0.833    0.000    3.000    0.000    0.000 
#    0.000    0.000    0.000    0.000    0.000    0.000 
#
# Total GULP energy -66811.739795 kJ/mol
# GULP energy per Si atom -5567.644983 kJ/mol
# Density = 2.328264 g / cm^3
# Si number density = 23.335751 Si / 1000 Ang^3
#
#
#
# Elastic Constant Matrix: (Units=GPa)
#
#
# Indices 1 2 3 4 5 6 
#
# 1 27.8780 6.3694 17.9597 -5.5188 -2.9865 -9.5549
# 2 6.3694 72.9657 38.8407 -21.4966 -3.0689 -2.4968
# 3 17.9597 38.8407 224.1624 -51.6859 -13.3488 9.0062
# 4 -5.5188 -21.4966 -51.6859 31.7153 -2.4826 -3.0068
# 5 -2.9865 -3.0689 -13.3488 -2.4826 24.1635 -3.5877
# 6 -9.5549 -2.4968 9.0062 -3.0068 -3.5877 20.0026
#
#
#
# Elastic Compliance Matrix: (Units=1/GPa)
#
#
# Indices 1 2 3 4 5 6 
#
# 1 0.049765 0.000918 -0.002832 0.008093 0.009710 0.028120
# 2 0.000918 0.017879 -0.000155 0.012893 0.004436 0.005474
# 3 -0.002832 -0.000155 0.008022 0.012665 0.005040 -0.002176
# 4 0.008093 0.012893 0.012665 0.064956 0.018209 0.012803
# 5 0.009710 0.004436 0.005040 0.018209 0.049975 0.014623
# 6 0.028120 0.005474 -0.002176 0.012803 0.014623 0.069636
#
#
# Mechanical properties :
#
#
# Convention : Reuss Voigt Hill
#
# Bulk Modulus (GPa) = 13.98004 50.14952 32.06478
# Shear Modulus (GPa) = 17.34823 32.63203 24.99013
#
# Velocity S-wave (km/s) = 2.72953 3.74354 3.27600
# Velocity P-wave (km/s) = 3.99219 6.34212 5.29906
#
# Compressibility (1/GPa) = 0.07153055
#
# Stress axis : x y z
#
# Youngs Moduli (GPa) = 20.09447 55.93014 124.65026
#
# Poissons Ratio (x) = -0.05135 0.35298
# Poissons Ratio (y) = -0.01845 0.01927
# Poissons Ratio (z) = 0.05690 0.00864
#
# Static dielectric constant tensor:
#      x y z
#    x 1.979970 -0.043600 -0.034150 
#    y -0.043600 1.923370 -0.002430 
#    z -0.034150 -0.002430 1.910450 
# 
# From -- ./inp_files/172281.got.cif
#   From: 2010.05.17/outbox.cif.g08.bks.cpg/sg2_87_cif.got.tgz:172281.got - 2010.06.03 11:33:40.
