data_PCOD9071403
_publ_section_title
;
Structure prediction by ZEFSAII (Michael W. Deem and Ramdas Pophale) SiO2 
 PCOD9071403
Probable space group: P -1
;
_chemical_formula_sum "Si O2"
_cell_formula_units_Z 12
_cell_length_a 9.249691
_cell_length_b 15.594637
_cell_length_c 14.852697
_cell_angle_alpha 19.050924
_cell_angle_beta 136.554262
_cell_angle_gamma 134.412252
_cell_volume 480.014221
_symmetry_space_group_name_H-M "P -1"
_symmetry_group_IT_number 2
_symmetry_cell_setting 'triclinic'
loop_
_space_group_symop_operation_xyz
x,y,z
-x,-y,-z
loop_
_atom_site_type_symbol
_atom_site_label
_atom_site_fract_x
_atom_site_fract_y
_atom_site_fract_z
Si Si1 0.020187 0.865572 0.047181
Si Si2 0.487030 0.019627 0.081867
Si Si3 0.350619 0.779785 0.703648
Si Si4 0.438997 0.555750 0.159140
Si Si5 0.909712 0.818139 0.559382
Si Si6 0.232545 0.664857 0.582670
O O1 0.893100 0.071581 0.726049
O O2 0.916505 0.575515 0.281526
O O3 0.267068 0.855388 0.156395
O O4 0.000000 0.000000 0.000000
O O5 0.706708 0.925205 0.311983
O O6 0.467755 0.285669 0.869600
O O7 0.500000 0.000000 0.000000
O O8 0.313822 0.578252 0.803452
O O9 0.105630 0.815207 0.583720
O O10 0.500000 0.000000 0.500000
O O11 0.435624 0.724489 0.897543
O O12 0.203924 0.448502 0.185630
O O13 0.575672 0.319107 0.418495
O O14 0.000000 0.000000 0.500000
#
# Coordination Sequence:
#
# PCOD9071403 Si02
#       6
#     2   2   2   2   2   2
#     4  12  26  49  77 113 161 212 265 332 396 483
#     4  12  29  48  79 114 162 214 268 326 409 483
#     4  12  27  51  83 120 156 212 275 337 406 487
#     4  12  27  49  80 117 162 207 268 336 404 483
#     4  12  27  51  81 113 164 209 268 334 411 478
#     4  12  27  48  80 116 160 211 270 330 403 475
#
# _framework density 24.999261000000001
#
# number of rings (size 3 to 8) (size 9 to 14) (size 15 to 20)
#    0.000    0.000    3.333    5.500    4.667    2.000 
#    0.000    0.000    0.000    0.000    0.000    0.000 
#    0.000    0.000    0.000    0.000    0.000    0.000 
#
# Total GULP energy -67016.493893 kJ/mol
# GULP energy per Si atom -5584.707824 kJ/mol
# Density = 2.494236 g / cm^3
# Si number density = 24.999261 Si / 1000 Ang^3
#
#
#
# Elastic Constant Matrix: (Units=GPa)
#
#
# Indices 1 2 3 4 5 6 
#
# 1 200.7009 72.5717 30.4100 2.6363 -16.1470 0.9378
# 2 72.5717 168.0212 32.9030 4.4312 -13.8019 -8.1206
# 3 30.4100 32.9030 86.8908 8.3282 -11.7884 3.7424
# 4 2.6363 4.4312 8.3282 56.5069 5.8661 -4.6939
# 5 -16.1470 -13.8019 -11.7884 5.8661 37.4537 2.5587
# 6 0.9378 -8.1206 3.7424 -4.6939 2.5587 74.3968
#
#
#
# Elastic Compliance Matrix: (Units=1/GPa)
#
#
# Indices 1 2 3 4 5 6 
#
# 1 0.006102 -0.002325 -0.001025 -0.000135 0.001496 -0.000339
# 2 -0.002325 0.007465 -0.001873 -0.000245 0.001137 0.000884
# 3 -0.001025 -0.001873 0.013310 -0.002222 0.003482 -0.001121
# 4 -0.000135 -0.000245 -0.002222 0.018565 -0.003851 0.001390
# 5 0.001496 0.001137 0.003482 -0.003851 0.029553 -0.001329
# 6 -0.000339 0.000884 -0.001121 0.001390 -0.001329 0.013732
#
#
# Mechanical properties :
#
#
# Convention : Reuss Voigt Hill
#
# Bulk Modulus (GPa) = 60.85917 80.82028 70.83972
# Shear Modulus (GPa) = 47.77748 54.98669 51.38209
#
# Velocity S-wave (km/s) = 4.37642 4.69501 4.53851
# Velocity P-wave (km/s) = 7.06644 7.86066 7.47411
#
# Compressibility (1/GPa) = 0.01643138
#
# Stress axis : x y z
#
# Youngs Moduli (GPa) = 163.87572 133.95326 75.12945
#
# Poissons Ratio (x) = 0.31143 0.07699
# Poissons Ratio (y) = 0.38100 0.14075
# Poissons Ratio (z) = 0.16794 0.25096
#
# Static dielectric constant tensor:
#      x y z
#    x 1.932510 0.014470 0.032710 
#    y 0.014470 2.011230 0.121230 
#    z 0.032710 0.121230 2.262330 
# 
# From -- ./inp_files/22430.got.cif
#   From: 2010.05.17/outbox.cif.g08.bks.cpg/sg2_12_cif.got.tgz:22430.got - 2010.06.03 11:33:40.
