data_PCOD9071913
_publ_section_title
;
Structure prediction by ZEFSAII (Michael W. Deem and Ramdas Pophale) SiO2 
 PCOD9071913
Probable space group: P -1
;
_chemical_formula_sum "Si O2"
_cell_formula_units_Z 16
_cell_length_a 12.000000
_cell_length_b 21.000000
_cell_length_c 15.000000
_cell_angle_alpha 30.000000
_cell_angle_beta 150.000000
_cell_angle_gamma 150.000000
_cell_volume 837.063958
_symmetry_space_group_name_H-M "P -1"
_symmetry_group_IT_number 2
_symmetry_cell_setting 'triclinic'
loop_
_space_group_symop_operation_xyz
x,y,z
-x,-y,-z
loop_
_atom_site_type_symbol
_atom_site_label
_atom_site_fract_x
_atom_site_fract_y
_atom_site_fract_z
Si Si1 0.563578 0.097587 0.302160
Si Si2 0.182527 0.131522 0.896817
Si Si3 0.065052 0.374186 0.595728
Si Si4 0.434965 0.780172 0.656599
Si Si5 0.792969 0.305263 0.680697
Si Si6 0.771367 0.839119 0.522786
Si Si7 0.108008 0.216456 0.136408
Si Si8 0.903140 0.882304 0.362335
O O1 0.518677 0.179006 0.256815
O O2 0.852005 0.141307 0.437068
O O3 0.442607 0.926833 0.444827
O O4 0.444525 0.130485 0.094714
O O5 0.183747 0.275233 0.761833
O O6 0.145331 0.128071 0.767429
O O7 0.000000 0.000000 0.000000
O O8 0.225940 0.545953 0.503960
O O9 0.837151 0.343488 0.406878
O O10 0.944440 0.319729 0.676309
O O11 0.638950 0.745667 0.791457
O O12 0.507303 0.179305 0.628309
O O13 0.946123 0.283436 0.895286
O O14 0.825510 0.756504 0.744491
O O15 0.760759 0.801177 0.454807
O O16 0.000000 0.000000 0.500000
O O17 0.957257 0.044510 0.224807
#
# Coordination Sequence:
#
# PCOD9071913 Si02
#       8
#     2   2   2   2   2   2   2   2
#     4  10  19  32  56  87 121 144 190 250 299 350
#     4  12  20  35  63  93 118 155 194 250 310 350
#     4  11  22  38  61  90 129 155 194 254 305 357
#     4  10  17  35  57  88 122 152 189 249 300 347
#     4  11  24  41  58  90 125 162 199 243 301 365
#     4  10  23  42  61  85 121 159 208 250 286 353
#     4  10  21  37  62  88 118 159 196 247 303 354
#     4  10  22  35  59  91 115 149 200 253 295 347
#
# _framework density 19.114429999999999
#
# number of rings (size 3 to 8) (size 9 to 14) (size 15 to 20)
#    0.000    1.500    3.750    3.000    0.000    3.500 
#    2.250    0.625    0.000    1.500    0.000    0.000 
#    0.000    0.000    0.000    0.000    0.000    0.000 
#
# Total GULP energy -89067.653431 kJ/mol
# GULP energy per Si atom -5566.728339 kJ/mol
# Density = 1.907092 g / cm^3
# Si number density = 19.114430 Si / 1000 Ang^3
#
#
#
# Elastic Constant Matrix: (Units=GPa)
#
#
# Indices 1 2 3 4 5 6 
#
# 1 110.1243 14.3238 48.1682 0.0530 -24.1963 -14.1750
# 2 14.3238 39.6834 22.5485 10.1987 1.9993 -1.8955
# 3 48.1682 22.5485 134.1295 25.8693 -15.8493 -3.0126
# 4 0.0530 10.1987 25.8693 23.6378 -10.5672 0.2747
# 5 -24.1963 1.9993 -15.8493 -10.5672 23.5975 5.0506
# 6 -14.1750 -1.8955 -3.0126 0.2747 5.0506 27.3479
#
#
#
# Elastic Compliance Matrix: (Units=1/GPa)
#
#
# Indices 1 2 3 4 5 6 
#
# 1 0.019509 -0.010437 -0.006576 0.023297 0.026133 0.003604
# 2 -0.010437 0.037909 -0.000361 -0.028175 -0.027310 0.002504
# 3 -0.006576 -0.000361 0.012236 -0.015559 -0.005256 -0.000959
# 4 0.023297 -0.028175 -0.015559 0.098675 0.060829 -0.003817
# 5 0.026133 -0.027310 -0.005256 0.060829 0.096783 -0.007412
# 6 0.003604 0.002504 -0.000959 -0.003817 -0.007412 0.039909
#
#
# Mechanical properties :
#
#
# Convention : Reuss Voigt Hill
#
# Bulk Modulus (GPa) = 28.64918 50.44646 39.54782
# Shear Modulus (GPa) = 14.22862 28.17642 21.20252
#
# Velocity S-wave (km/s) = 2.73131 3.84356 3.33414
# Velocity P-wave (km/s) = 4.99675 6.79311 5.96296
#
# Compressibility (1/GPa) = 0.03490502
#
# Stress axis : x y z
#
# Youngs Moduli (GPa) = 51.25848 26.37920 81.72672
#
# Poissons Ratio (x) = 0.27533 0.53741
# Poissons Ratio (y) = 0.53500 0.02953
# Poissons Ratio (z) = 0.33706 0.00953
#
# Static dielectric constant tensor:
#      x y z
#    x 1.691550 0.004730 -0.011610 
#    y 0.004730 1.738630 -0.000130 
#    z -0.011610 -0.000130 1.692420 
# 
# From -- ./inp_files/432569.got.cif
#   From: 2010.05.17/outbox.ucp.g08.bks.cvg/sg2_217_cif.got.tgz:432569.got - 2010.06.11 11:32:03.
