data_PCOD9071130
_publ_section_title
;
Structure prediction by ZEFSAII (Michael W. Deem and Ramdas Pophale) SiO2 
 PCOD9071130
Probable space group: P -1
;
_chemical_formula_sum "Si O2"
_cell_formula_units_Z 11
_cell_length_a 10.445684
_cell_length_b 8.119330
_cell_length_c 8.592469
_cell_angle_alpha 121.327526
_cell_angle_beta 135.490340
_cell_angle_gamma 68.486729
_cell_volume 436.380740
_symmetry_space_group_name_H-M "P -1"
_symmetry_group_IT_number 2
_symmetry_cell_setting 'triclinic'
loop_
_space_group_symop_operation_xyz
x,y,z
-x,-y,-z
loop_
_atom_site_type_symbol
_atom_site_label
_atom_site_fract_x
_atom_site_fract_y
_atom_site_fract_z
Si Si1 0.546995 0.442193 0.338065
Si Si2 0.500000 0.000000 0.000000
Si Si3 0.912616 0.138506 0.121145
Si Si4 0.022981 0.521380 0.218606
Si Si5 0.518806 0.184467 0.721114
Si Si6 0.182212 0.145767 0.630340
O O1 0.500000 0.500000 0.500000
O O2 0.471413 0.234412 0.120921
O O3 0.766788 0.456899 0.534785
O O4 0.456015 0.614350 0.244690
O O5 0.702506 0.016650 0.265550
O O6 0.950143 0.345526 0.176877
O O7 0.018305 0.089642 0.344941
O O8 0.693085 0.126158 0.948433
O O9 0.000000 0.000000 0.000000
O O10 0.906813 0.703005 0.258498
O O11 0.000000 0.500000 0.000000
O O12 0.337578 0.217414 0.678553
O O13 0.500000 0.000000 0.500000
#
# Coordination Sequence:
#
# PCOD9071130 Si02
#       6
#     2   1   2   2   2   2
#     4  12  27  52  78 115 167 211 269 338 408 482
#     4  12  30  48  78 118 162 212 274 328 406 480
#     4  12  26  49  82 117 159 207 269 334 408 484
#     4  12  28  51  78 114 163 213 271 338 403 482
#     4  12  25  50  85 117 161 211 268 336 408 484
#     4  12  28  52  77 119 156 213 271 330 402 486
#
# _framework density 25.207345
#
# number of rings (size 3 to 8) (size 9 to 14) (size 15 to 20)
#    0.000    0.000    3.636    4.909    5.091    3.636 
#    0.000    0.000    0.000    0.000    0.000    0.000 
#    0.000    0.000    0.000    0.000    0.000    0.000 
#
# Total GULP energy -61416.658062 kJ/mol
# GULP energy per Si atom -5583.332551 kJ/mol
# Density = 2.514997 g / cm^3
# Si number density = 25.207345 Si / 1000 Ang^3
#
#
#
# Elastic Constant Matrix: (Units=GPa)
#
#
# Indices 1 2 3 4 5 6 
#
# 1 67.0651 14.6819 20.2026 -1.7044 -0.3138 -17.7145
# 2 14.6819 177.9203 70.6115 -16.9293 -8.9520 -11.3306
# 3 20.2026 70.6115 165.5752 -31.8186 1.6439 -12.7187
# 4 -1.7044 -16.9293 -31.8186 69.8774 -19.1384 13.3363
# 5 -0.3138 -8.9520 1.6439 -19.1384 53.9431 -1.2854
# 6 -17.7145 -11.3306 -12.7187 13.3363 -1.2854 46.7091
#
#
#
# Elastic Compliance Matrix: (Units=1/GPa)
#
#
# Indices 1 2 3 4 5 6 
#
# 1 0.017198 -0.000519 -0.001732 -0.001843 -0.000434 0.006439
# 2 -0.000519 0.006924 -0.002721 0.000727 0.001501 0.000576
# 3 -0.001732 -0.002721 0.007992 0.003040 0.000373 0.000002
# 4 -0.001843 0.000727 0.003040 0.018515 0.006472 -0.004803
# 5 -0.000434 0.001501 0.000373 0.006472 0.021046 -0.000967
# 6 0.006439 0.000576 0.000002 -0.004803 -0.000967 0.025336
#
#
# Mechanical properties :
#
#
# Convention : Reuss Voigt Hill
#
# Bulk Modulus (GPa) = 45.10424 69.06141 57.08283
# Shear Modulus (GPa) = 43.72697 54.44357 49.08527
#
# Velocity S-wave (km/s) = 4.16948 4.65244 4.41756
# Velocity P-wave (km/s) = 6.41183 7.50447 6.97956
#
# Compressibility (1/GPa) = 0.02217086
#
# Stress axis : x y z
#
# Youngs Moduli (GPa) = 58.14534 144.41654 125.12984
#
# Poissons Ratio (x) = 0.07491 0.21678
# Poissons Ratio (y) = 0.03016 0.34043
# Poissons Ratio (z) = 0.10073 0.39290
#
# Static dielectric constant tensor:
#      x y z
#    x 1.964060 -0.019320 0.090680 
#    y -0.019320 1.946350 0.015790 
#    z 0.090680 0.015790 2.113120 
# 
# From -- ./inp_files/154381.got.cif
#   From: 2010.05.17/outbox.cif.g08.bks.cpg/sg2_78_cif.got.tgz:154381.got - 2010.06.03 11:33:40.
