data_PCOD9071098
_publ_section_title
;
Structure prediction by ZEFSAII (Michael W. Deem and Ramdas Pophale) SiO2 
 PCOD9071098
Probable space group: P -1
;
_chemical_formula_sum "Si O2"
_cell_formula_units_Z 14
_cell_length_a 4.740999
_cell_length_b 15.776279
_cell_length_c 16.360687
_cell_angle_alpha 26.932267
_cell_angle_beta 64.418078
_cell_angle_gamma 70.659636
_cell_volume 495.573117
_symmetry_space_group_name_H-M "P -1"
_symmetry_group_IT_number 2
_symmetry_cell_setting 'triclinic'
loop_
_space_group_symop_operation_xyz
x,y,z
-x,-y,-z
loop_
_atom_site_type_symbol
_atom_site_label
_atom_site_fract_x
_atom_site_fract_y
_atom_site_fract_z
Si Si1 0.847839 0.887194 0.923282
Si Si2 0.611645 0.256697 0.624310
Si Si3 0.000000 0.500000 0.500000
Si Si4 0.999648 0.216101 0.833299
Si Si5 0.500000 0.000000 0.500000
Si Si6 0.432216 0.174892 0.533821
Si Si7 0.778633 0.374917 0.055956
Si Si8 0.523905 0.578395 0.107172
O O1 0.133075 0.029673 0.724797
O O2 0.630675 0.048275 0.836994
O O3 0.951553 0.777844 0.082694
O O4 0.651599 0.747157 0.006004
O O5 0.269529 0.316041 0.645825
O O6 0.615231 0.229580 0.549200
O O7 0.877438 0.402202 0.506585
O O8 0.746277 0.332799 0.725382
O O9 0.000000 0.000000 0.000000
O O10 0.418477 0.923272 0.477995
O O11 0.284408 0.816424 0.721307
O O12 0.369130 0.377327 0.332632
O O13 0.500000 0.500000 0.000000
O O14 0.706533 0.344166 0.995046
O O15 0.141008 0.463454 0.938755
#
# Coordination Sequence:
#
# PCOD9071098 Si02
#       8
#     2   2   1   2   1   2   2   2
#     4  12  27  50  80 116 161 218 272 348 416 502
#     4  12  26  49  77 116 158 208 276 340 414 494
#     4  12  26  46  82 112 152 216 264 340 416 508
#     4  12  25  50  75 111 157 203 272 336 420 484
#     4  12  26  52  86 118 162 218 278 344 422 498
#     4  12  27  50  78 121 160 214 276 341 414 500
#     4  12  27  53  83 120 164 219 282 345 422 491
#     4  12  29  52  81 122 171 217 279 350 417 507
#
# _framework density 28.250118000000001
#
# number of rings (size 3 to 8) (size 9 to 14) (size 15 to 20)
#    0.000    0.000    5.714    3.000    2.000    1.714 
#    2.571    0.000    0.000    0.000    0.000    0.000 
#    0.000    0.000    0.000    0.000    0.000    0.000 
#
# Total GULP energy -78062.966131 kJ/mol
# GULP energy per Si atom -5575.926152 kJ/mol
# Density = 2.818582 g / cm^3
# Si number density = 28.250118 Si / 1000 Ang^3
#
#
#
# Elastic Constant Matrix: (Units=GPa)
#
#
# Indices 1 2 3 4 5 6 
#
# 1 139.7201 42.2097 57.9733 28.1199 -5.2567 15.0553
# 2 42.2097 172.5189 38.8561 10.1761 -4.3298 31.7732
# 3 57.9733 38.8561 247.2454 17.9947 23.2851 9.4502
# 4 28.1199 10.1761 17.9947 68.6470 11.0756 8.1385
# 5 -5.2567 -4.3298 23.2851 11.0756 44.2695 5.6852
# 6 15.0553 31.7732 9.4502 8.1385 5.6852 57.7684
#
#
#
# Elastic Compliance Matrix: (Units=1/GPa)
#
#
# Indices 1 2 3 4 5 6 
#
# 1 0.009310 -0.001340 -0.001961 -0.003449 0.003020 -0.001180
# 2 -0.001340 0.006982 -0.000775 -0.000096 0.001404 -0.003489
# 3 -0.001961 -0.000775 0.004883 0.000064 -0.002947 0.000420
# 4 -0.003449 -0.000096 0.000064 0.016826 -0.004536 -0.000983
# 5 0.003020 0.001404 -0.002947 -0.004536 0.026156 -0.003012
# 6 -0.001180 -0.003489 0.000420 -0.000983 -0.003012 0.019903
#
#
# Mechanical properties :
#
#
# Convention : Reuss Voigt Hill
#
# Bulk Modulus (GPa) = 76.77892 93.06254 84.92073
# Shear Modulus (GPa) = 51.78459 62.16666 56.97562
#
# Velocity S-wave (km/s) = 4.28609 4.69612 4.49578
# Velocity P-wave (km/s) = 7.19245 7.90055 7.55480
#
# Compressibility (1/GPa) = 0.01302441
#
# Stress axis : x y z
#
# Youngs Moduli (GPa) = 107.40724 143.22000 204.79259
#
# Poissons Ratio (x) = 0.19188 0.40157
# Poissons Ratio (y) = 0.14390 0.15872
# Poissons Ratio (z) = 0.21061 0.11100
#
# Static dielectric constant tensor:
#      x y z
#    x 2.370690 -0.139310 -0.172680 
#    y -0.139310 2.493250 0.048080 
#    z -0.172680 0.048080 2.590610 
# 
# From -- ./inp_files/484075.got.cif
#   From: 2010.05.17/outbox.cif.g08.bks.cpg/sg2_243_cif.got.tgz:484075.got - 2010.06.03 11:33:40.
