data_PCOD9071617
_publ_section_title
;
Structure prediction by ZEFSAII (Michael W. Deem and Ramdas Pophale) SiO2 
 PCOD9071617
Probable space group: P -1
;
_chemical_formula_sum "Si O2"
_cell_formula_units_Z 9
_cell_length_a 8.820045
_cell_length_b 8.767617
_cell_length_c 8.372729
_cell_angle_alpha 65.894831
_cell_angle_beta 132.229874
_cell_angle_gamma 132.245393
_cell_volume 353.785773
_symmetry_space_group_name_H-M "P -1"
_symmetry_group_IT_number 2
_symmetry_cell_setting 'triclinic'
loop_
_space_group_symop_operation_xyz
x,y,z
-x,-y,-z
loop_
_atom_site_type_symbol
_atom_site_label
_atom_site_fract_x
_atom_site_fract_y
_atom_site_fract_z
Si Si1 0.583459 0.702087 0.564527
Si Si2 0.256305 0.777953 0.470400
Si Si3 0.255136 0.411855 0.976958
Si Si4 0.000000 0.000000 0.500000
Si Si5 0.740826 0.209276 0.159367
O O1 0.500000 0.500000 0.500000
O O2 0.315828 0.644871 0.464413
O O3 0.747120 0.897974 0.479921
O O4 0.735969 0.723726 0.822258
O O5 0.270990 0.749829 0.678707
O O6 0.991453 0.725062 0.249601
O O7 0.500000 0.000000 0.500000
O O8 0.249832 0.593324 0.981006
O O9 0.500000 0.500000 0.000000
O O10 0.048335 0.834614 0.682353
O O11 0.500000 0.000000 0.000000
#
# Coordination Sequence:
#
# PCOD9071617 Si02
#       5
#     2   2   2   1   2
#     4  12  28  50  82 119 161 214 271 336 407 484
#     4  12  28  51  78 121 164 211 269 335 409 483
#     4  12  29  51  84 118 162 213 273 336 408 480
#     4  12  28  46  78 114 166 202 272 322 404 474
#     4  12  28  49  82 117 160 213 267 334 403 486
#
# _framework density 25.439122000000001
#
# number of rings (size 3 to 8) (size 9 to 14) (size 15 to 20)
#    0.000    0.000    4.444    3.333    9.333    2.667 
#    0.000    0.000    0.000    0.000    0.000    0.000 
#    0.000    0.000    0.000    0.000    0.000    0.000 
#
# Total GULP energy -50122.370862 kJ/mol
# GULP energy per Si atom -5569.152318 kJ/mol
# Density = 2.538122 g / cm^3
# Si number density = 25.439122 Si / 1000 Ang^3
#
#
#
# Elastic Constant Matrix: (Units=GPa)
#
#
# Indices 1 2 3 4 5 6 
#
# 1 136.4950 3.6884 42.8393 6.5736 15.1199 14.8567
# 2 3.6884 95.7103 37.5579 9.6104 8.3389 11.7598
# 3 42.8393 37.5579 140.4124 14.0341 12.6677 26.2899
# 4 6.5736 9.6104 14.0341 49.9354 -5.5542 0.1618
# 5 15.1199 8.3389 12.6677 -5.5542 54.0746 -19.2179
# 6 14.8567 11.7598 26.2899 0.1618 -19.2179 55.3954
#
#
#
# Elastic Compliance Matrix: (Units=1/GPa)
#
#
# Indices 1 2 3 4 5 6 
#
# 1 0.008640 0.001196 -0.002047 -0.001140 -0.003200 -0.002707
# 2 0.001196 0.012219 -0.002705 -0.002042 -0.002706 -0.002564
# 3 -0.002047 -0.002705 0.009867 -0.002326 -0.003221 -0.004670
# 4 -0.001140 -0.002042 -0.002326 0.021724 0.004611 0.003379
# 5 -0.003200 -0.002706 -0.003221 0.004611 0.025186 0.011685
# 6 -0.002707 -0.002564 -0.004670 0.003379 0.011685 0.025583
#
#
# Mechanical properties :
#
#
# Convention : Reuss Voigt Hill
#
# Bulk Modulus (GPa) = 42.34549 60.08766 51.21657
# Shear Modulus (GPa) = 42.29982 51.11655 46.70818
#
# Velocity S-wave (km/s) = 4.08215 4.48746 4.28960
# Velocity P-wave (km/s) = 6.23703 7.10783 6.68662
#
# Compressibility (1/GPa) = 0.02361527
#
# Stress axis : x y z
#
# Youngs Moduli (GPa) = 115.73767 81.83709 101.34343
#
# Poissons Ratio (x) = -0.09787 0.20741
# Poissons Ratio (y) = -0.13841 0.27415
# Poissons Ratio (z) = 0.23687 0.22138
#
# Static dielectric constant tensor:
#      x y z
#    x 2.089520 -0.092860 0.027240 
#    y -0.092860 2.112390 -0.058850 
#    z 0.027240 -0.058850 2.006750 
# 
# From -- ./inp_files/16877.got.cif
#   From: 2010.05.17/outbox.cif.g08.bks.cpg/sg2_9_cif.got.tgz:16877.got - 2010.06.03 11:33:40.
