data_PCOD9071456
_publ_section_title
;
Structure prediction by ZEFSAII (Michael W. Deem and Ramdas Pophale) SiO2 
 PCOD9071456
Probable space group: P -1
;
_chemical_formula_sum "Si O2"
_cell_formula_units_Z 13
_cell_length_a 8.683066
_cell_length_b 6.534307
_cell_length_c 16.561886
_cell_angle_alpha 43.827144
_cell_angle_beta 50.699308
_cell_angle_gamma 59.534205
_cell_volume 501.343333
_symmetry_space_group_name_H-M "P -1"
_symmetry_group_IT_number 2
_symmetry_cell_setting 'triclinic'
loop_
_space_group_symop_operation_xyz
x,y,z
-x,-y,-z
loop_
_atom_site_type_symbol
_atom_site_label
_atom_site_fract_x
_atom_site_fract_y
_atom_site_fract_z
Si Si1 0.583259 0.388243 0.603039
Si Si2 0.000000 0.000000 0.000000
Si Si3 0.955403 0.333638 0.387156
Si Si4 0.774194 0.163495 0.349382
Si Si5 0.288379 0.185842 0.005540
Si Si6 0.875914 0.207129 0.700402
Si Si7 0.322405 0.866949 0.797093
O O1 0.256683 0.550715 0.535912
O O2 0.433508 0.682185 0.588434
O O3 0.699992 0.289744 0.673776
O O4 0.492519 0.086443 0.690909
O O5 0.848757 0.999755 0.124035
O O6 0.821707 0.871576 0.027146
O O7 0.930052 0.347759 0.295371
O O8 0.115421 0.534641 0.310777
O O9 0.000000 0.000000 0.500000
O O10 0.731356 0.152694 0.273093
O O11 0.911719 0.846842 0.402988
O O12 0.154895 0.081556 0.153856
O O13 0.340493 0.519669 0.910256
O O14 0.500000 0.000000 0.000000
#
# Coordination Sequence:
#
# PCOD9071456 Si02
#       7
#     2   1   2   2   2   2   2
#     4  12  29  51  81 119 158 208 268 328 401 485
#     4  12  26  50  78 114 162 208 264 318 402 472
#     4  12  29  52  81 114 160 211 265 335 399 476
#     4  12  27  50  82 113 157 210 259 331 394 473
#     4  12  29  49  81 117 163 213 265 334 398 490
#     4  12  28  51  80 116 159 212 263 332 404 472
#     4  12  28  50  79 120 158 206 263 329 399 483
#
# _framework density 25.930333000000001
#
# number of rings (size 3 to 8) (size 9 to 14) (size 15 to 20)
#    0.000    0.000    3.077    5.077    8.615    3.692 
#    0.000    0.000    0.000    0.000    0.000    0.000 
#    0.000    0.000    0.000    0.000    0.000    0.000 
#
# Total GULP energy -72400.909413 kJ/mol
# GULP energy per Si atom -5569.300724 kJ/mol
# Density = 2.587131 g / cm^3
# Si number density = 25.930333 Si / 1000 Ang^3
#
#
#
# Elastic Constant Matrix: (Units=GPa)
#
#
# Indices 1 2 3 4 5 6 
#
# 1 166.1385 79.9902 51.1761 0.0521 4.6814 47.1757
# 2 79.9902 159.4984 56.9086 -2.9641 9.8860 32.5138
# 3 51.1761 56.9086 91.3240 -15.8591 -1.5648 32.9373
# 4 0.0521 -2.9641 -15.8591 68.2089 8.6970 12.0897
# 5 4.6814 9.8860 -1.5648 8.6970 39.1907 5.2496
# 6 47.1757 32.5138 32.9373 12.0897 5.2496 69.0242
#
#
#
# Elastic Compliance Matrix: (Units=1/GPa)
#
#
# Indices 1 2 3 4 5 6 
#
# 1 0.009223 -0.003209 -0.001687 0.000156 0.000145 -0.004025
# 2 -0.003209 0.009515 -0.004184 -0.000273 -0.002112 -0.000084
# 3 -0.001687 -0.004184 0.017625 0.004806 0.001733 -0.006260
# 4 0.000156 -0.000273 0.004806 0.017024 -0.002861 -0.005036
# 5 0.000145 -0.002112 0.001733 -0.002861 0.026934 -0.001478
# 6 -0.004025 -0.000084 -0.006260 -0.005036 -0.001478 0.021260
#
#
# Mechanical properties :
#
#
# Convention : Reuss Voigt Hill
#
# Bulk Modulus (GPa) = 54.94092 88.12340 71.53216
# Shear Modulus (GPa) = 39.74333 50.54384 45.14359
#
# Velocity S-wave (km/s) = 3.91921 4.41978 4.17700
# Velocity P-wave (km/s) = 6.45865 7.75270 7.13508
#
# Compressibility (1/GPa) = 0.01820137
#
# Stress axis : x y z
#
# Youngs Moduli (GPa) = 108.43040 105.09980 56.73767
#
# Poissons Ratio (x) = 0.33724 0.09573
# Poissons Ratio (y) = 0.34793 0.23741
# Poissons Ratio (z) = 0.18295 0.43978
#
# Static dielectric constant tensor:
#      x y z
#    x 2.185970 -0.039340 -0.051340 
#    y -0.039340 2.014340 0.003500 
#    z -0.051340 0.003500 2.112760 
# 
# From -- ./inp_files/551540.got.cif
#   From: 2010.05.17/outbox.cif.g08.bks.cpg/sg2_276_cif.got.tgz:551540.got - 2010.06.03 11:33:40.
