data_PCOD9071056
_publ_section_title
;
Structure prediction by ZEFSAII (Michael W. Deem and Ramdas Pophale) SiO2 
 PCOD9071056
Probable space group: P -1
;
_chemical_formula_sum "Si O2"
_cell_formula_units_Z 16
_cell_length_a 13.774212
_cell_length_b 9.888147
_cell_length_c 9.268178
_cell_angle_alpha 135.164286
_cell_angle_beta 108.598859
_cell_angle_gamma 98.384819
_cell_volume 700.780287
_symmetry_space_group_name_H-M "P -1"
_symmetry_group_IT_number 2
_symmetry_cell_setting 'triclinic'
loop_
_space_group_symop_operation_xyz
x,y,z
-x,-y,-z
loop_
_atom_site_type_symbol
_atom_site_label
_atom_site_fract_x
_atom_site_fract_y
_atom_site_fract_z
Si Si1 0.165484 0.273587 0.638488
Si Si2 0.778827 0.594869 0.908901
Si Si3 0.007738 0.866126 0.040665
Si Si4 0.610122 0.762834 0.971702
Si Si5 0.877665 0.356513 0.235896
Si Si6 0.602753 0.707376 0.366105
Si Si7 0.397322 0.950651 0.593609
Si Si8 0.614154 0.949461 0.836476
O O1 0.149806 0.470013 0.718769
O O2 0.292529 0.308237 0.672478
O O3 0.063783 0.039510 0.333123
O O4 0.163029 0.288876 0.820996
O O5 0.704192 0.706028 0.912133
O O6 0.685234 0.321011 0.682073
O O7 0.876722 0.654687 0.875792
O O8 0.091613 0.774809 0.966031
O O9 0.000000 0.000000 0.000000
O O10 0.517515 0.548435 0.867186
O O11 0.547815 0.798049 0.831862
O O12 0.667941 0.986237 0.268299
O O13 0.000000 0.500000 0.500000
O O14 0.749653 0.164580 0.106453
O O15 0.632933 0.803769 0.616211
O O16 0.583938 0.887512 0.408849
O O17 0.526752 0.016923 0.773278
#
# Coordination Sequence:
#
# PCOD9071056 Si02
#       8
#     2   2   2   2   2   2   2   2
#     4  12  27  49  78 108 150 205 245 311 374 442
#     4  12  29  46  76 112 152 194 253 308 373 447
#     4  12  27  51  77 108 148 202 252 309 370 443
#     4  12  27  45  75 110 155 194 244 315 373 448
#     4  12  27  47  78 111 148 197 253 309 369 442
#     4  12  25  49  77 109 153 197 249 301 390 447
#     4  12  27  48  77 112 152 198 248 310 377 459
#     4  12  26  47  78 111 152 196 254 309 381 438
#
# _framework density 22.831690999999999
#
# number of rings (size 3 to 8) (size 9 to 14) (size 15 to 20)
#    0.000    0.000    5.000    4.125    3.500    0.500 
#    0.000    0.000    0.000    0.000    0.000    0.000 
#    0.000    0.000    0.000    0.000    0.000    0.000 
#
# Total GULP energy -89590.118621 kJ/mol
# GULP energy per Si atom -5599.382414 kJ/mol
# Density = 2.277973 g / cm^3
# Si number density = 22.831691 Si / 1000 Ang^3
#
#
#
# Elastic Constant Matrix: (Units=GPa)
#
#
# Indices 1 2 3 4 5 6 
#
# 1 99.4504 47.5545 12.4224 17.5237 -0.8277 -5.7041
# 2 47.5545 132.1498 37.3051 -9.6041 -4.6081 -10.2057
# 3 12.4224 37.3051 117.0436 4.0527 -5.7220 -2.8268
# 4 17.5237 -9.6041 4.0527 30.3550 -2.7546 -4.9296
# 5 -0.8277 -4.6081 -5.7220 -2.7546 41.3716 3.5293
# 6 -5.7041 -10.2057 -2.8268 -4.9296 3.5293 41.1261
#
#
#
# Elastic Compliance Matrix: (Units=1/GPa)
#
#
# Indices 1 2 3 4 5 6 
#
# 1 0.014949 -0.006494 0.000798 -0.010997 -0.000985 -0.000717
# 2 -0.006494 0.011663 -0.003202 0.008399 0.001056 0.002690
# 3 0.000798 -0.003202 0.009606 -0.002749 0.000841 -0.000425
# 4 -0.010997 0.008399 -0.002749 0.043435 0.002772 0.005338
# 5 -0.000985 0.001056 0.000841 0.002772 0.024707 -0.001605
# 6 -0.000717 0.002690 -0.000425 0.005338 -0.001605 0.025632
#
#
# Mechanical properties :
#
#
# Convention : Reuss Voigt Hill
#
# Bulk Modulus (GPa) = 54.28147 60.35641 57.31894
# Shear Modulus (GPa) = 32.48283 39.32801 35.90542
#
# Velocity S-wave (km/s) = 3.77597 4.15483 3.96992
# Velocity P-wave (km/s) = 6.54499 7.03630 6.79509
#
# Compressibility (1/GPa) = 0.01842249
#
# Stress axis : x y z
#
# Youngs Moduli (GPa) = 66.89367 85.74182 104.10382
#
# Poissons Ratio (x) = 0.55679 -0.08312
# Poissons Ratio (y) = 0.43439 0.33337
# Poissons Ratio (z) = -0.05341 0.27457
#
# Static dielectric constant tensor:
#      x y z
#    x 1.860290 0.009660 0.037290 
#    y 0.009660 1.827030 -0.003730 
#    z 0.037290 -0.003730 1.919910 
# 
# From -- ./inp_files/297457.got.cif
#   From: 2010.05.17/outbox.cif.g08.bks.cpg/sg2_149_cif.got.tgz:297457.got - 2010.06.03 11:33:40.
