data_PCOD9071526
_publ_section_title
;
Structure prediction by ZEFSAII (Michael W. Deem and Ramdas Pophale) SiO2 
 PCOD9071526
Probable space group: P -1
;
_chemical_formula_sum "Si O2"
_cell_formula_units_Z 14
_cell_length_a 22.234268
_cell_length_b 5.214276
_cell_length_c 5.085376
_cell_angle_alpha 92.417902
_cell_angle_beta 109.561555
_cell_angle_gamma 82.927999
_cell_volume 551.320429
_symmetry_space_group_name_H-M "P -1"
_symmetry_group_IT_number 2
_symmetry_cell_setting 'triclinic'
loop_
_space_group_symop_operation_xyz
x,y,z
-x,-y,-z
loop_
_atom_site_type_symbol
_atom_site_label
_atom_site_fract_x
_atom_site_fract_y
_atom_site_fract_z
Si Si1 0.455695 0.770717 0.421229
Si Si2 0.264602 0.918941 0.008050
Si Si3 0.881514 0.005323 0.369741
Si Si4 0.959351 0.606078 0.196582
Si Si5 0.284805 0.417511 0.379990
Si Si6 0.139572 0.480664 0.323972
Si Si7 0.632100 0.264893 0.217517
O O1 0.500000 0.500000 0.500000
O O2 0.406800 0.813740 0.593681
O O3 0.500000 0.000000 0.500000
O O4 0.414498 0.748977 0.097217
O O5 0.301217 0.899511 0.781775
O O6 0.188109 0.961141 0.866782
O O7 0.282779 0.651104 0.176178
O O8 0.287106 0.154229 0.213529
O O9 0.937783 0.908226 0.242328
O O10 0.879455 0.771143 0.565038
O O11 0.887904 0.261834 0.552825
O O12 0.000000 0.500000 0.500000
O O13 0.889954 0.514988 0.012939
O O14 0.000000 0.500000 0.000000
O O15 0.216391 0.460044 0.428995
O O16 0.343852 0.459389 0.659018
#
# Coordination Sequence:
#
# PCOD9071526 Si02
#       7
#     2   2   2   2   2   2   2
#     4  12  30  54  79 112 164 211 254 312 374 455
#     4  12  27  46  80 120 157 198 255 328 395 454
#     4  12  27  49  79 112 157 202 255 328 395 454
#     4  12  28  52  77 112 153 214 264 312 384 480
#     4  12  27  46  80 120 157 198 255 328 395 454
#     4  12  27  49  79 112 157 202 255 328 395 454
#     4  12  28  52  84 118 153 207 266 312 386 465
#
# _framework density 25.393585999999999
#
# number of rings (size 3 to 8) (size 9 to 14) (size 15 to 20)
#    0.000    0.000    5.714    2.571    2.000    3.429 
#    0.000    0.000    0.000    0.000    0.000    0.000 
#    0.000    0.000    0.000    0.000    0.000    0.000 
#
# Total GULP energy -78549.704349 kJ/mol
# GULP energy per Si atom -5610.693168 kJ/mol
# Density = 2.533579 g / cm^3
# Si number density = 25.393586 Si / 1000 Ang^3
#
#
#
# Elastic Constant Matrix: (Units=GPa)
#
#
# Indices 1 2 3 4 5 6 
#
# 1 124.5286 32.1181 36.2137 5.0359 -8.8599 -0.3042
# 2 32.1181 167.7685 52.0122 26.5030 -7.0253 0.9233
# 3 36.2137 52.0122 188.9962 17.4107 13.5442 3.4807
# 4 5.0359 26.5030 17.4107 48.6385 -3.1980 1.7533
# 5 -8.8599 -7.0253 13.5442 -3.1980 66.3034 8.2215
# 6 -0.3042 0.9233 3.4807 1.7533 8.2215 47.0606
#
#
#
# Elastic Compliance Matrix: (Units=1/GPa)
#
#
# Indices 1 2 3 4 5 6 
#
# 1 0.008866 -0.001237 -0.001492 0.000383 0.001385 -0.000064
# 2 -0.001237 0.007202 -0.001503 -0.003207 0.000756 -0.000051
# 3 -0.001492 -0.001503 0.006239 -0.001368 -0.001687 -0.000096
# 4 0.000383 -0.003207 -0.001368 0.022869 0.001205 -0.000896
# 5 0.001385 0.000756 -0.001687 0.001205 0.016090 -0.002737
# 6 -0.000064 -0.000051 -0.000096 -0.000896 -0.002737 0.021768
#
#
# Mechanical properties :
#
#
# Convention : Reuss Voigt Hill
#
# Bulk Modulus (GPa) = 72.23472 80.22017 76.22745
# Shear Modulus (GPa) = 52.02299 56.46377 54.24338
#
# Velocity S-wave (km/s) = 4.53113 4.72056 4.62682
# Velocity P-wave (km/s) = 7.47547 7.83396 7.65681
#
# Compressibility (1/GPa) = 0.01384376
#
# Stress axis : x y z
#
# Youngs Moduli (GPa) = 112.79005 138.85317 160.27759
#
# Poissons Ratio (x) = 0.17177 0.23910
# Poissons Ratio (y) = 0.13953 0.24086
# Poissons Ratio (z) = 0.16826 0.20867
#
# Static dielectric constant tensor:
#      x y z
#    x 2.017830 0.007550 -0.022450 
#    y 0.007550 1.987220 -0.039540 
#    z -0.022450 -0.039540 2.015540 
# 
# From -- ./inp_files/114245.got.cif
#   From: 2010.05.17/outbox.cif.g08.bks.cpg/sg2_58_cif.got.tgz:114245.got - 2010.06.03 11:33:40.
