data_PCOD9071243
_publ_section_title
;
Structure prediction by ZEFSAII (Michael W. Deem and Ramdas Pophale) SiO2 
 PCOD9071243
Probable space group: P -1
;
_chemical_formula_sum "Si O2"
_cell_formula_units_Z 14
_cell_length_a 9.567645
_cell_length_b 5.555778
_cell_length_c 21.571444
_cell_angle_alpha 124.552029
_cell_angle_beta 35.347794
_cell_angle_gamma 112.370635
_cell_volume 538.213486
_symmetry_space_group_name_H-M "P -1"
_symmetry_group_IT_number 2
_symmetry_cell_setting 'triclinic'
loop_
_space_group_symop_operation_xyz
x,y,z
-x,-y,-z
loop_
_atom_site_type_symbol
_atom_site_label
_atom_site_fract_x
_atom_site_fract_y
_atom_site_fract_z
Si Si1 0.937268 0.301799 0.172632
Si Si2 0.724211 0.280590 0.914534
Si Si3 0.771171 0.320944 0.047318
Si Si4 0.738360 0.746878 0.745188
Si Si5 0.405590 0.267495 0.331582
Si Si6 0.781185 0.050689 0.536070
Si Si7 0.209308 0.499638 0.610920
O O1 0.689183 0.286169 0.224889
O O2 0.888884 0.306550 0.264970
O O3 0.024762 0.613988 0.179108
O O4 0.125913 0.032459 0.034558
O O5 0.713095 0.327418 0.997317
O O6 0.695363 0.974329 0.850266
O O7 0.500000 0.500000 0.000000
O O8 0.499826 0.421516 0.190011
O O9 0.000000 0.500000 0.000000
O O10 0.703013 0.889848 0.710412
O O11 0.016574 0.594369 0.637708
O O12 0.401189 0.094010 0.373045
O O13 0.273252 0.610116 0.418110
O O14 0.805291 0.850019 0.436157
O O15 0.000000 0.000000 0.500000
O O16 0.500000 0.500000 0.500000
#
# Coordination Sequence:
#
# PCOD9071243 Si02
#       7
#     2   2   2   2   2   2   2
#     4  12  28  49  76 116 156 209 268 328 404 481
#     4  12  26  46  77 111 155 204 265 326 401 481
#     4  12  28  50  79 113 160 204 263 329 407 485
#     4  12  27  49  79 116 159 210 261 332 404 480
#     4  12  30  49  81 117 161 210 268 332 403 478
#     4  12  28  52  77 115 158 213 273 327 396 472
#     4  12  27  49  80 111 158 209 265 332 396 473
#
# _framework density 26.011983000000001
#
# number of rings (size 3 to 8) (size 9 to 14) (size 15 to 20)
#    0.000    0.000    5.714    2.571   10.000    1.714 
#    0.000    0.000    0.000    0.000    0.000    0.000 
#    0.000    0.000    0.000    0.000    0.000    0.000 
#
# Total GULP energy -78126.774525 kJ/mol
# GULP energy per Si atom -5580.483895 kJ/mol
# Density = 2.595278 g / cm^3
# Si number density = 26.011983 Si / 1000 Ang^3
#
#
#
# Elastic Constant Matrix: (Units=GPa)
#
#
# Indices 1 2 3 4 5 6 
#
# 1 146.5130 35.7090 37.0813 0.5223 3.0736 17.3359
# 2 35.7090 94.9646 26.7363 -12.3091 -8.0622 18.4516
# 3 37.0813 26.7363 85.6171 -5.6684 -8.0044 7.8195
# 4 0.5223 -12.3091 -5.6684 37.4835 11.2902 -3.7719
# 5 3.0736 -8.0622 -8.0044 11.2902 55.4822 -4.5287
# 6 17.3359 18.4516 7.8195 -3.7719 -4.5287 51.5339
#
#
#
# Elastic Compliance Matrix: (Units=1/GPa)
#
#
# Indices 1 2 3 4 5 6 
#
# 1 0.008343 -0.002210 -0.002943 -0.001125 -0.001122 -0.001750
# 2 -0.002210 0.013233 -0.002581 0.003443 0.000704 -0.003289
# 3 -0.002943 -0.002581 0.013968 0.000812 0.001638 -0.000002
# 4 -0.001125 0.003443 0.000812 0.029613 -0.005287 0.000725
# 5 -0.001122 0.000704 0.001638 -0.005287 0.019599 0.001212
# 6 -0.001750 -0.003289 -0.000002 0.000725 0.001212 0.021331
#
#
# Mechanical properties :
#
#
# Convention : Reuss Voigt Hill
#
# Bulk Modulus (GPa) = 49.81069 58.46090 54.13579
# Shear Modulus (GPa) = 38.98720 44.07111 41.52915
#
# Velocity S-wave (km/s) = 3.87566 4.12061 4.00001
# Velocity P-wave (km/s) = 6.26245 6.72031 6.49542
#
# Compressibility (1/GPa) = 0.02007601
#
# Stress axis : x y z
#
# Youngs Moduli (GPa) = 119.85559 75.56872 71.59409
#
# Poissons Ratio (x) = 0.16699 0.21070
# Poissons Ratio (y) = 0.26486 0.18479
# Poissons Ratio (z) = 0.35274 0.19505
#
# Static dielectric constant tensor:
#      x y z
#    x 1.981190 -0.072840 -0.000700 
#    y -0.072840 2.170200 -0.106730 
#    z -0.000700 -0.106730 2.148320 
# 
# From -- ./inp_files/139685.got.cif
#   From: 2010.05.17/outbox.cif.g08.bks.cpg/sg2_70_cif.got.tgz:139685.got - 2010.06.03 11:33:40.
