data_PCOD9071490
_publ_section_title
;
Structure prediction by ZEFSAII (Michael W. Deem and Ramdas Pophale) SiO2 
 PCOD9071490
Probable space group: P -1
;
_chemical_formula_sum "Si O2"
_cell_formula_units_Z 8
_cell_length_a 9.259108
_cell_length_b 8.740342
_cell_length_c 8.575220
_cell_angle_alpha 73.023087
_cell_angle_beta 76.542066
_cell_angle_gamma 30.386386
_cell_volume 335.471650
_symmetry_space_group_name_H-M "P -1"
_symmetry_group_IT_number 2
_symmetry_cell_setting 'triclinic'
loop_
_space_group_symop_operation_xyz
x,y,z
-x,-y,-z
loop_
_atom_site_type_symbol
_atom_site_label
_atom_site_fract_x
_atom_site_fract_y
_atom_site_fract_z
Si Si1 0.925431 0.241962 0.882122
Si Si2 0.374322 0.457619 0.467612
Si Si3 0.140117 0.246773 0.418696
Si Si4 0.480181 0.135280 0.109872
O O1 0.782012 0.364508 0.710565
O O2 0.703910 0.534888 0.964883
O O3 0.207974 0.091698 0.851547
O O4 0.000000 0.000000 0.000000
O O5 0.500000 0.500000 0.500000
O O6 0.137207 0.601720 0.601143
O O7 0.622598 0.099036 0.482700
O O8 0.304210 0.198427 0.263925
O O9 0.000000 0.500000 0.500000
O O10 0.500000 0.000000 0.000000
#
# Coordination Sequence:
#
# PCOD9071490 Si02
#       4
#     2   2   2   2
#     4  12  28  52  78 114 163 204 253 321 392 464
#     4  12  28  50  81 117 153 207 260 320 387 458
#     4  12  26  51  83 110 154 202 268 323 376 455
#     4  12  28  52  79 117 153 207 259 320 390 457
#
# _framework density 23.847024000000001
#
# number of rings (size 3 to 8) (size 9 to 14) (size 15 to 20)
#    0.000    0.000    2.500    6.000    3.500    0.000 
#    0.000    0.000    0.000    0.000    0.000    0.000 
#    0.000    0.000    0.000    0.000    0.000    0.000 
#
# Total GULP energy -44861.297624 kJ/mol
# GULP energy per Si atom -5607.662203 kJ/mol
# Density = 2.379275 g / cm^3
# Si number density = 23.847024 Si / 1000 Ang^3
#
#
#
# Elastic Constant Matrix: (Units=GPa)
#
#
# Indices 1 2 3 4 5 6 
#
# 1 233.6824 98.8240 94.2868 -4.5637 20.1315 -12.8354
# 2 98.8240 224.8926 84.9847 -11.3178 15.3027 11.1391
# 3 94.2868 84.9847 114.6887 10.0015 16.8033 20.8007
# 4 -4.5637 -11.3178 10.0015 38.5295 8.9527 -15.9904
# 5 20.1315 15.3027 16.8033 8.9527 21.3533 3.9321
# 6 -12.8354 11.1391 20.8007 -15.9904 3.9321 60.0766
#
#
#
# Elastic Compliance Matrix: (Units=1/GPa)
#
#
# Indices 1 2 3 4 5 6 
#
# 1 0.008643 -0.000425 -0.007796 0.007194 -0.006002 0.006932
# 2 -0.000425 0.006897 -0.005088 0.004722 -0.002856 0.001836
# 3 -0.007796 -0.005088 0.022035 -0.013491 0.001530 -0.012042
# 4 0.007194 0.004722 -0.013491 0.044419 -0.021593 0.018569
# 5 -0.006002 -0.002856 0.001530 -0.021593 0.064457 -0.011248
# 6 0.006932 0.001836 -0.012042 0.018569 -0.011248 0.027634
#
#
# Mechanical properties :
#
#
# Convention : Reuss Voigt Hill
#
# Bulk Modulus (GPa) = 91.25892 125.49498 108.37695
# Shear Modulus (GPa) = 24.46749 43.66977 34.06863
#
# Velocity S-wave (km/s) = 3.20663 4.28395 3.78383
# Velocity P-wave (km/s) = 7.21537 8.78686 8.03960
#
# Compressibility (1/GPa) = 0.01095783
#
# Stress axis : x y z
#
# Youngs Moduli (GPa) = 115.70398 144.99428 45.38334
#
# Poissons Ratio (x) = 0.06160 0.35380
# Poissons Ratio (y) = 0.04915 0.23089
# Poissons Ratio (z) = 0.90200 0.73766
#
# Static dielectric constant tensor:
#      x y z
#    x 1.912070 -0.000210 -0.017310 
#    y -0.000210 1.927620 -0.044040 
#    z -0.017310 -0.044040 1.953700 
# 
# From -- ./inp_files/149997.got.cif
#   From: 2010.05.17/outbox.cif.g08.bks.cpg/sg2_75_cif.got.tgz:149997.got - 2010.06.03 11:33:40.
