data_PCOD9071852
_publ_section_title
;
Structure prediction by ZEFSAII (Michael W. Deem and Ramdas Pophale) SiO2 
 PCOD9071852
Probable space group: P -1
;
_chemical_formula_sum "Si O2"
_cell_formula_units_Z 16
_cell_length_a 19.140000
_cell_length_b 18.684259
_cell_length_c 9.256239
_cell_angle_alpha 38.050790
_cell_angle_beta 131.085309
_cell_angle_gamma 157.192244
_cell_volume 757.478356
_symmetry_space_group_name_H-M "P -1"
_symmetry_group_IT_number 2
_symmetry_cell_setting 'triclinic'
loop_
_space_group_symop_operation_xyz
x,y,z
-x,-y,-z
loop_
_atom_site_type_symbol
_atom_site_label
_atom_site_fract_x
_atom_site_fract_y
_atom_site_fract_z
Si Si1 0.143132 0.408652 0.692405
Si Si2 0.944308 0.238916 0.002365
Si Si3 0.778264 0.033493 0.621209
Si Si4 0.537112 0.413357 0.255195
Si Si5 0.325462 0.845658 0.310069
Si Si6 0.736927 0.259017 0.265684
Si Si7 0.800888 0.844770 0.460192
Si Si8 0.592291 0.643526 0.193993
O O1 0.303564 0.487297 0.766419
O O2 0.239887 0.640397 0.440697
O O3 0.045699 0.306116 0.882885
O O4 0.987714 0.224076 0.648770
O O5 0.792469 0.169720 0.862026
O O6 0.093788 0.465666 0.948404
O O7 0.843683 0.021963 0.285463
O O8 0.661666 0.869332 0.581816
O O9 0.774867 0.168669 0.412735
O O10 0.657765 0.829778 0.901480
O O11 0.613604 0.540664 0.310023
O O12 0.500000 0.500000 0.000000
O O13 0.297277 0.790036 0.530429
O O14 0.547910 0.097782 0.189661
O O15 0.716978 0.770338 0.304441
O O16 0.631465 0.593535 0.707252
O O17 0.000000 0.000000 0.500000
#
# Coordination Sequence:
#
# PCOD9071852 Si02
#       8
#     2   2   2   2   2   2   2   2
#     4  11  19  33  58  90 125 153 186 243 308 350
#     4  11  21  35  56  91 120 148 199 246 294 351
#     4  11  19  36  61  92 126 151 189 241 301 366
#     4  10  24  36  58  87 125 162 191 240 296 361
#     4  10  18  30  53  87 126 150 180 242 302 353
#     4  10  18  29  56  89 121 151 181 237 310 351
#     4  11  25  41  65  80 114 165 203 249 283 343
#     4  10  24  42  56  87 120 155 207 238 288 345
#
# _framework density 21.122716
#
# number of rings (size 3 to 8) (size 9 to 14) (size 15 to 20)
#    0.000    1.500    5.000    0.750    3.500    5.000 
#    0.000    0.000    0.000    1.500    0.000    0.000 
#    0.000    0.000    0.000    0.000    0.000    0.000 
#
# Total GULP energy -89226.859771 kJ/mol
# GULP energy per Si atom -5576.678736 kJ/mol
# Density = 2.107464 g / cm^3
# Si number density = 21.122716 Si / 1000 Ang^3
#
#
#
# Elastic Constant Matrix: (Units=GPa)
#
#
# Indices 1 2 3 4 5 6 
#
# 1 74.5951 43.8781 29.3636 1.2866 26.4923 11.2188
# 2 43.8781 154.0170 55.6380 -33.3293 17.5958 25.6998
# 3 29.3636 55.6380 68.3634 -22.3740 20.8489 0.7236
# 4 1.2866 -33.3293 -22.3740 25.2247 -7.1190 22.6013
# 5 26.4923 17.5958 20.8489 -7.1190 25.5543 0.0840
# 6 11.2188 25.6998 0.7236 22.6013 0.0840 31.3588
#
#
#
# Elastic Compliance Matrix: (Units=1/GPa)
#
#
# Indices 1 2 3 4 5 6 
#
# 1 0.022082 0.002594 -0.000690 0.013865 -0.020188 -0.019949
# 2 0.002594 -0.000954 -0.010125 -0.031645 -0.002663 0.022902
# 3 -0.000690 -0.010125 0.026516 -0.003312 -0.014903 0.010360
# 4 0.013865 -0.031645 -0.003312 -0.079540 -0.012298 0.078411
# 5 -0.020188 -0.002663 -0.014903 -0.012298 0.070566 0.018423
# 6 -0.019949 0.022902 0.010360 0.078411 0.018423 -0.036545
#
#
# Mechanical properties :
#
#
# Convention : Reuss Voigt Hill
#
# Bulk Modulus (GPa) = 32.05018 61.63722 46.84370
# Shear Modulus (GPa) = 172.60172 27.63395 100.11783
#
# Velocity S-wave (km/s) = 9.04937 3.62091 6.89210
# Velocity P-wave (km/s) = 11.15323 6.83558 9.24986
#
# Compressibility (1/GPa) = 0.03120107
#
# Stress axis : x y z
#
# Youngs Moduli (GPa) = 45.28492 -1048.45411 37.71364
#
# Poissons Ratio (x) = 2.71933 0.02603
# Poissons Ratio (y) = -0.11745 0.38185
# Poissons Ratio (z) = 0.03126 -10.61554
#
# Static dielectric constant tensor:
#      x y z
#    x 1.852290 -0.049790 -0.039080 
#    y -0.049790 1.796400 -0.019640 
#    z -0.039080 -0.019640 1.752560 
# 
# From -- ./inp_files/472719.got.cif
#   From: 2010.05.17/outbox.cif.g08.bks.cpg/sg2_237_cif.got.tgz:472719.got - 2010.06.03 11:33:40.
