data_PCOD9071497
_publ_section_title
;
Structure prediction by ZEFSAII (Michael W. Deem and Ramdas Pophale) SiO2 
 PCOD9071497
Probable space group: P -1
;
_chemical_formula_sum "Si O2"
_cell_formula_units_Z 14
_cell_length_a 8.846719
_cell_length_b 5.330162
_cell_length_c 20.305847
_cell_angle_alpha 122.297211
_cell_angle_beta 49.672802
_cell_angle_gamma 121.647008
_cell_volume 592.778620
_symmetry_space_group_name_H-M "P -1"
_symmetry_group_IT_number 2
_symmetry_cell_setting 'triclinic'
loop_
_space_group_symop_operation_xyz
x,y,z
-x,-y,-z
loop_
_atom_site_type_symbol
_atom_site_label
_atom_site_fract_x
_atom_site_fract_y
_atom_site_fract_z
Si Si1 0.410577 0.456603 0.946799
Si Si2 0.045283 0.862971 0.397656
Si Si3 0.520868 0.701645 0.706430
Si Si4 0.102034 0.791893 0.113165
Si Si5 0.723988 0.633334 0.768761
Si Si6 0.147903 0.897485 0.871370
Si Si7 0.603363 0.725506 0.441749
O O1 0.601398 0.486248 0.848315
O O2 0.236168 0.134665 0.938999
O O3 0.500000 0.500000 0.000000
O O4 0.292901 0.721371 0.010525
O O5 0.844742 0.834164 0.405965
O O6 0.112917 0.542939 0.329000
O O7 0.000000 0.000000 0.500000
O O8 0.248851 0.108444 0.349320
O O9 0.546957 0.604865 0.760066
O O10 0.357696 0.895437 0.774819
O O11 0.441167 0.441182 0.638835
O O12 0.961067 0.455232 0.127524
O O13 0.986325 0.962212 0.120210
O O14 0.171947 0.014443 0.187928
O O15 0.500000 0.500000 0.500000
O O16 0.500000 0.000000 0.500000
#
# Coordination Sequence:
#
# PCOD9071497 Si02
#       7
#     2   2   2   2   2   2   2
#     4  12  26  52  81 116 164 218 272 334 407 488
#     4  12  27  53  84 114 161 216 270 336 413 483
#     4  12  28  49  80 116 164 210 273 332 407 484
#     4  12  28  48  80 117 161 216 267 332 409 476
#     4  12  28  50  79 119 164 211 275 337 405 488
#     4  12  27  50  77 118 163 208 272 334 395 490
#     4  12  29  50  80 116 156 206 272 337 406 485
#
# _framework density 23.617585999999999
#
# number of rings (size 3 to 8) (size 9 to 14) (size 15 to 20)
#    0.000    0.000    2.857    5.571    6.000    3.429 
#    0.000    0.000    0.000    0.000    0.000    0.000 
#    0.000    0.000    0.000    0.000    0.000    0.000 
#
# Total GULP energy -78439.707398 kJ/mol
# GULP energy per Si atom -5602.836243 kJ/mol
# Density = 2.356383 g / cm^3
# Si number density = 23.617586 Si / 1000 Ang^3
#
#
#
# Elastic Constant Matrix: (Units=GPa)
#
#
# Indices 1 2 3 4 5 6 
#
# 1 185.9417 71.5709 64.9151 32.4132 1.9207 10.0659
# 2 71.5709 129.8449 53.9924 16.7453 7.3003 11.7196
# 3 64.9151 53.9924 159.4110 34.8471 1.5201 4.1251
# 4 32.4132 16.7453 34.8471 54.4226 6.0122 4.0860
# 5 1.9207 7.3003 1.5201 6.0122 66.0943 8.6101
# 6 10.0659 11.7196 4.1251 4.0860 8.6101 50.2187
#
#
#
# Elastic Compliance Matrix: (Units=1/GPa)
#
#
# Indices 1 2 3 4 5 6 
#
# 1 0.007602 -0.003243 -0.001411 -0.002640 0.000477 -0.000518
# 2 -0.003243 0.010582 -0.002293 0.000352 -0.000857 -0.001513
# 3 -0.001411 -0.002293 0.008475 -0.003954 0.000410 0.000373
# 4 -0.002640 0.000352 -0.003954 0.022630 -0.001831 -0.000755
# 5 0.000477 -0.000857 0.000410 -0.001831 0.015690 -0.002470
# 6 -0.000518 -0.001513 0.000373 -0.000755 -0.002470 0.020824
#
#
# Mechanical properties :
#
#
# Convention : Reuss Voigt Hill
#
# Bulk Modulus (GPa) = 78.34334 95.12826 86.73580
# Shear Modulus (GPa) = 48.09857 53.12840 50.61348
#
# Velocity S-wave (km/s) = 4.51772 4.74806 4.63432
# Velocity P-wave (km/s) = 7.77539 8.39195 8.08955
#
# Compressibility (1/GPa) = 0.01276433
#
# Stress axis : x y z
#
# Youngs Moduli (GPa) = 131.53645 94.50034 117.99047
#
# Poissons Ratio (x) = 0.30648 0.16653
# Poissons Ratio (y) = 0.42660 0.27056
# Poissons Ratio (z) = 0.18565 0.21670
#
# Static dielectric constant tensor:
#      x y z
#    x 1.847030 0.019250 0.012360 
#    y 0.019250 1.953450 0.027920 
#    z 0.012360 0.027920 1.964380 
# 
# From -- ./inp_files/585035.got.cif
#   From: 2010.05.17/outbox.cif.g08.bks.cpg/sg2_293_cif.got.tgz:585035.got - 2010.06.03 11:33:40.
