data_PCOD9071441
_publ_section_title
;
Structure prediction by ZEFSAII (Michael W. Deem and Ramdas Pophale) SiO2 
 PCOD9071441
Probable space group: P -1
;
_chemical_formula_sum "Si O2"
_cell_formula_units_Z 14
_cell_length_a 10.913387
_cell_length_b 8.971145
_cell_length_c 8.924195
_cell_angle_alpha 81.770692
_cell_angle_beta 124.520088
_cell_angle_gamma 123.395918
_cell_volume 582.652515
_symmetry_space_group_name_H-M "P -1"
_symmetry_group_IT_number 2
_symmetry_cell_setting 'triclinic'
loop_
_space_group_symop_operation_xyz
x,y,z
-x,-y,-z
loop_
_atom_site_type_symbol
_atom_site_label
_atom_site_fract_x
_atom_site_fract_y
_atom_site_fract_z
Si Si1 0.698322 0.924411 0.410343
Si Si2 0.672864 0.674096 0.675228
Si Si3 0.882320 0.534574 0.021571
Si Si4 0.377754 0.881592 0.076699
Si Si5 0.673542 0.670531 0.177016
Si Si6 0.012828 0.340955 0.594673
Si Si7 0.185209 0.065612 0.027689
O O1 0.756542 0.837611 0.588219
O O2 0.515324 0.916738 0.302271
O O3 0.640723 0.781293 0.256192
O O4 0.858317 0.135792 0.461806
O O5 0.500000 0.500000 0.500000
O O6 0.789631 0.609695 0.843982
O O7 0.645678 0.774247 0.778588
O O8 0.733189 0.332249 0.011709
O O9 0.000000 0.500000 0.000000
O O10 0.988463 0.654338 0.224440
O O11 0.237318 0.928429 0.029767
O O12 0.500000 0.000000 0.000000
O O13 0.794209 0.608754 0.336327
O O14 0.500000 0.500000 0.000000
O O15 0.805720 0.826579 0.127057
O O16 0.000000 0.500000 0.500000
O O17 0.000000 0.000000 0.000000
#
# Coordination Sequence:
#
# PCOD9071441 Si02
#       7
#     2   2   2   2   2   2   2
#     4  12  27  48  80 118 158 215 268 336 405 489
#     4  12  26  50  75 114 158 205 268 327 406 479
#     4  12  28  50  77 114 163 211 267 338 402 474
#     4  12  26  50  81 116 158 213 272 329 402 485
#     4  12  26  51  82 115 160 218 273 320 410 491
#     4  12  29  48  76 120 164 208 273 337 403 483
#     4  12  27  48  82 113 161 210 264 333 410 475
#
# _framework density 24.028043
#
# number of rings (size 3 to 8) (size 9 to 14) (size 15 to 20)
#    0.000    0.000    4.286    4.714    6.000    1.714 
#    0.000    0.000    0.000    0.000    0.000    0.000 
#    0.000    0.000    0.000    0.000    0.000    0.000 
#
# Total GULP energy -78255.537930 kJ/mol
# GULP energy per Si atom -5589.681281 kJ/mol
# Density = 2.397335 g / cm^3
# Si number density = 24.028043 Si / 1000 Ang^3
#
#
#
# Elastic Constant Matrix: (Units=GPa)
#
#
# Indices 1 2 3 4 5 6 
#
# 1 113.9602 46.9568 30.5112 -12.2520 9.6154 -18.1419
# 2 46.9568 176.8837 54.6447 -10.9056 21.4616 -19.5275
# 3 30.5112 54.6447 105.4964 -1.7234 9.2718 -21.3577
# 4 -12.2520 -10.9056 -1.7234 57.8191 -0.2645 -2.9158
# 5 9.6154 21.4616 9.2718 -0.2645 38.0356 -2.9324
# 6 -18.1419 -19.5275 -21.3577 -2.9158 -2.9324 44.5937
#
#
#
# Elastic Compliance Matrix: (Units=1/GPa)
#
#
# Indices 1 2 3 4 5 6 
#
# 1 0.010680 -0.001814 -0.001428 0.002021 -0.001088 0.002927
# 2 -0.001814 0.007577 -0.002905 0.000997 -0.003020 0.001055
# 3 -0.001428 -0.002905 0.012252 -0.000289 -0.000684 0.003951
# 4 0.002021 0.000997 -0.000289 0.018013 -0.000704 0.002252
# 5 -0.001088 -0.003020 -0.000684 -0.000704 0.028411 -0.000271
# 6 0.002927 0.001055 0.003951 0.002252 -0.000271 0.026099
#
#
# Mechanical properties :
#
#
# Convention : Reuss Voigt Hill
#
# Bulk Modulus (GPa) = 54.89883 73.39618 64.14750
# Shear Modulus (GPa) = 41.18693 45.70486 43.44590
#
# Velocity S-wave (km/s) = 4.14468 4.36609 4.25683
# Velocity P-wave (km/s) = 6.76771 7.48528 7.13552
#
# Compressibility (1/GPa) = 0.01821533
#
# Stress axis : x y z
#
# Youngs Moduli (GPa) = 93.63362 131.98168 81.62118
#
# Poissons Ratio (x) = 0.23945 0.11654
# Poissons Ratio (y) = 0.16988 0.23707
# Poissons Ratio (z) = 0.13369 0.38334
#
# Static dielectric constant tensor:
#      x y z
#    x 2.004110 0.030760 0.025400 
#    y 0.030760 1.996010 -0.015230 
#    z 0.025400 -0.015230 2.016860 
# 
# From -- ./inp_files/243742.got.cif
#   From: 2010.05.17/outbox.cif.g08.bks.cpg/sg2_122_cif.got.tgz:243742.got - 2010.06.03 11:33:40.
