data_PCOD9071562
_publ_section_title
;
Structure prediction by ZEFSAII (Michael W. Deem and Ramdas Pophale) SiO2 
 PCOD9071562
Probable space group: P -1
;
_chemical_formula_sum "Si O2"
_cell_formula_units_Z 10
_cell_length_a 10.004355
_cell_length_b 7.173363
_cell_length_c 15.646979
_cell_angle_alpha 117.392934
_cell_angle_beta 29.340873
_cell_angle_gamma 129.001998
_cell_volume 415.880209
_symmetry_space_group_name_H-M "P -1"
_symmetry_group_IT_number 2
_symmetry_cell_setting 'triclinic'
loop_
_space_group_symop_operation_xyz
x,y,z
-x,-y,-z
loop_
_atom_site_type_symbol
_atom_site_label
_atom_site_fract_x
_atom_site_fract_y
_atom_site_fract_z
Si Si1 0.533782 0.956192 0.373445
Si Si2 0.295254 0.261292 0.999214
Si Si3 0.477899 0.495513 0.255584
Si Si4 0.650816 0.025102 0.825377
Si Si5 0.618786 0.679124 0.550374
O O1 0.422793 0.096049 0.402931
O O2 0.500000 0.000000 0.500000
O O3 0.340490 0.667359 0.396165
O O4 0.916583 0.088623 0.184579
O O5 0.329692 0.361221 0.905270
O O6 0.430135 0.082260 0.901525
O O7 0.500000 0.500000 0.000000
O O8 0.500000 0.500000 0.500000
O O9 0.589762 0.464408 0.280738
O O10 0.007422 0.232958 0.639497
O O11 0.674821 0.784572 0.748549
O O12 0.500000 0.000000 0.000000
#
# Coordination Sequence:
#
# PCOD9071562 Si02
#       5
#     2   2   2   2   2
#     4  12  27  49  75 107 146 190 240 296 359 425
#     4  12  27  49  75 107 146 190 240 296 359 425
#     4  12  28  46  80 102 150 188 242 294 362 420
#     4  12  27  49  75 107 146 190 240 296 359 425
#     4  12  27  49  75 107 146 190 240 296 359 425
#
# _framework density 24.045383999999999
#
# number of rings (size 3 to 8) (size 9 to 14) (size 15 to 20)
#    0.000    0.000    4.000    4.800    0.000    3.200 
#    0.000    0.000    0.000    0.000    0.000    0.000 
#    0.000    0.000    0.000    0.000    0.000    0.000 
#
# Total GULP energy -55757.076613 kJ/mol
# GULP energy per Si atom -5575.707661 kJ/mol
# Density = 2.399066 g / cm^3
# Si number density = 24.045384 Si / 1000 Ang^3
#
#
#
# Elastic Constant Matrix: (Units=GPa)
#
#
# Indices 1 2 3 4 5 6 
#
# 1 114.0614 38.9286 90.2163 -16.4320 4.9706 -28.3097
# 2 38.9286 145.8187 51.1167 14.4149 20.4788 -21.2428
# 3 90.2163 51.1167 119.8214 -12.5197 4.7884 1.9091
# 4 -16.4320 14.4149 -12.5197 42.1085 0.1399 11.9341
# 5 4.9706 20.4788 4.7884 0.1399 63.4878 5.7225
# 6 -28.3097 -21.2428 1.9091 11.9341 5.7225 53.7308
#
#
#
# Elastic Compliance Matrix: (Units=1/GPa)
#
#
# Indices 1 2 3 4 5 6 
#
# 1 0.036416 0.005204 -0.030171 -0.003184 -0.004364 0.023488
# 2 0.005204 0.011646 -0.009666 -0.007603 -0.004305 0.009837
# 3 -0.030171 -0.009666 0.036305 0.008979 0.004842 -0.023517
# 4 -0.003184 -0.007603 0.008979 0.031245 0.003062 -0.012268
# 5 -0.004364 -0.004305 0.004842 0.003062 0.017717 -0.006740
# 6 0.023488 0.009837 -0.023517 -0.012268 -0.006740 0.039154
#
#
# Mechanical properties :
#
#
# Convention : Reuss Voigt Hill
#
# Bulk Modulus (GPa) = 66.21761 82.24723 74.23242
# Shear Modulus (GPa) = 20.26084 45.16142 32.71113
#
# Velocity S-wave (km/s) = 2.90592 4.33849 3.69235
# Velocity P-wave (km/s) = 6.23358 7.70558 7.00833
#
# Compressibility (1/GPa) = 0.01510172
#
# Stress axis : x y z
#
# Youngs Moduli (GPa) = 27.46069 85.86565 27.54458
#
# Poissons Ratio (x) = -0.44684 0.83104
# Poissons Ratio (y) = -0.14290 0.26624
# Poissons Ratio (z) = 0.82851 0.82995
#
# Static dielectric constant tensor:
#      x y z
#    x 1.836000 0.027770 0.077470 
#    y 0.027770 1.968540 0.030660 
#    z 0.077470 0.030660 1.841360 
# 
# From -- ./inp_files/379360.got.cif
#   From: 2010.05.17/outbox.cif.g08.bks.cpg/sg2_190_cif.got.tgz:379360.got - 2010.06.03 11:33:40.
