data_PCOD9071003
_publ_section_title
;
Structure prediction by ZEFSAII (Michael W. Deem and Ramdas Pophale) SiO2 
 PCOD9071003
Probable space group: P -1
;
_chemical_formula_sum "Si O2"
_cell_formula_units_Z 16
_cell_length_a 9.788628
_cell_length_b 28.196233
_cell_length_c 12.175430
_cell_angle_alpha 26.403183
_cell_angle_beta 142.377296
_cell_angle_gamma 151.003574
_cell_volume 723.807805
_symmetry_space_group_name_H-M "P -1"
_symmetry_group_IT_number 2
_symmetry_cell_setting 'triclinic'
loop_
_space_group_symop_operation_xyz
x,y,z
-x,-y,-z
loop_
_atom_site_type_symbol
_atom_site_label
_atom_site_fract_x
_atom_site_fract_y
_atom_site_fract_z
Si Si1 0.200530 0.888788 0.339733
Si Si2 0.228284 0.444985 0.515012
Si Si3 0.800760 0.156778 0.187729
Si Si4 0.177061 0.217048 0.094808
Si Si5 0.717189 0.379214 0.627868
Si Si6 0.757951 0.009757 0.088641
Si Si7 0.196104 0.204081 0.528768
Si Si8 0.829568 0.353853 0.249787
O O1 0.130684 0.743155 0.592515
O O2 0.991942 0.883086 0.304946
O O3 0.520022 0.005700 0.336825
O O4 0.176860 0.921236 0.131919
O O5 0.500000 0.500000 0.500000
O O6 0.293036 0.569173 0.367520
O O7 0.961199 0.377310 0.405590
O O8 0.181747 0.335499 0.797421
O O9 0.983754 0.164075 0.188852
O O10 0.995889 0.212188 0.304202
O O11 0.710222 0.250137 0.905059
O O12 0.496214 0.278233 0.197447
O O13 0.025524 0.098327 0.155110
O O14 0.461484 0.340067 0.467981
O O15 0.000000 0.500000 0.500000
O O16 0.697701 0.868657 0.319248
O O17 0.500000 0.000000 0.000000
O O18 0.000000 0.500000 0.000000
#
# Coordination Sequence:
#
# PCOD9071003 Si02
#       8
#     2   2   2   2   2   2   2   2
#     4  12  26  50  76 111 148 193 250 306 376 442
#     4  12  26  47  72 106 151 196 240 303 368 440
#     4  12  28  48  77 109 149 194 253 306 370 442
#     4  12  26  45  77 112 146 195 251 306 372 439
#     4  12  28  48  72 107 149 194 246 299 374 444
#     4  12  25  48  79 108 148 195 247 308 373 439
#     4  12  29  47  77 106 152 197 244 312 373 432
#     4  12  28  45  76 111 149 193 249 304 371 446
#
# _framework density 22.105314
#
# number of rings (size 3 to 8) (size 9 to 14) (size 15 to 20)
#    0.000    0.000    6.250    2.250    5.250    1.500 
#    0.000    0.000    0.000    0.000    0.000    0.000 
#    0.000    0.000    0.000    0.000    0.000    0.000 
#
# Total GULP energy -89663.453616 kJ/mol
# GULP energy per Si atom -5603.965851 kJ/mol
# Density = 2.205500 g / cm^3
# Si number density = 22.105314 Si / 1000 Ang^3
#
#
#
# Elastic Constant Matrix: (Units=GPa)
#
#
# Indices 1 2 3 4 5 6 
#
# 1 111.5347 49.3922 2.0012 12.9473 1.9574 7.2947
# 2 49.3922 201.0913 22.7403 28.3860 -0.5060 -4.1164
# 3 2.0012 22.7403 54.5624 1.4823 1.1582 -10.5726
# 4 12.9473 28.3860 1.4823 38.7167 -9.5595 -10.4739
# 5 1.9574 -0.5060 1.1582 -9.5595 36.2308 -8.3565
# 6 7.2947 -4.1164 -10.5726 -10.4739 -8.3565 34.1298
#
#
#
# Elastic Compliance Matrix: (Units=1/GPa)
#
#
# Indices 1 2 3 4 5 6 
#
# 1 0.010709 -0.002165 -0.000189 -0.003837 -0.002637 -0.004432
# 2 -0.002165 0.006418 -0.002695 -0.004519 -0.001194 -0.001277
# 3 -0.000189 -0.002695 0.020836 0.003912 0.002161 0.007899
# 4 -0.003837 -0.004519 0.003912 0.038214 0.013937 0.016627
# 5 -0.002637 -0.001194 0.002161 0.013937 0.034522 0.013819
# 6 -0.004432 -0.001277 0.007899 0.016627 0.013819 0.041026
#
#
# Mechanical properties :
#
#
# Convention : Reuss Voigt Hill
#
# Bulk Modulus (GPa) = 35.88571 57.27287 46.57929
# Shear Modulus (GPa) = 29.22057 41.35243 35.28650
#
# Velocity S-wave (km/s) = 3.63971 4.32985 3.99969
# Velocity P-wave (km/s) = 5.82516 7.13878 6.51516
#
# Compressibility (1/GPa) = 0.02786624
#
# Stress axis : x y z
#
# Youngs Moduli (GPa) = 93.37546 155.81068 47.99322
#
# Poissons Ratio (x) = 0.33730 0.00908
# Poissons Ratio (y) = 0.20214 0.12933
# Poissons Ratio (z) = 0.01766 0.41989
#
# Static dielectric constant tensor:
#      x y z
#    x 1.786770 0.008430 -0.000650 
#    y 0.008430 1.780080 0.008520 
#    z -0.000650 0.008520 1.818140 
# 
# From -- ./inp_files/407325.got.cif
#   From: 2010.05.17/outbox.cif.g08.bks.cpg/sg2_204_cif.got.tgz:407325.got - 2010.06.03 11:33:40.
