data_PCOD9071692
_publ_section_title
;
Structure prediction by ZEFSAII (Michael W. Deem and Ramdas Pophale) SiO2 
 PCOD9071692
Probable space group: P -1
;
_chemical_formula_sum "Si O2"
_cell_formula_units_Z 10
_cell_length_a 5.435006
_cell_length_b 5.108045
_cell_length_c 13.374719
_cell_angle_alpha 91.762466
_cell_angle_beta 113.984515
_cell_angle_gamma 86.330327
_cell_volume 338.551365
_symmetry_space_group_name_H-M "P -1"
_symmetry_group_IT_number 2
_symmetry_cell_setting 'triclinic'
loop_
_space_group_symop_operation_xyz
x,y,z
-x,-y,-z
loop_
_atom_site_type_symbol
_atom_site_label
_atom_site_fract_x
_atom_site_fract_y
_atom_site_fract_z
Si Si1 0.406760 0.558116 0.323782
Si Si2 0.762497 0.101159 0.278807
Si Si3 0.427137 0.808187 0.076917
Si Si4 0.079409 0.604768 0.873538
Si Si5 0.181711 0.262661 0.476819
O O1 0.627719 0.370431 0.301788
O O2 0.299909 0.397270 0.398914
O O3 0.565692 0.790104 0.406206
O O4 0.161580 0.567729 0.204496
O O5 0.920728 0.157986 0.203178
O O6 0.998225 0.035742 0.398721
O O7 0.512856 0.941885 0.195984
O O8 0.644940 0.564772 0.104249
O O9 0.130874 0.721750 0.993647
O O10 0.500000 0.000000 0.000000
O O11 0.000000 0.500000 0.500000
#
# Coordination Sequence:
#
# PCOD9071692 Si02
#       5
#     2   2   2   2   2
#     4   9  16  29  52  75  97 129 164 198 240 289
#     4   9  17  31  51  74 100 129 161 199 241 286
#     4   9  18  34  51  69 100 133 161 202 247 284
#     4   9  18  33  50  71 100 131 163 200 241 286
#     4   8  15  29  51  75  99 128 159 196 244 290
#
# _framework density 29.537614000000001
#
# number of rings (size 3 to 8) (size 9 to 14) (size 15 to 20)
#    0.000    3.200    0.000    0.000    0.000    0.800 
#    0.000   16.000    0.000   40.800    0.000    0.000 
#    0.000    0.000    0.000    0.000    0.000    0.000 
#
# Total GULP energy -55898.023877 kJ/mol
# GULP energy per Si atom -5589.802388 kJ/mol
# Density = 2.947039 g / cm^3
# Si number density = 29.537614 Si / 1000 Ang^3
#
#
#
# Elastic Constant Matrix: (Units=GPa)
#
#
# Indices 1 2 3 4 5 6 
#
# 1 87.1078 26.2320 69.2104 16.0101 24.8614 21.6817
# 2 26.2320 75.9958 50.6651 23.6900 13.0353 11.3475
# 3 69.2104 50.6651 442.6567 45.3545 58.6610 33.0577
# 4 16.0101 23.6900 45.3545 51.8234 28.5960 24.1386
# 5 24.8614 13.0353 58.6610 28.5960 66.4028 23.1360
# 6 21.6817 11.3475 33.0577 24.1386 23.1360 60.6139
#
#
#
# Elastic Compliance Matrix: (Units=1/GPa)
#
#
# Indices 1 2 3 4 5 6 
#
# 1 0.015207 -0.003739 -0.001438 0.001610 -0.003208 -0.003372
# 2 -0.003739 0.016841 -0.000900 -0.007056 0.001626 0.000865
# 3 -0.001438 -0.000900 0.002866 -0.000859 -0.001453 0.000016
# 4 0.001610 -0.007056 -0.000859 0.031555 -0.009334 -0.007790
# 5 -0.003208 0.001626 -0.001453 -0.009334 0.022352 -0.003179
# 6 -0.003372 0.000865 0.000016 -0.007790 -0.003179 0.021849
#
#
# Mechanical properties :
#
#
# Convention : Reuss Voigt Hill
#
# Bulk Modulus (GPa) = 43.93532 99.77503 71.85517
# Shear Modulus (GPa) = 38.34033 66.41154 52.37594
#
# Velocity S-wave (km/s) = 3.60671 4.74684 4.21550
# Velocity P-wave (km/s) = 5.67901 7.99348 6.93350
#
# Compressibility (1/GPa) = 0.02276073
#
# Stress axis : x y z
#
# Youngs Moduli (GPa) = 65.75760 59.38006 348.89173
#
# Poissons Ratio (x) = 0.22201 0.50163
# Poissons Ratio (y) = 0.24586 0.31404
# Poissons Ratio (z) = 0.09455 0.05345
#
# Static dielectric constant tensor:
#      x y z
#    x 2.356110 0.157120 0.082590 
#    y 0.157120 2.360960 0.062660 
#    z 0.082590 0.062660 2.379360 
# 
# From -- ./inp_files/1494.got.cif
#   From: 2010.05.17/outbox.cif.g08.bks.cpg/sg2_1_cif.got.tgz:1494.got - 2010.06.03 11:33:40.
