data_PCOD9071387
_publ_section_title
;
Structure prediction by ZEFSAII (Michael W. Deem and Ramdas Pophale) SiO2 
 PCOD9071387
Probable space group: P -1
;
_chemical_formula_sum "Si O2"
_cell_formula_units_Z 14
_cell_length_a 6.693870
_cell_length_b 8.777210
_cell_length_c 19.732066
_cell_angle_alpha 137.247354
_cell_angle_beta 99.083004
_cell_angle_gamma 103.349192
_cell_volume 665.033180
_symmetry_space_group_name_H-M "P -1"
_symmetry_group_IT_number 2
_symmetry_cell_setting 'triclinic'
loop_
_space_group_symop_operation_xyz
x,y,z
-x,-y,-z
loop_
_atom_site_type_symbol
_atom_site_label
_atom_site_fract_x
_atom_site_fract_y
_atom_site_fract_z
Si Si1 0.492199 0.465810 0.067939
Si Si2 0.582249 0.089140 0.721116
Si Si3 0.161370 0.310748 0.612856
Si Si4 0.917097 0.564314 0.208109
Si Si5 0.843220 0.404105 0.528234
Si Si6 0.645165 0.702673 0.694753
Si Si7 0.959014 0.079696 0.097326
O O1 0.451713 0.681941 0.174313
O O2 0.734542 0.493116 0.114661
O O3 0.500000 0.500000 0.000000
O O4 0.280007 0.173392 0.974252
O O5 0.824844 0.218493 0.733582
O O6 0.368716 0.889044 0.595677
O O7 0.591793 0.908628 0.722693
O O8 0.191895 0.363927 0.711442
O O9 0.409925 0.458471 0.635250
O O10 0.004415 0.411707 0.601031
O O11 0.000000 0.000000 0.500000
O O12 0.933458 0.326061 0.161145
O O13 0.742392 0.587312 0.605122
O O14 0.000000 0.500000 0.500000
O O15 0.836130 0.841263 0.810370
O O16 0.000000 0.000000 0.000000
#
# Coordination Sequence:
#
# PCOD9071387 Si02
#       7
#     2   2   2   2   2   2   2
#     4  12  29  47  76 105 145 195 246 298 361 436
#     4  12  28  47  75 107 148 190 246 298 361 435
#     4  12  27  45  77 107 146 190 240 301 365 426
#     4  12  27  48  74 107 146 190 242 304 363 428
#     4  12  27  48  74 109 148 192 240 298 366 434
#     4  12  28  48  75 110 147 192 242 298 365 437
#     4  12  26  49  73 106 149 189 242 301 363 425
#
# _framework density 21.051582
#
# number of rings (size 3 to 8) (size 9 to 14) (size 15 to 20)
#    0.000    0.000    4.286    4.286   12.000    2.286 
#    0.000    0.000    0.000    0.000    0.000    0.000 
#    0.000    0.000    0.000    0.000    0.000    0.000 
#
# Total GULP energy -78349.196321 kJ/mol
# GULP energy per Si atom -5596.371166 kJ/mol
# Density = 2.100367 g / cm^3
# Si number density = 21.051582 Si / 1000 Ang^3
#
#
#
# Elastic Constant Matrix: (Units=GPa)
#
#
# Indices 1 2 3 4 5 6 
#
# 1 82.3627 30.6056 27.9070 3.1060 26.6594 21.5331
# 2 30.6056 106.6370 30.2641 -2.6842 16.6353 26.2180
# 3 27.9070 30.2641 91.8374 -5.1883 24.6240 12.9888
# 4 3.1060 -2.6842 -5.1883 49.7905 0.6926 10.8556
# 5 26.6594 16.6353 24.6240 0.6926 41.2834 2.0115
# 6 21.5331 26.2180 12.9888 10.8556 2.0115 51.8681
#
#
#
# Elastic Compliance Matrix: (Units=1/GPa)
#
#
# Indices 1 2 3 4 5 6 
#
# 1 0.017969 -0.001799 -0.001429 0.000038 -0.009743 -0.005823
# 2 -0.001799 0.012134 -0.002008 0.001713 -0.002308 -0.005153
# 3 -0.001429 -0.002008 0.014181 0.002010 -0.006658 -0.002106
# 4 0.000038 0.001713 0.002010 0.021686 -0.001993 -0.005846
# 5 -0.009743 -0.002308 -0.006658 -0.001993 0.035160 0.005932
# 6 -0.005823 -0.005153 -0.002106 -0.005846 0.005932 0.025822
#
#
# Mechanical properties :
#
#
# Convention : Reuss Voigt Hill
#
# Bulk Modulus (GPa) = 29.57563 50.93225 40.25394
# Shear Modulus (GPa) = 33.62605 41.39244 37.50924
#
# Velocity S-wave (km/s) = 4.00098 4.43904 4.22569
# Velocity P-wave (km/s) = 5.95176 7.10774 6.55528
#
# Compressibility (1/GPa) = 0.03381162
#
# Stress axis : x y z
#
# Youngs Moduli (GPa) = 55.65221 82.41547 70.51581
#
# Poissons Ratio (x) = 0.14827 0.10079
# Poissons Ratio (y) = 0.10012 0.14157
# Poissons Ratio (z) = 0.07955 0.16545
#
# Static dielectric constant tensor:
#      x y z
#    x 1.733560 -0.046600 0.009590 
#    y -0.046600 1.696540 0.006280 
#    z 0.009590 0.006280 1.690620 
# 
# From -- ./inp_files/24820.got.cif
#   From: 2010.05.17/outbox.cif.g08.bks.cpg/sg2_13_cif.got.tgz:24820.got - 2010.06.03 11:33:40.
