data_PCOD9071729
_publ_section_title
;
Structure prediction by ZEFSAII (Michael W. Deem and Ramdas Pophale) SiO2 
 PCOD9071729
Probable space group: P -1
;
_chemical_formula_sum "Si O2"
_cell_formula_units_Z 16
_cell_length_a 9.677286
_cell_length_b 13.687191
_cell_length_c 9.752369
_cell_angle_alpha 34.433822
_cell_angle_beta 85.668230
_cell_angle_gamma 96.975043
_cell_volume 688.583122
_symmetry_space_group_name_H-M "P -1"
_symmetry_group_IT_number 2
_symmetry_cell_setting 'triclinic'
loop_
_space_group_symop_operation_xyz
x,y,z
-x,-y,-z
loop_
_atom_site_type_symbol
_atom_site_label
_atom_site_fract_x
_atom_site_fract_y
_atom_site_fract_z
Si Si1 0.289396 0.905385 0.428231
Si Si2 0.297003 0.625199 0.112606
Si Si3 0.965354 0.698077 0.377614
Si Si4 0.160450 0.534079 0.693669
Si Si5 0.486727 0.733237 0.714179
Si Si6 0.908002 0.938281 0.872392
Si Si7 0.580399 0.593197 0.110608
Si Si8 0.099998 0.812240 0.819098
O O1 0.232306 0.717408 0.563534
O O2 0.452032 0.911739 0.456163
O O3 0.182894 0.876673 0.598670
O O4 0.252024 0.060415 0.164125
O O5 0.177113 0.439529 0.381394
O O6 0.452045 0.635772 0.155207
O O7 0.343841 0.636324 0.934405
O O8 0.220967 0.780884 0.951379
O O9 0.091906 0.602187 0.487238
O O10 0.922408 0.771245 0.154770
O O11 0.026229 0.878662 0.256785
O O12 0.284666 0.438140 0.786832
O O13 0.024218 0.387657 0.950477
O O14 0.491498 0.600153 0.743741
O O15 0.611441 0.738396 0.811485
O O16 0.016674 0.942215 0.734531
#
# Coordination Sequence:
#
# PCOD9071729 Si02
#       8
#     2   2   2   2   2   2   2   2
#     4   9  16  30  47  72  95 123 152 191 229 278
#     4   8  15  28  49  70  90 115 156 193 227 268
#     4   9  19  34  48  68  90 126 164 189 223 277
#     4   9  17  28  51  75  94 118 154 192 229 274
#     4   7  13  25  47  72  92 114 153 191 233 262
#     4  10  20  31  47  66  99 128 152 190 234 274
#     4   8  13  26  47  75  92 116 147 198 236 265
#     4  10  18  29  48  75  95 116 154 198 237 269
#
# _framework density 23.236118999999999
#
# number of rings (size 3 to 8) (size 9 to 14) (size 15 to 20)
#    0.750    2.500    0.000    0.750    0.000    5.000 
#    0.000    0.000    0.000   20.250    0.000    0.000 
#    0.000    0.000    0.000    0.000    0.000    0.000 
#
# Total GULP energy -89130.666724 kJ/mol
# GULP energy per Si atom -5570.666670 kJ/mol
# Density = 2.318323 g / cm^3
# Si number density = 23.236119 Si / 1000 Ang^3
#
#
#
# Elastic Constant Matrix: (Units=GPa)
#
#
# Indices 1 2 3 4 5 6 
#
# 1 158.3902 23.4547 65.9725 -14.6358 55.3973 -3.4704
# 2 23.4547 43.5944 19.6862 -16.7602 25.3242 1.4194
# 3 65.9725 19.6862 107.3028 -18.5943 48.2582 -2.2003
# 4 -14.6358 -16.7602 -18.5943 29.3403 -8.8363 12.6795
# 5 55.3973 25.3242 48.2582 -8.8363 56.9267 -9.3823
# 6 -3.4704 1.4194 -2.2003 12.6795 -9.3823 30.4205
#
#
#
# Elastic Compliance Matrix: (Units=1/GPa)
#
#
# Indices 1 2 3 4 5 6 
#
# 1 0.010392 0.002623 -0.001865 0.004239 -0.009670 -0.003821
# 2 0.002623 0.052028 0.009654 0.039438 -0.032349 -0.027845
# 3 -0.001865 0.009654 0.019659 0.016594 -0.018525 -0.011871
# 4 0.004239 0.039438 0.016594 0.078283 -0.030541 -0.042204
# 5 -0.009670 -0.032349 -0.018525 -0.030541 0.057182 0.029432
# 6 -0.003821 -0.027845 -0.011871 -0.042204 0.029432 0.059546
#
#
# Mechanical properties :
#
#
# Convention : Reuss Voigt Hill
#
# Bulk Modulus (GPa) = 9.71801 58.61268 34.16535
# Shear Modulus (GPa) = 17.20767 36.68244 26.94506
#
# Velocity S-wave (km/s) = 2.72427 3.97757 3.40901
# Velocity P-wave (km/s) = 3.75325 6.80987 5.49824
#
# Compressibility (1/GPa) = 0.10290174
#
# Stress axis : x y z
#
# Youngs Moduli (GPa) = 96.22563 19.22025 50.86780
#
# Poissons Ratio (x) = -0.05041 0.09488
# Poissons Ratio (y) = -0.25237 -0.49106
# Poissons Ratio (z) = 0.17949 -0.18555
#
# Static dielectric constant tensor:
#      x y z
#    x 1.944270 0.060960 0.095720 
#    y 0.060960 1.889400 -0.006790 
#    z 0.095720 -0.006790 1.942010 
# 
# From -- ./inp_files/434458.got.cif
#   From: 2010.05.17/outbox.cif.g08.bks.cpg/sg2_218_cif.got.tgz:434458.got - 2010.06.03 11:33:40.
