data_PCOD9071201
_publ_section_title
;
Structure prediction by ZEFSAII (Michael W. Deem and Ramdas Pophale) SiO2 
 PCOD9071201
Probable space group: P -1
;
_chemical_formula_sum "Si O2"
_cell_formula_units_Z 14
_cell_length_a 17.169644
_cell_length_b 15.181173
_cell_length_c 4.879813
_cell_angle_alpha 67.518017
_cell_angle_beta 67.901222
_cell_angle_gamma 26.579285
_cell_volume 524.057833
_symmetry_space_group_name_H-M "P -1"
_symmetry_group_IT_number 2
_symmetry_cell_setting 'triclinic'
loop_
_space_group_symop_operation_xyz
x,y,z
-x,-y,-z
loop_
_atom_site_type_symbol
_atom_site_label
_atom_site_fract_x
_atom_site_fract_y
_atom_site_fract_z
Si Si1 0.074916 0.714754 0.112490
Si Si2 0.600654 0.012329 0.138561
Si Si3 0.437350 0.671405 0.379539
Si Si4 0.097599 0.263805 0.317712
Si Si5 0.459538 0.312549 0.280725
Si Si6 0.750970 0.694943 0.038743
Si Si7 0.034690 0.065060 0.520278
O O1 0.267971 0.488710 0.199012
O O2 0.943178 0.767257 0.347146
O O3 0.050276 0.832903 0.195162
O O4 0.038312 0.782452 0.772928
O O5 0.416069 0.186601 0.017666
O O6 0.748487 0.920371 0.874268
O O7 0.560633 0.112235 0.343677
O O8 0.677226 0.828771 0.238649
O O9 0.500000 0.500000 0.500000
O O10 0.240815 0.869506 0.508793
O O11 0.545433 0.633746 0.481392
O O12 0.449294 0.701667 0.023742
O O13 0.911387 0.468423 0.172768
O O14 0.164862 0.303405 0.257009
O O15 0.000000 0.000000 0.500000
#
# Coordination Sequence:
#
# PCOD9071201 Si02
#       7
#     2   2   2   2   2   2   2
#     4  12  26  45  76 112 152 195 255 315 375 460
#     4   9  19  41  73 108 156 202 264 307 391 439
#     4  12  27  51  77 108 149 197 247 313 390 458
#     4   9  19  41  73 108 156 202 264 307 391 439
#     4  12  26  45  76 112 152 195 255 315 375 460
#     4   8  18  40  78 102 160 208 254 322 376 460
#     4  12  27  51  77 108 149 197 247 313 390 458
#
# _framework density 26.714608999999999
#
# number of rings (size 3 to 8) (size 9 to 14) (size 15 to 20)
#    0.857    0.571    0.000    5.143    4.000    0.000 
#    0.000    1.429    0.000    0.000    0.000    0.000 
#    0.000    0.000    0.000    0.000    0.000    0.000 
#
# Total GULP energy -78507.020654 kJ/mol
# GULP energy per Si atom -5607.644332 kJ/mol
# Density = 2.665381 g / cm^3
# Si number density = 26.714609 Si / 1000 Ang^3
#
#
#
# Elastic Constant Matrix: (Units=GPa)
#
#
# Indices 1 2 3 4 5 6 
#
# 1 127.5671 66.3817 40.4185 -13.2036 6.6944 6.6435
# 2 66.3817 163.8873 12.6715 0.8640 5.2057 -3.4865
# 3 40.4185 12.6715 72.1416 -6.8237 6.2108 15.0706
# 4 -13.2036 0.8640 -6.8237 28.7789 2.9849 -3.3455
# 5 6.6944 5.2057 6.2108 2.9849 48.8519 -6.3925
# 6 6.6435 -3.4865 15.0706 -3.3455 -6.3925 68.1655
#
#
#
# Elastic Compliance Matrix: (Units=1/GPa)
#
#
# Indices 1 2 3 4 5 6 
#
# 1 0.012604 -0.004663 -0.005725 0.004642 -0.000792 -0.000048
# 2 -0.004663 0.007946 0.000917 -0.002084 -0.000126 0.000544
# 3 -0.005725 0.000917 0.017957 0.001419 -0.002140 -0.003496
# 4 0.004642 -0.002084 0.001419 0.037650 -0.002802 0.000712
# 5 -0.000792 -0.000126 -0.002140 -0.002802 0.021350 0.002409
# 6 -0.000048 0.000544 -0.003496 0.000712 0.002409 0.015736
#
#
# Mechanical properties :
#
#
# Convention : Reuss Voigt Hill
#
# Bulk Modulus (GPa) = 51.11337 66.94883 59.03110
# Shear Modulus (GPa) = 36.04695 45.43422 40.74058
#
# Velocity S-wave (km/s) = 3.67731 4.12846 3.90940
# Velocity P-wave (km/s) = 6.09958 6.91670 6.52095
#
# Compressibility (1/GPa) = 0.01956435
#
# Stress axis : x y z
#
# Youngs Moduli (GPa) = 79.34081 125.84851 55.68800
#
# Poissons Ratio (x) = 0.58680 0.31883
# Poissons Ratio (y) = 0.36995 -0.05105
# Poissons Ratio (z) = 0.45425 -0.11537
#
# Static dielectric constant tensor:
#      x y z
#    x 2.120570 0.019160 -0.002800 
#    y 0.019160 2.037500 -0.008440 
#    z -0.002800 -0.008440 2.073910 
# 
# From -- ./inp_files/110455.got.cif
#   From: 2010.05.17/outbox.cif.g08.bks.cpg/sg2_56_cif.got.tgz:110455.got - 2010.06.03 11:33:40.
