data_PCOD9071054
_publ_section_title
;
Structure prediction by ZEFSAII (Michael W. Deem and Ramdas Pophale) SiO2 
 PCOD9071054
Probable space group: P -1
;
_chemical_formula_sum "Si O2"
_cell_formula_units_Z 14
_cell_length_a 9.445328
_cell_length_b 8.642983
_cell_length_c 14.651953
_cell_angle_alpha 137.530753
_cell_angle_beta 113.352581
_cell_angle_gamma 50.016955
_cell_volume 611.824560
_symmetry_space_group_name_H-M "P -1"
_symmetry_group_IT_number 2
_symmetry_cell_setting 'triclinic'
loop_
_space_group_symop_operation_xyz
x,y,z
-x,-y,-z
loop_
_atom_site_type_symbol
_atom_site_label
_atom_site_fract_x
_atom_site_fract_y
_atom_site_fract_z
Si Si1 0.847118 0.568858 0.417115
Si Si2 0.175924 0.730417 0.881879
Si Si3 0.395578 0.161501 0.791863
Si Si4 0.007347 0.627029 0.153104
Si Si5 0.650788 0.951360 0.943943
Si Si6 0.509139 0.652165 0.479219
Si Si7 0.142948 0.919054 0.415023
O O1 0.902442 0.373406 0.259359
O O2 0.689097 0.551278 0.419845
O O3 0.000000 0.500000 0.500000
O O4 0.813436 0.852289 0.493438
O O5 0.314873 0.470958 0.870091
O O6 0.293441 0.840912 0.921386
O O7 0.000000 0.000000 0.000000
O O8 0.205292 0.200610 0.793496
O O9 0.550056 0.043365 0.859477
O O10 0.468934 0.941724 0.633539
O O11 0.160156 0.359913 0.136557
O O12 0.070613 0.837258 0.273812
O O13 0.000000 0.500000 0.000000
O O14 0.500000 0.000000 0.000000
O O15 0.500000 0.500000 0.500000
O O16 0.348732 0.666226 0.384963
O O17 0.000000 0.000000 0.500000
#
# Coordination Sequence:
#
# PCOD9071054 Si02
#       7
#     2   2   2   2   2   2   2
#     4  12  30  48  78 117 154 208 265 324 399 471
#     4  12  28  51  77 112 162 204 258 327 395 469
#     4  12  26  50  77 113 155 208 261 324 395 469
#     4  12  26  46  78 114 155 200 258 324 393 462
#     4  12  28  46  78 113 152 205 262 316 396 465
#     4  12  27  48  81 109 158 203 267 324 394 469
#     4  12  25  49  77 108 152 200 255 317 391 467
#
# _framework density 22.882377000000002
#
# number of rings (size 3 to 8) (size 9 to 14) (size 15 to 20)
#    0.000    0.000    5.714    2.571    8.000    0.000 
#    0.000    0.000    0.000    0.000    0.000    0.000 
#    0.000    0.000    0.000    0.000    0.000    0.000 
#
# Total GULP energy -78221.350782 kJ/mol
# GULP energy per Si atom -5587.239342 kJ/mol
# Density = 2.283030 g / cm^3
# Si number density = 22.882377 Si / 1000 Ang^3
#
#
#
# Elastic Constant Matrix: (Units=GPa)
#
#
# Indices 1 2 3 4 5 6 
#
# 1 125.0438 19.4937 30.3769 -5.8223 15.1909 1.7249
# 2 19.4937 115.1554 46.0563 -12.0279 3.1338 -8.1343
# 3 30.3769 46.0563 163.3493 -14.8659 13.7706 -3.6946
# 4 -5.8223 -12.0279 -14.8659 37.5973 -2.5019 10.6058
# 5 15.1909 3.1338 13.7706 -2.5019 46.6988 4.7167
# 6 1.7249 -8.1343 -3.6946 10.6058 4.7167 38.1245
#
#
#
# Elastic Compliance Matrix: (Units=1/GPa)
#
#
# Indices 1 2 3 4 5 6 
#
# 1 0.008739 -0.000945 -0.001117 0.000618 -0.002358 -0.000585
# 2 -0.000945 0.010122 -0.002517 0.001711 0.000316 0.001444
# 3 -0.001117 -0.002517 0.007333 0.001849 -0.001521 -0.000102
# 4 0.000618 0.001711 0.001849 0.030370 0.001587 -0.008129
# 5 -0.002358 0.000316 -0.001521 0.001587 0.023023 -0.003263
# 6 -0.000585 0.001444 -0.000102 -0.008129 -0.003263 0.029220
#
#
# Mechanical properties :
#
#
# Convention : Reuss Voigt Hill
#
# Bulk Modulus (GPa) = 58.69465 66.15581 62.42523
# Shear Modulus (GPa) = 40.43862 44.99224 42.71543
#
# Velocity S-wave (km/s) = 4.20841 4.43904 4.32527
# Velocity P-wave (km/s) = 7.02286 7.43286 7.23077
#
# Compressibility (1/GPa) = 0.01703733
#
# Stress axis : x y z
#
# Youngs Moduli (GPa) = 114.42743 98.78994 136.36478
#
# Poissons Ratio (x) = 0.09339 0.15230
# Poissons Ratio (y) = 0.10818 0.34317
# Poissons Ratio (z) = 0.12780 0.24861
#
# Static dielectric constant tensor:
#      x y z
#    x 2.329970 0.670640 0.406080 
#    y 0.670640 3.160590 0.824230 
#    z 0.406080 0.824230 2.392580 
# 
# From -- ./inp_files/494127.got.cif
#   From: 2010.05.17/outbox.cif.g08.bks.cpg/sg2_248_cif.got.tgz:494127.got - 2010.06.03 11:33:40.
