data_PCOD9071817
_publ_section_title
;
Structure prediction by ZEFSAII (Michael W. Deem and Ramdas Pophale) SiO2 
 PCOD9071817
Probable space group: P -1
;
_chemical_formula_sum "Si O2"
_cell_formula_units_Z 16
_cell_length_a 25.154941
_cell_length_b 19.472234
_cell_length_c 11.952823
_cell_angle_alpha 30.935588
_cell_angle_beta 29.767382
_cell_angle_gamma 19.307842
_cell_volume 934.270943
_symmetry_space_group_name_H-M "P -1"
_symmetry_group_IT_number 2
_symmetry_cell_setting 'triclinic'
loop_
_space_group_symop_operation_xyz
x,y,z
-x,-y,-z
loop_
_atom_site_type_symbol
_atom_site_label
_atom_site_fract_x
_atom_site_fract_y
_atom_site_fract_z
Si Si1 0.355081 0.690735 0.151068
Si Si2 0.003112 0.677992 0.627795
Si Si3 0.048146 0.575837 0.946950
Si Si4 0.390557 0.548247 0.530993
Si Si5 0.632294 0.571897 0.668669
Si Si6 0.429458 0.145813 0.778490
Si Si7 0.992758 0.126857 0.244864
Si Si8 0.626376 0.068741 0.722369
O O1 0.378526 0.650117 0.298241
O O2 0.363016 0.538472 0.288683
O O3 0.167599 0.934180 0.127236
O O4 0.503725 0.636258 0.903450
O O5 0.988622 0.677581 0.789662
O O6 0.175082 0.592167 0.410765
O O7 0.825358 0.912414 0.583241
O O8 0.016977 0.511375 0.791259
O O9 0.253589 0.363456 0.856727
O O10 0.002305 0.735080 0.895274
O O11 0.500000 0.500000 0.500000
O O12 0.495670 0.315762 0.627257
O O13 0.193975 0.707041 0.701749
O O14 0.569757 0.774152 0.449643
O O15 0.585609 0.035099 0.726936
O O16 0.411705 0.003739 0.009967
O O17 0.000000 0.000000 0.500000
#
# Coordination Sequence:
#
# PCOD9071817 Si02
#       8
#     2   2   2   2   2   2   2   2
#     4  10  22  37  56  73 101 149 176 208 258 311
#     4   9  18  28  53  80 102 134 170 220 256 294
#     4   9  16  31  50  77 104 132 178 215 252 301
#     4  11  22  34  53  81 110 130 169 221 260 309
#     4  10  19  39  55  74 105 136 186 211 245 317
#     4   9  16  32  55  77 103 134 170 218 258 300
#     4  10  19  34  52  72 103 139 177 211 255 306
#     4  10  18  29  52  85 104 129 167 214 273 294
#
# _framework density 17.125651999999999
#
# number of rings (size 3 to 8) (size 9 to 14) (size 15 to 20)
#    0.000    2.250    2.500    3.000    5.250    0.000 
#    0.000    2.500    0.000    0.750    0.000    0.000 
#    0.000    0.000    0.000    0.000    0.000    0.000 
#
# Total GULP energy -89130.779619 kJ/mol
# GULP energy per Si atom -5570.673726 kJ/mol
# Density = 1.708667 g / cm^3
# Si number density = 17.125652 Si / 1000 Ang^3
#
#
#
# Elastic Constant Matrix: (Units=GPa)
#
#
# Indices 1 2 3 4 5 6 
#
# 1 74.8514 30.7251 22.4201 14.8934 -11.2598 -20.8249
# 2 30.7251 86.3486 35.5148 14.4761 -1.2759 -29.9658
# 3 22.4201 35.5148 80.2415 16.5560 -10.8113 -10.1574
# 4 14.8934 14.4761 16.5560 28.2313 -6.6055 -8.4654
# 5 -11.2598 -1.2759 -10.8113 -6.6055 18.3237 3.4095
# 6 -20.8249 -29.9658 -10.1574 -8.4654 3.4095 34.2319
#
#
#
# Elastic Compliance Matrix: (Units=1/GPa)
#
#
# Indices 1 2 3 4 5 6 
#
# 1 0.018803 -0.003189 -0.001148 -0.003749 0.008080 0.006575
# 2 -0.003189 0.021002 -0.007177 -0.002468 -0.008326 0.014534
# 3 -0.001148 -0.007177 0.017653 -0.005353 0.007999 -0.003864
# 4 -0.003749 -0.002468 -0.005353 0.045393 0.009947 0.004205
# 5 0.008080 -0.008326 0.007999 0.009947 0.068069 -0.004319
# 6 0.006575 0.014534 -0.003864 0.004205 -0.004319 0.046259
#
#
# Mechanical properties :
#
#
# Convention : Reuss Voigt Hill
#
# Bulk Modulus (GPa) = 29.04420 46.52906 37.78663
# Shear Modulus (GPa) = 19.86619 26.34282 23.10451
#
# Velocity S-wave (km/s) = 3.40961 3.92626 3.67702
# Velocity P-wave (km/s) = 5.70060 6.91246 6.33558
#
# Compressibility (1/GPa) = 0.03443028
#
# Stress axis : x y z
#
# Youngs Moduli (GPa) = 53.18197 47.61416 56.64741
#
# Poissons Ratio (x) = 0.15184 0.06502
# Poissons Ratio (y) = 0.16960 0.40658
# Poissons Ratio (z) = 0.06104 0.34174
#
# Static dielectric constant tensor:
#      x y z
#    x 1.609830 -0.016260 -0.020870 
#    y -0.016260 1.595130 -0.010970 
#    z -0.020870 -0.010970 1.600750 
# 
# From -- ./inp_files/252688.got.cif
#   From: 2010.05.17/outbox.cif.g08.bks.cpg/sg2_127_cif.got.tgz:252688.got - 2010.06.03 11:33:40.
