data_PCOD9071598
_publ_section_title
;
Structure prediction by ZEFSAII (Michael W. Deem and Ramdas Pophale) SiO2 
 PCOD9071598
Probable space group: P -1
;
_chemical_formula_sum "Si O2"
_cell_formula_units_Z 16
_cell_length_a 18.074587
_cell_length_b 9.572821
_cell_length_c 6.989661
_cell_angle_alpha 57.966600
_cell_angle_beta 39.102751
_cell_angle_gamma 50.415410
_cell_volume 586.251173
_symmetry_space_group_name_H-M "P -1"
_symmetry_group_IT_number 2
_symmetry_cell_setting 'triclinic'
loop_
_space_group_symop_operation_xyz
x,y,z
-x,-y,-z
loop_
_atom_site_type_symbol
_atom_site_label
_atom_site_fract_x
_atom_site_fract_y
_atom_site_fract_z
Si Si1 0.116901 0.300633 0.790412
Si Si2 0.658605 0.694781 0.409867
Si Si3 0.496390 0.309533 0.633826
Si Si4 0.851764 0.338358 0.245970
Si Si5 0.094273 0.622437 0.316702
Si Si6 0.833138 0.974010 0.622777
Si Si7 0.462123 0.908273 0.960832
Si Si8 0.217955 0.905371 0.925147
O O1 0.216122 0.283235 0.775537
O O2 0.124612 0.441354 0.512888
O O3 0.157548 0.092632 0.786508
O O4 0.971098 0.344644 0.120796
O O5 0.711246 0.476980 0.502147
O O6 0.544200 0.846257 0.649288
O O7 0.689898 0.001598 0.834040
O O8 0.500000 0.500000 0.500000
O O9 0.631856 0.173884 0.367980
O O10 0.390444 0.289239 0.722159
O O11 0.490290 0.282904 0.890343
O O12 0.862194 0.136195 0.351303
O O13 0.872661 0.417724 0.944168
O O14 0.174505 0.741738 0.112861
O O15 0.946381 0.774502 0.514466
O O16 0.823224 0.028176 0.826031
O O17 0.500000 0.000000 0.000000
#
# Coordination Sequence:
#
# PCOD9071598 Si02
#       8
#     2   2   2   2   2   2   2   2
#     4  12  30  51  82 123 168 223 280 354 426 502
#     4  12  29  51  84 121 170 220 290 351 428 519
#     4  12  29  53  85 119 168 228 282 354 430 513
#     4  12  28  52  83 121 170 224 283 357 425 507
#     4  12  28  51  85 124 170 223 286 353 429 510
#     4  12  27  51  86 119 168 224 283 354 428 508
#     4  12  30  52  83 122 168 222 285 355 429 511
#     4  12  27  52  83 122 171 221 286 349 432 507
#
# _framework density 27.292052999999999
#
# number of rings (size 3 to 8) (size 9 to 14) (size 15 to 20)
#    0.000    0.000    2.500    5.250   14.000    2.000 
#    0.000    0.000    0.000    0.000    0.000    0.000 
#    0.000    0.000    0.000    0.000    0.000    0.000 
#
# Total GULP energy -89542.385046 kJ/mol
# GULP energy per Si atom -5596.399065 kJ/mol
# Density = 2.722994 g / cm^3
# Si number density = 27.292053 Si / 1000 Ang^3
#
#
#
# Elastic Constant Matrix: (Units=GPa)
#
#
# Indices 1 2 3 4 5 6 
#
# 1 185.0848 46.5175 64.3297 -0.7286 -31.2473 -13.5708
# 2 46.5175 134.4378 78.9965 -14.2845 -1.0553 -12.8854
# 3 64.3297 78.9965 114.8228 -13.4888 -4.3236 -14.9417
# 4 -0.7286 -14.2845 -13.4888 77.6193 1.3195 -6.2822
# 5 -31.2473 -1.0553 -4.3236 1.3195 37.6208 -3.7256
# 6 -13.5708 -12.8854 -14.9417 -6.2822 -3.7256 48.6672
#
#
#
# Elastic Compliance Matrix: (Units=1/GPa)
#
#
# Indices 1 2 3 4 5 6 
#
# 1 0.008023 -0.000377 -0.003900 -0.000672 0.006361 0.001340
# 2 -0.000377 0.012601 -0.008282 0.000951 -0.000871 0.000744
# 3 -0.003900 -0.008282 0.016991 0.001580 -0.001373 0.002035
# 4 -0.000672 0.000951 0.001580 0.013519 -0.000601 0.002249
# 5 0.006361 -0.000871 -0.001373 -0.000601 0.032050 0.003497
# 6 0.001340 0.000744 0.002035 0.002249 0.003497 0.022301
#
#
# Mechanical properties :
#
#
# Convention : Reuss Voigt Hill
#
# Bulk Modulus (GPa) = 80.02872 90.44808 85.23840
# Shear Modulus (GPa) = 37.10023 49.08159 43.09091
#
# Velocity S-wave (km/s) = 3.69097 4.24534 3.97782
# Velocity P-wave (km/s) = 6.89573 7.56593 7.23859
#
# Compressibility (1/GPa) = 0.01249551
#
# Stress axis : x y z
#
# Youngs Moduli (GPa) = 124.64306 79.35732 58.85439
#
# Poissons Ratio (x) = 0.02993 0.22955
# Poissons Ratio (y) = 0.04701 0.48745
# Poissons Ratio (z) = 0.48615 0.65727
#
# Static dielectric constant tensor:
#      x y z
#    x 2.134950 -0.009910 0.026390 
#    y -0.009910 2.300190 -0.127760 
#    z 0.026390 -0.127760 2.458020 
# 
# From -- ./inp_files/358575.got.cif
#   From: 2010.05.17/outbox.cif.g08.bks.cpg/sg2_180_cif.got.tgz:358575.got - 2010.06.03 11:33:40.
