data_PCOD9071139
_publ_section_title
;
Structure prediction by ZEFSAII (Michael W. Deem and Ramdas Pophale) SiO2 
 PCOD9071139
Probable space group: P -1
;
_chemical_formula_sum "Si O2"
_cell_formula_units_Z 10
_cell_length_a 10.681408
_cell_length_b 11.357211
_cell_length_c 7.116508
_cell_angle_alpha 41.441127
_cell_angle_beta 48.715299
_cell_angle_gamma 38.693317
_cell_volume 351.329688
_symmetry_space_group_name_H-M "P -1"
_symmetry_group_IT_number 2
_symmetry_cell_setting 'triclinic'
loop_
_space_group_symop_operation_xyz
x,y,z
-x,-y,-z
loop_
_atom_site_type_symbol
_atom_site_label
_atom_site_fract_x
_atom_site_fract_y
_atom_site_fract_z
Si Si1 0.596713 0.056734 0.216723
Si Si2 0.050077 0.668519 0.194271
Si Si3 0.039367 0.773597 0.669120
Si Si4 0.608305 0.450274 0.713784
Si Si5 0.590714 0.048610 0.718526
O O1 0.533736 0.056822 0.521292
O O2 0.842974 0.902975 0.165780
O O3 0.522167 0.304677 0.976050
O O4 0.575586 0.019992 0.023456
O O5 0.000000 0.500000 0.500000
O O6 0.249130 0.615766 0.164747
O O7 0.076567 0.647946 0.971934
O O8 0.225216 0.641441 0.505567
O O9 0.825225 0.847062 0.706817
O O10 0.000000 0.000000 0.500000
O O11 0.463552 0.708280 0.517703
#
# Coordination Sequence:
#
# PCOD9071139 Si02
#       5
#     2   2   2   2   2
#     4  12  27  48  78 115 154 207 269 324 392 472
#     4  12  25  51  77 117 158 205 265 322 397 476
#     4  12  27  50  82 113 159 207 265 325 398 473
#     4  12  28  53  82 111 166 212 257 335 399 461
#     4  12  26  51  76 119 157 200 272 321 392 483
#
# _framework density 28.463291999999999
#
# number of rings (size 3 to 8) (size 9 to 14) (size 15 to 20)
#    0.000    0.000    6.000    1.800    2.800   10.400 
#    0.000    0.000    0.000    0.000    0.000    0.000 
#    0.000    0.000    0.000    0.000    0.000    0.000 
#
# Total GULP energy -56115.027779 kJ/mol
# GULP energy per Si atom -5611.502778 kJ/mol
# Density = 2.839851 g / cm^3
# Si number density = 28.463292 Si / 1000 Ang^3
#
#
#
# Elastic Constant Matrix: (Units=GPa)
#
#
# Indices 1 2 3 4 5 6 
#
# 1 139.8412 35.8078 51.0141 -21.1549 18.3452 3.7468
# 2 35.8078 175.7640 79.9907 4.0684 3.9755 -1.0752
# 3 51.0141 79.9907 264.3707 1.5003 2.5363 5.9718
# 4 -21.1549 4.0684 1.5003 59.4460 1.1954 5.3125
# 5 18.3452 3.9755 2.5363 1.1954 48.7459 -0.5990
# 6 3.7468 -1.0752 5.9718 5.3125 -0.5990 52.5922
#
#
#
# Elastic Compliance Matrix: (Units=1/GPa)
#
#
# Indices 1 2 3 4 5 6 
#
# 1 0.008921 -0.001229 -0.001317 0.003438 -0.003284 -0.000896
# 2 -0.001229 0.006794 -0.001826 -0.000904 0.000032 0.000525
# 3 -0.001317 -0.001826 0.004597 -0.000431 0.000411 -0.000417
# 4 0.003438 -0.000904 -0.000431 0.018338 -0.001673 -0.002086
# 5 -0.003284 0.000032 0.000411 -0.001673 0.021775 0.000605
# 6 -0.000896 0.000525 -0.000417 -0.002086 0.000605 0.019354
#
#
# Mechanical properties :
#
#
# Convention : Reuss Voigt Hill
#
# Bulk Modulus (GPa) = 86.44001 101.51122 93.97562
# Shear Modulus (GPa) = 54.12482 59.70102 56.91292
#
# Velocity S-wave (km/s) = 4.36543 4.58479 4.47645
# Velocity P-wave (km/s) = 7.47289 7.98551 7.73345
#
# Compressibility (1/GPa) = 0.01156872
#
# Stress axis : x y z
#
# Youngs Moduli (GPa) = 112.09343 147.18828 217.52852
#
# Poissons Ratio (x) = 0.18085 0.28659
# Poissons Ratio (y) = 0.13773 0.39713
# Poissons Ratio (z) = 0.14768 0.26871
#
# Static dielectric constant tensor:
#      x y z
#    x 2.595830 0.307630 0.792090 
#    y 0.307630 2.408870 0.571280 
#    z 0.792090 0.571280 3.461960 
# 
# From -- ./inp_files/15109.got.cif
#   From: 2010.05.17/outbox.cif.g08.bks.cpg/sg2_8_cif.got.tgz:15109.got - 2010.06.03 11:33:40.
