data_PCOD9071076
_publ_section_title
;
Structure prediction by ZEFSAII (Michael W. Deem and Ramdas Pophale) SiO2 
 PCOD9071076
Probable space group: P -1
;
_chemical_formula_sum "Si O2"
_cell_formula_units_Z 14
_cell_length_a 5.774148
_cell_length_b 11.807720
_cell_length_c 12.268139
_cell_angle_alpha 50.091705
_cell_angle_beta 64.505172
_cell_angle_gamma 75.138169
_cell_volume 578.896292
_symmetry_space_group_name_H-M "P -1"
_symmetry_group_IT_number 2
_symmetry_cell_setting 'triclinic'
loop_
_space_group_symop_operation_xyz
x,y,z
-x,-y,-z
loop_
_atom_site_type_symbol
_atom_site_label
_atom_site_fract_x
_atom_site_fract_y
_atom_site_fract_z
Si Si1 0.552994 0.792504 0.736389
Si Si2 0.522195 0.680322 0.588779
Si Si3 0.963195 0.675712 0.903170
Si Si4 0.667623 0.120362 0.822034
Si Si5 0.693521 0.632692 0.197241
Si Si6 0.787183 0.073148 0.576504
Si Si7 0.069945 0.358239 0.645961
O O1 0.658058 0.757435 0.616375
O O2 0.751886 0.722752 0.826219
O O3 0.256446 0.737722 0.816504
O O4 0.546902 0.964254 0.661432
O O5 0.463754 0.508341 0.729161
O O6 0.265679 0.766021 0.558669
O O7 0.689110 0.692960 0.440112
O O8 0.829293 0.714094 0.020438
O O9 0.000000 0.500000 0.000000
O O10 0.476173 0.256692 0.768560
O O11 0.782494 0.074204 0.709107
O O12 0.893867 0.209901 0.784439
O O13 0.500000 0.000000 0.000000
O O14 0.888658 0.577678 0.281787
O O15 0.000000 0.000000 0.500000
O O16 0.000000 0.500000 0.500000
#
# Coordination Sequence:
#
# PCOD9071076 Si02
#       7
#     2   2   2   2   2   2   2
#     4  12  28  50  78 115 161 210 270 332 411 484
#     4  12  25  49  80 115 152 209 272 337 399 491
#     4  12  28  48  79 115 161 211 265 338 409 489
#     4  12  28  50  77 117 162 211 265 338 411 486
#     4  12  27  48  78 114 157 203 272 330 408 484
#     4  12  27  51  80 116 164 213 275 336 413 491
#     4  12  26  45  82 113 155 206 267 335 407 483
#
# _framework density 24.183954
#
# number of rings (size 3 to 8) (size 9 to 14) (size 15 to 20)
#    0.000    0.000    4.286    4.714    6.000    2.857 
#    0.000    0.000    0.000    0.000    0.000    0.000 
#    0.000    0.000    0.000    0.000    0.000    0.000 
#
# Total GULP energy -78134.231275 kJ/mol
# GULP energy per Si atom -5581.016520 kJ/mol
# Density = 2.412891 g / cm^3
# Si number density = 24.183954 Si / 1000 Ang^3
#
#
#
# Elastic Constant Matrix: (Units=GPa)
#
#
# Indices 1 2 3 4 5 6 
#
# 1 92.8784 21.3453 32.3488 13.4928 4.5551 -5.7985
# 2 21.3453 113.4218 18.7637 12.4323 7.0319 3.1772
# 3 32.3488 18.7637 76.3245 16.9508 9.3695 -10.6352
# 4 13.4928 12.4323 16.9508 57.6487 13.0498 -3.5237
# 5 4.5551 7.0319 9.3695 13.0498 51.3321 4.6571
# 6 -5.7985 3.1772 -10.6352 -3.5237 4.6571 42.7598
#
#
#
# Elastic Compliance Matrix: (Units=1/GPa)
#
#
# Indices 1 2 3 4 5 6 
#
# 1 0.013004 -0.001539 -0.004790 -0.001318 0.000216 0.000554
# 2 -0.001539 0.009565 -0.001561 -0.001224 -0.000454 -0.001359
# 3 -0.004790 -0.001561 0.016906 -0.002823 -0.002062 0.003663
# 4 -0.001318 -0.001224 -0.002823 0.019816 -0.004357 0.001318
# 5 0.000216 -0.000454 -0.002062 -0.004357 0.021292 -0.003128
# 6 0.000554 -0.001359 0.003663 0.001318 -0.003128 0.024923
#
#
# Mechanical properties :
#
#
# Convention : Reuss Voigt Hill
#
# Bulk Modulus (GPa) = 42.20192 47.50449 44.85321
# Shear Modulus (GPa) = 38.70439 44.35924 41.53181
#
# Velocity S-wave (km/s) = 4.00486 4.28745 4.14856
# Velocity P-wave (km/s) = 6.23486 6.64795 6.44472
#
# Compressibility (1/GPa) = 0.02369560
#
# Stress axis : x y z
#
# Youngs Moduli (GPa) = 76.89766 104.54853 59.15012
#
# Poissons Ratio (x) = 0.16094 0.28331
# Poissons Ratio (y) = 0.11837 0.09232
# Poissons Ratio (z) = 0.36831 0.16318
#
# Static dielectric constant tensor:
#      x y z
#    x 2.420420 -0.182660 -0.015830 
#    y -0.182660 2.000900 0.001910 
#    z -0.015830 0.001910 1.944250 
# 
# From -- ./inp_files/363631.got.cif
#   From: 2010.05.17/outbox.cif.g08.bks.cpg/sg2_182_cif.got.tgz:363631.got - 2010.06.03 11:33:40.
