data_PCOD9071535
_publ_section_title
;
Structure prediction by ZEFSAII (Michael W. Deem and Ramdas Pophale) SiO2 
 PCOD9071535
Probable space group: P -1
;
_chemical_formula_sum "Si O2"
_cell_formula_units_Z 12
_cell_length_a 11.995978
_cell_length_b 5.330990
_cell_length_c 11.742339
_cell_angle_alpha 98.607997
_cell_angle_beta 48.527176
_cell_angle_gamma 121.603128
_cell_volume 455.709249
_symmetry_space_group_name_H-M "P -1"
_symmetry_group_IT_number 2
_symmetry_cell_setting 'triclinic'
loop_
_space_group_symop_operation_xyz
x,y,z
-x,-y,-z
loop_
_atom_site_type_symbol
_atom_site_label
_atom_site_fract_x
_atom_site_fract_y
_atom_site_fract_z
Si Si1 0.096757 0.822042 0.392888
Si Si2 0.512430 0.905938 0.744934
Si Si3 0.044961 0.030775 0.223429
Si Si4 0.334006 0.142365 0.578117
Si Si5 0.833279 0.135524 0.081148
Si Si6 0.599024 0.367249 0.987686
O O1 0.000000 0.500000 0.500000
O O2 0.299511 0.966164 0.308267
O O3 0.087669 0.835131 0.263056
O O4 0.000000 0.000000 0.500000
O O5 0.578812 0.977204 0.574286
O O6 0.352812 0.957368 0.862995
O O7 0.404997 0.588822 0.869735
O O8 0.192469 0.392758 0.174754
O O9 0.837552 0.903640 0.373516
O O10 0.075941 0.985983 0.068681
O O11 0.500000 0.500000 0.500000
O O12 0.244156 0.981803 0.747416
O O13 0.000000 0.500000 0.000000
O O14 0.500000 0.500000 0.000000
O O15 0.500000 0.000000 0.000000
#
# Coordination Sequence:
#
# PCOD9071535 Si02
#       6
#     2   2   2   2   2   2
#     4  12  30  49  82 126 165 214 271 352 435 489
#     4  12  27  47  82 113 167 206 281 338 420 493
#     4  12  27  52  82 118 174 215 282 351 421 503
#     4  12  27  49  78 114 163 222 283 341 413 496
#     4  12  28  50  80 119 165 227 282 343 415 500
#     4  12  27  48  78 123 164 211 267 337 426 501
#
# _framework density 26.332581999999999
#
# number of rings (size 3 to 8) (size 9 to 14) (size 15 to 20)
#    0.000    0.000    3.333    5.000    7.000    1.333 
#    0.000    0.000    0.000    0.000    0.000    0.000 
#    0.000    0.000    0.000    0.000    0.000    0.000 
#
# Total GULP energy -66938.582775 kJ/mol
# GULP energy per Si atom -5578.215231 kJ/mol
# Density = 2.627265 g / cm^3
# Si number density = 26.332582 Si / 1000 Ang^3
#
#
#
# Elastic Constant Matrix: (Units=GPa)
#
#
# Indices 1 2 3 4 5 6 
#
# 1 147.6416 34.7361 48.0057 -12.4353 -14.7938 -9.8260
# 2 34.7361 125.1695 59.4349 -31.3979 -15.5525 -13.3502
# 3 48.0057 59.4349 223.1527 -10.6556 2.9777 -3.7246
# 4 -12.4353 -31.3979 -10.6556 59.2661 2.3354 2.5624
# 5 -14.7938 -15.5525 2.9777 2.3354 92.5751 -7.6598
# 6 -9.8260 -13.3502 -3.7246 2.5624 -7.6598 33.3082
#
#
#
# Elastic Compliance Matrix: (Units=1/GPa)
#
#
# Indices 1 2 3 4 5 6 
#
# 1 0.007763 -0.000949 -0.001365 0.000744 0.001271 0.001992
# 2 -0.000949 0.011454 -0.002560 0.005150 0.002065 0.004103
# 3 -0.001365 -0.002560 0.005424 -0.000590 -0.000889 -0.000981
# 4 0.000744 0.005150 -0.000590 0.019592 0.000579 0.000844
# 5 0.001271 0.002065 -0.000889 0.000579 0.011676 0.003744
# 6 0.001992 0.004103 -0.000981 0.000844 0.003744 0.032941
#
#
# Mechanical properties :
#
#
# Convention : Reuss Voigt Hill
#
# Bulk Modulus (GPa) = 67.14539 86.70193 76.92366
# Shear Modulus (GPa) = 48.28002 60.61569 54.44785
#
# Velocity S-wave (km/s) = 4.28655 4.80305 4.55213
# Velocity P-wave (km/s) = 7.07486 7.98475 7.54354
#
# Compressibility (1/GPa) = 0.01489305
#
# Stress axis : x y z
#
# Youngs Moduli (GPa) = 128.81573 87.30647 184.36392
#
# Poissons Ratio (x) = 0.08284 0.25174
# Poissons Ratio (y) = 0.12222 0.47192
# Poissons Ratio (z) = 0.17590 0.22348
#
# Static dielectric constant tensor:
#      x y z
#    x 0.864200 1.160790 1.668140 
#    y 1.160790 1.141520 -1.226880 
#    z 1.668140 -1.226880 0.268590 
# 
# From -- ./inp_files/408436.got.cif
#   From: 2010.05.17/outbox.cif.g08.bks.cpg/sg2_205_cif.got.tgz:408436.got - 2010.06.03 11:33:40.
