data_PCOD9071062
_publ_section_title
;
Structure prediction by ZEFSAII (Michael W. Deem and Ramdas Pophale) SiO2 
 PCOD9071062
Probable space group: P -1
;
_chemical_formula_sum "Si O2"
_cell_formula_units_Z 14
_cell_length_a 9.401581
_cell_length_b 9.898439
_cell_length_c 26.245948
_cell_angle_alpha 153.815961
_cell_angle_beta 35.931646
_cell_angle_gamma 132.424929
_cell_volume 619.563172
_symmetry_space_group_name_H-M "P -1"
_symmetry_group_IT_number 2
_symmetry_cell_setting 'triclinic'
loop_
_space_group_symop_operation_xyz
x,y,z
-x,-y,-z
loop_
_atom_site_type_symbol
_atom_site_label
_atom_site_fract_x
_atom_site_fract_y
_atom_site_fract_z
Si Si1 0.557082 0.330153 0.871917
Si Si2 0.801613 0.645105 0.565465
Si Si3 0.747908 0.745018 0.160562
Si Si4 0.448088 0.676542 0.844708
Si Si5 0.585696 0.625987 0.356358
Si Si6 0.923064 0.684294 0.837475
Si Si7 0.003483 0.680604 0.700978
O O1 0.357371 0.226591 0.856959
O O2 0.683217 0.554016 0.877214
O O3 0.742963 0.007610 0.717795
O O4 0.500000 0.500000 0.000000
O O5 0.568443 0.489071 0.592191
O O6 0.000000 0.500000 0.500000
O O7 0.902242 0.573290 0.455311
O O8 0.581857 0.590721 0.196027
O O9 0.829973 0.056404 0.262413
O O10 0.000000 0.500000 0.000000
O O11 0.476961 0.527997 0.730159
O O12 0.704221 0.797596 0.821566
O O13 0.196603 0.945760 0.008056
O O14 0.869857 0.461888 0.230866
O O15 0.500000 0.000000 0.500000
O O16 0.031612 0.561272 0.709988
#
# Coordination Sequence:
#
# PCOD9071062 Si02
#       7
#     2   2   2   2   2   2   2
#     4  12  29  48  76 112 152 196 253 309 374 447
#     4  12  27  48  75 108 151 198 247 310 375 440
#     4  12  26  45  78 114 148 196 250 307 375 439
#     4  12  25  49  78 110 154 193 247 315 368 445
#     4  12  27  48  74 107 149 199 250 308 379 444
#     4  12  26  46  76 110 147 196 253 304 375 442
#     4  12  26  49  78 110 155 195 251 308 374 447
#
# _framework density 22.596567
#
# number of rings (size 3 to 8) (size 9 to 14) (size 15 to 20)
#    0.000    0.000    4.286    5.143    4.000    4.000 
#    0.000    0.000    0.000    0.000    0.000    0.000 
#    0.000    0.000    0.000    0.000    0.000    0.000 
#
# Total GULP energy -78252.080714 kJ/mol
# GULP energy per Si atom -5589.434337 kJ/mol
# Density = 2.254514 g / cm^3
# Si number density = 22.596567 Si / 1000 Ang^3
#
#
#
# Elastic Constant Matrix: (Units=GPa)
#
#
# Indices 1 2 3 4 5 6 
#
# 1 138.0684 16.0331 45.7889 8.0063 6.1121 0.5053
# 2 16.0331 114.2434 33.1247 -5.0225 16.6836 -5.4042
# 3 45.7889 33.1247 116.3266 2.0383 26.4313 -16.1760
# 4 8.0063 -5.0225 2.0383 34.9787 -5.2536 -1.2926
# 5 6.1121 16.6836 26.4313 -5.2536 34.1134 -8.3635
# 6 0.5053 -5.4042 -16.1760 -1.2926 -8.3635 39.9463
#
#
#
# Elastic Compliance Matrix: (Units=1/GPa)
#
#
# Indices 1 2 3 4 5 6 
#
# 1 0.008562 -0.000422 -0.003620 -0.001739 0.000839 -0.001512
# 2 -0.000422 0.009882 -0.001982 0.001170 -0.003056 -0.000063
# 3 -0.003620 -0.001982 0.012816 -0.001235 -0.007689 0.003318
# 4 -0.001739 0.001170 -0.001235 0.030167 0.005801 0.001871
# 5 0.000839 -0.003056 -0.007689 0.005801 0.038673 0.004747
# 6 -0.001512 -0.000063 0.003318 0.001871 0.004747 0.027442
#
#
# Mechanical properties :
#
#
# Convention : Reuss Voigt Hill
#
# Bulk Modulus (GPa) = 52.05725 62.05911 57.05818
# Shear Modulus (GPa) = 34.24769 40.05380 37.15075
#
# Velocity S-wave (km/s) = 3.89731 4.21475 4.05913
# Velocity P-wave (km/s) = 6.58329 7.15605 6.87564
#
# Compressibility (1/GPa) = 0.01920962
#
# Stress axis : x y z
#
# Youngs Moduli (GPa) = 116.79925 101.19256 78.02778
#
# Poissons Ratio (x) = 0.04274 0.28248
# Poissons Ratio (y) = 0.04934 0.15469
# Poissons Ratio (z) = 0.42284 0.20061
#
# Static dielectric constant tensor:
#      x y z
#    x 2.456650 -0.193460 -1.788810 
#    y -0.193460 2.009790 0.757820 
#    z -1.788810 0.757820 6.943020 
# 
# From -- ./inp_files/462265.got.cif
#   From: 2010.05.17/outbox.cif.g08.bks.cpg/sg2_232_cif.got.tgz:462265.got - 2010.06.03 11:33:40.
