data_PCOD9071364
_publ_section_title
;
Structure prediction by ZEFSAII (Michael W. Deem and Ramdas Pophale) SiO2 
 PCOD9071364
Probable space group: P -1
;
_chemical_formula_sum "Si O2"
_cell_formula_units_Z 10
_cell_length_a 9.240882
_cell_length_b 11.847279
_cell_length_c 8.193625
_cell_angle_alpha 110.364369
_cell_angle_beta 147.741974
_cell_angle_gamma 58.172802
_cell_volume 397.181023
_symmetry_space_group_name_H-M "P -1"
_symmetry_group_IT_number 2
_symmetry_cell_setting 'triclinic'
loop_
_space_group_symop_operation_xyz
x,y,z
-x,-y,-z
loop_
_atom_site_type_symbol
_atom_site_label
_atom_site_fract_x
_atom_site_fract_y
_atom_site_fract_z
Si Si1 0.269401 0.921113 0.586941
Si Si2 0.614756 0.855282 0.376236
Si Si3 0.706617 0.665406 0.079281
Si Si4 0.399437 0.497721 0.589117
Si Si5 0.853672 0.187915 0.911070
O O1 0.153450 0.855431 0.302358
O O2 0.365525 0.027015 0.650093
O O3 0.554232 0.797182 0.883421
O O4 0.000000 0.000000 0.500000
O O5 0.730986 0.723799 0.306315
O O6 0.279464 0.889030 0.136619
O O7 0.830771 0.827689 0.725043
O O8 0.037292 0.553934 0.279685
O O9 0.481644 0.598347 0.823888
O O10 0.500000 0.500000 0.500000
O O11 0.599182 0.344782 0.761263
#
# Coordination Sequence:
#
# PCOD9071364 Si02
#       5
#     2   2   2   2   2
#     4  12  27  51  80 110 152 202 254 306 367 455
#     4  12  28  48  74 117 153 194 244 313 379 440
#     4  12  27  48  79 110 150 197 253 302 372 445
#     4  12  26  48  79 110 148 195 255 308 365 451
#     4  12  28  48  78 110 153 197 247 313 379 432
#
# _framework density 25.177436
#
# number of rings (size 3 to 8) (size 9 to 14) (size 15 to 20)
#    0.000    0.000    2.000    7.200    2.800    8.000 
#    0.000    0.000    0.000    0.000    0.000    0.000 
#    0.000    0.000    0.000    0.000    0.000    0.000 
#
# Total GULP energy -56214.569440 kJ/mol
# GULP energy per Si atom -5621.456944 kJ/mol
# Density = 2.512013 g / cm^3
# Si number density = 25.177436 Si / 1000 Ang^3
#
#
#
# Elastic Constant Matrix: (Units=GPa)
#
#
# Indices 1 2 3 4 5 6 
#
# 1 91.7770 26.7377 10.0868 7.7945 2.7593 -10.5812
# 2 26.7377 115.3439 20.8333 3.3369 -19.8117 -0.1476
# 3 10.0868 20.8333 103.2390 5.8965 4.2411 -1.9352
# 4 7.7945 3.3369 5.8965 56.3196 -16.2914 -9.0556
# 5 2.7593 -19.8117 4.2411 -16.2914 36.7134 5.0402
# 6 -10.5812 -0.1476 -1.9352 -9.0556 5.0402 44.2572
#
#
#
# Elastic Compliance Matrix: (Units=1/GPa)
#
#
# Indices 1 2 3 4 5 6 
#
# 1 0.012620 -0.003563 -0.000152 -0.002271 -0.004276 0.003021
# 2 -0.003563 0.011182 -0.002369 0.002082 0.007687 -0.001368
# 3 -0.000152 -0.002369 0.010429 -0.001830 -0.003341 0.000418
# 4 -0.002271 0.002082 -0.001830 0.021669 0.010765 0.002592
# 5 -0.004276 0.007687 -0.003341 0.010765 0.037309 -0.003189
# 6 0.003021 -0.001368 0.000418 0.002592 -0.003189 0.024225
#
#
# Mechanical properties :
#
#
# Convention : Reuss Voigt Hill
#
# Bulk Modulus (GPa) = 45.32374 47.29728 46.31051
# Shear Modulus (GPa) = 36.50827 44.30485 40.40656
#
# Velocity S-wave (km/s) = 3.81207 4.19943 4.01043
# Velocity P-wave (km/s) = 6.11691 6.50692 6.31493
#
# Compressibility (1/GPa) = 0.02206349
#
# Stress axis : x y z
#
# Youngs Moduli (GPa) = 79.23661 89.43045 95.88928
#
# Poissons Ratio (x) = 0.31864 0.01458
# Poissons Ratio (y) = 0.28232 0.22714
# Poissons Ratio (z) = 0.01205 0.21184
#
# Static dielectric constant tensor:
#      x y z
#    x 1.973730 0.036540 -0.031320 
#    y 0.036540 1.999050 0.005730 
#    z -0.031320 0.005730 1.912410 
# 
# From -- ./inp_files/60813.got.cif
#   From: 2010.05.17/outbox.cif.g08.bks.cpg/sg2_31_cif.got.tgz:60813.got - 2010.06.03 11:33:40.
