data_PCOD9071015
_publ_section_title
;
Structure prediction by ZEFSAII (Michael W. Deem and Ramdas Pophale) SiO2 
 PCOD9071015
Probable space group: P -1
;
_chemical_formula_sum "Si O2"
_cell_formula_units_Z 16
_cell_length_a 16.873595
_cell_length_b 11.954844
_cell_length_c 8.694567
_cell_angle_alpha 39.607063
_cell_angle_beta 40.225838
_cell_angle_gamma 39.095454
_cell_volume 642.533635
_symmetry_space_group_name_H-M "P -1"
_symmetry_group_IT_number 2
_symmetry_cell_setting 'triclinic'
loop_
_space_group_symop_operation_xyz
x,y,z
-x,-y,-z
loop_
_atom_site_type_symbol
_atom_site_label
_atom_site_fract_x
_atom_site_fract_y
_atom_site_fract_z
Si Si1 0.731406 0.546630 0.264755
Si Si2 0.303287 0.998426 0.860234
Si Si3 0.859405 0.987572 0.369659
Si Si4 0.850079 0.675611 0.484126
Si Si5 0.640600 0.967482 0.913209
Si Si6 0.474927 0.670235 0.735870
Si Si7 0.738493 0.400284 0.075655
Si Si8 0.909542 0.168525 0.575335
O O1 0.748165 0.735885 0.992020
O O2 0.606857 0.625232 0.486143
O O3 0.699715 0.468570 0.235693
O O4 0.855567 0.371776 0.350262
O O5 0.201269 0.221624 0.716864
O O6 0.373542 0.980784 0.940887
O O7 0.416479 0.876496 0.693516
O O8 0.212844 0.879656 0.138732
O O9 0.831288 0.866522 0.407050
O O10 0.996083 0.843864 0.408843
O O11 0.873384 0.185615 0.101371
O O12 0.726345 0.062136 0.601098
O O13 0.000000 0.500000 0.500000
O O14 0.754257 0.574920 0.781454
O O15 0.500000 0.000000 0.000000
O O16 0.366331 0.654653 0.798929
O O17 0.500000 0.500000 0.000000
O O18 0.000000 0.000000 0.500000
#
# Coordination Sequence:
#
# PCOD9071015 Si02
#       8
#     2   2   2   2   2   2   2   2
#     4  12  27  48  80 113 150 215 261 322 396 476
#     4  12  28  51  76 122 160 208 265 334 403 460
#     4  12  26  52  78 114 161 206 263 326 396 473
#     4  12  30  48  78 120 161 209 260 331 404 475
#     4  12  29  50  80 115 159 207 268 329 390 476
#     4  12  28  47  76 113 155 203 265 328 397 465
#     4  12  26  51  77 112 157 209 264 316 397 479
#     4  12  25  48  81 110 153 204 261 325 392 474
#
# _framework density 24.901420999999999
#
# number of rings (size 3 to 8) (size 9 to 14) (size 15 to 20)
#    0.000    0.000    6.250    1.875    7.000    2.000 
#    0.000    0.000    0.000    0.000    0.000    0.000 
#    0.000    0.000    0.000    0.000    0.000    0.000 
#
# Total GULP energy -89639.759779 kJ/mol
# GULP energy per Si atom -5602.484986 kJ/mol
# Density = 2.484474 g / cm^3
# Si number density = 24.901421 Si / 1000 Ang^3
#
#
#
# Elastic Constant Matrix: (Units=GPa)
#
#
# Indices 1 2 3 4 5 6 
#
# 1 160.2616 25.6777 29.1579 -5.3944 20.9291 1.9760
# 2 25.6777 105.5214 21.3339 -17.2947 9.2650 8.1264
# 3 29.1579 21.3339 102.1207 -25.7080 11.0938 -1.8641
# 4 -5.3944 -17.2947 -25.7080 45.0328 -5.6152 7.3913
# 5 20.9291 9.2650 11.0938 -5.6152 39.4363 -10.8881
# 6 1.9760 8.1264 -1.8641 7.3913 -10.8881 48.2043
#
#
#
# Elastic Compliance Matrix: (Units=1/GPa)
#
#
# Indices 1 2 3 4 5 6 
#
# 1 0.007155 -0.001185 -0.001651 -0.000833 -0.003393 -0.000796
# 2 -0.001185 0.010950 -0.000828 0.003815 -0.001956 -0.002856
# 3 -0.001651 -0.000828 0.012203 0.006355 -0.001641 -0.000666
# 4 -0.000833 0.003815 0.006355 0.028007 0.000490 -0.004547
# 5 -0.003393 -0.001956 -0.001641 0.000490 0.030118 0.007133
# 6 -0.000796 -0.002856 -0.000666 -0.004547 0.007133 0.023542
#
#
# Mechanical properties :
#
#
# Convention : Reuss Voigt Hill
#
# Bulk Modulus (GPa) = 43.51797 57.80475 50.66136
# Shear Modulus (GPa) = 39.38200 45.98362 42.68281
#
# Velocity S-wave (km/s) = 3.98114 4.30190 4.14463
# Velocity P-wave (km/s) = 6.21665 6.92380 6.57973
#
# Compressibility (1/GPa) = 0.02297901
#
# Stress axis : x y z
#
# Youngs Moduli (GPa) = 139.76570 91.32836 81.94905
#
# Poissons Ratio (x) = 0.10818 0.13530
# Poissons Ratio (y) = 0.16556 0.06789
# Poissons Ratio (z) = 0.23076 0.07566
#
# Static dielectric constant tensor:
#      x y z
#    x 1.989000 -0.029350 -0.004860 
#    y -0.029350 1.839670 0.263170 
#    z -0.004860 0.263170 1.591070 
# 
# From -- ./inp_files/332682.got.cif
#   From: 2010.05.17/outbox.cif.g08.bks.cpg/sg2_167_cif.got.tgz:332682.got - 2010.06.03 11:33:40.
