data_PCOD9071890
_publ_section_title
;
Structure prediction by ZEFSAII (Michael W. Deem and Ramdas Pophale) SiO2 
 PCOD9071890
Probable space group: P -1
;
_chemical_formula_sum "Si O2"
_cell_formula_units_Z 14
_cell_length_a 13.424516
_cell_length_b 14.374063
_cell_length_c 15.092876
_cell_angle_alpha 136.922142
_cell_angle_beta 52.695596
_cell_angle_gamma 158.265619
_cell_volume 705.717451
_symmetry_space_group_name_H-M "P -1"
_symmetry_group_IT_number 2
_symmetry_cell_setting 'triclinic'
loop_
_space_group_symop_operation_xyz
x,y,z
-x,-y,-z
loop_
_atom_site_type_symbol
_atom_site_label
_atom_site_fract_x
_atom_site_fract_y
_atom_site_fract_z
Si Si1 0.868039 0.599265 0.403920
Si Si2 0.243450 0.052657 0.369691
Si Si3 0.820643 0.646907 0.920585
Si Si4 0.176562 0.171839 0.649786
Si Si5 0.548377 0.207441 0.633196
Si Si6 0.583937 0.650150 0.918423
Si Si7 0.049752 0.405219 0.456352
O O1 0.541945 0.293138 0.341967
O O2 0.897892 0.528816 0.422088
O O3 0.078045 0.786320 0.338246
O O4 0.974534 0.848719 0.559329
O O5 0.295108 0.232798 0.533518
O O6 0.023041 0.893720 0.306807
O O7 0.759821 0.446370 0.764214
O O8 0.701836 0.640206 0.907593
O O9 0.634097 0.482456 0.993655
O O10 0.144003 0.995424 0.004821
O O11 0.414900 0.434879 0.774551
O O12 0.682115 0.393715 0.599647
O O13 0.500000 0.000000 0.500000
O O14 0.238956 0.959673 0.652599
O O15 0.000000 0.500000 0.500000
#
# Coordination Sequence:
#
# PCOD9071890 Si02
#       7
#     2   2   2   2   2   2   2
#     4  10  18  30  47  70 103 135 162 213 257 300
#     4   9  20  30  48  73  99 137 180 207 246 305
#     4  10  21  34  45  76 100 140 177 196 249 326
#     4   9  20  31  50  70 104 141 173 207 249 300
#     4  10  20  35  52  70 101 133 173 220 251 294
#     4  10  21  31  50  69 109 140 165 203 251 315
#     4  10  20  31  50  75  99 131 165 208 273 305
#
# _framework density 19.837966999999999
#
# number of rings (size 3 to 8) (size 9 to 14) (size 15 to 20)
#    0.857    1.429    0.000    3.000    4.000    1.143 
#    0.000    0.000    0.000    0.000    0.000    0.000 
#    0.000   91.429    0.000    0.000    0.000    0.000 
#
# Total GULP energy -78004.915383 kJ/mol
# GULP energy per Si atom -5571.779670 kJ/mol
# Density = 1.979282 g / cm^3
# Si number density = 19.837967 Si / 1000 Ang^3
#
#
#
# Elastic Constant Matrix: (Units=GPa)
#
#
# Indices 1 2 3 4 5 6 
#
# 1 58.2465 12.5861 13.2260 5.8156 14.2933 -5.5877
# 2 12.5861 145.3908 33.3979 27.0017 4.6214 8.5926
# 3 13.2260 33.3979 71.5001 7.6844 10.0765 10.3211
# 4 5.8156 27.0017 7.6844 19.1607 7.0724 9.0355
# 5 14.2933 4.6214 10.0765 7.0724 24.4711 4.0900
# 6 -5.5877 8.5926 10.3211 9.0355 4.0900 14.9189
#
#
#
# Elastic Compliance Matrix: (Units=1/GPa)
#
#
# Indices 1 2 3 4 5 6 
#
# 1 0.024919 0.000304 -0.005016 -0.012367 -0.012927 0.023662
# 2 0.000304 0.010751 -0.004688 -0.018098 0.003767 0.007093
# 3 -0.005016 -0.004688 0.019102 0.010206 -0.004083 -0.017456
# 4 -0.012367 -0.018098 0.010206 0.114331 -0.015531 -0.066255
# 5 -0.012927 0.003767 -0.004083 -0.015531 0.055546 -0.010009
# 6 0.023662 0.007093 -0.017456 -0.066255 -0.010009 0.126753
#
#
# Mechanical properties :
#
#
# Convention : Reuss Voigt Hill
#
# Bulk Modulus (GPa) = 27.79954 43.72860 35.76407
# Shear Modulus (GPa) = 13.08247 26.10531 19.59389
#
# Velocity S-wave (km/s) = 2.57079 3.63151 3.14617
# Velocity P-wave (km/s) = 4.78076 6.29877 5.59152
#
# Compressibility (1/GPa) = 0.03597182
#
# Stress axis : x y z
#
# Youngs Moduli (GPa) = 40.13064 93.01785 52.35105
#
# Poissons Ratio (x) = -0.02832 0.26261
# Poissons Ratio (y) = -0.01222 0.24541
# Poissons Ratio (z) = 0.20131 0.43604
#
# Static dielectric constant tensor:
#      x y z
#    x 1.792530 0.054030 -0.038490 
#    y 0.054030 1.865500 -0.031570 
#    z -0.038490 -0.031570 1.708060 
# 
# From -- ./inp_files/66755.got.cif
#   From: 2010.05.17/outbox.cif.g08.bks.cpg/sg2_34_cif.got.tgz:66755.got - 2010.06.03 11:33:40.
