data_PCOD9071509
_publ_section_title
;
Structure prediction by ZEFSAII (Michael W. Deem and Ramdas Pophale) SiO2 
 PCOD9071509
Probable space group: P -1
;
_chemical_formula_sum "Si O2"
_cell_formula_units_Z 14
_cell_length_a 7.871388
_cell_length_b 11.626711
_cell_length_c 9.556512
_cell_angle_alpha 50.137570
_cell_angle_beta 70.573739
_cell_angle_gamma 53.464171
_cell_volume 537.697792
_symmetry_space_group_name_H-M "P -1"
_symmetry_group_IT_number 2
_symmetry_cell_setting 'triclinic'
loop_
_space_group_symop_operation_xyz
x,y,z
-x,-y,-z
loop_
_atom_site_type_symbol
_atom_site_label
_atom_site_fract_x
_atom_site_fract_y
_atom_site_fract_z
Si Si1 0.458375 0.407324 0.452957
Si Si2 0.657906 0.315247 0.176100
Si Si3 0.710600 0.857842 0.636553
Si Si4 0.003901 0.655279 0.298807
Si Si5 0.917578 0.460689 0.917581
Si Si6 0.057570 0.052888 0.710981
Si Si7 0.378862 0.955347 0.187800
O O1 0.500000 0.500000 0.500000
O O2 0.615408 0.312951 0.352840
O O3 0.258676 0.567863 0.302458
O O4 0.452567 0.244648 0.648283
O O5 0.733314 0.141998 0.200098
O O6 0.500000 0.500000 0.000000
O O7 0.862619 0.326205 0.099926
O O8 0.748479 0.662285 0.755283
O O9 0.500000 0.000000 0.500000
O O10 0.908036 0.859729 0.506888
O O11 0.676427 0.919217 0.758898
O O12 0.937923 0.644964 0.169290
O O13 0.000000 0.500000 0.500000
O O14 0.918407 0.838499 0.255155
O O15 0.000000 0.500000 0.000000
O O16 0.836302 0.053852 0.779553
O O17 0.500000 0.000000 0.000000
#
# Coordination Sequence:
#
# PCOD9071509 Si02
#       7
#     2   2   2   2   2   2   2
#     4  12  27  51  80 116 173 213 275 352 421 494
#     4  12  27  53  80 117 162 220 282 346 420 501
#     4  12  26  53  82 119 169 223 279 346 420 508
#     4  12  27  50  80 122 162 219 276 344 420 505
#     4  12  28  47  77 119 163 210 275 344 415 500
#     4  12  27  53  88 116 166 224 281 337 429 497
#     4  12  29  52  83 125 167 220 284 348 419 504
#
# _framework density 26.036930000000002
#
# number of rings (size 3 to 8) (size 9 to 14) (size 15 to 20)
#    0.000    0.000    5.714    3.000    6.000    1.714 
#    2.571    0.000    0.000    0.000    0.000    0.000 
#    0.000    0.000    0.000    0.000    0.000    0.000 
#
# Total GULP energy -78201.537169 kJ/mol
# GULP energy per Si atom -5585.824084 kJ/mol
# Density = 2.597767 g / cm^3
# Si number density = 26.036930 Si / 1000 Ang^3
#
#
#
# Elastic Constant Matrix: (Units=GPa)
#
#
# Indices 1 2 3 4 5 6 
#
# 1 67.3515 56.6778 45.1103 16.7078 -6.3221 -0.4647
# 2 56.6778 284.8089 90.4498 14.1746 -4.0945 23.4064
# 3 45.1103 90.4498 185.4983 30.3814 -28.0635 2.6207
# 4 16.7078 14.1746 30.3814 67.0623 -5.5154 8.1115
# 5 -6.3221 -4.0945 -28.0635 -5.5154 51.1302 -6.1597
# 6 -0.4647 23.4064 2.6207 8.1115 -6.1597 47.5197
#
#
#
# Elastic Compliance Matrix: (Units=1/GPa)
#
#
# Indices 1 2 3 4 5 6 
#
# 1 0.020311 -0.003202 -0.002755 -0.003393 0.000690 0.002596
# 2 -0.003202 0.004913 -0.001911 0.000841 -0.001281 -0.002655
# 3 -0.002755 -0.001911 0.007930 -0.002358 0.003769 0.001368
# 4 -0.003393 0.000841 -0.002358 0.017024 -0.000201 -0.003249
# 5 0.000690 -0.001281 0.003769 -0.000201 0.021987 0.003314
# 6 0.002596 -0.002655 0.001368 -0.003249 0.003314 0.023286
#
#
# Mechanical properties :
#
#
# Convention : Reuss Voigt Hill
#
# Bulk Modulus (GPa) = 57.40869 102.45940 79.93405
# Shear Modulus (GPa) = 42.73794 56.17049 49.45422
#
# Velocity S-wave (km/s) = 4.05586 4.64976 4.36292
# Velocity P-wave (km/s) = 6.63552 8.26220 7.49313
#
# Compressibility (1/GPa) = 0.01741897
#
# Stress axis : x y z
#
# Youngs Moduli (GPa) = 49.23383 203.53566 126.10873
#
# Poissons Ratio (x) = 0.65166 0.34741
# Poissons Ratio (y) = 0.15763 0.24099
# Poissons Ratio (z) = 0.13563 0.38895
#
# Static dielectric constant tensor:
#      x y z
#    x 2.455660 -0.322040 0.130950 
#    y -0.322040 2.187980 -0.092330 
#    z 0.130950 -0.092330 1.986110 
# 
# From -- ./inp_files/174124.got.cif
#   From: 2010.05.17/outbox.cif.g08.bks.cpg/sg2_88_cif.got.tgz:174124.got - 2010.06.03 11:33:40.
