data_PCOD9071255
_publ_section_title
;
Structure prediction by ZEFSAII (Michael W. Deem and Ramdas Pophale) SiO2 
 PCOD9071255
Probable space group: P -1
;
_chemical_formula_sum "Si O2"
_cell_formula_units_Z 14
_cell_length_a 9.849086
_cell_length_b 5.065101
_cell_length_c 16.537005
_cell_angle_alpha 99.416405
_cell_angle_beta 128.770627
_cell_angle_gamma 110.086397
_cell_volume 517.029833
_symmetry_space_group_name_H-M "P -1"
_symmetry_group_IT_number 2
_symmetry_cell_setting 'triclinic'
loop_
_space_group_symop_operation_xyz
x,y,z
-x,-y,-z
loop_
_atom_site_type_symbol
_atom_site_label
_atom_site_fract_x
_atom_site_fract_y
_atom_site_fract_z
Si Si1 0.905511 0.744224 0.769179
Si Si2 0.271556 0.659760 0.912339
Si Si3 0.990088 0.930963 0.340453
Si Si4 0.394404 0.659059 0.126387
Si Si5 0.802098 0.968436 0.881045
Si Si6 0.444348 0.089598 0.566709
Si Si7 0.786099 0.156981 0.377086
O O1 0.869345 0.994833 0.813280
O O2 0.670471 0.425972 0.683321
O O3 0.096844 0.732345 0.872416
O O4 0.948357 0.798902 0.692218
O O5 0.163238 0.402203 0.784860
O O6 0.325846 0.523111 0.003456
O O7 0.500000 0.000000 0.000000
O O8 0.221367 0.037493 0.460832
O O9 0.874029 0.939429 0.376604
O O10 0.383745 0.392514 0.168514
O O11 0.241125 0.763552 0.102631
O O12 0.625505 0.013751 0.232942
O O13 0.000000 0.000000 0.000000
O O14 0.500000 0.000000 0.500000
O O15 0.377641 0.898665 0.616556
O O16 0.000000 0.500000 0.500000
#
# Coordination Sequence:
#
# PCOD9071255 Si02
#       7
#     2   2   2   2   2   2   2
#     4  12  26  48  77 120 155 216 279 344 412 494
#     4  12  29  49  81 116 168 218 277 338 422 505
#     4  12  29  51  82 115 168 217 276 346 424 497
#     4  12  29  50  80 121 167 216 281 342 417 496
#     4  12  26  46  80 117 163 212 275 348 409 487
#     4  12  26  49  83 114 159 210 283 342 415 493
#     4  12  30  51  80 120 164 218 275 346 428 504
#
# _framework density 27.077739999999999
#
# number of rings (size 3 to 8) (size 9 to 14) (size 15 to 20)
#    0.000    0.000    4.286    3.857   10.000    1.143 
#    0.000    0.000    0.000    0.000    0.000    0.000 
#    0.000    0.000    0.000    0.000    0.000    0.000 
#
# Total GULP energy -78172.849509 kJ/mol
# GULP energy per Si atom -5583.774965 kJ/mol
# Density = 2.701611 g / cm^3
# Si number density = 27.077740 Si / 1000 Ang^3
#
#
#
# Elastic Constant Matrix: (Units=GPa)
#
#
# Indices 1 2 3 4 5 6 
#
# 1 136.8478 12.6006 37.5911 21.4882 1.4423 -7.2049
# 2 12.6006 89.4530 23.0461 15.5654 2.0235 15.3176
# 3 37.5911 23.0461 156.8989 24.9249 39.7542 6.9531
# 4 21.4882 15.5654 24.9249 56.1592 14.1424 7.6996
# 5 1.4423 2.0235 39.7542 14.1424 57.0740 2.6069
# 6 -7.2049 15.3176 6.9531 7.6996 2.6069 47.0424
#
#
#
# Elastic Compliance Matrix: (Units=1/GPa)
#
#
# Indices 1 2 3 4 5 6 
#
# 1 0.008479 -0.000567 -0.002049 -0.002944 0.001863 0.002165
# 2 -0.000567 0.012678 -0.001528 -0.002471 0.001409 -0.003663
# 3 -0.002049 -0.001528 0.008735 -0.001160 -0.005663 -0.000603
# 4 -0.002944 -0.002471 -0.001160 0.021584 -0.004251 -0.002772
# 5 0.001863 0.001409 -0.005663 -0.004251 0.022417 0.000117
# 6 0.002165 -0.003663 -0.000603 -0.002772 0.000117 0.023318
#
#
# Mechanical properties :
#
#
# Convention : Reuss Voigt Hill
#
# Bulk Modulus (GPa) = 46.28885 58.85282 52.57083
# Shear Modulus (GPa) = 44.36583 52.71924 48.54254
#
# Velocity S-wave (km/s) = 4.05218 4.41722 4.23863
# Velocity P-wave (km/s) = 6.24704 6.91359 6.58875
#
# Compressibility (1/GPa) = 0.02160348
#
# Stress axis : x y z
#
# Youngs Moduli (GPa) = 117.93958 78.87650 114.48460
#
# Poissons Ratio (x) = 0.04473 0.23452
# Poissons Ratio (y) = 0.06689 0.17499
# Poissons Ratio (z) = 0.24160 0.12056
#
# Static dielectric constant tensor:
#      x y z
#    x 2.043210 -0.036480 -0.125330 
#    y -0.036480 2.206090 -0.000310 
#    z -0.125330 -0.000310 2.201080 
# 
# From -- ./inp_files/409770.got.cif
#   From: 2010.05.17/outbox.cif.g08.bks.cpg/sg2_205_cif.got.tgz:409770.got - 2010.06.03 11:33:40.
