data_PCOD9071951
_publ_section_title
;
Structure prediction by ZEFSAII (Michael W. Deem and Ramdas Pophale) SiO2 
 PCOD9071951
Probable space group: P -1
;
_chemical_formula_sum "Si O2"
_cell_formula_units_Z 16
_cell_length_a 13.664406
_cell_length_b 7.881208
_cell_length_c 11.227162
_cell_angle_alpha 56.779771
_cell_angle_beta 136.080744
_cell_angle_gamma 129.436325
_cell_volume 638.462006
_symmetry_space_group_name_H-M "P -1"
_symmetry_group_IT_number 2
_symmetry_cell_setting 'triclinic'
loop_
_space_group_symop_operation_xyz
x,y,z
-x,-y,-z
loop_
_atom_site_type_symbol
_atom_site_label
_atom_site_fract_x
_atom_site_fract_y
_atom_site_fract_z
Si Si1 0.374461 0.801575 0.385603
Si Si2 0.123125 0.589386 0.891846
Si Si3 0.576388 0.361702 0.044806
Si Si4 0.648441 0.995073 0.391884
Si Si5 0.146923 0.256011 0.786554
Si Si6 0.703075 0.931715 0.216636
Si Si7 0.155904 0.583378 0.465942
Si Si8 0.058604 0.808559 0.984891
O O1 0.292140 0.600276 0.485212
O O2 0.500000 0.000000 0.500000
O O3 0.495129 0.801626 0.388838
O O4 0.224899 0.836186 0.183808
O O5 0.997833 0.511093 0.707912
O O6 0.264523 0.813108 0.884616
O O7 0.059347 0.694905 0.902829
O O8 0.096093 0.357813 0.020123
O O9 0.583664 0.168203 0.210188
O O10 0.740208 0.563731 0.089498
O O11 0.500000 0.500000 0.000000
O O12 0.470806 0.246058 0.886138
O O13 0.734268 0.930137 0.384670
O O14 0.779021 0.160356 0.531765
O O15 0.118187 0.424473 0.607451
O O16 0.212793 0.144256 0.783379
O O17 0.052686 0.043159 0.864799
#
# Coordination Sequence:
#
# PCOD9071951 Si02
#       8
#     2   2   2   2   2   2   2   2
#     4   9  17  31  50  73  99 130 171 210 248 298
#     4   9  18  32  50  75 103 134 173 210 248 301
#     4   9  17  30  49  74 101 130 168 211 253 299
#     4  10  18  30  49  74 103 134 168 210 258 305
#     4   9  18  33  53  77 101 132 174 214 254 299
#     4  10  19  29  48  77 106 132 163 209 260 308
#     4   9  19  33  51  73  99 136 176 214 249 294
#     4   9  17  31  53  76  98 131 175 215 244 294
#
# _framework density 25.060223000000001
#
# number of rings (size 3 to 8) (size 9 to 14) (size 15 to 20)
#    0.000    2.750    0.000    2.625    0.000    3.500 
#    0.000    0.625    0.000    3.000    0.000   12.250 
#    0.000    6.000    0.000    0.000    0.000    0.000 
#
# Total GULP energy -89069.084667 kJ/mol
# GULP energy per Si atom -5566.817792 kJ/mol
# Density = 2.500318 g / cm^3
# Si number density = 25.060223 Si / 1000 Ang^3
#
#
#
# Elastic Constant Matrix: (Units=GPa)
#
#
# Indices 1 2 3 4 5 6 
#
# 1 86.5117 47.7569 15.4451 -3.6533 -16.1258 23.1508
# 2 47.7569 152.4950 44.9992 -1.6556 -9.4261 16.4521
# 3 15.4451 44.9992 78.9396 16.7980 -18.8136 8.0158
# 4 -3.6533 -1.6556 16.7980 40.5637 -0.8310 -17.1965
# 5 -16.1258 -9.4261 -18.8136 -0.8310 35.1796 -4.4203
# 6 23.1508 16.4521 8.0158 -17.1965 -4.4203 28.2001
#
#
#
# Elastic Compliance Matrix: (Units=1/GPa)
#
#
# Indices 1 2 3 4 5 6 
#
# 1 0.019347 -0.005036 0.004231 -0.007511 0.007397 -0.017568
# 2 -0.005036 0.009570 -0.005913 0.003042 -0.002624 0.001676
# 3 0.004231 -0.005913 0.022108 -0.014578 0.010123 -0.013611
# 4 -0.007511 0.003042 -0.014578 0.044945 -0.004944 0.035168
# 5 0.007397 -0.002624 0.010123 -0.004944 0.035804 -0.004821
# 6 -0.017568 0.001676 -0.013611 0.035168 -0.004821 0.073465
#
#
# Mechanical properties :
#
#
# Convention : Reuss Voigt Hill
#
# Bulk Modulus (GPa) = 26.60459 59.37208 42.98834
# Shear Modulus (GPa) = 21.62598 34.77168 28.19883
#
# Velocity S-wave (km/s) = 2.94081 3.72899 3.35810
# Velocity P-wave (km/s) = 4.70855 6.50259 5.67689
#
# Compressibility (1/GPa) = 0.03758749
#
# Stress axis : x y z
#
# Youngs Moduli (GPa) = 51.68805 104.49811 45.23338
#
# Poissons Ratio (x) = 0.52628 -0.19137
# Poissons Ratio (y) = 0.26031 0.26745
# Poissons Ratio (z) = -0.21868 0.61787
#
# Static dielectric constant tensor:
#      x y z
#    x 2.339150 -0.014780 0.050090 
#    y -0.014780 1.992230 -0.043860 
#    z 0.050090 -0.043860 2.039450 
# 
# From -- ./inp_files/460434.got.cif
#   From: 2010.05.17/outbox.cif.g08.bks.cpg/sg2_231_cif.got.tgz:460434.got - 2010.06.03 11:33:40.
