data_PCOD9071286
_publ_section_title
;
Structure prediction by ZEFSAII (Michael W. Deem and Ramdas Pophale) SiO2 
 PCOD9071286
Probable space group: P -1
;
_chemical_formula_sum "Si O2"
_cell_formula_units_Z 13
_cell_length_a 4.652851
_cell_length_b 6.518788
_cell_length_c 17.945558
_cell_angle_alpha 64.650975
_cell_angle_beta 75.452133
_cell_angle_gamma 77.931567
_cell_volume 472.908434
_symmetry_space_group_name_H-M "P -1"
_symmetry_group_IT_number 2
_symmetry_cell_setting 'triclinic'
loop_
_space_group_symop_operation_xyz
x,y,z
-x,-y,-z
loop_
_atom_site_type_symbol
_atom_site_label
_atom_site_fract_x
_atom_site_fract_y
_atom_site_fract_z
Si Si1 0.021646 0.972590 0.805161
Si Si2 0.854552 0.195957 0.925316
Si Si3 0.582240 0.129340 0.548398
Si Si4 0.195935 0.259395 0.291240
Si Si5 0.882577 0.597079 0.358573
Si Si6 0.000000 0.500000 0.500000
Si Si7 0.361225 0.510873 0.864501
O O1 0.238064 0.764958 0.859359
O O2 0.884124 0.856897 0.761928
O O3 0.807520 0.076632 0.867774
O O4 0.161570 0.182819 0.725223
O O5 0.095231 0.375775 0.875667
O O6 0.545709 0.350606 0.937964
O O7 0.000000 0.000000 0.000000
O O8 0.298145 0.315062 0.564175
O O9 0.856368 0.278216 0.500739
O O10 0.500000 0.000000 0.500000
O O11 0.652103 0.938739 0.635533
O O12 0.417251 0.441290 0.224688
O O13 0.910949 0.388762 0.331939
O O14 0.183348 0.552100 0.397536
#
# Coordination Sequence:
#
# PCOD9071286 Si02
#       7
#     2   2   2   2   2   1   2
#     4  12  26  48  85 111 162 217 276 334 414 498
#     4  12  30  52  82 125 168 209 267 341 418 505
#     4  12  29  51  81 115 167 219 278 354 424 492
#     4  12  27  50  80 116 156 217 282 337 409 498
#     4  12  26  47  77 112 155 212 274 341 407 486
#     4  12  28  48  74 114 162 210 280 348 420 486
#     4  12  26  51  81 119 160 211 271 332 411 496
#
# _framework density 27.489464999999999
#
# number of rings (size 3 to 8) (size 9 to 14) (size 15 to 20)
#    0.000    0.000    6.154    1.846    4.308    7.385 
#    0.000    0.769    3.385    0.000    0.000    0.000 
#    0.000    0.000    0.000    0.000    0.000    0.000 
#
# Total GULP energy -72667.611688 kJ/mol
# GULP energy per Si atom -5589.816284 kJ/mol
# Density = 2.742690 g / cm^3
# Si number density = 27.489465 Si / 1000 Ang^3
#
#
#
# Elastic Constant Matrix: (Units=GPa)
#
#
# Indices 1 2 3 4 5 6 
#
# 1 96.5890 57.1066 -2.5597 -4.7163 12.1612 8.3335
# 2 57.1066 191.1639 68.1966 -16.9642 24.6585 -8.0950
# 3 -2.5597 68.1966 62.1639 -15.8934 27.3803 3.9712
# 4 -4.7163 -16.9642 -15.8934 53.4969 -4.2901 13.9800
# 5 12.1612 24.6585 27.3803 -4.2901 48.8455 -12.0771
# 6 8.3335 -8.0950 3.9712 13.9800 -12.0771 57.1020
#
#
#
# Elastic Compliance Matrix: (Units=1/GPa)
#
#
# Indices 1 2 3 4 5 6 
#
# 1 0.022092 -0.013334 0.024561 0.006869 -0.014810 -0.011637
# 2 -0.013334 0.017069 -0.026273 -0.005237 0.011416 0.009890
# 3 0.024561 -0.026273 0.067131 0.017137 -0.034795 -0.023533
# 4 0.006869 -0.005237 0.017137 0.024857 -0.009201 -0.010969
# 5 -0.014810 0.011416 -0.034795 -0.009201 0.041345 0.017197
# 6 -0.011637 0.009890 -0.023533 -0.010969 0.017197 0.028572
#
#
# Mechanical properties :
#
#
# Convention : Reuss Voigt Hill
#
# Bulk Modulus (GPa) = 13.12365 66.15597 39.63981
# Shear Modulus (GPa) = 19.48873 47.03376 33.26124
#
# Velocity S-wave (km/s) = 2.66550 4.14088 3.48223
# Velocity P-wave (km/s) = 3.77593 6.85425 5.53346
#
# Compressibility (1/GPa) = 0.07619831
#
# Stress axis : x y z
#
# Youngs Moduli (GPa) = 45.26584 58.58673 14.89622
#
# Poissons Ratio (x) = 0.78120 -0.36586
# Poissons Ratio (y) = 0.60358 0.39137
# Poissons Ratio (z) = -1.11176 1.53926
#
# Static dielectric constant tensor:
#      x y z
#    x 2.297320 -0.077090 0.002250 
#    y -0.077090 2.159340 -0.094660 
#    z 0.002250 -0.094660 2.346530 
# 
# From -- ./inp_files/545189.got.cif
#   From: 2010.05.17/outbox.cif.g08.bks.cpg/sg2_273_cif.got.tgz:545189.got - 2010.06.03 11:33:40.
