data_PCOD9071942
_publ_section_title
;
Structure prediction by ZEFSAII (Michael W. Deem and Ramdas Pophale) SiO2 
 PCOD9071942
Probable space group: P -1
;
_chemical_formula_sum "Si O2"
_cell_formula_units_Z 14
_cell_length_a 11.712550
_cell_length_b 10.726975
_cell_length_c 12.865954
_cell_angle_alpha 100.325176
_cell_angle_beta 143.488689
_cell_angle_gamma 105.232587
_cell_volume 680.359623
_symmetry_space_group_name_H-M "P -1"
_symmetry_group_IT_number 2
_symmetry_cell_setting 'triclinic'
loop_
_space_group_symop_operation_xyz
x,y,z
-x,-y,-z
loop_
_atom_site_type_symbol
_atom_site_label
_atom_site_fract_x
_atom_site_fract_y
_atom_site_fract_z
Si Si1 0.974278 0.906004 0.600112
Si Si2 0.791602 0.071577 0.839295
Si Si3 0.771266 0.563879 0.077435
Si Si4 0.610358 0.734567 0.108515
Si Si5 0.256756 0.943955 0.447494
Si Si6 0.583628 0.598943 0.405544
Si Si7 0.624420 0.715381 0.670092
O O1 0.828378 0.806036 0.370170
O O2 0.869676 0.759486 0.586860
O O3 0.848074 0.980593 0.559734
O O4 0.282768 0.084179 0.833312
O O5 0.569521 0.067998 0.711559
O O6 0.694448 0.889120 0.779270
O O7 0.791932 0.066294 0.713170
O O8 0.092483 0.229203 0.117621
O O9 0.635957 0.633628 0.028991
O O10 0.081132 0.741852 0.323531
O O11 0.671878 0.411186 0.062124
O O12 0.639088 0.478286 0.856471
O O13 0.527421 0.662956 0.472973
O O14 0.556263 0.444883 0.406855
#
# Coordination Sequence:
#
# PCOD9071942 Si02
#       7
#     2   2   2   2   2   2   2
#     4   9  16  30  49  78 100 128 156 217 247 292
#     4  10  20  33  49  70 102 140 169 196 236 300
#     4   9  16  30  49  78 100 128 156 217 247 292
#     4   8  16  27  49  77 100 119 168 204 263 278
#     4  10  18  32  50  74 104 130 161 210 253 277
#     4  10  18  30  49  72 104 126 168 199 242 288
#     4  10  20  34  48  72 100 144 170 190 226 320
#
# _framework density 20.577352999999999
#
# number of rings (size 3 to 8) (size 9 to 14) (size 15 to 20)
#    0.000    2.571    2.857    0.000    0.000    0.000 
#    0.000    7.143    0.000    0.000    0.000  100.000 
#    0.000    0.000    0.000    0.000    0.000    0.000 
#
# Total GULP energy -78008.766832 kJ/mol
# GULP energy per Si atom -5572.054774 kJ/mol
# Density = 2.053052 g / cm^3
# Si number density = 20.577353 Si / 1000 Ang^3
#
#
#
# Elastic Constant Matrix: (Units=GPa)
#
#
# Indices 1 2 3 4 5 6 
#
# 1 47.9375 20.0634 26.1600 -1.8671 -3.0562 17.7529
# 2 20.0634 110.9319 17.3180 40.7110 14.0612 43.5291
# 3 26.1600 17.3180 61.1295 12.5219 -1.0730 2.1570
# 4 -1.8671 40.7110 12.5219 28.8158 3.6421 8.1500
# 5 -3.0562 14.0612 -1.0730 3.6421 18.3169 7.5337
# 6 17.7529 43.5291 2.1570 8.1500 7.5337 29.0121
#
#
#
# Elastic Compliance Matrix: (Units=1/GPa)
#
#
# Indices 1 2 3 4 5 6 
#
# 1 0.052746 -0.002065 -0.025594 0.026189 0.020066 -0.039843
# 2 -0.002065 0.067091 -0.000751 -0.071911 -0.005646 -0.077676
# 3 -0.025594 -0.000751 0.030553 -0.019127 -0.007032 0.021716
# 4 0.026189 -0.071911 -0.019127 0.129675 0.010391 0.054165
# 5 0.020066 -0.005646 -0.007032 0.010391 0.069805 -0.024331
# 6 -0.039843 -0.077676 0.021716 0.054165 -0.024331 0.164880
#
#
# Mechanical properties :
#
#
# Convention : Reuss Voigt Hill
#
# Bulk Modulus (GPa) = 10.68714 38.56462 24.62588
# Shear Modulus (GPa) = 8.29517 25.65946 16.97732
#
# Velocity S-wave (km/s) = 2.00997 3.53509 2.87548
# Velocity P-wave (km/s) = 3.25446 5.95352 4.79771
#
# Compressibility (1/GPa) = 0.09357044
#
# Stress axis : x y z
#
# Youngs Moduli (GPa) = 18.95881 14.90502 32.73054
#
# Poissons Ratio (x) = 0.03077 0.83770
# Poissons Ratio (y) = 0.03914 0.02459
# Poissons Ratio (z) = 0.48523 0.01120
#
# Static dielectric constant tensor:
#      x y z
#    x 1.736240 0.045920 0.001070 
#    y 0.045920 1.804570 0.047650 
#    z 0.001070 0.047650 1.728750 
# 
# From -- ./inp_files/171469.got.cif
#   From: 2010.05.17/outbox.cif.g08.bks.cpg/sg2_86_cif.got.tgz:171469.got - 2010.06.03 11:33:40.
