data_PCOD9071572
_publ_section_title
;
Structure prediction by ZEFSAII (Michael W. Deem and Ramdas Pophale) SiO2 
 PCOD9071572
Probable space group: P -1
;
_chemical_formula_sum "Si O2"
_cell_formula_units_Z 12
_cell_length_a 18.383704
_cell_length_b 5.025041
_cell_length_c 5.187955
_cell_angle_alpha 91.651818
_cell_angle_beta 74.078492
_cell_angle_gamma 74.620557
_cell_volume 441.694076
_symmetry_space_group_name_H-M "P -1"
_symmetry_group_IT_number 2
_symmetry_cell_setting 'triclinic'
loop_
_space_group_symop_operation_xyz
x,y,z
-x,-y,-z
loop_
_atom_site_type_symbol
_atom_site_label
_atom_site_fract_x
_atom_site_fract_y
_atom_site_fract_z
Si Si1 0.449285 0.296701 0.462255
Si Si2 0.949285 0.804728 0.639174
Si Si3 0.326333 0.796339 0.717385
Si Si4 0.173668 0.449004 0.370051
Si Si5 0.852930 0.178799 0.100775
Si Si6 0.352930 0.115340 0.193362
O O1 0.500000 0.500000 0.500000
O O2 0.423172 0.250882 0.193991
O O3 0.500000 0.000000 0.500000
O O4 0.350815 0.915083 0.432465
O O5 0.864315 0.807765 0.598640
O O6 0.000000 0.500000 0.500000
O O7 0.000000 0.000000 0.500000
O O8 0.923172 0.902774 0.959665
O O9 0.232036 0.878591 0.818726
O O10 0.364315 0.463605 0.672729
O O11 0.358101 0.931941 0.930498
O O12 0.141901 0.648140 0.646702
O O13 0.267965 0.342661 0.282792
O O14 0.149185 0.616714 0.134098
#
# Coordination Sequence:
#
# PCOD9071572 Si02
#       6
#     2   2   2   2   2   2
#     4  12  28  52  78 120 160 204 258 330 394 458
#     4  12  28  52  78 120 160 204 258 330 394 458
#     4  12  27  49  83 116 155 208 265 320 386 470
#     4  12  27  49  83 116 155 208 265 320 386 470
#     4  12  27  49  83 116 155 208 265 320 386 470
#     4  12  27  49  83 116 155 208 265 320 386 470
#
# _framework density 27.168129
#
# number of rings (size 3 to 8) (size 9 to 14) (size 15 to 20)
#    0.000    0.000    6.667    2.000    0.000    2.667 
#    0.000    0.000    0.000    0.000    0.000    0.000 
#    0.000    0.000    0.000    0.000    0.000    0.000 
#
# Total GULP energy -67337.692824 kJ/mol
# GULP energy per Si atom -5611.474402 kJ/mol
# Density = 2.710629 g / cm^3
# Si number density = 27.168129 Si / 1000 Ang^3
#
#
#
# Elastic Constant Matrix: (Units=GPa)
#
#
# Indices 1 2 3 4 5 6 
#
# 1 118.0194 28.5695 24.2613 7.9868 7.0107 15.0685
# 2 28.5695 158.4326 57.4505 25.3218 9.6694 7.4877
# 3 24.2613 57.4505 191.9423 26.7679 20.0485 -2.2879
# 4 7.9868 25.3218 26.7679 56.8553 -0.4753 -6.1655
# 5 7.0107 9.6694 20.0485 -0.4753 59.9242 16.3025
# 6 15.0685 7.4877 -2.2879 -6.1655 16.3025 74.5585
#
#
#
# Elastic Compliance Matrix: (Units=1/GPa)
#
#
# Indices 1 2 3 4 5 6 
#
# 1 0.009190 -0.001205 -0.000720 -0.000609 -0.000162 -0.001773
# 2 -0.001205 0.007615 -0.001756 -0.002475 -0.000327 -0.000708
# 3 -0.000720 -0.001756 0.006325 -0.002026 -0.001977 0.000781
# 4 -0.000609 -0.002475 -0.002026 0.019930 0.000823 0.001778
# 5 -0.000162 -0.000327 -0.001977 0.000823 0.018509 -0.003974
# 6 -0.001773 -0.000708 0.000781 0.001778 -0.003974 0.014882
#
#
# Mechanical properties :
#
#
# Convention : Reuss Voigt Hill
#
# Bulk Modulus (GPa) = 63.42175 76.55077 69.98626
# Shear Modulus (GPa) = 56.13641 62.14180 59.13911
#
# Velocity S-wave (km/s) = 4.55054 4.78777 4.67066
# Velocity P-wave (km/s) = 7.14176 7.66821 7.40966
#
# Compressibility (1/GPa) = 0.01576746
#
# Stress axis : x y z
#
# Youngs Moduli (GPa) = 108.81151 131.32140 158.10441
#
# Poissons Ratio (x) = 0.15825 0.11387
# Poissons Ratio (y) = 0.13112 0.27763
# Poissons Ratio (z) = 0.07837 0.23060
#
# Static dielectric constant tensor:
#      x y z
#    x 2.145700 -0.011260 -0.019260 
#    y -0.011260 2.175690 -0.037670 
#    z -0.019260 -0.037670 2.092150 
# 
# From -- ./inp_files/113803.got.cif
#   From: 2010.05.17/outbox.cif.g08.bks.cpg/sg2_57_cif.got.tgz:113803.got - 2010.06.03 11:33:40.
