data_PCOD9071510
_publ_section_title
;
Structure prediction by ZEFSAII (Michael W. Deem and Ramdas Pophale) SiO2 
 PCOD9071510
Probable space group: P -1
;
_chemical_formula_sum "Si O2"
_cell_formula_units_Z 9
_cell_length_a 10.099055
_cell_length_b 6.934994
_cell_length_c 5.493361
_cell_angle_alpha 83.514067
_cell_angle_beta 92.403886
_cell_angle_gamma 91.832618
_cell_volume 381.795187
_symmetry_space_group_name_H-M "P -1"
_symmetry_group_IT_number 2
_symmetry_cell_setting 'triclinic'
loop_
_space_group_symop_operation_xyz
x,y,z
-x,-y,-z
loop_
_atom_site_type_symbol
_atom_site_label
_atom_site_fract_x
_atom_site_fract_y
_atom_site_fract_z
Si Si1 0.232362 0.720712 0.471213
Si Si2 0.358229 0.446233 0.880380
Si Si3 0.893673 0.606997 0.808065
Si Si4 0.000000 0.000000 0.500000
Si Si5 0.491625 0.878596 0.266540
O O1 0.142567 0.543702 0.386946
O O2 0.348472 0.771111 0.282853
O O3 0.145320 0.904667 0.482482
O O4 0.242933 0.364804 0.058860
O O5 0.394165 0.280434 0.711318
O O6 0.500000 0.500000 0.000000
O O7 0.303182 0.637132 0.724384
O O8 0.954668 0.806822 0.685830
O O9 0.000000 0.500000 0.000000
O O10 0.500000 0.000000 0.500000
O O11 0.500000 0.000000 0.000000
#
# Coordination Sequence:
#
# PCOD9071510 Si02
#       5
#     2   2   2   1   2
#     4  12  28  50  81 120 170 219 285 356 426 515
#     4  12  26  53  82 119 170 220 280 360 434 501
#     4  12  28  53  81 119 169 222 284 352 430 511
#     4  12  28  50  80 118 162 224 284 336 428 516
#     4  12  28  47  82 125 166 224 285 347 435 520
#
# _framework density 23.572848
#
# number of rings (size 3 to 8) (size 9 to 14) (size 15 to 20)
#    0.000    0.000    4.444    4.000    6.222    0.889 
#    0.000    0.000    0.000    0.000    0.000    0.000 
#    0.000    0.000    0.000    0.000    0.000    0.000 
#
# Total GULP energy -50197.493524 kJ/mol
# GULP energy per Si atom -5577.499280 kJ/mol
# Density = 2.351919 g / cm^3
# Si number density = 23.572848 Si / 1000 Ang^3
#
#
#
# Elastic Constant Matrix: (Units=GPa)
#
#
# Indices 1 2 3 4 5 6 
#
# 1 149.5268 59.6700 61.1508 -15.5612 -17.6168 -11.4046
# 2 59.6700 138.2335 63.8933 -36.8024 4.3576 -26.4501
# 3 61.1508 63.8933 117.5091 -25.5148 -7.4343 12.5817
# 4 -15.5612 -36.8024 -25.5148 66.5558 8.9511 -14.6524
# 5 -17.6168 4.3576 -7.4343 8.9511 56.7826 -13.4094
# 6 -11.4046 -26.4501 12.5817 -14.6524 -13.4094 55.4052
#
#
#
# Elastic Compliance Matrix: (Units=1/GPa)
#
#
# Indices 1 2 3 4 5 6 
#
# 1 0.009730 -0.001901 -0.004163 -0.000204 0.003310 0.002788
# 2 -0.001901 0.015268 -0.006794 0.007829 -0.001488 0.010151
# 3 -0.004163 -0.006794 0.015040 -0.000610 -0.000549 -0.007810
# 4 -0.000204 0.007829 -0.000610 0.021319 -0.001981 0.008992
# 5 0.003310 -0.001488 -0.000549 -0.001981 0.020037 0.004421
# 6 0.002788 0.010151 -0.007810 0.008992 0.004421 0.028690
#
#
# Mechanical properties :
#
#
# Convention : Reuss Voigt Hill
#
# Bulk Modulus (GPa) = 69.82176 86.07752 77.94964
# Shear Modulus (GPa) = 35.56853 50.45240 43.01047
#
# Velocity S-wave (km/s) = 3.88864 4.63133 4.27614
# Velocity P-wave (km/s) = 7.06016 8.07427 7.58418
#
# Compressibility (1/GPa) = 0.01432218
#
# Stress axis : x y z
#
# Youngs Moduli (GPa) = 102.76974 65.49553 66.49157
#
# Poissons Ratio (x) = 0.12450 0.27683
# Poissons Ratio (y) = 0.19536 0.45172
# Poissons Ratio (z) = 0.42787 0.44496
#
# Static dielectric constant tensor:
#      x y z
#    x 2.047230 0.097320 0.131410 
#    y 0.097320 1.921280 0.081630 
#    z 0.131410 0.081630 1.926400 
# 
# From -- ./inp_files/57199.got.cif
#   From: 2010.05.17/outbox.cif.g08.bks.cpg/sg2_29_cif.got.tgz:57199.got - 2010.06.03 11:33:40.
