data_PCOD9071569
_publ_section_title
;
Structure prediction by ZEFSAII (Michael W. Deem and Ramdas Pophale) SiO2 
 PCOD9071569
Probable space group: P -1
;
_chemical_formula_sum "Si O2"
_cell_formula_units_Z 12
_cell_length_a 14.260417
_cell_length_b 5.364496
_cell_length_c 12.160175
_cell_angle_alpha 104.012940
_cell_angle_beta 147.970463
_cell_angle_gamma 75.569443
_cell_volume 476.936243
_symmetry_space_group_name_H-M "P -1"
_symmetry_group_IT_number 2
_symmetry_cell_setting 'triclinic'
loop_
_space_group_symop_operation_xyz
x,y,z
-x,-y,-z
loop_
_atom_site_type_symbol
_atom_site_label
_atom_site_fract_x
_atom_site_fract_y
_atom_site_fract_z
Si Si1 0.004612 0.289467 0.578041
Si Si2 0.473983 0.583600 0.357422
Si Si3 0.104521 0.925697 0.985609
Si Si4 0.484779 0.212174 0.911566
Si Si5 0.712175 0.824671 0.980821
Si Si6 0.787982 0.672426 0.528917
O O1 0.000000 0.500000 0.500000
O O2 0.847063 0.382168 0.515513
O O3 0.184146 0.297821 0.826195
O O4 0.000000 0.000000 0.500000
O O5 0.500000 0.500000 0.500000
O O6 0.290297 0.762764 0.181443
O O7 0.448534 0.333468 0.231074
O O8 0.646199 0.698811 0.489793
O O9 0.160357 0.167350 0.996459
O O10 0.967900 0.787013 0.757915
O O11 0.000000 0.000000 0.000000
O O12 0.310349 0.203086 0.662640
O O13 0.645594 0.114893 0.979735
O O14 0.500000 0.500000 0.000000
O O15 0.500000 0.000000 0.000000
#
# Coordination Sequence:
#
# PCOD9071569 Si02
#       6
#     2   2   2   2   2   2
#     4  12  27  49  81 123 163 217 271 329 405 488
#     4  12  29  52  80 118 157 211 274 339 413 487
#     4  12  29  52  80 118 157 211 274 339 413 487
#     4  12  27  49  81 123 163 217 271 329 405 488
#     4  12  27  50  78 116 168 202 275 334 398 494
#     4  12  27  52  84 116 164 214 265 338 406 482
#
# _framework density 25.160596000000002
#
# number of rings (size 3 to 8) (size 9 to 14) (size 15 to 20)
#    0.000    0.000    3.333    5.000    4.667    5.333 
#    0.000    0.000    0.000    0.000    0.000    0.000 
#    0.000    0.000    0.000    0.000    0.000    0.000 
#
# Total GULP energy -67313.150445 kJ/mol
# GULP energy per Si atom -5609.429204 kJ/mol
# Density = 2.510333 g / cm^3
# Si number density = 25.160596 Si / 1000 Ang^3
#
#
#
# Elastic Constant Matrix: (Units=GPa)
#
#
# Indices 1 2 3 4 5 6 
#
# 1 100.0575 15.5607 27.1994 -24.2563 6.6610 -5.5879
# 2 15.5607 108.1591 35.5921 -16.2307 -9.0847 -6.1967
# 3 27.1994 35.5921 172.1335 -29.1145 -15.9821 11.7511
# 4 -24.2563 -16.2307 -29.1145 40.6946 2.8981 2.6120
# 5 6.6610 -9.0847 -15.9821 2.8981 53.7739 -8.6524
# 6 -5.5879 -6.1967 11.7511 2.6120 -8.6524 48.2990
#
#
#
# Elastic Compliance Matrix: (Units=1/GPa)
#
#
# Indices 1 2 3 4 5 6 
#
# 1 0.012078 -0.000594 -0.000959 0.006371 -0.002090 0.000835
# 2 -0.000594 0.010466 -0.001644 0.002420 0.001515 0.001815
# 3 -0.000959 -0.001644 0.007249 0.003987 0.001452 -0.002041
# 4 0.006371 0.002420 0.003987 0.032399 -0.001247 -0.001898
# 5 -0.002090 0.001515 0.001452 -0.001247 0.020137 0.003274
# 6 0.000835 0.001815 -0.002041 -0.001898 0.003274 0.022220
#
#
# Mechanical properties :
#
#
# Convention : Reuss Voigt Hill
#
# Bulk Modulus (GPa) = 42.73607 59.67272 51.20439
# Shear Modulus (GPa) = 42.10778 48.68669 45.39723
#
# Velocity S-wave (km/s) = 4.09536 4.40368 4.25231
# Velocity P-wave (km/s) = 6.27573 7.04448 6.67119
#
# Compressibility (1/GPa) = 0.02339944
#
# Stress axis : x y z
#
# Youngs Moduli (GPa) = 82.79740 95.54336 137.94084
#
# Poissons Ratio (x) = 0.05671 0.13231
# Poissons Ratio (y) = 0.04915 0.22682
# Poissons Ratio (z) = 0.07942 0.15710
#
# Static dielectric constant tensor:
#      x y z
#    x 2.031630 -0.045440 0.023600 
#    y -0.045440 2.061830 -0.010820 
#    z 0.023600 -0.010820 1.957590 
# 
# From -- ./inp_files/442224.got.cif
#   From: 2010.05.17/outbox.cif.g08.bks.cpg/sg2_222_cif.got.tgz:442224.got - 2010.06.03 11:33:40.
