data_PCOD9071220
_publ_section_title
;
Structure prediction by ZEFSAII (Michael W. Deem and Ramdas Pophale) SiO2 
 PCOD9071220
Probable space group: P -1
;
_chemical_formula_sum "Si O2"
_cell_formula_units_Z 10
_cell_length_a 10.030393
_cell_length_b 13.170694
_cell_length_c 9.130090
_cell_angle_alpha 130.102298
_cell_angle_beta 28.128350
_cell_angle_gamma 131.624129
_cell_volume 419.197506
_symmetry_space_group_name_H-M "P -1"
_symmetry_group_IT_number 2
_symmetry_cell_setting 'triclinic'
loop_
_space_group_symop_operation_xyz
x,y,z
-x,-y,-z
loop_
_atom_site_type_symbol
_atom_site_label
_atom_site_fract_x
_atom_site_fract_y
_atom_site_fract_z
Si Si1 0.693259 0.893093 0.717815
Si Si2 0.749978 0.135471 0.337173
Si Si3 0.169033 0.525156 0.203689
Si Si4 0.272849 0.240206 0.740858
Si Si5 0.799682 0.711196 0.707927
O O1 0.649640 0.790403 0.527003
O O2 0.696782 0.807055 0.780841
O O3 0.000000 0.000000 0.500000
O O4 0.500000 0.000000 0.000000
O O5 0.553684 0.230853 0.554119
O O6 0.966026 0.199609 0.320964
O O7 0.500000 0.000000 0.500000
O O8 0.982638 0.125870 0.975756
O O9 0.804946 0.616269 0.024147
O O10 0.000000 0.500000 0.500000
O O11 0.976497 0.607235 0.374565
O O12 0.500852 0.619526 0.983458
#
# Coordination Sequence:
#
# PCOD9071220 Si02
#       5
#     2   2   2   2   2
#     4  12  28  53  74 109 159 202 254 314 380 459
#     4  12  26  46  73 117 153 198 262 311 375 459
#     4  12  26  48  77 115 157 191 259 323 373 451
#     4  12  27  47  77 110 156 204 247 320 382 442
#     4  12  27  47  81 111 152 204 250 315 386 444
#
# _framework density 23.855104000000001
#
# number of rings (size 3 to 8) (size 9 to 14) (size 15 to 20)
#    0.000    0.000    2.000    7.200    0.000    4.800 
#    3.600    0.000    0.000    0.000    0.000    0.000 
#    0.000    0.000    0.000    0.000    0.000    0.000 
#
# Total GULP energy -56013.318134 kJ/mol
# GULP energy per Si atom -5601.331813 kJ/mol
# Density = 2.380081 g / cm^3
# Si number density = 23.855104 Si / 1000 Ang^3
#
#
#
# Elastic Constant Matrix: (Units=GPa)
#
#
# Indices 1 2 3 4 5 6 
#
# 1 136.4439 87.8457 68.5075 12.2757 -10.3867 -6.6293
# 2 87.8457 150.8859 72.4797 5.8254 -7.7084 -4.2291
# 3 68.5075 72.4797 186.3708 -0.4349 -37.8340 0.6108
# 4 12.2757 5.8254 -0.4349 71.5532 -0.8128 -10.4530
# 5 -10.3867 -7.7084 -37.8340 -0.8128 42.0910 10.9071
# 6 -6.6293 -4.2291 0.6108 -10.4530 10.9071 40.3949
#
#
#
# Elastic Compliance Matrix: (Units=1/GPa)
#
#
# Indices 1 2 3 4 5 6 
#
# 1 0.012632 -0.006157 -0.002350 -0.001510 -0.000463 0.001198
# 2 -0.006157 0.011350 -0.002544 0.000211 -0.001929 0.000792
# 3 -0.002350 -0.002544 0.008760 0.000350 0.007542 -0.002730
# 4 -0.001510 0.000211 0.000350 0.014764 -0.000714 0.003782
# 5 -0.000463 -0.001929 0.007542 -0.000714 0.032478 -0.009346
# 6 0.001198 0.000792 -0.002730 0.003782 -0.009346 0.028579
#
#
# Mechanical properties :
#
#
# Convention : Reuss Voigt Hill
#
# Bulk Modulus (GPa) = 93.99855 103.48515 98.74185
# Shear Modulus (GPa) = 37.25423 47.13232 42.19327
#
# Velocity S-wave (km/s) = 3.95611 4.44979 4.21019
# Velocity P-wave (km/s) = 7.76899 8.35917 8.06948
#
# Compressibility (1/GPa) = 0.01063846
#
# Stress axis : x y z
#
# Youngs Moduli (GPa) = 79.16368 88.10594 114.15563
#
# Poissons Ratio (x) = 0.54248 0.26829
# Poissons Ratio (y) = 0.48742 0.29046
# Poissons Ratio (z) = 0.18605 0.22418
#
# Static dielectric constant tensor:
#      x y z
#    x 1.754070 -0.034380 -0.050850 
#    y -0.034380 1.964460 0.002490 
#    z -0.050850 0.002490 1.851800 
# 
# From -- ./inp_files/196016.got.cif
#   From: 2010.05.17/outbox.cif.g08.bks.cpg/sg2_99_cif.got.tgz:196016.got - 2010.06.03 11:33:40.
