data_PCOD9071249
_publ_section_title
;
Structure prediction by ZEFSAII (Michael W. Deem and Ramdas Pophale) SiO2 
 PCOD9071249
Probable space group: P -1
;
_chemical_formula_sum "Si O2"
_cell_formula_units_Z 16
_cell_length_a 8.896469
_cell_length_b 11.666132
_cell_length_c 8.100119
_cell_angle_alpha 111.695598
_cell_angle_beta 105.875166
_cell_angle_gamma 105.965426
_cell_volume 681.544969
_symmetry_space_group_name_H-M "P -1"
_symmetry_group_IT_number 2
_symmetry_cell_setting 'triclinic'
loop_
_space_group_symop_operation_xyz
x,y,z
-x,-y,-z
loop_
_atom_site_type_symbol
_atom_site_label
_atom_site_fract_x
_atom_site_fract_y
_atom_site_fract_z
Si Si1 0.596667 0.915907 0.066153
Si Si2 0.113926 0.843521 0.565907
Si Si3 0.735698 0.721757 0.884821
Si Si4 0.225085 0.193707 0.407914
Si Si5 0.803580 0.392729 0.393393
Si Si6 0.384755 0.587981 0.321803
Si Si7 0.105257 0.873407 0.204423
Si Si8 0.299377 0.711333 0.049061
O O1 0.488396 0.832660 0.145807
O O2 0.785045 0.016663 0.233654
O O3 0.617055 0.804046 0.896558
O O4 0.500000 0.000000 0.000000
O O5 0.182618 0.743912 0.618425
O O6 0.163889 0.860688 0.399754
O O7 0.911410 0.801329 0.498667
O O8 0.815940 0.746690 0.740236
O O9 0.631064 0.562688 0.801281
O O10 0.898894 0.795359 0.090693
O O11 0.421865 0.293874 0.558414
O O12 0.181569 0.034809 0.279177
O O13 0.698466 0.421570 0.526330
O O14 0.000000 0.500000 0.500000
O O15 0.734851 0.375319 0.175798
O O16 0.285900 0.626881 0.165766
O O17 0.176352 0.789278 0.063874
#
# Coordination Sequence:
#
# PCOD9071249 Si02
#       8
#     2   2   2   2   2   2   2   2
#     4  12  26  48  79 114 150 201 262 318 390 459
#     4  12  26  47  73 114 156 197 261 322 387 457
#     4  12  28  49  78 109 156 204 261 312 389 468
#     4  12  26  48  75 108 158 204 255 326 387 448
#     4  12  27  50  79 111 160 206 252 322 393 463
#     4  12  29  52  76 119 155 206 263 316 385 467
#     4  12  26  46  78 114 154 205 260 318 385 462
#     4  12  27  47  81 114 155 206 260 322 380 458
#
# _framework density 23.476071999999998
#
# number of rings (size 3 to 8) (size 9 to 14) (size 15 to 20)
#    0.000    0.000    3.750    5.625    5.250    3.500 
#    0.000    0.000    0.000    0.000    0.000    0.000 
#    0.000    0.000    0.000    0.000    0.000    0.000 
#
# Total GULP energy -89561.009587 kJ/mol
# GULP energy per Si atom -5597.563099 kJ/mol
# Density = 2.342264 g / cm^3
# Si number density = 23.476072 Si / 1000 Ang^3
#
#
#
# Elastic Constant Matrix: (Units=GPa)
#
#
# Indices 1 2 3 4 5 6 
#
# 1 104.8733 33.3812 23.7027 26.3727 -2.7744 -0.1127
# 2 33.3812 97.0764 61.1109 3.6759 -12.6893 -14.3708
# 3 23.7027 61.1109 116.0939 12.5959 12.1277 -2.1837
# 4 26.3727 3.6759 12.5959 41.4090 2.8517 -4.2540
# 5 -2.7744 -12.6893 12.1277 2.8517 28.2436 5.8074
# 6 -0.1127 -14.3708 -2.1837 -4.2540 5.8074 34.8693
#
#
#
# Elastic Compliance Matrix: (Units=1/GPa)
#
#
# Indices 1 2 3 4 5 6 
#
# 1 0.013125 -0.005237 0.000938 -0.008500 0.000029 -0.003099
# 2 -0.005237 0.022584 -0.012598 0.004970 0.013116 0.006924
# 3 0.000938 -0.012598 0.016668 -0.004013 -0.011770 -0.002674
# 4 -0.008500 0.004970 -0.004013 0.031015 -0.001193 0.005752
# 5 0.000029 0.013116 -0.011770 -0.001193 0.047161 -0.003332
# 6 -0.003099 0.006924 -0.002674 0.005752 -0.003332 0.032611
#
#
# Mechanical properties :
#
#
# Convention : Reuss Voigt Hill
#
# Bulk Modulus (GPa) = 53.81138 61.60368 57.70753
# Shear Modulus (GPa) = 24.61198 34.22763 29.41980
#
# Velocity S-wave (km/s) = 3.24139 3.82249 3.54387
# Velocity P-wave (km/s) = 6.08115 6.76609 6.43274
#
# Compressibility (1/GPa) = 0.01858343
#
# Stress axis : x y z
#
# Youngs Moduli (GPa) = 76.18966 44.28002 59.99388
#
# Poissons Ratio (x) = 0.23188 -0.05625
# Poissons Ratio (y) = 0.39897 0.75579
# Poissons Ratio (z) = -0.07144 0.55783
#
# Static dielectric constant tensor:
#      x y z
#    x 1.957160 -0.028090 -0.020760 
#    y -0.028090 1.882310 0.049820 
#    z -0.020760 0.049820 1.904770 
# 
# From -- ./inp_files/189460.got.cif
#   From: 2010.05.17/outbox.cif.g08.bks.cpg/sg2_95_cif.got.tgz:189460.got - 2010.06.03 11:33:40.
