data_PCOD9071000
_publ_section_title
;
Structure prediction by ZEFSAII (Michael W. Deem and Ramdas Pophale) SiO2 
 PCOD9071000
Probable space group: P -1
;
_chemical_formula_sum "Si O2"
_cell_formula_units_Z 14
_cell_length_a 17.561965
_cell_length_b 8.641060
_cell_length_c 9.916859
_cell_angle_alpha 66.830486
_cell_angle_beta 124.957689
_cell_angle_gamma 148.460873
_cell_volume 629.167180
_symmetry_space_group_name_H-M "P -1"
_symmetry_group_IT_number 2
_symmetry_cell_setting 'triclinic'
loop_
_space_group_symop_operation_xyz
x,y,z
-x,-y,-z
loop_
_atom_site_type_symbol
_atom_site_label
_atom_site_fract_x
_atom_site_fract_y
_atom_site_fract_z
Si Si1 0.812533 0.712318 0.261996
Si Si2 0.098945 0.095797 0.201386
Si Si3 0.346649 0.762105 0.316130
Si Si4 0.458991 0.085641 0.035204
Si Si5 0.178127 0.609813 0.445318
Si Si6 0.810600 0.058097 0.294244
Si Si7 0.322670 0.158766 0.475629
O O1 0.633605 0.447002 0.099195
O O2 0.803759 0.549252 0.419325
O O3 0.835532 0.929250 0.274786
O O4 0.962472 0.893026 0.251662
O O5 0.253515 0.450000 0.281810
O O6 0.181834 0.038239 0.284855
O O7 0.000000 0.000000 0.000000
O O8 0.203121 0.639983 0.299927
O O9 0.500000 0.000000 0.500000
O O10 0.408302 0.941368 0.180574
O O11 0.500000 0.000000 0.000000
O O12 0.310429 0.982511 0.872568
O O13 0.998901 0.408563 0.379709
O O14 0.313820 0.944911 0.525230
O O15 0.728013 0.875720 0.412010
O O16 0.500000 0.500000 0.500000
#
# Coordination Sequence:
#
# PCOD9071000 Si02
#       7
#     2   2   2   2   2   2   2
#     4  12  25  50  74 108 151 206 254 314 384 459
#     4  12  28  48  78 112 158 203 263 320 382 459
#     4  12  26  49  80 112 153 208 258 314 387 461
#     4  12  29  47  78 111 159 201 256 320 389 457
#     4  12  25  48  79 105 151 202 256 313 384 460
#     4  12  27  49  75 110 151 203 257 311 392 462
#     4  12  29  45  74 115 155 198 259 318 391 460
#
# _framework density 22.251636000000001
#
# number of rings (size 3 to 8) (size 9 to 14) (size 15 to 20)
#    0.000    0.000    4.286    4.714   10.000    1.714 
#    0.000    0.000    0.000    0.000    0.000    0.000 
#    0.000    0.000    0.000    0.000    0.000    0.000 
#
# Total GULP energy -78343.463519 kJ/mol
# GULP energy per Si atom -5595.961680 kJ/mol
# Density = 2.220099 g / cm^3
# Si number density = 22.251636 Si / 1000 Ang^3
#
#
#
# Elastic Constant Matrix: (Units=GPa)
#
#
# Indices 1 2 3 4 5 6 
#
# 1 119.8385 37.6418 45.0084 -13.0928 4.4560 15.6954
# 2 37.6418 141.2499 33.8822 -1.1882 -4.0542 19.0826
# 3 45.0084 33.8822 124.6701 -13.2809 12.4421 15.1417
# 4 -13.0928 -1.1882 -13.2809 30.9553 3.5885 -6.0131
# 5 4.4560 -4.0542 12.4421 3.5885 46.8852 -0.2054
# 6 15.6954 19.0826 15.1417 -6.0131 -0.2054 43.7429
#
#
#
# Elastic Compliance Matrix: (Units=1/GPa)
#
#
# Indices 1 2 3 4 5 6 
#
# 1 0.010526 -0.001939 -0.002692 0.002993 -0.000690 -0.001591
# 2 -0.001939 0.008364 -0.001596 -0.001868 0.001462 -0.002650
# 3 -0.002692 -0.001596 0.010232 0.003239 -0.002852 -0.001448
# 4 0.002993 -0.001868 0.003239 0.036049 -0.004049 0.003556
# 5 -0.000690 0.001462 -0.002852 -0.004049 0.022588 0.000146
# 6 -0.001591 -0.002650 -0.001448 0.003556 0.000146 0.025578
#
#
# Mechanical properties :
#
#
# Convention : Reuss Voigt Hill
#
# Bulk Modulus (GPa) = 59.99744 68.75814 64.37779
# Shear Modulus (GPa) = 38.06700 42.26509 40.16604
#
# Velocity S-wave (km/s) = 4.14061 4.36296 4.25324
# Velocity P-wave (km/s) = 7.06266 7.50652 7.28797
#
# Compressibility (1/GPa) = 0.01666738
#
# Stress axis : x y z
#
# Youngs Moduli (GPa) = 95.00534 119.56674 97.72877
#
# Poissons Ratio (x) = 0.23183 0.26310
# Poissons Ratio (y) = 0.18421 0.15598
# Poissons Ratio (z) = 0.25577 0.19084
#
# Static dielectric constant tensor:
#      x y z
#    x 1.829680 -0.044580 0.005810 
#    y -0.044580 1.918280 0.055020 
#    z 0.005810 0.055020 1.858510 
# 
# From -- ./inp_files/218373.got.cif
#   From: 2010.05.17/outbox.cif.g08.bks.cpg/sg2_110_cif.got.tgz:218373.got - 2010.06.03 11:33:40.
