data_PCOD9071589
_publ_section_title
;
Structure prediction by ZEFSAII (Michael W. Deem and Ramdas Pophale) SiO2 
 PCOD9071589
Probable space group: P -1
;
_chemical_formula_sum "Si O2"
_cell_formula_units_Z 12
_cell_length_a 22.740826
_cell_length_b 22.403193
_cell_length_c 5.847970
_cell_angle_alpha 129.375939
_cell_angle_beta 127.212940
_cell_angle_gamma 12.438202
_cell_volume 494.095985
_symmetry_space_group_name_H-M "P -1"
_symmetry_group_IT_number 2
_symmetry_cell_setting 'triclinic'
loop_
_space_group_symop_operation_xyz
x,y,z
-x,-y,-z
loop_
_atom_site_type_symbol
_atom_site_label
_atom_site_fract_x
_atom_site_fract_y
_atom_site_fract_z
Si Si1 0.008259 0.175587 0.300740
Si Si2 0.945996 0.639164 0.813695
Si Si3 0.243867 0.813765 0.649073
Si Si4 0.549851 0.262099 0.376400
Si Si5 0.579595 0.836811 0.889704
Si Si6 0.732258 0.563986 0.227893
O O1 0.729186 0.435206 0.409366
O O2 0.908192 0.330327 0.235281
O O3 0.223356 0.998507 0.548374
O O4 0.170523 0.940102 0.002405
O O5 0.000000 0.500000 0.500000
O O6 0.070912 0.577663 0.794297
O O7 0.114103 0.473504 0.044407
O O8 0.626696 0.970094 0.917615
O O9 0.500000 0.500000 0.500000
O O10 0.304075 0.812723 0.583317
O O11 0.000000 0.000000 0.500000
O O12 0.449066 0.304963 0.049108
O O13 0.555226 0.796896 0.542416
O O14 0.500000 0.000000 0.000000
#
# Coordination Sequence:
#
# PCOD9071589 Si02
#       6
#     2   2   2   2   2   2
#     4  12  28  51  78 116 159 208 257 312 391 458
#     4  12  28  50  76 109 148 200 260 326 395 453
#     4  12  27  50  82 118 158 200 254 316 376 462
#     4  12  28  51  78 116 159 208 257 312 391 458
#     4  12  28  50  76 109 148 200 260 326 395 453
#     4  12  29  50  80 112 162 202 268 326 380 468
#
# _framework density 24.286778999999999
#
# number of rings (size 3 to 8) (size 9 to 14) (size 15 to 20)
#    0.000    0.000    1.667    7.000    0.000   17.333 
#    0.000    0.000    0.000    0.000    0.000    0.000 
#    0.000    0.000    0.000    0.000    0.000    0.000 
#
# Total GULP energy -67391.475792 kJ/mol
# GULP energy per Si atom -5615.956316 kJ/mol
# Density = 2.423150 g / cm^3
# Si number density = 24.286779 Si / 1000 Ang^3
#
#
#
# Elastic Constant Matrix: (Units=GPa)
#
#
# Indices 1 2 3 4 5 6 
#
# 1 154.2317 47.6210 70.3898 -13.6465 12.9225 -17.6286
# 2 47.6210 155.5014 62.3800 -4.5621 3.1739 -4.3121
# 3 70.3898 62.3800 164.2769 1.5766 10.5734 10.0875
# 4 -13.6465 -4.5621 1.5766 57.9568 0.8478 -7.5240
# 5 12.9225 3.1739 10.5734 0.8478 34.1444 1.8147
# 6 -17.6286 -4.3121 10.0875 -7.5240 1.8147 47.3519
#
#
#
# Elastic Compliance Matrix: (Units=1/GPa)
#
#
# Indices 1 2 3 4 5 6 
#
# 1 0.009636 -0.001127 -0.003856 0.002958 -0.002681 0.004879
# 2 -0.001127 0.007845 -0.002585 0.000535 0.000436 0.000914
# 3 -0.003856 -0.002585 0.009030 -0.001845 -0.000846 -0.003856
# 4 0.002958 0.000535 -0.001845 0.018654 -0.001303 0.004557
# 5 -0.002681 0.000436 -0.000846 -0.001303 0.030671 -0.002160
# 6 0.004879 0.000914 -0.003856 0.004557 -0.002160 0.024646
#
#
# Mechanical properties :
#
#
# Convention : Reuss Voigt Hill
#
# Bulk Modulus (GPa) = 87.92184 92.75465 90.33825
# Shear Modulus (GPa) = 41.87263 47.46523 44.66893
#
# Velocity S-wave (km/s) = 4.15672 4.42562 4.29328
# Velocity P-wave (km/s) = 7.70181 8.02428 7.86470
#
# Compressibility (1/GPa) = 0.01137374
#
# Stress axis : x y z
#
# Youngs Moduli (GPa) = 103.78209 127.46555 110.73953
#
# Poissons Ratio (x) = 0.14367 0.42702
# Poissons Ratio (y) = 0.11698 0.28630
# Poissons Ratio (z) = 0.40019 0.32955
#
# Static dielectric constant tensor:
#      x y z
#    x 1.948690 0.014620 -0.019230 
#    y 0.014620 1.877930 0.003550 
#    z -0.019230 0.003550 1.940810 
# 
# From -- ./inp_files/125206.got.cif
#   From: 2010.05.17/outbox.cif.g08.bks.cpg/sg2_63_cif.got.tgz:125206.got - 2010.06.03 11:33:40.
