data_PCOD9071094
_publ_section_title
;
Structure prediction by ZEFSAII (Michael W. Deem and Ramdas Pophale) SiO2 
 PCOD9071094
Probable space group: P -1
;
_chemical_formula_sum "Si O2"
_cell_formula_units_Z 16
_cell_length_a 9.487281
_cell_length_b 9.438558
_cell_length_c 11.802746
_cell_angle_alpha 133.089448
_cell_angle_beta 81.105861
_cell_angle_gamma 90.195606
_cell_volume 754.864981
_symmetry_space_group_name_H-M "P -1"
_symmetry_group_IT_number 2
_symmetry_cell_setting 'triclinic'
loop_
_space_group_symop_operation_xyz
x,y,z
-x,-y,-z
loop_
_atom_site_type_symbol
_atom_site_label
_atom_site_fract_x
_atom_site_fract_y
_atom_site_fract_z
Si Si1 0.910653 0.032717 0.914722
Si Si2 0.662883 0.523988 0.526537
Si Si3 0.653722 0.074589 0.550956
Si Si4 0.634479 0.830597 0.897227
Si Si5 0.887295 0.181858 0.423422
Si Si6 0.635532 0.494997 0.899847
Si Si7 0.836338 0.724159 0.428754
Si Si8 0.143313 0.532316 0.937276
O O1 0.772714 0.933545 0.910143
O O2 0.006604 0.928984 0.743670
O O3 0.867952 0.258267 0.008817
O O4 0.000000 0.000000 0.000000
O O5 0.500000 0.500000 0.500000
O O6 0.633129 0.684608 0.714261
O O7 0.773015 0.346954 0.469057
O O8 0.755314 0.593878 0.451097
O O9 0.776896 0.054389 0.427152
O O10 0.636970 0.302292 0.715008
O O11 0.500000 0.000000 0.500000
O O12 0.737217 0.936014 0.560525
O O13 0.638609 0.691372 0.931957
O O14 0.500000 0.000000 0.000000
O O15 0.999561 0.260364 0.542255
O O16 0.500000 0.500000 0.000000
O O17 0.755376 0.473242 0.969462
O O18 0.826717 0.629363 0.253956
O O19 0.000000 0.500000 0.000000
#
# Coordination Sequence:
#
# PCOD9071094 Si02
#       8
#     2   2   2   2   2   2   2   2
#     4  12  27  46  78 114 151 204 254 315 387 457
#     4  12  28  48  77 109 148 200 259 316 386 458
#     4  12  26  46  75 111 152 201 257 309 385 458
#     4  12  29  51  76 110 153 199 256 319 389 463
#     4  12  25  50  74 108 153 198 259 316 381 460
#     4  12  27  48  75 105 153 199 250 316 384 456
#     4  12  26  46  77 108 150 200 253 317 379 459
#     4  12  26  47  73 112 153 195 249 309 382 455
#
# _framework density 21.195841999999999
#
# number of rings (size 3 to 8) (size 9 to 14) (size 15 to 20)
#    0.000    0.000    2.500    6.750    8.750    1.000 
#    0.000    0.000    0.000    0.000    0.000    0.000 
#    0.000    0.000    0.000    0.000    0.000    0.000 
#
# Total GULP energy -89383.022215 kJ/mol
# GULP energy per Si atom -5586.438888 kJ/mol
# Density = 2.114760 g / cm^3
# Si number density = 21.195842 Si / 1000 Ang^3
#
#
#
# Elastic Constant Matrix: (Units=GPa)
#
#
# Indices 1 2 3 4 5 6 
#
# 1 214.7154 93.2703 33.4359 -0.2273 -1.2831 10.4501
# 2 93.2703 191.7993 61.2169 12.3571 11.0163 8.8543
# 3 33.4359 61.2169 100.5915 -3.3292 -15.4198 -0.8320
# 4 -0.2273 12.3571 -3.3292 40.4271 -5.0584 -13.0249
# 5 -1.2831 11.0163 -15.4198 -5.0584 23.7264 -6.4129
# 6 10.4501 8.8543 -0.8320 -13.0249 -6.4129 42.3258
#
#
#
# Elastic Compliance Matrix: (Units=1/GPa)
#
#
# Indices 1 2 3 4 5 6 
#
# 1 0.006041 -0.003299 0.000416 0.001379 0.002422 -0.000002
# 2 -0.003299 0.010915 -0.007948 -0.007674 -0.013686 -0.006060
# 3 0.000416 -0.007948 0.017946 0.008746 0.019274 0.007524
# 4 0.001379 -0.007674 0.008746 0.035455 0.021081 0.015541
# 5 0.002422 -0.013686 0.019274 0.021081 0.071030 0.019893
# 6 -0.000002 -0.006060 0.007524 0.015541 0.019893 0.032839
#
#
# Mechanical properties :
#
#
# Convention : Reuss Voigt Hill
#
# Bulk Modulus (GPa) = 75.52040 98.10580 86.81310
# Shear Modulus (GPa) = 24.96241 42.57473 33.76857
#
# Velocity S-wave (km/s) = 3.43549 4.48664 3.99578
# Velocity P-wave (km/s) = 7.17244 8.55721 7.89525
#
# Compressibility (1/GPa) = 0.01324145
#
# Stress axis : x y z
#
# Youngs Moduli (GPa) = 165.52367 91.61706 55.72242
#
# Poissons Ratio (x) = 0.30221 -0.02319
# Poissons Ratio (y) = 0.54600 0.44289
# Poissons Ratio (z) = -0.06890 0.72819
#
# Static dielectric constant tensor:
#      x y z
#    x 1.611220 0.114760 0.045660 
#    y 0.114760 1.487010 -0.106030 
#    z 0.045660 -0.106030 1.724280 
# 
# From -- ./inp_files/383499.got.cif
#   From: 2010.05.17/outbox.cif.g08.bks.cpg/sg2_192_cif.got.tgz:383499.got - 2010.06.03 11:33:40.
