data_PCOD9071657
_publ_section_title
;
Structure prediction by ZEFSAII (Michael W. Deem and Ramdas Pophale) SiO2 
 PCOD9071657
Probable space group: P -1
;
_chemical_formula_sum "Si O2"
_cell_formula_units_Z 16
_cell_length_a 15.082309
_cell_length_b 7.627609
_cell_length_c 7.564865
_cell_angle_alpha 120.089427
_cell_angle_beta 111.406315
_cell_angle_gamma 72.220839
_cell_volume 692.920957
_symmetry_space_group_name_H-M "P -1"
_symmetry_group_IT_number 2
_symmetry_cell_setting 'triclinic'
loop_
_space_group_symop_operation_xyz
x,y,z
-x,-y,-z
loop_
_atom_site_type_symbol
_atom_site_label
_atom_site_fract_x
_atom_site_fract_y
_atom_site_fract_z
Si Si1 0.862429 0.941498 0.866363
Si Si2 0.486448 0.830908 0.075361
Si Si3 0.058082 0.695534 0.803971
Si Si4 0.848657 0.097949 0.535585
Si Si5 0.477836 0.424778 0.662652
Si Si6 0.665461 0.852868 0.686750
Si Si7 0.015484 0.283990 0.644544
Si Si8 0.632720 0.111235 0.425866
O O1 0.777287 0.822080 0.797888
O O2 0.966613 0.811496 0.905173
O O3 0.855241 0.991549 0.678208
O O4 0.857921 0.166667 0.059441
O O5 0.506238 0.698254 0.202605
O O6 0.394056 0.996427 0.139924
O O7 0.573510 0.965232 0.193727
O O8 0.476846 0.660517 0.834350
O O9 0.024838 0.696591 0.577023
O O10 0.074620 0.472787 0.788828
O O11 0.916829 0.274167 0.674453
O O12 0.735279 0.148465 0.440536
O O13 0.909524 0.921917 0.369377
O O14 0.382044 0.350251 0.477540
O O15 0.564972 0.318188 0.547478
O O16 0.653405 0.978991 0.556272
#
# Coordination Sequence:
#
# PCOD9071657 Si02
#       8
#     2   2   2   2   2   2   2   2
#     4   9  17  31  49  69  99 125 157 201 240 278
#     4   8  13  23  38  62  93 124 150 186 241 287
#     4   9  18  33  49  67  96 130 158 195 239 291
#     4   9  17  31  49  71  98 124 155 205 239 277
#     4   8  13  23  39  60  95 124 149 189 239 286
#     4   8  14  25  39  66  94 121 154 196 234 277
#     4   9  18  33  49  69  96 126 162 195 241 287
#     4   8  14  25  40  62  98 124 147 192 245 280
#
# _framework density 23.090658000000001
#
# number of rings (size 3 to 8) (size 9 to 14) (size 15 to 20)
#    0.000    3.500    0.000    1.500    0.000    0.500 
#   18.000    0.000    0.000    0.000    0.000    7.000 
#    0.000    0.000    0.000    0.000    0.000    0.000 
#
# Total GULP energy -89242.757803 kJ/mol
# GULP energy per Si atom -5577.672363 kJ/mol
# Density = 2.303810 g / cm^3
# Si number density = 23.090658 Si / 1000 Ang^3
#
#
#
# Elastic Constant Matrix: (Units=GPa)
#
#
# Indices 1 2 3 4 5 6 
#
# 1 144.6640 27.5852 56.9471 4.9942 19.9755 4.8956
# 2 27.5852 61.8714 25.3481 18.5215 2.2606 18.6831
# 3 56.9471 25.3481 110.4651 24.5903 7.5690 2.9675
# 4 4.9942 18.5215 24.5903 20.4293 5.7976 -0.0179
# 5 19.9755 2.2606 7.5690 5.7976 22.4390 -4.0329
# 6 4.8956 18.6831 2.9675 -0.0179 -4.0329 22.6669
#
#
#
# Elastic Compliance Matrix: (Units=1/GPa)
#
#
# Indices 1 2 3 4 5 6 
#
# 1 0.012178 -0.007538 -0.007398 0.015957 -0.011248 0.002563
# 2 -0.007538 0.038400 0.004340 -0.040045 0.006426 -0.029479
# 3 -0.007398 0.004340 0.016933 -0.024254 0.006143 -0.003123
# 4 0.015957 -0.040045 -0.024254 0.118393 -0.027560 0.027926
# 5 -0.011248 0.006426 0.006143 -0.027560 0.060242 0.007025
# 6 0.002563 -0.029479 -0.003123 0.027926 0.007025 0.069542
#
#
# Mechanical properties :
#
#
# Convention : Reuss Voigt Hill
#
# Bulk Modulus (GPa) = 21.58974 59.64014 40.61494
# Shear Modulus (GPa) = 14.19165 26.91504 20.55335
#
# Velocity S-wave (km/s) = 2.48181 3.41783 2.98672
# Velocity P-wave (km/s) = 4.19319 6.43896 5.43337
#
# Compressibility (1/GPa) = 0.04631830
#
# Stress axis : x y z
#
# Youngs Moduli (GPa) = 82.11571 26.04189 59.05678
#
# Poissons Ratio (x) = 0.19631 0.43693
# Poissons Ratio (y) = 0.61900 -0.25634
# Poissons Ratio (z) = 0.60753 -0.11303
#
# Static dielectric constant tensor:
#      x y z
#    x 1.861770 0.021470 -0.002830 
#    y 0.021470 1.903350 -0.015110 
#    z -0.002830 -0.015110 1.937160 
# 
# From -- ./inp_files/286011.got.cif
#   From: 2010.05.17/outbox.cif.g08.bks.cpg/sg2_144_cif.got.tgz:286011.got - 2010.06.03 11:33:40.
