data_PCOD9071161
_publ_section_title
;
Structure prediction by ZEFSAII (Michael W. Deem and Ramdas Pophale) SiO2 
 PCOD9071161
Probable space group: P -1
;
_chemical_formula_sum "Si O2"
_cell_formula_units_Z 11
_cell_length_a 8.499689
_cell_length_b 8.556646
_cell_length_c 11.919622
_cell_angle_alpha 139.930682
_cell_angle_beta 130.501686
_cell_angle_gamma 70.979660
_cell_volume 397.549539
_symmetry_space_group_name_H-M "P -1"
_symmetry_group_IT_number 2
_symmetry_cell_setting 'triclinic'
loop_
_space_group_symop_operation_xyz
x,y,z
-x,-y,-z
loop_
_atom_site_type_symbol
_atom_site_label
_atom_site_fract_x
_atom_site_fract_y
_atom_site_fract_z
Si Si1 0.000000 0.000000 0.500000
Si Si2 0.129335 0.093089 0.992809
Si Si3 0.738598 0.333752 0.294988
Si Si4 0.377339 0.420454 0.017443
Si Si5 0.684972 0.315450 0.526020
Si Si6 0.313025 0.935292 0.285754
O O1 0.131350 0.804621 0.420564
O O2 0.800730 0.859149 0.238767
O O3 0.272029 0.931387 0.919813
O O4 0.252574 0.400944 0.232709
O O5 0.914336 0.025006 0.774957
O O6 0.000000 0.000000 0.000000
O O7 0.570384 0.437710 0.204904
O O8 0.692850 0.341734 0.409883
O O9 0.000000 0.500000 0.500000
O O10 0.259173 0.630219 0.085543
O O11 0.500000 0.500000 0.000000
O O12 0.447080 0.114523 0.343999
O O13 0.500000 0.000000 0.500000
#
# Coordination Sequence:
#
# PCOD9071161 Si02
#       6
#     1   2   2   2   2   2
#     4  12  26  50  86 114 164 226 282 334 422 500
#     4  12  27  54  79 123 172 212 282 359 418 509
#     4  12  27  53  89 122 170 227 281 356 431 499
#     4  12  25  54  81 118 168 221 277 349 419 508
#     4  12  29  52  85 122 168 225 282 347 432 508
#     4  12  29  53  83 120 168 219 285 357 421 502
#
# _framework density 27.669508
#
# number of rings (size 3 to 8) (size 9 to 14) (size 15 to 20)
#    0.000    0.000    5.455    3.273    2.545    3.636 
#    0.000    0.000    0.000    0.000    0.000    0.000 
#    0.000    0.000    0.000    0.000    0.000    0.000 
#
# Total GULP energy -61458.999634 kJ/mol
# GULP energy per Si atom -5587.181785 kJ/mol
# Density = 2.760653 g / cm^3
# Si number density = 27.669508 Si / 1000 Ang^3
#
#
#
# Elastic Constant Matrix: (Units=GPa)
#
#
# Indices 1 2 3 4 5 6 
#
# 1 156.7389 82.2594 50.4768 -9.1264 2.7061 -1.7253
# 2 82.2594 123.1595 27.4309 -2.9025 16.1976 -11.7306
# 3 50.4768 27.4309 183.8601 15.2106 26.5515 3.0289
# 4 -9.1264 -2.9025 15.2106 69.4477 -19.8507 -17.9883
# 5 2.7061 16.1976 26.5515 -19.8507 38.3322 -8.5889
# 6 -1.7253 -11.7306 3.0289 -17.9883 -8.5889 70.4669
#
#
#
# Elastic Compliance Matrix: (Units=1/GPa)
#
#
# Indices 1 2 3 4 5 6 
#
# 1 0.011780 -0.007850 -0.003533 0.004443 0.007498 0.001182
# 2 -0.007850 0.014039 0.001409 -0.002860 -0.007743 0.000410
# 3 -0.003533 0.001409 0.008074 -0.005598 -0.009461 -0.002781
# 4 0.004443 -0.002860 -0.005598 0.023592 0.018825 0.008190
# 5 0.007498 -0.007743 -0.009461 0.018825 0.047346 0.009878
# 6 0.001182 0.000410 -0.002781 0.008190 0.009878 0.017703
#
#
# Mechanical properties :
#
#
# Convention : Reuss Voigt Hill
#
# Bulk Modulus (GPa) = 71.71215 87.12140 79.41677
# Shear Modulus (GPa) = 33.98394 55.88879 44.93637
#
# Velocity S-wave (km/s) = 3.50838 4.49917 4.03431
# Velocity P-wave (km/s) = 6.51040 7.65146 7.10388
#
# Compressibility (1/GPa) = 0.01394464
#
# Stress axis : x y z
#
# Youngs Moduli (GPa) = 84.89205 71.23121 123.85758
#
# Poissons Ratio (x) = 0.55915 0.43754
# Poissons Ratio (y) = 0.66639 -0.17447
# Poissons Ratio (z) = 0.29989 -0.10034
#
# Static dielectric constant tensor:
#      x y z
#    x 2.168120 0.147630 -0.026820 
#    y 0.147630 2.063830 -0.149520 
#    z -0.026820 -0.149520 2.131950 
# 
# From -- ./inp_files/380826.got.cif
#   From: 2010.05.17/outbox.cif.g08.bks.cpg/sg2_191_cif.got.tgz:380826.got - 2010.06.03 11:33:40.
