data_PCOD9071554
_publ_section_title
;
Structure prediction by ZEFSAII (Michael W. Deem and Ramdas Pophale) SiO2 
 PCOD9071554
Probable space group: P -1
;
_chemical_formula_sum "Si O2"
_cell_formula_units_Z 12
_cell_length_a 5.360876
_cell_length_b 8.240185
_cell_length_c 14.654176
_cell_angle_alpha 74.988031
_cell_angle_beta 53.797478
_cell_angle_gamma 68.465295
_cell_volume 485.130394
_symmetry_space_group_name_H-M "P -1"
_symmetry_group_IT_number 2
_symmetry_cell_setting 'triclinic'
loop_
_space_group_symop_operation_xyz
x,y,z
-x,-y,-z
loop_
_atom_site_type_symbol
_atom_site_label
_atom_site_fract_x
_atom_site_fract_y
_atom_site_fract_z
Si Si1 0.412258 0.424518 0.127407
Si Si2 0.365638 0.716153 0.234926
Si Si3 0.257215 0.598455 0.462932
Si Si4 0.374515 0.975238 0.929347
Si Si5 0.144397 0.199569 0.335104
Si Si6 0.716232 0.994032 0.362486
O O1 0.508303 0.567149 0.151135
O O2 0.152035 0.387038 0.264468
O O3 0.497141 0.219423 0.109555
O O4 0.500000 0.500000 0.000000
O O5 0.436148 0.634095 0.330474
O O6 0.536126 0.868726 0.164743
O O7 0.976455 0.810856 0.305239
O O8 0.500000 0.500000 0.500000
O O9 0.000000 0.500000 0.500000
O O10 0.059235 0.772022 0.531076
O O11 0.500000 0.000000 0.000000
O O12 0.000000 0.000000 0.000000
O O13 0.488570 0.083065 0.315015
O O14 0.949859 0.113173 0.320370
O O15 0.500000 0.000000 0.500000
#
# Coordination Sequence:
#
# PCOD9071554 Si02
#       6
#     2   2   2   2   2   2
#     4  12  28  53  85 124 166 223 287 348 426 496
#     4  12  28  53  90 124 172 225 279 359 421 503
#     4  12  27  48  79 126 166 216 277 343 421 500
#     4  12  30  57  83 120 166 223 288 344 418 506
#     4  12  27  49  77 119 167 216 280 343 408 510
#     4  12  27  50  82 122 167 220 277 338 428 502
#
# _framework density 24.735617000000001
#
# number of rings (size 3 to 8) (size 9 to 14) (size 15 to 20)
#    0.000    0.000    6.667    1.500    2.333    3.333 
#    0.000    0.000    0.000    0.000    0.000    0.000 
#    0.000    0.000    0.000    0.000    0.000    0.000 
#
# Total GULP energy -66881.988217 kJ/mol
# GULP energy per Si atom -5573.499018 kJ/mol
# Density = 2.467932 g / cm^3
# Si number density = 24.735617 Si / 1000 Ang^3
#
#
#
# Elastic Constant Matrix: (Units=GPa)
#
#
# Indices 1 2 3 4 5 6 
#
# 1 193.5585 81.8461 70.5178 -9.9437 14.3316 -2.2187
# 2 81.8461 163.0798 67.2157 -10.5720 14.2000 34.5641
# 3 70.5178 67.2157 173.5519 -31.4807 33.3133 9.2065
# 4 -9.9437 -10.5720 -31.4807 74.9686 6.0332 6.5139
# 5 14.3316 14.2000 33.3133 6.0332 47.6777 -0.5093
# 6 -2.2187 34.5641 9.2065 6.5139 -0.5093 49.6252
#
#
#
# Elastic Compliance Matrix: (Units=1/GPa)
#
#
# Indices 1 2 3 4 5 6 
#
# 1 0.007424 -0.003712 -0.001950 -0.000679 0.000358 0.003372
# 2 -0.003712 0.010402 -0.001794 0.000922 -0.000923 -0.007209
# 3 -0.001950 -0.001794 0.009113 0.003873 -0.005749 -0.001096
# 4 -0.000679 0.000922 0.003873 0.015696 -0.004800 -0.003501
# 5 0.000358 -0.000923 -0.005749 -0.004800 0.025794 0.002620
# 6 0.003372 -0.007209 -0.001096 -0.003501 0.002620 0.026013
#
#
# Mechanical properties :
#
#
# Convention : Reuss Voigt Hill
#
# Bulk Modulus (GPa) = 83.13784 107.70547 95.42166
# Shear Modulus (GPa) = 44.10705 55.16165 49.63435
#
# Velocity S-wave (km/s) = 4.22730 4.72746 4.48436
# Velocity P-wave (km/s) = 7.58356 8.56947 8.09154
#
# Compressibility (1/GPa) = 0.01202822
#
# Stress axis : x y z
#
# Youngs Moduli (GPa) = 134.70686 96.13278 109.73373
#
# Poissons Ratio (x) = 0.35685 0.21393
# Poissons Ratio (y) = 0.50004 0.19683
# Poissons Ratio (z) = 0.26261 0.17243
#
# Static dielectric constant tensor:
#      x y z
#    x 1.755730 0.076770 0.080490 
#    y 0.076770 2.032060 0.170480 
#    z 0.080490 0.170480 2.407330 
# 
# From -- ./inp_files/479778.got.cif
#   From: 2010.05.17/outbox.cif.g08.bks.cpg/sg2_240_cif.got.tgz:479778.got - 2010.06.03 11:33:40.
