data_PCOD9071525
_publ_section_title
;
Structure prediction by ZEFSAII (Michael W. Deem and Ramdas Pophale) SiO2 
 PCOD9071525
Probable space group: P -1
;
_chemical_formula_sum "Si O2"
_cell_formula_units_Z 14
_cell_length_a 13.785310
_cell_length_b 18.928403
_cell_length_c 11.448061
_cell_angle_alpha 144.482519
_cell_angle_beta 158.789824
_cell_angle_gamma 35.158404
_cell_volume 602.818280
_symmetry_space_group_name_H-M "P -1"
_symmetry_group_IT_number 2
_symmetry_cell_setting 'triclinic'
loop_
_space_group_symop_operation_xyz
x,y,z
-x,-y,-z
loop_
_atom_site_type_symbol
_atom_site_label
_atom_site_fract_x
_atom_site_fract_y
_atom_site_fract_z
Si Si1 0.522237 0.885917 0.460860
Si Si2 0.099644 0.907128 0.224784
Si Si3 0.406942 0.266118 0.328259
Si Si4 0.319366 0.502187 0.684637
Si Si5 0.320223 0.355367 0.851597
Si Si6 0.959590 0.888013 0.385047
Si Si7 0.498050 0.646142 0.689912
O O1 0.263947 0.897569 0.273791
O O2 0.563713 0.762496 0.261888
O O3 0.500000 0.000000 0.500000
O O4 0.797398 0.886237 0.843326
O O5 0.278223 0.797097 0.361939
O O6 0.090843 0.043101 0.453578
O O7 0.283279 0.366139 0.425089
O O8 0.353410 0.340313 0.246078
O O9 0.287282 0.150264 0.008693
O O10 0.008458 0.591427 0.469332
O O11 0.500000 0.500000 0.000000
O O12 0.500509 0.547403 0.849229
O O13 0.361789 0.325445 0.995215
O O14 0.207828 0.757976 0.502079
O O15 0.000000 0.000000 0.500000
O O16 0.500000 0.500000 0.500000
#
# Coordination Sequence:
#
# PCOD9071525 Si02
#       7
#     2   2   2   2   2   2   2
#     4  12  27  49  75 110 153 202 263 326 386 461
#     4  12  27  48  78 113 151 203 263 321 387 463
#     4  12  27  46  79 111 159 200 262 321 392 465
#     4  12  27  49  77 110 151 203 258 318 389 470
#     4  12  27  47  75 110 152 203 257 319 395 455
#     4  12  27  48  79 115 157 207 261 318 395 471
#     4  12  27  49  76 114 161 201 258 324 392 466
#
# _framework density 23.224247999999999
#
# number of rings (size 3 to 8) (size 9 to 14) (size 15 to 20)
#    0.000    0.000    2.857    6.429    6.000    1.143 
#    0.000    0.000    0.000    0.000    0.000    0.000 
#    0.000    0.000    0.000    0.000    0.000    0.000 
#
# Total GULP energy -78376.874974 kJ/mol
# GULP energy per Si atom -5598.348212 kJ/mol
# Density = 2.317139 g / cm^3
# Si number density = 23.224248 Si / 1000 Ang^3
#
#
#
# Elastic Constant Matrix: (Units=GPa)
#
#
# Indices 1 2 3 4 5 6 
#
# 1 97.1976 27.7229 16.8956 12.9670 -16.8678 -1.9325
# 2 27.7229 107.8656 20.7649 5.5585 -14.7486 -2.2113
# 3 16.8956 20.7649 83.1911 19.1956 -13.9376 -3.2005
# 4 12.9670 5.5585 19.1956 37.9918 -8.0539 -0.5957
# 5 -16.8678 -14.7486 -13.9376 -8.0539 45.8531 15.6803
# 6 -1.9325 -2.2113 -3.2005 -0.5957 15.6803 46.5739
#
#
#
# Elastic Compliance Matrix: (Units=1/GPa)
#
#
# Indices 1 2 3 4 5 6 
#
# 1 0.011997 -0.002383 -0.000704 -0.002719 0.003223 -0.000784
# 2 -0.002383 0.010513 -0.001957 0.000722 0.002196 -0.000464
# 3 -0.000704 -0.001957 0.014509 -0.006290 0.002424 -0.000022
# 4 -0.002719 0.000722 -0.006290 0.030974 0.003164 -0.001180
# 5 0.003223 0.002196 0.002424 0.003164 0.028073 -0.009007
# 6 -0.000784 -0.000464 -0.000022 -0.001180 -0.009007 0.024432
#
#
# Mechanical properties :
#
#
# Convention : Reuss Voigt Hill
#
# Bulk Modulus (GPa) = 37.13246 46.55790 41.84518
# Shear Modulus (GPa) = 35.82567 40.94180 38.38374
#
# Velocity S-wave (km/s) = 3.93185 4.20323 4.06981
# Velocity P-wave (km/s) = 6.05277 6.60658 6.33573
#
# Compressibility (1/GPa) = 0.02693062
#
# Stress axis : x y z
#
# Youngs Moduli (GPa) = 83.35432 95.11605 68.92384
#
# Poissons Ratio (x) = 0.22666 0.04855
# Poissons Ratio (y) = 0.19864 0.13487
# Poissons Ratio (z) = 0.05872 0.18613
#
# Static dielectric constant tensor:
#      x y z
#    x 1.964510 -0.012350 -0.029160 
#    y -0.012350 1.882400 0.044990 
#    z -0.029160 0.044990 2.077180 
# 
# From -- ./inp_files/457798.got.cif
#   From: 2010.05.17/outbox.cif.g08.bks.cpg/sg2_229_cif.got.tgz:457798.got - 2010.06.03 11:33:40.
