data_PCOD9071506
_publ_section_title
;
Structure prediction by ZEFSAII (Michael W. Deem and Ramdas Pophale) SiO2 
 PCOD9071506
Probable space group: P -1
;
_chemical_formula_sum "Si O2"
_cell_formula_units_Z 14
_cell_length_a 5.124668
_cell_length_b 11.625918
_cell_length_c 10.692673
_cell_angle_alpha 67.486661
_cell_angle_beta 65.809391
_cell_angle_gamma 69.198503
_cell_volume 521.765062
_symmetry_space_group_name_H-M "P -1"
_symmetry_group_IT_number 2
_symmetry_cell_setting 'triclinic'
loop_
_space_group_symop_operation_xyz
x,y,z
-x,-y,-z
loop_
_atom_site_type_symbol
_atom_site_label
_atom_site_fract_x
_atom_site_fract_y
_atom_site_fract_z
Si Si1 0.970869 0.147366 0.399493
Si Si2 0.548499 0.613887 0.540285
Si Si3 0.153684 0.193892 0.702622
Si Si4 0.841000 0.680937 0.115282
Si Si5 0.552530 0.476531 0.851444
Si Si6 0.362216 0.911756 0.737875
Si Si7 0.395010 0.877323 0.028455
O O1 0.740231 0.265483 0.461419
O O2 0.841533 0.145364 0.287758
O O3 0.000000 0.000000 0.500000
O O4 0.303419 0.160475 0.323284
O O5 0.500000 0.500000 0.500000
O O6 0.822744 0.677669 0.427109
O O7 0.610901 0.568634 0.691231
O O8 0.315684 0.221949 0.786000
O O9 0.326960 0.063789 0.656655
O O10 0.851534 0.157810 0.818500
O O11 0.726521 0.558715 0.147642
O O12 0.154134 0.634877 0.137390
O O13 0.697751 0.769154 0.992896
O O14 0.500000 0.500000 0.000000
O O15 0.265965 0.901049 0.904218
O O16 0.500000 0.000000 0.000000
#
# Coordination Sequence:
#
# PCOD9071506 Si02
#       7
#     2   2   2   2   2   2   2
#     4  12  29  55  84 127 174 234 297 379 448 534
#     4  12  30  58  90 129 184 244 296 367 457 549
#     4  12  26  52  86 128 178 230 299 364 454 541
#     4  12  27  51  82 123 173 228 298 370 436 535
#     4  12  30  56  83 124 173 237 306 366 442 533
#     4  12  28  49  87 124 179 224 300 372 455 525
#     4  12  27  50  86 133 174 234 295 375 458 539
#
# _framework density 26.831999
#
# number of rings (size 3 to 8) (size 9 to 14) (size 15 to 20)
#    0.000    0.000    5.714    2.143    6.000    2.857 
#    2.571    0.000    0.000    0.000    0.000    0.000 
#    0.000    0.000    0.000    0.000    0.000    0.000 
#
# Total GULP energy -78119.008930 kJ/mol
# GULP energy per Si atom -5579.929209 kJ/mol
# Density = 2.677093 g / cm^3
# Si number density = 26.831999 Si / 1000 Ang^3
#
#
#
# Elastic Constant Matrix: (Units=GPa)
#
#
# Indices 1 2 3 4 5 6 
#
# 1 129.6687 48.5003 49.1558 26.4322 3.3242 -11.2915
# 2 48.5003 155.9700 61.2159 1.9327 -10.6369 -0.2068
# 3 49.1558 61.2159 138.8368 4.7064 -13.0150 1.0843
# 4 26.4322 1.9327 4.7064 35.5156 7.0889 13.8311
# 5 3.3242 -10.6369 -13.0150 7.0889 45.3657 -1.5696
# 6 -11.2915 -0.2068 1.0843 13.8311 -1.5696 48.6172
#
#
#
# Elastic Compliance Matrix: (Units=1/GPa)
#
#
# Indices 1 2 3 4 5 6 
#
# 1 0.012684 -0.002635 -0.003040 -0.011209 -0.000454 0.006177
# 2 -0.002635 0.008336 -0.002710 0.002085 0.001007 -0.001077
# 3 -0.003040 -0.002710 0.009643 0.001174 0.002129 -0.001198
# 4 -0.011209 0.002085 0.001174 0.043235 -0.005632 -0.015102
# 5 -0.000454 0.001007 0.002129 -0.005632 0.023880 0.002224
# 6 0.006177 -0.001077 -0.001198 -0.015102 0.002224 0.026394
#
#
# Mechanical properties :
#
#
# Convention : Reuss Voigt Hill
#
# Bulk Modulus (GPa) = 71.98019 82.46883 77.22451
# Shear Modulus (GPa) = 34.34663 43.60660 38.97661
#
# Velocity S-wave (km/s) = 3.58168 4.03571 3.81546
# Velocity P-wave (km/s) = 6.63242 7.24693 6.94647
#
# Compressibility (1/GPa) = 0.01389271
#
# Stress axis : x y z
#
# Youngs Moduli (GPa) = 78.83767 119.95986 103.69937
#
# Poissons Ratio (x) = 0.31610 0.31524
# Poissons Ratio (y) = 0.20774 0.28107
# Poissons Ratio (z) = 0.23966 0.32515
#
# Static dielectric constant tensor:
#      x y z
#    x 2.292240 -0.133170 -0.059240 
#    y -0.133170 2.438400 0.007690 
#    z -0.059240 0.007690 2.333400 
# 
# From -- ./inp_files/362769.got.cif
#   From: 2010.05.17/outbox.cif.g08.bks.cpg/sg2_182_cif.got.tgz:362769.got - 2010.06.03 11:33:40.
