data_PCOD9071666
_publ_section_title
;
Structure prediction by ZEFSAII (Michael W. Deem and Ramdas Pophale) SiO2 
 PCOD9071666
Probable space group: P -1
;
_chemical_formula_sum "Si O2"
_cell_formula_units_Z 12
_cell_length_a 7.806525
_cell_length_b 7.683501
_cell_length_c 9.272523
_cell_angle_alpha 82.175732
_cell_angle_beta 97.741508
_cell_angle_gamma 115.797461
_cell_volume 494.309089
_symmetry_space_group_name_H-M "P -1"
_symmetry_group_IT_number 2
_symmetry_cell_setting 'triclinic'
loop_
_space_group_symop_operation_xyz
x,y,z
-x,-y,-z
loop_
_atom_site_type_symbol
_atom_site_label
_atom_site_fract_x
_atom_site_fract_y
_atom_site_fract_z
Si Si1 0.724159 0.977975 0.385543
Si Si2 0.283065 0.016993 0.948123
Si Si3 0.048926 0.287390 0.891044
Si Si4 0.044935 0.294129 0.556065
Si Si5 0.622579 0.400901 0.947404
Si Si6 0.621017 0.397904 0.601541
O O1 0.732369 0.043905 0.213699
O O2 0.837950 0.841314 0.421391
O O3 0.505841 0.831397 0.411782
O O4 0.842058 0.159457 0.478379
O O5 0.163582 0.151405 0.926604
O O6 0.497849 0.173186 0.991200
O O7 0.162904 0.840414 0.059318
O O8 0.039872 0.335528 0.718836
O O9 0.171226 0.478478 0.974517
O O10 0.171884 0.485340 0.458035
O O11 0.626783 0.427250 0.771937
O O12 0.500000 0.500000 0.000000
O O13 0.500000 0.500000 0.500000
#
# Coordination Sequence:
#
# PCOD9071666 Si02
#       6
#     2   2   2   2   2   2
#     4   8  14  21  26  31  37  44  50  54  59  65
#     4   8  14  21  26  31  37  44  50  54  59  65
#     4   9  15  20  26  33  38  43  48  54  61  66
#     4   9  15  20  26  33  38  43  48  54  61  66
#     4   9  15  21  27  32  37  43  49  55  60  65
#     4   9  15  21  27  32  37  43  49  55  60  65
#
# _framework density 24.276308
#
# number of rings (size 3 to 8) (size 9 to 14) (size 15 to 20)
#    0.000    3.333    0.000    4.000    0.000    9.333 
#    0.000    0.000    0.000    0.000    0.000    0.000 
#    0.000    0.000    0.000    0.000    0.000    0.000 
#
# Total GULP energy -67119.946995 kJ/mol
# GULP energy per Si atom -5593.328916 kJ/mol
# Density = 2.422105 g / cm^3
# Si number density = 24.276308 Si / 1000 Ang^3
#
#
#
# Elastic Constant Matrix: (Units=GPa)
#
#
# Indices 1 2 3 4 5 6 
#
# 1 92.5538 58.0887 53.6786 -2.2240 -8.9181 31.0783
# 2 58.0887 221.3880 151.6009 11.5363 -18.0535 48.7630
# 3 53.6786 151.6009 178.9622 11.0718 -12.7802 31.3672
# 4 -2.2240 11.5363 11.0718 48.5952 14.6354 0.2474
# 5 -8.9181 -18.0535 -12.7802 14.6354 19.5122 -14.2489
# 6 31.0783 48.7630 31.3672 0.2474 -14.2489 59.0235
#
#
#
# Elastic Compliance Matrix: (Units=1/GPa)
#
#
# Indices 1 2 3 4 5 6 
#
# 1 0.014967 -0.000776 -0.003036 0.002184 -0.001966 -0.006110
# 2 -0.000776 0.012131 -0.008976 -0.001906 0.003507 -0.003989
# 3 -0.003036 -0.008976 0.014026 -0.001996 0.002595 0.002195
# 4 0.002184 -0.001906 -0.001996 0.030326 -0.028927 -0.005625
# 5 -0.001966 0.003507 0.002595 -0.028927 0.090705 0.018777
# 6 -0.006110 -0.003989 0.002195 -0.005625 0.018777 0.026845
#
#
# Mechanical properties :
#
#
# Convention : Reuss Voigt Hill
#
# Bulk Modulus (GPa) = 64.32045 113.29338 88.80691
# Shear Modulus (GPa) = 22.75207 40.72858 31.74032
#
# Velocity S-wave (km/s) = 3.06471 4.10043 3.61981
# Velocity P-wave (km/s) = 6.25108 8.31791 7.35743
#
# Compressibility (1/GPa) = 0.01554716
#
# Stress axis : x y z
#
# Youngs Moduli (GPa) = 66.81181 82.43268 71.29499
#
# Poissons Ratio (x) = 0.06401 0.21647
# Poissons Ratio (y) = 0.05188 0.63994
# Poissons Ratio (z) = 0.20286 0.73992
#
# Static dielectric constant tensor:
#      x y z
#    x 2.047350 -0.011810 0.003670 
#    y -0.011810 1.905020 -0.020290 
#    z 0.003670 -0.020290 1.820510 
# 
# From -- ./inp_files/190285.got.cif
#   From: 2010.05.17/outbox.cif.g08.bks.cpg/sg2_96_cif.got.tgz:190285.got - 2010.06.03 11:33:40.
