data_PCOD9071138
_publ_section_title
;
Structure prediction by ZEFSAII (Michael W. Deem and Ramdas Pophale) SiO2 
 PCOD9071138
Probable space group: P -1
;
_chemical_formula_sum "Si O2"
_cell_formula_units_Z 16
_cell_length_a 15.668182
_cell_length_b 8.045095
_cell_length_c 13.196288
_cell_angle_alpha 44.676255
_cell_angle_beta 124.471867
_cell_angle_gamma 89.844635
_cell_volume 689.470273
_symmetry_space_group_name_H-M "P -1"
_symmetry_group_IT_number 2
_symmetry_cell_setting 'triclinic'
loop_
_space_group_symop_operation_xyz
x,y,z
-x,-y,-z
loop_
_atom_site_type_symbol
_atom_site_label
_atom_site_fract_x
_atom_site_fract_y
_atom_site_fract_z
Si Si1 0.851012 0.696582 0.878158
Si Si2 0.143216 0.754883 0.767825
Si Si3 0.530670 0.260428 0.334955
Si Si4 0.580439 0.055419 0.102138
Si Si5 0.583547 0.849307 0.869943
Si Si6 0.620625 0.314839 0.748254
Si Si7 0.094518 0.071133 0.000020
Si Si8 0.101404 0.336678 0.542171
O O1 0.701997 0.949086 0.604792
O O2 0.856895 0.450763 0.058718
O O3 0.842192 0.915344 0.861835
O O4 0.000000 0.500000 0.000000
O O5 0.157683 0.980939 0.731865
O O6 0.270934 0.532803 0.868371
O O7 0.000000 0.000000 0.500000
O O8 0.468386 0.130445 0.289298
O O9 0.447638 0.455836 0.299137
O O10 0.491532 0.568146 0.116445
O O11 0.551013 0.017227 0.212474
O O12 0.748357 0.764959 0.312671
O O13 0.500000 0.000000 0.000000
O O14 0.642860 0.995840 0.898778
O O15 0.500000 0.500000 0.500000
O O16 0.768812 0.200257 0.862648
O O17 0.993121 0.420995 0.721146
O O18 0.000000 0.000000 0.000000
O O19 0.000000 0.500000 0.500000
#
# Coordination Sequence:
#
# PCOD9071138 Si02
#       8
#     2   2   2   2   2   2   2   2
#     4  12  30  49  76 119 156 208 256 328 398 465
#     4  12  26  51  78 107 156 205 257 325 388 466
#     4  12  27  50  79 115 155 205 267 321 396 467
#     4  12  28  47  81 114 154 209 260 330 389 466
#     4  12  27  48  81 115 153 205 266 327 392 465
#     4  12  25  51  77 110 155 206 262 321 394 465
#     4  12  29  50  76 117 159 202 261 328 395 468
#     4  12  29  51  79 113 153 210 262 315 399 470
#
# _framework density 23.206220999999999
#
# number of rings (size 3 to 8) (size 9 to 14) (size 15 to 20)
#    0.000    0.000    6.250    1.125   10.500    2.000 
#    0.000    0.000    0.000    0.000    0.000    0.000 
#    0.000    0.000    0.000    0.000    0.000    0.000 
#
# Total GULP energy -89394.963009 kJ/mol
# GULP energy per Si atom -5587.185188 kJ/mol
# Density = 2.315340 g / cm^3
# Si number density = 23.206221 Si / 1000 Ang^3
#
#
#
# Elastic Constant Matrix: (Units=GPa)
#
#
# Indices 1 2 3 4 5 6 
#
# 1 140.5922 46.4583 32.3766 -9.7064 36.2659 -8.2828
# 2 46.4583 93.8625 10.4346 -1.9968 10.9131 -19.1430
# 3 32.3766 10.4346 103.7571 10.9365 36.1432 0.3598
# 4 -9.7064 -1.9968 10.9365 44.6470 6.1252 7.3086
# 5 36.2659 10.9131 36.1432 6.1252 52.4260 -9.6824
# 6 -8.2828 -19.1430 0.3598 7.3086 -9.6824 38.5557
#
#
#
# Elastic Compliance Matrix: (Units=1/GPa)
#
#
# Indices 1 2 3 4 5 6 
#
# 1 0.010768 -0.004877 -0.000919 0.003670 -0.006686 -0.002474
# 2 -0.004877 0.014240 -0.000540 -0.001735 0.002263 0.006925
# 3 -0.000919 -0.000540 0.013163 -0.001887 -0.008545 -0.002376
# 4 0.003670 -0.001735 -0.001887 0.025256 -0.004952 -0.006087
# 5 -0.006686 0.002263 -0.008545 -0.004952 0.031279 0.008561
# 6 -0.002474 0.006925 -0.002376 -0.006087 0.008561 0.032169
#
#
# Mechanical properties :
#
#
# Convention : Reuss Voigt Hill
#
# Bulk Modulus (GPa) = 39.21612 57.41676 48.31644
# Shear Modulus (GPa) = 33.77322 43.72189 38.74755
#
# Velocity S-wave (km/s) = 3.81905 4.34528 4.09064
# Velocity P-wave (km/s) = 6.03179 7.06902 6.57090
#
# Compressibility (1/GPa) = 0.02549972
#
# Stress axis : x y z
#
# Youngs Moduli (GPa) = 92.86554 70.22461 75.97273
#
# Poissons Ratio (x) = 0.34248 0.06981
# Poissons Ratio (y) = 0.45290 0.04101
# Poissons Ratio (z) = 0.08534 0.03790
#
# Static dielectric constant tensor:
#      x y z
#    x 1.964580 -0.034440 -0.068900 
#    y -0.034440 1.792980 0.042820 
#    z -0.068900 0.042820 1.873440 
# 
# From -- ./inp_files/528101.got.cif
#   From: 2010.05.17/outbox.cif.g08.bks.cpg/sg2_265_cif.got.tgz:528101.got - 2010.06.03 11:33:40.
