data_PCOD9071089
_publ_section_title
;
Structure prediction by ZEFSAII (Michael W. Deem and Ramdas Pophale) SiO2 
 PCOD9071089
Probable space group: P -1
;
_chemical_formula_sum "Si O2"
_cell_formula_units_Z 14
_cell_length_a 6.797340
_cell_length_b 11.968117
_cell_length_c 7.818454
_cell_angle_alpha 80.337099
_cell_angle_beta 83.567142
_cell_angle_gamma 100.885714
_cell_volume 608.910283
_symmetry_space_group_name_H-M "P -1"
_symmetry_group_IT_number 2
_symmetry_cell_setting 'triclinic'
loop_
_space_group_symop_operation_xyz
x,y,z
-x,-y,-z
loop_
_atom_site_type_symbol
_atom_site_label
_atom_site_fract_x
_atom_site_fract_y
_atom_site_fract_z
Si Si1 0.779918 0.277247 0.922705
Si Si2 0.697877 0.715301 0.639143
Si Si3 0.659412 0.453089 0.118378
Si Si4 0.904304 0.589905 0.373505
Si Si5 0.383132 0.102185 0.946172
Si Si6 0.980195 0.846590 0.814892
Si Si7 0.303559 0.040836 0.579552
O O1 0.545427 0.221922 0.926724
O O2 0.911248 0.308170 0.732275
O O3 0.797252 0.396551 0.993222
O O4 0.870688 0.187082 0.049571
O O5 0.477396 0.654867 0.738804
O O6 0.757924 0.643530 0.495581
O O7 0.863602 0.726700 0.770671
O O8 0.714952 0.849441 0.559283
O O9 0.780498 0.536677 0.229798
O O10 0.500000 0.500000 0.000000
O O11 0.000000 0.500000 0.500000
O O12 0.326631 0.089255 0.757488
O O13 0.188981 0.098897 0.085663
O O14 0.500000 0.000000 0.000000
O O15 0.116008 0.931995 0.644244
O O16 0.500000 0.000000 0.500000
#
# Coordination Sequence:
#
# PCOD9071089 Si02
#       7
#     2   2   2   2   2   2   2
#     4  12  26  47  77 103 144 194 243 294 369 440
#     4  12  26  44  75 104 146 186 234 305 370 419
#     4  12  26  50  74 104 144 195 255 299 361 442
#     4  12  28  46  72 109 145 188 248 316 364 421
#     4  12  26  46  75 107 145 195 242 290 360 455
#     4  12  25  50  72 109 148 193 238 290 369 456
#     4  12  27  44  73 110 151 184 239 300 366 442
#
# _framework density 22.991890999999999
#
# number of rings (size 3 to 8) (size 9 to 14) (size 15 to 20)
#    0.000    0.000    2.857    6.857    8.000    0.000 
#    0.000    0.000    0.000    0.000    0.000    0.000 
#    0.000    0.000    0.000    0.000    0.000    0.000 
#
# Total GULP energy -78407.633674 kJ/mol
# GULP energy per Si atom -5600.545262 kJ/mol
# Density = 2.293956 g / cm^3
# Si number density = 22.991891 Si / 1000 Ang^3
#
#
#
# Elastic Constant Matrix: (Units=GPa)
#
#
# Indices 1 2 3 4 5 6 
#
# 1 84.7468 19.6611 15.8854 -0.1299 -1.4521 14.4024
# 2 19.6611 61.7270 1.6751 10.6034 5.1302 10.3861
# 3 15.8854 1.6751 71.1725 1.7061 -9.7959 3.5708
# 4 -0.1299 10.6034 1.7061 60.7785 0.8212 3.0341
# 5 -1.4521 5.1302 -9.7959 0.8212 41.4794 -12.5946
# 6 14.4024 10.3861 3.5708 3.0341 -12.5946 39.1546
#
#
#
# Elastic Compliance Matrix: (Units=1/GPa)
#
#
# Indices 1 2 3 4 5 6 
#
# 1 0.013933 -0.003715 -0.002979 0.000990 -0.001079 -0.004291
# 2 -0.003715 0.019005 0.000166 -0.003043 -0.003801 -0.004677
# 3 -0.002979 0.000166 0.015195 -0.000558 0.003753 0.000916
# 4 0.000990 -0.003043 -0.000558 0.017053 -0.000343 -0.000938
# 5 -0.001079 -0.003801 0.003753 -0.000343 0.028553 0.010274
# 6 -0.004291 -0.004677 0.000916 -0.000938 0.010274 0.031653
#
#
# Mechanical properties :
#
#
# Convention : Reuss Voigt Hill
#
# Bulk Modulus (GPa) = 28.50910 32.45438 30.48174
# Shear Modulus (GPa) = 33.30214 40.31082 36.80648
#
# Velocity S-wave (km/s) = 3.80995 4.19174 4.00540
# Velocity P-wave (km/s) = 5.63745 6.12975 5.88875
#
# Compressibility (1/GPa) = 0.03507652
#
# Stress axis : x y z
#
# Youngs Moduli (GPa) = 71.77420 52.61831 65.80960
#
# Poissons Ratio (x) = 0.19549 0.19606
# Poissons Ratio (y) = 0.26666 -0.01095
# Poissons Ratio (z) = 0.21383 -0.00875
#
# Static dielectric constant tensor:
#      x y z
#    x 1.877560 0.025740 0.100540 
#    y 0.025740 1.859850 -0.009530 
#    z 0.100540 -0.009530 1.882070 
# 
# From -- ./inp_files/116618.got.cif
#   From: 2010.05.17/outbox.cif.g08.bks.cpg/sg2_59_cif.got.tgz:116618.got - 2010.06.03 11:33:40.
