data_PCOD9071897
_publ_section_title
;
Structure prediction by ZEFSAII (Michael W. Deem and Ramdas Pophale) SiO2 
 PCOD9071897
Probable space group: P -1
;
_chemical_formula_sum "Si O2"
_cell_formula_units_Z 16
_cell_length_a 17.546230
_cell_length_b 15.918457
_cell_length_c 11.548825
_cell_angle_alpha 39.286328
_cell_angle_beta 41.010423
_cell_angle_gamma 22.810370
_cell_volume 780.645209
_symmetry_space_group_name_H-M "P -1"
_symmetry_group_IT_number 2
_symmetry_cell_setting 'triclinic'
loop_
_space_group_symop_operation_xyz
x,y,z
-x,-y,-z
loop_
_atom_site_type_symbol
_atom_site_label
_atom_site_fract_x
_atom_site_fract_y
_atom_site_fract_z
Si Si1 0.551792 0.802348 0.687581
Si Si2 0.138048 0.440845 0.230309
Si Si3 0.079031 0.024952 0.219286
Si Si4 0.826787 0.498720 0.298394
Si Si5 0.876058 0.918127 0.132174
Si Si6 0.933488 0.352471 0.587461
Si Si7 0.895388 0.721715 0.993758
Si Si8 0.298759 0.618040 0.566439
O O1 0.647957 0.719738 0.793689
O O2 0.726998 0.586707 0.634365
O O3 0.500000 0.000000 0.500000
O O4 0.358344 0.891638 0.802119
O O5 0.982854 0.683285 0.214285
O O6 0.081007 0.343330 0.430272
O O7 0.087783 0.508715 0.081370
O O8 0.858636 0.240154 0.298388
O O9 0.192087 0.804307 0.390859
O O10 0.074957 0.022875 0.087811
O O11 0.184663 0.066737 0.088956
O O12 0.883874 0.377783 0.482983
O O13 0.765231 0.709193 0.165025
O O14 0.677821 0.547973 0.341544
O O15 0.024607 0.326328 0.175216
O O16 0.964654 0.852198 0.229352
O O17 0.500000 0.500000 0.500000
#
# Coordination Sequence:
#
# PCOD9071897 Si02
#       8
#     2   2   2   2   2   2   2   2
#     4  11  17  27  48  77 110 149 184 214 266 330
#     4   9  16  28  48  73 109 145 178 218 271 323
#     4   9  20  37  60  85 106 141 191 228 265 333
#     4   9  18  34  56  79 114 148 174 227 290 323
#     4  10  18  30  50  78 108 141 183 227 264 318
#     4  10  18  30  47  73 112 147 175 219 275 324
#     4   8  16  33  57  82 110 143 178 229 284 323
#     4  10  21  40  63  80 107 147 187 227 278 331
#
# _framework density 20.495865999999999
#
# number of rings (size 3 to 8) (size 9 to 14) (size 15 to 20)
#    0.000    2.500    2.500    0.750    0.000    4.000 
#    0.000    5.000    0.000    1.500    0.000    0.000 
#    0.000    0.000    0.000    0.000    0.000    0.000 
#
# Total GULP energy -89197.403315 kJ/mol
# GULP energy per Si atom -5574.837707 kJ/mol
# Density = 2.044922 g / cm^3
# Si number density = 20.495866 Si / 1000 Ang^3
#
#
#
# Elastic Constant Matrix: (Units=GPa)
#
#
# Indices 1 2 3 4 5 6 
#
# 1 101.1499 29.1185 38.0904 14.3150 5.4929 -17.1470
# 2 29.1185 65.0345 25.4414 11.8524 4.0200 -21.1066
# 3 38.0904 25.4414 112.8209 8.8353 25.8059 -8.8760
# 4 14.3150 11.8524 8.8353 11.6159 2.6354 -7.2613
# 5 5.4929 4.0200 25.8059 2.6354 45.8853 -0.6404
# 6 -17.1470 -21.1066 -8.8760 -7.2613 -0.6404 16.7557
#
#
#
# Elastic Compliance Matrix: (Units=1/GPa)
#
#
# Indices 1 2 3 4 5 6 
#
# 1 0.013938 -0.000883 -0.003422 -0.009302 0.000970 0.007344
# 2 -0.000883 0.027793 -0.003194 -0.006348 0.000246 0.029673
# 3 -0.003422 -0.003194 0.012087 -0.001636 -0.006043 -0.002062
# 4 -0.009302 -0.006348 -0.001636 0.129836 -0.004341 0.037718
# 5 0.000970 0.000246 -0.006043 -0.004341 0.025265 -0.002814
# 6 0.007344 0.029673 -0.002062 0.037718 -0.002814 0.119721
#
#
# Mechanical properties :
#
#
# Convention : Reuss Voigt Hill
#
# Bulk Modulus (GPa) = 25.75974 51.58955 38.67465
# Shear Modulus (GPa) = 14.02215 27.27505 20.64860
#
# Velocity S-wave (km/s) = 2.61845 3.65191 3.17748
# Velocity P-wave (km/s) = 4.66233 6.55800 5.68967
#
# Compressibility (1/GPa) = 0.03882027
#
# Stress axis : x y z
#
# Youngs Moduli (GPa) = 71.74646 35.97995 82.73059
#
# Poissons Ratio (x) = 0.03177 0.28313
# Poissons Ratio (y) = 0.06335 0.26423
# Poissons Ratio (z) = 0.24554 0.11492
#
# Static dielectric constant tensor:
#      x y z
#    x 1.797940 0.012140 0.008360 
#    y 0.012140 1.690480 -0.016360 
#    z 0.008360 -0.016360 1.779050 
# 
# From -- ./inp_files/426187.got.cif
#   From: 2010.05.17/outbox.cif.g08.bks.cpg/sg2_214_cif.got.tgz:426187.got - 2010.06.03 11:33:40.
