data_PCOD9071579
_publ_section_title
;
Structure prediction by ZEFSAII (Michael W. Deem and Ramdas Pophale) SiO2 
 PCOD9071579
Probable space group: P -1
;
_chemical_formula_sum "Si O2"
_cell_formula_units_Z 14
_cell_length_a 12.361526
_cell_length_b 11.711846
_cell_length_c 5.425876
_cell_angle_alpha 103.393687
_cell_angle_beta 131.177847
_cell_angle_gamma 76.695454
_cell_volume 571.928872
_symmetry_space_group_name_H-M "P -1"
_symmetry_group_IT_number 2
_symmetry_cell_setting 'triclinic'
loop_
_space_group_symop_operation_xyz
x,y,z
-x,-y,-z
loop_
_atom_site_type_symbol
_atom_site_label
_atom_site_fract_x
_atom_site_fract_y
_atom_site_fract_z
Si Si1 0.358154 0.540400 0.650563
Si Si2 0.178478 0.214002 0.615684
Si Si3 0.321520 0.285998 0.366246
Si Si4 0.858153 0.040400 0.464295
Si Si5 0.910537 0.390995 0.362224
Si Si6 0.410539 0.890994 0.260381
Si Si7 0.250001 0.749999 0.330953
O O1 0.333295 0.423815 0.400201
O O2 0.210301 0.573539 0.597965
O O3 0.373702 0.665725 0.611084
O O4 0.500000 0.500000 0.000000
O O5 0.218443 0.272800 0.444689
O O6 0.029060 0.280424 0.526759
O O7 0.166706 0.076184 0.476501
O O8 0.281553 0.227201 0.016553
O O9 0.470935 0.219575 0.659151
O O10 0.873700 0.165726 0.675741
O O11 0.710299 0.073538 0.106475
O O12 0.000000 0.000000 0.500000
O O13 0.000000 0.500000 0.500000
O O14 0.822267 0.346843 0.980275
O O15 0.322267 0.846839 0.333359
O O16 0.500000 0.000000 0.500000
#
# Coordination Sequence:
#
# PCOD9071579 Si02
#       7
#     2   2   2   2   2   2   2
#     4  12  28  48  77 115 162 211 276 345 415 490
#     4  12  28  49  81 117 158 211 276 334 411 492
#     4  12  28  49  81 117 158 211 276 334 411 492
#     4  12  28  48  77 115 162 211 276 345 415 490
#     4  12  27  50  79 116 162 219 273 342 416 500
#     4  12  27  50  79 116 162 219 273 342 416 500
#     4  12  28  48  80 112 164 210 280 340 418 490
#
# _framework density 24.478569
#
# number of rings (size 3 to 8) (size 9 to 14) (size 15 to 20)
#    0.000    0.000    2.857    6.000    8.000    4.571 
#    0.000    0.000    0.000    0.000    0.000    0.000 
#    0.000    0.000    0.000    0.000    0.000    0.000 
#
# Total GULP energy -78318.330627 kJ/mol
# GULP energy per Si atom -5594.166473 kJ/mol
# Density = 2.442285 g / cm^3
# Si number density = 24.478569 Si / 1000 Ang^3
#
#
#
# Elastic Constant Matrix: (Units=GPa)
#
#
# Indices 1 2 3 4 5 6 
#
# 1 67.9680 6.7357 -8.9790 2.9263 6.6246 -6.9338
# 2 6.7357 177.3893 7.4607 -0.3170 -2.1790 -7.5677
# 3 -8.9790 7.4607 65.3012 -1.2731 6.1447 2.5618
# 4 2.9263 -0.3170 -1.2731 50.6662 -12.4128 5.0826
# 5 6.6246 -2.1790 6.1447 -12.4128 26.4516 -9.8635
# 6 -6.9338 -7.5677 2.5618 5.0826 -9.8635 53.1993
#
#
#
# Elastic Compliance Matrix: (Units=1/GPa)
#
#
# Indices 1 2 3 4 5 6 
#
# 1 0.015865 -0.000739 0.002681 -0.002264 -0.005323 0.001063
# 2 -0.000739 0.005764 -0.000924 0.000295 0.001385 0.000997
# 3 0.002681 -0.000924 0.016351 -0.000960 -0.005559 -0.001508
# 4 -0.002264 0.000295 -0.000960 0.022652 0.011344 -0.000268
# 5 -0.005323 0.001385 -0.005559 0.011344 0.048747 0.007725
# 6 0.001063 0.000997 -0.001508 -0.000268 0.007725 0.020608
#
#
# Mechanical properties :
#
#
# Convention : Reuss Voigt Hill
#
# Bulk Modulus (GPa) = 24.98976 35.67702 30.33339
# Shear Modulus (GPa) = 35.38800 46.42616 40.90708
#
# Velocity S-wave (km/s) = 3.80633 4.35973 4.09239
# Velocity P-wave (km/s) = 5.43585 6.32055 5.89482
#
# Compressibility (1/GPa) = 0.04001638
#
# Stress axis : x y z
#
# Youngs Moduli (GPa) = 63.03181 173.48164 61.15695
#
# Poissons Ratio (x) = 0.12825 -0.16396
# Poissons Ratio (y) = 0.04660 0.05650
# Poissons Ratio (z) = -0.16899 0.16027
#
# Static dielectric constant tensor:
#      x y z
#    x 2.059920 0.012110 -0.047180 
#    y 0.012110 1.916510 -0.006320 
#    z -0.047180 -0.006320 2.064610 
# 
# From -- ./inp_files/72085.got.cif
#   From: 2010.05.17/outbox.cif.g08.bks.cpg/sg2_37_cif.got.tgz:72085.got - 2010.06.03 11:33:40.
