data_PCOD9071575
_publ_section_title
;
Structure prediction by ZEFSAII (Michael W. Deem and Ramdas Pophale) SiO2 
 PCOD9071575
Probable space group: P -1
;
_chemical_formula_sum "Si O2"
_cell_formula_units_Z 10
_cell_length_a 9.308738
_cell_length_b 5.408785
_cell_length_c 15.475857
_cell_angle_alpha 85.844991
_cell_angle_beta 35.925041
_cell_angle_gamma 68.584095
_cell_volume 388.442922
_symmetry_space_group_name_H-M "P -1"
_symmetry_group_IT_number 2
_symmetry_cell_setting 'triclinic'
loop_
_space_group_symop_operation_xyz
x,y,z
-x,-y,-z
loop_
_atom_site_type_symbol
_atom_site_label
_atom_site_fract_x
_atom_site_fract_y
_atom_site_fract_z
Si Si1 0.649699 0.308360 0.345433
Si Si2 0.796355 0.282987 0.913507
Si Si3 0.303030 0.464592 0.865216
Si Si4 0.110537 0.339383 0.623637
Si Si5 0.876196 0.979541 0.651349
O O1 0.500000 0.500000 0.500000
O O2 0.603267 0.477962 0.274416
O O3 0.446540 0.170753 0.441104
O O4 0.986105 0.064926 0.195719
O O5 0.008882 0.387524 0.771772
O O6 0.500000 0.500000 0.000000
O O7 0.728628 0.322443 0.046932
O O8 0.536143 0.154609 0.799149
O O9 0.000000 0.500000 0.000000
O O10 0.972336 0.159545 0.659574
O O11 0.982657 0.655115 0.636100
O O12 0.000000 0.000000 0.500000
#
# Coordination Sequence:
#
# PCOD9071575 Si02
#       5
#     2   2   2   2   2
#     4  12  28  53  83 119 168 224 282 337 415 508
#     4  12  28  49  80 124 167 214 272 352 418 485
#     4  12  29  48  81 121 166 214 277 348 417 488
#     4  12  27  51  84 117 168 215 281 335 418 499
#     4  12  27  49  84 122 160 219 278 344 407 502
#
# _framework density 25.74381
#
# number of rings (size 3 to 8) (size 9 to 14) (size 15 to 20)
#    0.000    0.000    4.000    4.200    5.600    0.800 
#    0.000    0.000    0.000    0.000    0.000    0.000 
#    0.000    0.000    0.000    0.000    0.000    0.000 
#
# Total GULP energy -55913.726512 kJ/mol
# GULP energy per Si atom -5591.372651 kJ/mol
# Density = 2.568522 g / cm^3
# Si number density = 25.743810 Si / 1000 Ang^3
#
#
#
# Elastic Constant Matrix: (Units=GPa)
#
#
# Indices 1 2 3 4 5 6 
#
# 1 132.4379 51.7399 48.9361 17.3170 7.3393 -21.2793
# 2 51.7399 168.8518 32.1041 16.4177 11.7977 -19.5740
# 3 48.9361 32.1041 132.6481 19.0839 5.3130 -20.9698
# 4 17.3170 16.4177 19.0839 65.7237 -16.1230 -2.6810
# 5 7.3393 11.7977 5.3130 -16.1230 70.9610 -3.4935
# 6 -21.2793 -19.5740 -20.9698 -2.6810 -3.4935 28.0805
#
#
#
# Elastic Compliance Matrix: (Units=1/GPa)
#
#
# Indices 1 2 3 4 5 6 
#
# 1 0.010103 -0.001961 -0.002329 -0.001484 -0.000669 0.004326
# 2 -0.001961 0.007134 -0.000292 -0.001332 -0.001116 0.003003
# 3 -0.002329 -0.000292 0.009564 -0.002050 -0.000651 0.004897
# 4 -0.001484 -0.001332 -0.002050 0.017572 0.004454 -0.001352
# 5 -0.000669 -0.001116 -0.000651 0.004454 0.015436 0.000574
# 6 0.004326 0.003003 0.004897 -0.001352 0.000574 0.044582
#
#
# Mechanical properties :
#
#
# Convention : Reuss Voigt Hill
#
# Bulk Modulus (GPa) = 56.69540 77.72201 67.20870
# Shear Modulus (GPa) = 41.86410 53.03021 47.44716
#
# Velocity S-wave (km/s) = 4.03697 4.54356 4.29773
# Velocity P-wave (km/s) = 6.61817 7.60140 7.12677
#
# Compressibility (1/GPa) = 0.01763812
#
# Stress axis : x y z
#
# Youngs Moduli (GPa) = 98.97853 140.16708 104.56131
#
# Poissons Ratio (x) = 0.27482 0.24349
# Poissons Ratio (y) = 0.19406 0.03056
# Poissons Ratio (z) = 0.23049 0.04097
#
# Static dielectric constant tensor:
#      x y z
#    x 2.217350 0.030810 0.042690 
#    y 0.030810 2.044790 0.041340 
#    z 0.042690 0.041340 2.126340 
# 
# From -- ./inp_files/132012.got.cif
#   From: 2010.05.17/outbox.cif.g08.bks.cpg/sg2_67_cif.got.tgz:132012.got - 2010.06.03 11:33:40.
