data_PCOD9071489
_publ_section_title
;
Structure prediction by ZEFSAII (Michael W. Deem and Ramdas Pophale) SiO2 
 PCOD9071489
Probable space group: P -1
;
_chemical_formula_sum "Si O2"
_cell_formula_units_Z 15
_cell_length_a 8.397959
_cell_length_b 9.505432
_cell_length_c 11.557930
_cell_angle_alpha 129.111327
_cell_angle_beta 66.654990
_cell_angle_gamma 110.444291
_cell_volume 650.860796
_symmetry_space_group_name_H-M "P -1"
_symmetry_group_IT_number 2
_symmetry_cell_setting 'triclinic'
loop_
_space_group_symop_operation_xyz
x,y,z
-x,-y,-z
loop_
_atom_site_type_symbol
_atom_site_label
_atom_site_fract_x
_atom_site_fract_y
_atom_site_fract_z
Si Si1 0.377161 0.885576 0.884143
Si Si2 0.043844 0.703147 0.637558
Si Si3 0.202814 0.226247 0.047841
Si Si4 0.564414 0.321903 0.436338
Si Si5 0.565596 0.802607 0.349443
Si Si6 0.962725 0.961599 0.356605
Si Si7 0.500000 0.500000 0.000000
Si Si8 0.922529 0.304060 0.978181
O O1 0.503649 0.830433 0.717784
O O2 0.255258 0.723596 0.907538
O O3 0.500000 0.000000 0.000000
O O4 0.256867 0.025679 0.936684
O O5 0.231786 0.699600 0.639838
O O6 0.000000 0.500000 0.500000
O O7 0.900688 0.743457 0.790930
O O8 0.046995 0.850911 0.611745
O O9 0.368334 0.380893 0.064372
O O10 0.071216 0.249543 0.992765
O O11 0.500000 0.500000 0.500000
O O12 0.513702 0.311292 0.577724
O O13 0.774319 0.841072 0.327710
O O14 0.500000 0.000000 0.500000
O O15 0.521209 0.687864 0.184633
O O16 0.099001 0.843994 0.195852
O O17 0.000000 0.000000 0.500000
O O18 0.000000 0.500000 0.000000
#
# Coordination Sequence:
#
# PCOD9071489 Si02
#       8
#     2   2   2   2   2   2   1   2
#     4  12  29  49  79 116 158 211 272 343 413 494
#     4  12  27  51  80 113 153 216 266 329 410 493
#     4  12  26  51  83 109 158 211 277 333 405 495
#     4  12  29  48  76 115 157 201 265 331 407 479
#     4  12  27  51  77 113 159 209 265 337 406 485
#     4  12  29  50  78 116 161 206 268 339 416 491
#     4  12  28  48  86 116 154 216 276 338 418 480
#     4  12  28  50  78 115 156 210 272 336 416 488
#
# _framework density 23.046399999999998
#
# number of rings (size 3 to 8) (size 9 to 14) (size 15 to 20)
#    0.000    0.000    5.333    2.800   13.067    0.000 
#    0.000    0.000    0.000    0.000    0.000    0.000 
#    0.000    0.000    0.000    0.000    0.000    0.000 
#
# Total GULP energy -83619.783223 kJ/mol
# GULP energy per Si atom -5574.652215 kJ/mol
# Density = 2.299395 g / cm^3
# Si number density = 23.046400 Si / 1000 Ang^3
#
#
#
# Elastic Constant Matrix: (Units=GPa)
#
#
# Indices 1 2 3 4 5 6 
#
# 1 48.7616 49.0471 37.0538 1.7684 0.3563 -9.3796
# 2 49.0471 123.9996 40.0032 7.5909 -14.5063 -2.0852
# 3 37.0538 40.0032 176.6877 0.9606 10.3509 -16.4447
# 4 1.7684 7.5909 0.9606 39.2102 8.7291 -1.1737
# 5 0.3563 -14.5063 10.3509 8.7291 32.4792 -1.1040
# 6 -9.3796 -2.0852 -16.4447 -1.1737 -1.1040 44.0043
#
#
#
# Elastic Compliance Matrix: (Units=1/GPa)
#
#
# Indices 1 2 3 4 5 6 
#
# 1 0.040273 -0.015504 -0.003976 0.002958 -0.006681 0.006275
# 2 -0.015504 0.015766 -0.001065 -0.004331 0.008618 -0.002855
# 3 -0.003976 -0.001065 0.007055 0.000901 -0.002865 0.001691
# 4 0.002958 -0.004331 0.000901 0.028417 -0.009848 0.001273
# 5 -0.006681 0.008618 -0.002865 -0.009848 0.038224 -0.001390
# 6 0.006275 -0.002855 0.001691 0.001273 -0.001390 0.024558
#
#
# Mechanical properties :
#
#
# Convention : Reuss Voigt Hill
#
# Bulk Modulus (GPa) = 45.44820 66.85078 56.14949
# Shear Modulus (GPa) = 24.66481 38.02839 31.34660
#
# Velocity S-wave (km/s) = 3.27498 4.06652 3.69202
# Velocity P-wave (km/s) = 5.83642 7.14974 6.52620
#
# Compressibility (1/GPa) = 0.02200307
#
# Stress axis : x y z
#
# Youngs Moduli (GPa) = 24.83071 63.42788 141.74257
#
# Poissons Ratio (x) = 0.98338 0.56360
# Poissons Ratio (y) = 0.38497 0.15098
# Poissons Ratio (z) = 0.09873 0.06756
#
# Static dielectric constant tensor:
#      x y z
#    x 2.044990 -0.009710 0.103340 
#    y -0.009710 1.853650 -0.005360 
#    z 0.103340 -0.005360 1.948130 
# 
# From -- ./inp_files/380569.got.cif
#   From: 2010.05.17/outbox.cif.g08.bks.cpg/sg2_191_cif.got.tgz:380569.got - 2010.06.03 11:33:40.
