data_PCOD9071248
_publ_section_title
;
Structure prediction by ZEFSAII (Michael W. Deem and Ramdas Pophale) SiO2 
 PCOD9071248
Probable space group: P -1
;
_chemical_formula_sum "Si O2"
_cell_formula_units_Z 14
_cell_length_a 14.866737
_cell_length_b 5.245176
_cell_length_c 8.656838
_cell_angle_alpha 107.937976
_cell_angle_beta 61.669844
_cell_angle_gamma 111.826904
_cell_volume 544.404459
_symmetry_space_group_name_H-M "P -1"
_symmetry_group_IT_number 2
_symmetry_cell_setting 'triclinic'
loop_
_space_group_symop_operation_xyz
x,y,z
-x,-y,-z
loop_
_atom_site_type_symbol
_atom_site_label
_atom_site_fract_x
_atom_site_fract_y
_atom_site_fract_z
Si Si1 0.595485 0.693366 0.859004
Si Si2 0.756673 0.255334 0.954254
Si Si3 0.740626 0.517903 0.486781
Si Si4 0.088625 0.975695 0.046535
Si Si5 0.101738 0.393370 0.366763
Si Si6 0.444493 0.564248 0.715658
Si Si7 0.716205 0.894213 0.288153
O O1 0.650649 0.491484 0.683811
O O2 0.529749 0.781980 0.788909
O O3 0.689485 0.940737 0.897833
O O4 0.500000 0.500000 0.000000
O O5 0.808595 0.409286 0.782617
O O6 0.861667 0.271612 0.978807
O O7 0.663922 0.344739 0.142051
O O8 0.848146 0.637696 0.515008
O O9 0.723910 0.727452 0.407766
O O10 0.735064 0.214411 0.372265
O O11 0.065162 0.110559 0.248340
O O12 0.193056 0.147582 0.905505
O O13 0.000000 0.000000 0.000000
O O14 0.000000 0.500000 0.500000
O O15 0.500000 0.500000 0.500000
O O16 0.394291 0.235405 0.734655
#
# Coordination Sequence:
#
# PCOD9071248 Si02
#       7
#     2   2   2   2   2   2   2
#     4  12  26  46  78 111 159 219 269 329 411 482
#     4  12  27  54  79 115 171 208 283 336 406 507
#     4  12  27  50  78 116 163 215 274 334 404 506
#     4  12  28  50  82 114 157 211 268 350 421 482
#     4  12  28  50  81 113 157 221 272 339 416 492
#     4  12  26  46  79 116 157 215 267 337 407 476
#     4  12  27  51  76 119 165 207 276 339 405 493
#
# _framework density 25.716172
#
# number of rings (size 3 to 8) (size 9 to 14) (size 15 to 20)
#    0.000    0.000    4.286    4.714    4.000    1.714 
#    0.000    0.000    0.000    0.000    0.000    0.000 
#    0.000    0.000    0.000    0.000    0.000    0.000 
#
# Total GULP energy -78067.092367 kJ/mol
# GULP energy per Si atom -5576.220883 kJ/mol
# Density = 2.565764 g / cm^3
# Si number density = 25.716172 Si / 1000 Ang^3
#
#
#
# Elastic Constant Matrix: (Units=GPa)
#
#
# Indices 1 2 3 4 5 6 
#
# 1 122.7900 8.1476 12.5770 0.0272 9.5190 -10.5864
# 2 8.1476 75.1106 35.5182 -2.7183 14.6208 -12.3966
# 3 12.5770 35.5182 148.7156 8.6988 -26.4026 -9.4608
# 4 0.0272 -2.7183 8.6988 50.5315 -0.3778 0.3149
# 5 9.5190 14.6208 -26.4026 -0.3778 55.8554 3.1945
# 6 -10.5864 -12.3966 -9.4608 0.3149 3.1945 37.0535
#
#
#
# Elastic Compliance Matrix: (Units=1/GPa)
#
#
# Indices 1 2 3 4 5 6 
#
# 1 0.008616 0.000433 -0.001078 0.000172 -0.002235 0.002522
# 2 0.000433 0.018409 -0.005582 0.001858 -0.007834 0.005517
# 3 -0.001078 -0.005582 0.009312 -0.001856 0.006052 -0.000304
# 4 0.000172 0.001858 -0.001856 0.020199 -0.001264 0.000134
# 5 -0.002235 -0.007834 0.006052 -0.001264 0.023400 -0.003721
# 6 0.002522 0.005517 -0.000304 0.000134 -0.003721 0.029797
#
#
# Mechanical properties :
#
#
# Convention : Reuss Voigt Hill
#
# Bulk Modulus (GPa) = 41.87124 51.01131 46.44127
# Shear Modulus (GPa) = 38.41778 48.04631 43.23204
#
# Velocity S-wave (km/s) = 3.86931 4.32711 4.10460
# Velocity P-wave (km/s) = 6.02325 6.69660 6.36883
#
# Compressibility (1/GPa) = 0.02388274
#
# Stress axis : x y z
#
# Youngs Moduli (GPa) = 116.05794 54.32116 107.38654
#
# Poissons Ratio (x) = -0.02351 0.11580
# Poissons Ratio (y) = -0.05023 0.59941
# Poissons Ratio (z) = 0.12515 0.30321
#
# Static dielectric constant tensor:
#      x y z
#    x 2.210210 -0.044220 0.077100 
#    y -0.044220 2.192300 -0.014410 
#    z 0.077100 -0.014410 2.026220 
# 
# From -- ./inp_files/289132.got.cif
#   From: 2010.05.17/outbox.cif.g08.bks.cpg/sg2_145_cif.got.tgz:289132.got - 2010.06.03 11:33:40.
