data_PCOD9071902
_publ_section_title
;
Structure prediction by ZEFSAII (Michael W. Deem and Ramdas Pophale) SiO2 
 PCOD9071902
Probable space group: P -1
;
_chemical_formula_sum "Si O2"
_cell_formula_units_Z 14
_cell_length_a 21.935025
_cell_length_b 14.930202
_cell_length_c 5.203312
_cell_angle_alpha 56.799530
_cell_angle_beta 72.517989
_cell_angle_gamma 31.689126
_cell_volume 693.892593
_symmetry_space_group_name_H-M "P -1"
_symmetry_group_IT_number 2
_symmetry_cell_setting 'triclinic'
loop_
_space_group_symop_operation_xyz
x,y,z
-x,-y,-z
loop_
_atom_site_type_symbol
_atom_site_label
_atom_site_fract_x
_atom_site_fract_y
_atom_site_fract_z
Si Si1 0.124890 0.553579 0.928117
Si Si2 0.019387 0.082841 0.080266
Si Si3 0.122817 0.103978 0.574568
Si Si4 0.911238 0.625598 0.661299
Si Si5 0.197522 0.657777 0.453621
Si Si6 0.405315 0.523808 0.285920
Si Si7 0.345287 0.745032 0.513371
O O1 0.038433 0.742506 0.942372
O O2 0.218206 0.510585 0.778159
O O3 0.025233 0.674962 0.638534
O O4 0.163480 0.379558 0.239925
O O5 0.899773 0.213820 0.863064
O O6 0.109035 0.860331 0.430788
O O7 0.119783 0.997899 0.899680
O O8 0.163135 0.155217 0.582148
O O9 0.206320 0.975824 0.415064
O O10 0.000000 0.500000 0.500000
O O11 0.000000 0.500000 0.000000
O O12 0.324879 0.533738 0.419305
O O13 0.362319 0.672709 0.322672
O O14 0.554522 0.304550 0.490680
O O15 0.383254 0.601061 0.906200
#
# Coordination Sequence:
#
# PCOD9071902 Si02
#       7
#     2   2   2   2   2   2   2
#     4  10  20  31  48  74 108 136 169 203 259 311
#     4  10  18  30  47  76 102 137 166 201 260 311
#     4  10  19  32  53  75 105 133 174 214 253 301
#     4  10  20  34  51  74 104 137 171 210 251 299
#     4  10  20  29  48  74 105 137 165 208 253 315
#     4  10  21  36  52  75 105 134 174 209 255 304
#     4  10  21  35  54  76 100 137 172 214 254 298
#
# _framework density 20.176033
#
# number of rings (size 3 to 8) (size 9 to 14) (size 15 to 20)
#    0.000    2.000    2.857    1.286    2.000    0.000 
#    0.000    0.000    0.000    0.857    0.000    1.000 
#    0.000    0.000    0.000    0.000    0.000    0.000 
#
# Total GULP energy -77956.247911 kJ/mol
# GULP energy per Si atom -5568.303422 kJ/mol
# Density = 2.013011 g / cm^3
# Si number density = 20.176033 Si / 1000 Ang^3
#
#
#
# Elastic Constant Matrix: (Units=GPa)
#
#
# Indices 1 2 3 4 5 6 
#
# 1 130.8873 29.0298 30.3373 1.7091 -36.1190 -25.2508
# 2 29.0298 41.8920 4.0603 15.4588 -6.2598 -14.2201
# 3 30.3373 4.0603 42.6260 13.8928 -9.7671 -3.6101
# 4 1.7091 15.4588 13.8928 20.7880 0.1462 -0.3290
# 5 -36.1190 -6.2598 -9.7671 0.1462 39.1331 4.4431
# 6 -25.2508 -14.2201 -3.6101 -0.3290 4.4431 48.6200
#
#
#
# Elastic Compliance Matrix: (Units=1/GPa)
#
#
# Indices 1 2 3 4 5 6 
#
# 1 0.017616 -0.016093 -0.015387 0.020776 0.009474 0.002574
# 2 -0.016093 0.057512 0.025894 -0.058591 -0.000107 0.009999
# 3 -0.015387 0.025894 0.049236 -0.050868 0.002112 0.002701
# 4 0.020776 -0.058591 -0.050868 0.123835 -0.002325 -0.009073
# 5 0.009474 -0.000107 0.002112 -0.002325 0.034605 0.001868
# 6 0.002574 0.009999 0.002701 -0.009073 0.001868 0.024797
#
#
# Mechanical properties :
#
#
# Convention : Reuss Voigt Hill
#
# Bulk Modulus (GPa) = 8.83458 38.02893 23.43176
# Shear Modulus (GPa) = 14.02505 31.84008 22.93257
#
# Velocity S-wave (km/s) = 2.63940 3.97686 3.37504
# Velocity P-wave (km/s) = 3.69822 6.32271 5.17946
#
# Compressibility (1/GPa) = 0.11319154
#
# Stress axis : x y z
#
# Youngs Moduli (GPa) = 56.76743 17.38757 20.31036
#
# Poissons Ratio (x) = 0.27982 0.31251
# Poissons Ratio (y) = 0.91356 -0.52591
# Poissons Ratio (z) = 0.87348 -0.45023
#
# Static dielectric constant tensor:
#      x y z
#    x 1.816830 0.033170 -0.029500 
#    y 0.033170 1.746380 0.011550 
#    z -0.029500 0.011550 1.813470 
# 
# From -- ./inp_files/63402.got.cif
#   From: 2010.05.17/outbox.cif.g08.bks.cpg/sg2_32_cif.got.tgz:63402.got - 2010.06.03 11:33:40.
