data_PCOD9071914
_publ_section_title
;
Structure prediction by ZEFSAII (Michael W. Deem and Ramdas Pophale) SiO2 
 PCOD9071914
Probable space group: P -1
;
_chemical_formula_sum "Si O2"
_cell_formula_units_Z 16
_cell_length_a 9.000000
_cell_length_b 15.000000
_cell_length_c 15.000000
_cell_angle_alpha 140.000000
_cell_angle_beta 80.000000
_cell_angle_gamma 70.000000
_cell_volume 847.243846
_symmetry_space_group_name_H-M "P -1"
_symmetry_group_IT_number 2
_symmetry_cell_setting 'triclinic'
loop_
_space_group_symop_operation_xyz
x,y,z
-x,-y,-z
loop_
_atom_site_type_symbol
_atom_site_label
_atom_site_fract_x
_atom_site_fract_y
_atom_site_fract_z
Si Si1 0.693990 0.314962 0.643169
Si Si2 0.818628 0.088406 0.981348
Si Si3 0.728411 0.453937 0.029214
Si Si4 0.393603 0.461389 0.619796
Si Si5 0.286219 0.903510 0.819283
Si Si6 0.798042 0.084102 0.765983
Si Si7 0.679995 0.614656 0.967336
Si Si8 0.968241 0.674959 0.931251
O O1 0.531794 0.346222 0.754639
O O2 0.596459 0.328035 0.569189
O O3 0.657640 0.501821 0.814282
O O4 0.963756 0.115598 0.456845
O O5 0.697960 0.317805 0.195297
O O6 0.719979 0.055422 0.043139
O O7 0.801753 0.073477 0.865985
O O8 0.086248 0.927438 0.846484
O O9 0.910101 0.370004 0.022077
O O10 0.752899 0.271906 0.881879
O O11 0.764987 0.498971 0.965004
O O12 0.488975 0.326592 0.417349
O O13 0.179526 0.521829 0.723974
O O14 0.202589 0.088731 0.907869
O O15 0.576201 0.151547 0.812237
O O16 0.838760 0.622059 0.917188
#
# Coordination Sequence:
#
# PCOD9071914 Si02
#       8
#     2   2   2   2   2   2   2   2
#     4  10  19  34  57  81 108 140 176 224 270 309
#     4  10  18  32  58  88 104 136 174 227 269 309
#     4  10  20  38  56  79 103 143 185 228 259 309
#     4  10  17  35  58  82 109 135 177 226 261 314
#     4  10  19  33  58  85 107 136 179 221 268 311
#     4  11  19  37  57  82 111 135 180 227 265 314
#     4  11  23  35  55  77 113 147 175 217 273 319
#     4  10  21  38  52  80 112 143 178 217 265 320
#
# _framework density 18.884764000000001
#
# number of rings (size 3 to 8) (size 9 to 14) (size 15 to 20)
#    0.000    1.750    6.250    2.250    0.000    3.000 
#    0.000    0.625    0.000    7.500    0.000    0.000 
#    0.000    0.000    0.000    0.000    0.000    0.000 
#
# Total GULP energy -89074.364471 kJ/mol
# GULP energy per Si atom -5567.147779 kJ/mol
# Density = 1.884178 g / cm^3
# Si number density = 18.884764 Si / 1000 Ang^3
#
#
#
# Elastic Constant Matrix: (Units=GPa)
#
#
# Indices 1 2 3 4 5 6 
#
# 1 70.1292 14.1370 13.3692 4.0601 -13.0064 25.8955
# 2 14.1370 63.1068 -2.3852 -7.5545 -0.9347 11.8948
# 3 13.3692 -2.3852 78.9473 3.2281 -20.1538 10.7152
# 4 4.0601 -7.5545 3.2281 15.7938 -9.1465 -7.9424
# 5 -13.0064 -0.9347 -20.1538 -9.1465 15.9836 -0.7253
# 6 25.8955 11.8948 10.7152 -7.9424 -0.7253 11.8351
#
#
#
# Elastic Compliance Matrix: (Units=1/GPa)
#
#
# Indices 1 2 3 4 5 6 
#
# 1 -0.017716 -0.007073 -0.009878 0.053041 0.007190 0.090851
# 2 -0.007073 0.018368 0.002328 0.021633 0.011093 0.010104
# 3 -0.009878 0.002328 0.018573 0.036243 0.037577 0.029082
# 4 0.053041 0.021633 0.036243 0.058567 0.118010 -0.124077
# 5 0.007190 0.011093 0.037577 0.118010 0.185320 0.029650
# 6 0.090851 0.010104 0.029082 -0.124077 0.029650 -0.232225
#
#
# Mechanical properties :
#
#
# Convention : Reuss Voigt Hill
#
# Bulk Modulus (GPa) = -99.80978 29.15836 -35.32571
# Shear Modulus (GPa) = 88.03915 21.19331 54.61623
#
# Velocity S-wave (km/s) = 6.83523 3.35363 5.38364
# Velocity P-wave (km/s) = 3.05402 5.51991 4.46074
#
# Compressibility (1/GPa) = -0.01001906
#
# Stress axis : x y z
#
# Youngs Moduli (GPa) = -56.44551 54.44227 53.84057
#
# Poissons Ratio (x) = 0.38506 0.53182
# Poissons Ratio (y) = -0.39923 -0.12537
# Poissons Ratio (z) = -0.55755 -0.12677
#
# Static dielectric constant tensor:
#      x y z
#    x 1.654040 -0.011110 -0.030230 
#    y -0.011110 1.720200 0.013990 
#    z -0.030230 0.013990 1.697590 
# 
# From -- ./inp_files/269916.got.cif
#   From: 2010.05.17/outbox.ucp.g08.bks.cvg/sg2_135_cif.got.tgz:269916.got - 2010.06.11 11:32:03.
