data_PCOD9071111
_publ_section_title
;
Structure prediction by ZEFSAII (Michael W. Deem and Ramdas Pophale) SiO2 
 PCOD9071111
Probable space group: P -1
;
_chemical_formula_sum "Si O2"
_cell_formula_units_Z 12
_cell_length_a 9.300327
_cell_length_b 11.517801
_cell_length_c 9.354167
_cell_angle_alpha 81.134557
_cell_angle_beta 46.567695
_cell_angle_gamma 52.544270
_cell_volume 513.498418
_symmetry_space_group_name_H-M "P -1"
_symmetry_group_IT_number 2
_symmetry_cell_setting 'triclinic'
loop_
_space_group_symop_operation_xyz
x,y,z
-x,-y,-z
loop_
_atom_site_type_symbol
_atom_site_label
_atom_site_fract_x
_atom_site_fract_y
_atom_site_fract_z
Si Si1 0.615156 0.080109 0.364922
Si Si2 0.163045 0.467096 0.536031
Si Si3 0.851891 0.850836 0.993839
Si Si4 0.430228 0.507733 0.711616
Si Si5 0.928740 0.011930 0.712273
Si Si6 0.641418 0.707520 0.051806
O O1 0.381856 0.277173 0.473690
O O2 0.500000 0.000000 0.500000
O O3 0.850568 0.019260 0.328393
O O4 0.738937 0.003072 0.138307
O O5 0.333366 0.513915 0.371777
O O6 0.000000 0.500000 0.500000
O O7 0.936349 0.578524 0.795110
O O8 0.128162 0.688112 0.909954
O O9 0.926402 0.876490 0.785445
O O10 0.647367 0.827106 0.112512
O O11 0.500000 0.500000 0.500000
O O12 0.410064 0.381514 0.793953
O O13 0.611489 0.186852 0.906693
O O14 0.000000 0.000000 0.500000
#
# Coordination Sequence:
#
# PCOD9071111 Si02
#       6
#     2   2   2   2   2   2
#     4  12  28  49  77 111 155 200 254 315 381 450
#     4  12  29  50  77 112 154 198 256 317 379 450
#     4  12  25  50  78 108 153 203 257 312 379 454
#     4  12  26  48  78 110 153 199 257 312 380 452
#     4  12  27  47  77 116 155 199 251 316 384 452
#     4  12  28  47  80 112 149 201 257 311 379 455
#
# _framework density 23.369108000000001
#
# number of rings (size 3 to 8) (size 9 to 14) (size 15 to 20)
#    0.000    0.000    3.333    5.500    7.000    0.667 
#    0.000    0.000    0.000    0.000    0.000    0.000 
#    0.000    0.000    0.000    0.000    0.000    0.000 
#
# Total GULP energy -67252.656422 kJ/mol
# GULP energy per Si atom -5604.388035 kJ/mol
# Density = 2.331592 g / cm^3
# Si number density = 23.369108 Si / 1000 Ang^3
#
#
#
# Elastic Constant Matrix: (Units=GPa)
#
#
# Indices 1 2 3 4 5 6 
#
# 1 165.1062 74.7582 64.9909 -6.8342 -23.5595 -10.6116
# 2 74.7582 142.4231 57.3254 -9.8219 -18.3548 0.7646
# 3 64.9909 57.3254 87.8686 -4.5801 -16.2780 2.5645
# 4 -6.8342 -9.8219 -4.5801 62.8064 7.7762 -14.2097
# 5 -23.5595 -18.3548 -16.2780 7.7762 45.0181 -2.4619
# 6 -10.6116 0.7646 2.5645 -14.2097 -2.4619 40.7130
#
#
#
# Elastic Compliance Matrix: (Units=1/GPa)
#
#
# Indices 1 2 3 4 5 6 
#
# 1 0.009924 -0.002815 -0.005148 0.000747 0.002239 0.003360
# 2 -0.002815 0.010514 -0.004538 0.000813 0.001016 -0.000300
# 3 -0.005148 -0.004538 0.018585 -0.000763 0.002168 -0.002562
# 4 0.000747 0.000813 -0.000763 0.017782 -0.002280 0.006296
# 5 0.002239 0.001016 0.002168 -0.002280 0.025040 0.001146
# 6 0.003360 -0.000300 -0.002562 0.006296 0.001146 0.027872
#
#
# Mechanical properties :
#
#
# Convention : Reuss Voigt Hill
#
# Bulk Modulus (GPa) = 71.31846 87.72743 79.52294
# Shear Modulus (GPa) = 35.86997 42.92906 39.39952
#
# Velocity S-wave (km/s) = 3.92207 4.29067 4.11051
# Velocity P-wave (km/s) = 7.14806 7.88466 7.52538
#
# Compressibility (1/GPa) = 0.01402162
#
# Stress axis : x y z
#
# Youngs Moduli (GPa) = 100.76437 95.11031 53.80560
#
# Poissons Ratio (x) = 0.26774 0.27699
# Poissons Ratio (y) = 0.28366 0.24417
# Poissons Ratio (z) = 0.51874 0.43160
#
# Static dielectric constant tensor:
#      x y z
#    x 1.888020 0.008480 0.012550 
#    y 0.008480 1.869510 0.032060 
#    z 0.012550 0.032060 1.995550 
# 
# From -- ./inp_files/149656.got.cif
#   From: 2010.05.17/outbox.cif.g08.bks.cpg/sg2_75_cif.got.tgz:149656.got - 2010.06.03 11:33:40.
