data_PCOD9071877
_publ_section_title
;
Structure prediction by ZEFSAII (Michael W. Deem and Ramdas Pophale) SiO2 
 PCOD9071877
Probable space group: P -1
;
_chemical_formula_sum "Si O2"
_cell_formula_units_Z 14
_cell_length_a 26.717158
_cell_length_b 8.934222
_cell_length_c 18.072465
_cell_angle_alpha 157.676368
_cell_angle_beta 19.291195
_cell_angle_gamma 149.281572
_cell_volume 538.223399
_symmetry_space_group_name_H-M "P -1"
_symmetry_group_IT_number 2
_symmetry_cell_setting 'triclinic'
loop_
_space_group_symop_operation_xyz
x,y,z
-x,-y,-z
loop_
_atom_site_type_symbol
_atom_site_label
_atom_site_fract_x
_atom_site_fract_y
_atom_site_fract_z
Si Si1 0.442400 0.452603 0.766917
Si Si2 0.775766 0.528194 0.341336
Si Si3 0.456697 0.063047 0.421599
Si Si4 0.197956 0.579111 0.586507
Si Si5 0.257562 0.542646 0.806874
Si Si6 0.129439 0.424737 0.224985
Si Si7 0.963914 0.523072 0.781709
O O1 0.594247 0.657752 0.654361
O O2 0.396727 0.397247 0.719574
O O3 0.500000 0.000000 0.500000
O O4 0.293773 0.578739 0.078708
O O5 0.832817 0.639000 0.393635
O O6 0.813766 0.606226 0.238090
O O7 0.823245 0.051303 0.061150
O O8 0.382804 0.204779 0.511553
O O9 0.637848 0.094451 0.185788
O O10 0.374252 0.675836 0.380917
O O11 0.136070 0.421001 0.524210
O O12 0.097962 0.008644 0.923880
O O13 0.134755 0.617630 0.076812
O O14 0.063826 0.599182 0.318801
O O15 0.000000 0.500000 0.500000
#
# Coordination Sequence:
#
# PCOD9071877 Si02
#       7
#     2   2   2   2   2   2   2
#     4   9  13  26  46  67  86 109 156 195 212 251
#     4   9  17  27  47  72  88 117 155 193 225 266
#     4   9  14  25  43  69  94 117 146 190 232 267
#     4   9  15  27  45  65  95 120 149 184 230 273
#     4   9  16  24  42  69  98 113 147 191 232 268
#     4  10  18  30  46  66  91 125 158 185 223 274
#     4   9  17  29  42  65  98 122 144 186 237 273
#
# _framework density 26.011503000000001
#
# number of rings (size 3 to 8) (size 9 to 14) (size 15 to 20)
#    0.000    2.857    5.714    0.000    0.000    0.571 
#    0.000    0.714    0.000    0.857    0.000    1.000 
#    0.000    0.000    0.000    0.000    0.000    0.000 
#
# Total GULP energy -78025.790091 kJ/mol
# GULP energy per Si atom -5573.270721 kJ/mol
# Density = 2.595230 g / cm^3
# Si number density = 26.011503 Si / 1000 Ang^3
#
#
#
# Elastic Constant Matrix: (Units=GPa)
#
#
# Indices 1 2 3 4 5 6 
#
# 1 190.7707 45.7585 27.0404 -23.1904 -11.9737 -33.8286
# 2 45.7585 53.4031 51.5830 -23.3933 11.0467 -12.8255
# 3 27.0404 51.5830 100.7519 -26.1336 1.9588 -1.7139
# 4 -23.1904 -23.3933 -26.1336 65.3728 -6.8864 -2.2755
# 5 -11.9737 11.0467 1.9588 -6.8864 22.1910 -7.3845
# 6 -33.8286 -12.8255 -1.7139 -2.2755 -7.3845 39.0593
#
#
#
# Elastic Compliance Matrix: (Units=1/GPa)
#
#
# Indices 1 2 3 4 5 6 
#
# 1 0.010610 -0.013877 0.004771 0.002634 0.015678 0.007959
# 2 -0.013877 0.070246 -0.030367 0.004223 -0.037511 0.002869
# 3 0.004771 -0.030367 0.024425 0.002180 0.015652 -0.001681
# 4 0.002634 0.004223 0.002180 0.019602 0.007301 0.006286
# 5 0.015678 -0.037511 0.015652 0.007301 0.078829 0.017277
# 6 0.007959 0.002869 -0.001681 0.006286 0.017277 0.036996
#
#
# Mechanical properties :
#
#
# Convention : Reuss Voigt Hill
#
# Bulk Modulus (GPa) = 37.97242 65.96552 51.96897
# Shear Modulus (GPa) = 15.22388 40.02755 27.62572
#
# Velocity S-wave (km/s) = 2.42187 3.92706 3.26246
# Velocity P-wave (km/s) = 4.73821 6.78068 5.84928
#
# Compressibility (1/GPa) = 0.02633490
#
# Stress axis : x y z
#
# Youngs Moduli (GPa) = 94.25297 14.23560 40.94219
#
# Poissons Ratio (x) = 0.19755 -0.19534
# Poissons Ratio (y) = 1.30799 1.24328
# Poissons Ratio (z) = -0.44970 0.43229
#
# Static dielectric constant tensor:
#      x y z
#    x 2.152540 0.061040 0.034300 
#    y 0.061040 2.190800 -0.002180 
#    z 0.034300 -0.002180 2.042210 
# 
# From -- ./inp_files/181456.got.cif
#   From: 2010.05.17/outbox.cif.g08.bks.cpg/sg2_91_cif.got.tgz:181456.got - 2010.06.03 11:33:40.
