data_PCOD9071018
_publ_section_title
;
Structure prediction by ZEFSAII (Michael W. Deem and Ramdas Pophale) SiO2 
 PCOD9071018
Probable space group: P -1
;
_chemical_formula_sum "Si O2"
_cell_formula_units_Z 14
_cell_length_a 7.724762
_cell_length_b 7.875268
_cell_length_c 12.264148
_cell_angle_alpha 66.692344
_cell_angle_beta 114.692984
_cell_angle_gamma 70.570597
_cell_volume 499.545744
_symmetry_space_group_name_H-M "P -1"
_symmetry_group_IT_number 2
_symmetry_cell_setting 'triclinic'
loop_
_space_group_symop_operation_xyz
x,y,z
-x,-y,-z
loop_
_atom_site_type_symbol
_atom_site_label
_atom_site_fract_x
_atom_site_fract_y
_atom_site_fract_z
Si Si1 0.314982 0.594969 0.829217
Si Si2 0.949685 0.873237 0.107819
Si Si3 0.500000 0.000000 0.500000
Si Si4 0.482673 0.208174 0.811568
Si Si5 0.036849 0.900729 0.377542
Si Si6 0.000000 0.500000 0.500000
Si Si7 0.095131 0.417968 0.169571
Si Si8 0.533546 0.262232 0.570066
O O1 0.458240 0.410995 0.819973
O O2 0.101396 0.592649 0.818778
O O3 0.183338 0.860881 0.692605
O O4 0.500000 0.500000 0.000000
O O5 0.992522 0.916675 0.230857
O O6 0.104433 0.609960 0.181700
O O7 0.675513 0.977034 0.985962
O O8 0.000000 0.000000 0.000000
O O9 0.348977 0.173370 0.311516
O O10 0.334806 0.233905 0.486044
O O11 0.589448 0.180472 0.727435
O O12 0.215854 0.301802 0.689280
O O13 0.088065 0.666978 0.492764
O O14 0.282927 0.884441 0.445690
O O15 0.000000 0.500000 0.000000
O O16 0.500000 0.500000 0.500000
#
# Coordination Sequence:
#
# PCOD9071018 Si02
#       8
#     2   2   1   2   2   1   2   2
#     4  12  28  51  77 117 168 211 269 351 422 498
#     4  12  25  48  85 114 153 212 275 338 409 496
#     4  12  28  50  86 124 166 216 290 356 406 510
#     4  12  28  48  78 119 161 213 266 343 425 485
#     4  12  25  52  77 111 160 208 273 332 413 501
#     4  12  30  46  74 118 160 210 264 342 420 494
#     4  12  28  51  83 122 159 218 286 339 421 509
#     4  12  25  51  81 117 159 216 278 336 412 504
#
# _framework density 28.025459999999999
#
# number of rings (size 3 to 8) (size 9 to 14) (size 15 to 20)
#    0.000    0.000    5.714    3.429    4.000    1.714 
#    2.571    0.000    0.000    0.000    0.000    0.000 
#    0.000    0.000    0.000    0.000    0.000    0.000 
#
# Total GULP energy -78072.879569 kJ/mol
# GULP energy per Si atom -5576.634255 kJ/mol
# Density = 2.796167 g / cm^3
# Si number density = 28.025460 Si / 1000 Ang^3
#
#
#
# Elastic Constant Matrix: (Units=GPa)
#
#
# Indices 1 2 3 4 5 6 
#
# 1 110.5086 -0.5121 16.9502 -13.5925 -3.3290 -4.8040
# 2 -0.5121 154.2727 31.8185 -1.8821 -15.8491 4.4344
# 3 16.9502 31.8185 185.8338 -5.9248 20.0853 -5.9262
# 4 -13.5925 -1.8821 -5.9248 72.8071 6.0520 -2.7888
# 5 -3.3290 -15.8491 20.0853 6.0520 50.8731 -6.9284
# 6 -4.8040 4.4344 -5.9262 -2.7888 -6.9284 29.6107
#
#
#
# Elastic Compliance Matrix: (Units=1/GPa)
#
#
# Indices 1 2 3 4 5 6 
#
# 1 0.009509 0.000310 -0.000933 0.001680 0.001123 0.001731
# 2 0.000310 0.007111 -0.001573 -0.000144 0.002780 -0.000693
# 3 -0.000933 -0.001573 0.006091 0.000550 -0.002930 0.000669
# 4 0.001680 -0.000144 0.000550 0.014280 -0.001666 0.001359
# 5 0.001123 0.002780 -0.002930 -0.001666 0.022536 0.004296
# 6 0.001731 -0.000693 0.000669 0.001359 0.004296 0.035423
#
#
# Mechanical properties :
#
#
# Convention : Reuss Voigt Hill
#
# Bulk Modulus (GPa) = 54.58537 60.79203 57.68870
# Shear Modulus (GPa) = 47.41593 57.48210 52.44902
#
# Velocity S-wave (km/s) = 4.11772 4.53378 4.33075
# Velocity P-wave (km/s) = 6.49052 7.01040 6.75546
#
# Compressibility (1/GPa) = 0.01831993
#
# Stress axis : x y z
#
# Youngs Moduli (GPa) = 105.15941 140.62351 164.17197
#
# Poissons Ratio (x) = -0.04361 0.15319
# Poissons Ratio (y) = -0.03262 0.25824
# Poissons Ratio (z) = 0.09812 0.22119
#
# Static dielectric constant tensor:
#      x y z
#    x 1.948650 -0.426560 -0.036610 
#    y -0.426560 1.897100 -0.301080 
#    z -0.036610 -0.301080 2.047620 
# 
# From -- ./inp_files/381741.got.cif
#   From: 2010.05.17/outbox.cif.g08.bks.cpg/sg2_191_cif.got.tgz:381741.got - 2010.06.03 11:33:40.
