data_PCOD9071793
_publ_section_title
;
Structure prediction by ZEFSAII (Michael W. Deem and Ramdas Pophale) SiO2 
 PCOD9071793
Probable space group: P -1
;
_chemical_formula_sum "Si O2"
_cell_formula_units_Z 16
_cell_length_a 14.659136
_cell_length_b 7.726003
_cell_length_c 11.922772
_cell_angle_alpha 70.729660
_cell_angle_beta 68.124426
_cell_angle_gamma 26.984513
_cell_volume 568.587876
_symmetry_space_group_name_H-M "P -1"
_symmetry_group_IT_number 2
_symmetry_cell_setting 'triclinic'
loop_
_space_group_symop_operation_xyz
x,y,z
-x,-y,-z
loop_
_atom_site_type_symbol
_atom_site_label
_atom_site_fract_x
_atom_site_fract_y
_atom_site_fract_z
Si Si1 0.459365 0.373999 0.921813
Si Si2 0.349571 0.500284 0.443637
Si Si3 0.105579 0.580666 0.831626
Si Si4 0.980040 0.713054 0.088176
Si Si5 0.054300 0.239012 0.676925
Si Si6 0.659299 0.431550 0.822223
Si Si7 0.936195 0.379385 0.462963
Si Si8 0.578752 0.647915 0.312958
O O1 0.616253 0.284391 0.885333
O O2 0.507044 0.223612 0.804364
O O3 0.237071 0.832551 0.916480
O O4 0.436593 0.326112 0.070384
O O5 0.421401 0.384351 0.305377
O O6 0.204623 0.560266 0.512848
O O7 0.492132 0.265475 0.540877
O O8 0.179378 0.941754 0.429897
O O9 0.061604 0.436200 0.870251
O O10 0.301228 0.356514 0.739837
O O11 0.907602 0.025616 0.790857
O O12 0.120766 0.569213 0.961055
O O13 0.067043 0.615550 0.189228
O O14 0.113637 0.354225 0.634646
O O15 0.913495 0.450138 0.589732
O O16 0.252749 0.790434 0.673162
#
# Coordination Sequence:
#
# PCOD9071793 Si02
#       8
#     2   2   2   2   2   2   2   2
#     4   9  21  36  52  75 109 139 166 208 262 307
#     4  10  18  29  51  74 101 136 175 210 254 306
#     4  10  19  32  56  80 100 132 179 215 252 303
#     4   9  18  32  52  76 103 137 171 213 257 305
#     4   9  16  27  45  69 106 134 162 207 261 300
#     4  10  19  34  55  77 103 138 173 208 254 310
#     4   9  17  28  45  77 106 131 167 220 261 295
#     4  10  20  33  52  79 104 133 171 217 257 303
#
# _framework density 28.139890999999999
#
# number of rings (size 3 to 8) (size 9 to 14) (size 15 to 20)
#    0.000    2.500    0.000    3.750    0.000    6.000 
#    0.000    0.000    0.000   29.250    0.000    0.000 
#    0.000    0.000    0.000    0.000    0.000    0.000 
#
# Total GULP energy -89367.971187 kJ/mol
# GULP energy per Si atom -5585.498199 kJ/mol
# Density = 2.807584 g / cm^3
# Si number density = 28.139891 Si / 1000 Ang^3
#
#
#
# Elastic Constant Matrix: (Units=GPa)
#
#
# Indices 1 2 3 4 5 6 
#
# 1 61.2498 21.0691 37.4655 -7.1467 -0.5107 7.4934
# 2 21.0691 118.1527 31.0457 -13.3169 0.9447 9.9177
# 3 37.4655 31.0457 276.8578 6.5681 67.3011 2.3289
# 4 -7.1467 -13.3169 6.5681 15.3135 5.0552 -10.6046
# 5 -0.5107 0.9447 67.3011 5.0552 50.7147 -11.6492
# 6 7.4934 9.9177 2.3289 -10.6046 -11.6492 23.3085
#
#
#
# Elastic Compliance Matrix: (Units=1/GPa)
#
#
# Indices 1 2 3 4 5 6 
#
# 1 0.020264 -0.001714 -0.003937 0.008757 0.004818 0.001000
# 2 -0.001714 0.010028 -0.001318 0.008785 0.000863 0.000844
# 3 -0.003937 -0.001318 0.007061 -0.007886 -0.010355 -0.007642
# 4 0.008757 0.008785 -0.007886 0.111823 0.010850 0.050533
# 5 0.004818 0.000863 -0.010355 0.010850 0.037666 0.022880
# 6 0.001000 0.000844 -0.007642 0.050533 0.022880 0.077411
#
#
# Mechanical properties :
#
#
# Convention : Reuss Voigt Hill
#
# Bulk Modulus (GPa) = 42.70902 70.60232 56.65567
# Shear Modulus (GPa) = 17.48266 42.31267 29.89767
#
# Velocity S-wave (km/s) = 2.49525 3.88190 3.26308
# Velocity P-wave (km/s) = 4.84892 6.72581 5.86296
#
# Compressibility (1/GPa) = 0.02341426
#
# Stress axis : x y z
#
# Youngs Moduli (GPa) = 49.34767 99.72034 141.62198
#
# Poissons Ratio (x) = 0.17096 0.55762
# Poissons Ratio (y) = 0.08460 0.18663
# Poissons Ratio (z) = 0.19430 0.13141
#
# Static dielectric constant tensor:
#      x y z
#    x 2.177610 0.036570 0.089440 
#    y 0.036570 2.159570 0.010820 
#    z 0.089440 0.010820 2.261710 
# 
# From -- ./inp_files/444346.got.cif
#   From: 2010.05.17/outbox.cif.g08.bks.cpg/sg2_223_cif.got.tgz:444346.got - 2010.06.03 11:33:40.
