data_PCOD9071140
_publ_section_title
;
Structure prediction by ZEFSAII (Michael W. Deem and Ramdas Pophale) SiO2 
 PCOD9071140
Probable space group: P -1
;
_chemical_formula_sum "Si O2"
_cell_formula_units_Z 15
_cell_length_a 8.918305
_cell_length_b 9.150509
_cell_length_c 9.229804
_cell_angle_alpha 97.576654
_cell_angle_beta 110.187162
_cell_angle_gamma 103.753835
_cell_volume 667.508315
_symmetry_space_group_name_H-M "P -1"
_symmetry_group_IT_number 2
_symmetry_cell_setting 'triclinic'
loop_
_space_group_symop_operation_xyz
x,y,z
-x,-y,-z
loop_
_atom_site_type_symbol
_atom_site_label
_atom_site_fract_x
_atom_site_fract_y
_atom_site_fract_z
Si Si1 0.905109 0.351611 0.040854
Si Si2 0.206441 0.967226 0.181132
Si Si3 0.008212 0.098699 0.369540
Si Si4 0.563699 0.365065 0.574491
Si Si5 0.899273 0.564448 0.589960
Si Si6 0.464640 0.637846 0.093631
Si Si7 0.500000 0.000000 0.500000
Si Si8 0.330458 0.046567 0.921266
O O1 0.999471 0.366852 0.224025
O O2 0.904421 0.200287 0.932933
O O3 0.714019 0.343149 0.007671
O O4 0.000000 0.500000 0.000000
O O5 0.363830 0.941028 0.315883
O O6 0.102967 0.037043 0.266527
O O7 0.262486 0.060084 0.062225
O O8 0.118286 0.276260 0.461328
O O9 0.816575 0.067626 0.241526
O O10 0.000000 0.000000 0.500000
O O11 0.500000 0.500000 0.500000
O O12 0.749752 0.420221 0.577164
O O13 0.551217 0.389949 0.744390
O O14 0.488675 0.181726 0.495810
O O15 0.000000 0.500000 0.500000
O O16 0.610294 0.792892 0.122783
O O17 0.500000 0.500000 0.000000
O O18 0.500000 0.000000 0.000000
#
# Coordination Sequence:
#
# PCOD9071140 Si02
#       8
#     2   2   2   2   2   2   1   2
#     4  12  25  51  78 108 154 205 260 316 404 472
#     4  12  27  50  83 110 157 213 264 334 398 491
#     4  12  31  47  80 118 157 206 273 337 405 483
#     4  12  29  52  77 117 161 208 265 327 407 479
#     4  12  29  50  79 112 152 205 260 327 400 482
#     4  12  29  46  76 115 152 204 258 331 390 486
#     4  12  26  50  86 110 164 210 268 328 418 464
#     4  12  26  51  78 113 154 207 271 324 413 485
#
# _framework density 22.471632
#
# number of rings (size 3 to 8) (size 9 to 14) (size 15 to 20)
#    0.000    0.000    5.333    1.200   16.800    0.000 
#    0.000    0.000    0.000    0.000    0.000    0.000 
#    0.000    0.000    0.000    0.000    0.000    0.000 
#
# Total GULP energy -83649.462639 kJ/mol
# GULP energy per Si atom -5576.630843 kJ/mol
# Density = 2.242049 g / cm^3
# Si number density = 22.471632 Si / 1000 Ang^3
#
#
#
# Elastic Constant Matrix: (Units=GPa)
#
#
# Indices 1 2 3 4 5 6 
#
# 1 89.9769 43.0647 23.5000 4.5723 -32.6476 2.8909
# 2 43.0647 136.8711 9.8221 -0.3752 -32.6516 2.2303
# 3 23.5000 9.8221 76.5755 -13.1991 -10.9665 2.0798
# 4 4.5723 -0.3752 -13.1991 47.1044 -3.9319 -9.8986
# 5 -32.6476 -32.6516 -10.9665 -3.9319 53.3864 -0.6351
# 6 2.8909 2.2303 2.0798 -9.8986 -0.6351 42.1139
#
#
#
# Elastic Compliance Matrix: (Units=1/GPa)
#
#
# Indices 1 2 3 4 5 6 
#
# 1 0.016406 -0.003173 -0.003995 -0.002402 0.007080 -0.001219
# 2 -0.003173 0.009188 0.000489 0.000831 0.003841 -0.000040
# 3 -0.003995 0.000489 0.015246 0.004918 0.001358 0.000672
# 4 -0.002402 0.000831 0.004918 0.024180 0.001897 0.005590
# 5 0.007080 0.003841 0.001358 0.001897 0.025830 0.000079
# 6 -0.001219 -0.000040 0.000672 0.005590 0.000079 0.025113
#
#
# Mechanical properties :
#
#
# Convention : Reuss Voigt Hill
#
# Bulk Modulus (GPa) = 36.38459 50.68857 43.53658
# Shear Modulus (GPa) = 36.10564 43.65671 39.88118
#
# Velocity S-wave (km/s) = 4.01274 4.41244 4.21733
# Velocity P-wave (km/s) = 6.13970 6.96887 6.56739
#
# Compressibility (1/GPa) = 0.02748416
#
# Stress axis : x y z
#
# Youngs Moduli (GPa) = 60.95215 108.83171 65.58984
#
# Poissons Ratio (x) = 0.34532 0.26202
# Poissons Ratio (y) = 0.19340 -0.03210
# Poissons Ratio (z) = 0.24350 -0.05327
#
# Static dielectric constant tensor:
#      x y z
#    x 2.024370 -0.073130 0.051290 
#    y -0.073130 1.860790 -0.033340 
#    z 0.051290 -0.033340 1.811240 
# 
# From -- ./inp_files/158911.got.cif
#   From: 2010.05.17/outbox.cif.g08.bks.cpg/sg2_80_cif.got.tgz:158911.got - 2010.06.03 11:33:40.
