data_PCOD9071332
_publ_section_title
;
Structure prediction by ZEFSAII (Michael W. Deem and Ramdas Pophale) SiO2 
 PCOD9071332
Probable space group: P -1
;
_chemical_formula_sum "Si O2"
_cell_formula_units_Z 11
_cell_length_a 11.116344
_cell_length_b 8.018296
_cell_length_c 9.015744
_cell_angle_alpha 34.153690
_cell_angle_beta 83.654254
_cell_angle_gamma 91.314681
_cell_volume 438.867436
_symmetry_space_group_name_H-M "P -1"
_symmetry_group_IT_number 2
_symmetry_cell_setting 'triclinic'
loop_
_space_group_symop_operation_xyz
x,y,z
-x,-y,-z
loop_
_atom_site_type_symbol
_atom_site_label
_atom_site_fract_x
_atom_site_fract_y
_atom_site_fract_z
Si Si1 0.922044 0.669667 0.778696
Si Si2 0.854556 0.871703 0.094328
Si Si3 0.285879 0.519956 0.836231
Si Si4 0.500000 0.000000 0.500000
Si Si5 0.220968 0.534216 0.328581
Si Si6 0.514616 0.194462 0.007691
O O1 0.888786 0.520739 0.734534
O O2 0.791707 0.645895 0.895175
O O3 0.000000 0.000000 0.500000
O O4 0.000000 0.500000 0.000000
O O5 0.808679 0.577876 0.213592
O O6 0.798079 0.747690 0.350836
O O7 0.793552 0.142014 0.838814
O O8 0.000000 0.000000 0.000000
O O9 0.347961 0.865575 0.607023
O O10 0.410808 0.396110 0.881315
O O11 0.508429 0.037358 0.284971
O O12 0.352721 0.586886 0.193575
O O13 0.500000 0.000000 0.000000
#
# Coordination Sequence:
#
# PCOD9071332 Si02
#       6
#     2   2   2   1   2   2
#     4  12  28  49  77 112 157 208 263 332 400 482
#     4  12  27  49  76 111 155 211 266 330 396 486
#     4  12  28  47  79 113 159 204 274 327 415 480
#     4  12  28  48  82 114 162 212 270 334 418 478
#     4  12  26  48  76 109 154 202 269 324 406 475
#     4  12  27  50  76 115 160 207 266 341 400 482
#
# _framework density 25.064513999999999
#
# number of rings (size 3 to 8) (size 9 to 14) (size 15 to 20)
#    0.000    0.000    3.636    5.455    5.091    1.455 
#    0.000    0.000    0.000    0.000    0.000    0.000 
#    0.000    0.000    0.000    0.000    0.000    0.000 
#
# Total GULP energy -61327.256375 kJ/mol
# GULP energy per Si atom -5575.205125 kJ/mol
# Density = 2.500747 g / cm^3
# Si number density = 25.064514 Si / 1000 Ang^3
#
#
#
# Elastic Constant Matrix: (Units=GPa)
#
#
# Indices 1 2 3 4 5 6 
#
# 1 133.2395 20.4987 51.4308 -13.4057 -34.9754 13.1878
# 2 20.4987 87.4162 32.9504 26.3710 -2.9479 31.2559
# 3 51.4308 32.9504 173.4131 12.4341 -39.0305 3.9267
# 4 -13.4057 26.3710 12.4341 36.8852 0.6802 -3.8179
# 5 -34.9754 -2.9479 -39.0305 0.6802 58.9725 -4.3834
# 6 13.1878 31.2559 3.9267 -3.8179 -4.3834 58.2610
#
#
#
# Elastic Compliance Matrix: (Units=1/GPa)
#
#
# Indices 1 2 3 4 5 6 
#
# 1 0.010874 -0.004286 -0.001856 0.007637 0.004981 0.000838
# 2 -0.004286 0.023582 -0.002392 -0.018892 -0.003697 -0.013036
# 3 -0.001856 -0.002392 0.007756 -0.001510 0.004033 0.001385
# 4 0.007637 -0.018892 -0.001510 0.045058 0.002934 0.011682
# 5 0.004981 -0.003697 0.004033 0.002934 0.022546 0.002473
# 6 0.000838 -0.013036 0.001385 0.011682 0.002473 0.024826
#
#
# Mechanical properties :
#
#
# Convention : Reuss Voigt Hill
#
# Bulk Modulus (GPa) = 39.77092 67.09205 53.43148
# Shear Modulus (GPa) = 31.23232 50.10302 40.66767
#
# Velocity S-wave (km/s) = 3.53381 4.47583 4.03242
# Velocity P-wave (km/s) = 5.70546 7.31687 6.56082
#
# Compressibility (1/GPa) = 0.02514400
#
# Stress axis : x y z
#
# Youngs Moduli (GPa) = 91.96288 42.40573 128.92691
#
# Poissons Ratio (x) = 0.18174 0.23932
# Poissons Ratio (y) = 0.39412 0.30840
# Poissons Ratio (z) = 0.17070 0.10144
#
# Static dielectric constant tensor:
#      x y z
#    x 1.957230 -0.045200 0.036340 
#    y -0.045200 1.890510 0.145130 
#    z 0.036340 0.145130 1.711020 
# 
# From -- ./inp_files/17408.got.cif
#   From: 2010.05.17/outbox.cif.g08.bks.cpg/sg2_9_cif.got.tgz:17408.got - 2010.06.03 11:33:40.
