data_PCOD9071032
_publ_section_title
;
Structure prediction by ZEFSAII (Michael W. Deem and Ramdas Pophale) SiO2 
 PCOD9071032
Probable space group: P -1
;
_chemical_formula_sum "Si O2"
_cell_formula_units_Z 14
_cell_length_a 11.807913
_cell_length_b 14.680977
_cell_length_c 19.498412
_cell_angle_alpha 20.965715
_cell_angle_beta 139.962870
_cell_angle_gamma 149.536633
_cell_volume 598.631198
_symmetry_space_group_name_H-M "P -1"
_symmetry_group_IT_number 2
_symmetry_cell_setting 'triclinic'
loop_
_space_group_symop_operation_xyz
x,y,z
-x,-y,-z
loop_
_atom_site_type_symbol
_atom_site_label
_atom_site_fract_x
_atom_site_fract_y
_atom_site_fract_z
Si Si1 0.387601 0.281308 0.394463
Si Si2 0.967609 0.471359 0.206365
Si Si3 0.140821 0.656766 0.300990
Si Si4 0.380456 0.369247 0.609383
Si Si5 0.469911 0.629191 0.965357
Si Si6 0.654556 0.376995 0.329428
Si Si7 0.807841 0.365020 0.948449
O O1 0.443307 0.369148 0.437308
O O2 0.605602 0.382686 0.382238
O O3 0.323425 0.502511 0.183081
O O4 0.184962 0.888773 0.574986
O O5 0.787040 0.503800 0.067475
O O6 0.121063 0.714037 0.170346
O O7 0.102763 0.502258 0.180711
O O8 0.172829 0.379970 0.510954
O O9 0.913015 0.554773 0.302964
O O10 0.356064 0.978251 0.214489
O O11 0.500000 0.500000 0.500000
O O12 0.322783 0.023938 0.840706
O O13 0.500000 0.500000 0.000000
O O14 0.543332 0.505689 0.145769
O O15 0.500000 0.000000 0.500000
O O16 0.000000 0.500000 0.000000
#
# Coordination Sequence:
#
# PCOD9071032 Si02
#       7
#     2   2   2   2   2   2   2
#     4  12  25  49  74 110 156 195 248 321 368 449
#     4  12  25  49  75 110 154 197 252 314 377 448
#     4  12  27  49  77 110 153 202 248 309 385 447
#     4  12  28  49  76 112 150 196 256 313 378 452
#     4  12  26  48  74 110 152 200 252 306 374 449
#     4  12  27  48  76 112 154 194 255 308 377 451
#     4  12  27  46  78 110 147 202 253 310 384 448
#
# _framework density 23.386686999999998
#
# number of rings (size 3 to 8) (size 9 to 14) (size 15 to 20)
#    0.000    0.000    4.286    4.714    6.000    0.571 
#    0.000    0.000    0.000    0.000    0.000    0.000 
#    0.000    0.000    0.000    0.000    0.000    0.000 
#
# Total GULP energy -78357.862762 kJ/mol
# GULP energy per Si atom -5596.990197 kJ/mol
# Density = 2.333346 g / cm^3
# Si number density = 23.386687 Si / 1000 Ang^3
#
#
#
# Elastic Constant Matrix: (Units=GPa)
#
#
# Indices 1 2 3 4 5 6 
#
# 1 162.6625 22.6369 13.8112 15.7413 4.0758 -8.0265
# 2 22.6369 88.5746 -8.3437 15.4610 6.1827 -12.1004
# 3 13.8112 -8.3437 102.5989 23.0508 12.7285 15.1212
# 4 15.7413 15.4610 23.0508 33.5300 3.0107 13.7495
# 5 4.0758 6.1827 12.7285 3.0107 31.5864 11.9329
# 6 -8.0265 -12.1004 15.1212 13.7495 11.9329 43.8973
#
#
#
# Elastic Compliance Matrix: (Units=1/GPa)
#
#
# Indices 1 2 3 4 5 6 
#
# 1 0.006785 -0.000709 -0.000410 -0.003545 -0.001227 0.002630
# 2 -0.000709 0.015575 0.003671 -0.012279 -0.006480 0.008506
# 3 -0.000410 0.003671 0.012921 -0.010393 -0.005332 0.001190
# 4 -0.003545 -0.012279 -0.010393 0.051268 0.009361 -0.019056
# 5 -0.001227 -0.006480 -0.005332 0.009361 0.039580 -0.013865
# 6 0.002630 0.008506 0.001190 -0.019056 -0.013865 0.034934
#
#
# Mechanical properties :
#
#
# Convention : Reuss Voigt Hill
#
# Bulk Modulus (GPa) = 24.76168 45.56052 35.16110
# Shear Modulus (GPa) = 29.51236 43.51821 36.51528
#
# Velocity S-wave (km/s) = 3.55622 4.31839 3.95570
# Velocity P-wave (km/s) = 5.24149 6.66246 5.99423
#
# Compressibility (1/GPa) = 0.04038498
#
# Stress axis : x y z
#
# Youngs Moduli (GPa) = 147.38925 64.20739 77.39153
#
# Poissons Ratio (x) = 0.04551 0.03172
# Poissons Ratio (y) = 0.10446 -0.28409
# Poissons Ratio (z) = 0.06041 -0.23569
#
# Static dielectric constant tensor:
#      x y z
#    x 1.880820 0.040730 -0.048270 
#    y 0.040730 1.881740 0.106480 
#    z -0.048270 0.106480 1.588030 
# 
# From -- ./inp_files/595582.got.cif
#   From: 2010.05.17/outbox.cif.g08.bks.cpg/sg2_298_cif.got.tgz:595582.got - 2010.06.03 11:33:40.
