data_PCOD9071670
_publ_section_title
;
Structure prediction by ZEFSAII (Michael W. Deem and Ramdas Pophale) SiO2 
 PCOD9071670
Probable space group: P -1
;
_chemical_formula_sum "Si O2"
_cell_formula_units_Z 14
_cell_length_a 4.962378
_cell_length_b 10.224634
_cell_length_c 12.685008
_cell_angle_alpha 60.008015
_cell_angle_beta 108.532110
_cell_angle_gamma 107.533848
_cell_volume 520.523367
_symmetry_space_group_name_H-M "P -1"
_symmetry_group_IT_number 2
_symmetry_cell_setting 'triclinic'
loop_
_space_group_symop_operation_xyz
x,y,z
-x,-y,-z
loop_
_atom_site_type_symbol
_atom_site_label
_atom_site_fract_x
_atom_site_fract_y
_atom_site_fract_z
Si Si1 0.765511 0.604104 0.822173
Si Si2 0.256695 0.727166 0.968378
Si Si3 0.159013 0.530542 0.718393
Si Si4 0.871031 0.804639 0.075859
Si Si5 0.770239 0.931410 0.411208
Si Si6 0.832399 0.088212 0.731674
Si Si7 0.368478 0.632940 0.484264
O O1 0.726515 0.454455 0.954312
O O2 0.446350 0.638055 0.756951
O O3 0.892577 0.551541 0.749703
O O4 0.009798 0.735302 0.847708
O O5 0.578941 0.820178 0.970509
O O6 0.117177 0.771350 0.041373
O O7 0.226347 0.359074 0.809904
O O8 0.160044 0.575868 0.578396
O O9 0.003031 0.926682 0.131975
O O10 0.482045 0.998189 0.313196
O O11 0.625602 0.764687 0.504068
O O12 0.944204 0.915153 0.333046
O O13 0.000000 0.000000 0.500000
O O14 0.767441 0.263542 0.658018
O O15 0.500000 0.500000 0.500000
#
# Coordination Sequence:
#
# PCOD9071670 Si02
#       7
#     2   2   2   2   2   2   2
#     4   9  18  30  43  65  98 142 177 213 255 321
#     4   9  17  29  45  65  99 138 176 213 265 311
#     4  10  20  29  46  69 104 139 178 210 260 313
#     4  10  18  29  48  72 101 136 173 218 262 314
#     4  10  22  39  56  74 109 149 181 221 261 309
#     4  10  22  35  55  77 109 140 180 220 260 318
#     4  10  24  34  55  80 114 145 178 217 265 317
#
# _framework density 26.896003
#
# number of rings (size 3 to 8) (size 9 to 14) (size 15 to 20)
#    0.857    1.429    0.000    3.000    8.000    4.571 
#    0.000    0.000    0.000    0.000    0.000    0.000 
#    0.000   22.857    0.000    0.000    0.000    0.000 
#
# Total GULP energy -78307.979110 kJ/mol
# GULP energy per Si atom -5593.427079 kJ/mol
# Density = 2.683479 g / cm^3
# Si number density = 26.896003 Si / 1000 Ang^3
#
#
#
# Elastic Constant Matrix: (Units=GPa)
#
#
# Indices 1 2 3 4 5 6 
#
# 1 125.4189 13.9951 -6.7129 -0.9653 -7.7044 24.2216
# 2 13.9951 98.7178 20.6314 1.9864 6.2267 32.7320
# 3 -6.7129 20.6314 59.0322 7.9799 9.5801 -5.0830
# 4 -0.9653 1.9864 7.9799 37.1230 -2.0213 10.8707
# 5 -7.7044 6.2267 9.5801 -2.0213 51.8802 16.5679
# 6 24.2216 32.7320 -5.0830 10.8707 16.5679 40.4673
#
#
#
# Elastic Compliance Matrix: (Units=1/GPa)
#
#
# Indices 1 2 3 4 5 6 
#
# 1 0.010264 0.002552 -0.002273 0.004439 0.005641 -0.011995
# 2 0.002552 0.019581 -0.011257 0.009106 0.008330 -0.024636
# 3 -0.002273 -0.011257 0.025869 -0.011901 -0.011076 0.021447
# 4 0.004439 0.009106 -0.011901 0.037473 0.011638 -0.026348
# 5 0.005641 0.008330 -0.011076 0.011638 0.030238 -0.027012
# 6 -0.011995 -0.024636 0.021447 -0.026348 -0.027012 0.072648
#
#
# Mechanical properties :
#
#
# Convention : Reuss Voigt Hill
#
# Bulk Modulus (GPa) = 29.62347 37.66623 33.64485
# Shear Modulus (GPa) = 21.80729 42.91113 32.35921
#
# Velocity S-wave (km/s) = 2.85054 3.99864 3.47237
# Velocity P-wave (km/s) = 4.67676 5.94589 5.34910
#
# Compressibility (1/GPa) = 0.03375702
#
# Stress axis : x y z
#
# Youngs Moduli (GPa) = 97.42653 51.07097 38.65697
#
# Poissons Ratio (x) = -0.13034 0.08787
# Poissons Ratio (y) = -0.24864 0.43517
# Poissons Ratio (z) = 0.22146 0.57491
#
# Static dielectric constant tensor:
#      x y z
#    x 2.033640 0.062900 0.131970 
#    y 0.062900 2.174170 -0.015640 
#    z 0.131970 -0.015640 2.163040 
# 
# From -- ./inp_files/123906.got.cif
#   From: 2010.05.17/outbox.cif.g08.bks.cpg/sg2_62_cif.got.tgz:123906.got - 2010.06.03 11:33:40.
