data_PCOD9071108
_publ_section_title
;
Structure prediction by ZEFSAII (Michael W. Deem and Ramdas Pophale) SiO2 
 PCOD9071108
Probable space group: P -1
;
_chemical_formula_sum "Si O2"
_cell_formula_units_Z 13
_cell_length_a 6.182905
_cell_length_b 11.131384
_cell_length_c 11.093414
_cell_angle_alpha 128.436887
_cell_angle_beta 61.897288
_cell_angle_gamma 108.673571
_cell_volume 527.121989
_symmetry_space_group_name_H-M "P -1"
_symmetry_group_IT_number 2
_symmetry_cell_setting 'triclinic'
loop_
_space_group_symop_operation_xyz
x,y,z
-x,-y,-z
loop_
_atom_site_type_symbol
_atom_site_label
_atom_site_fract_x
_atom_site_fract_y
_atom_site_fract_z
Si Si1 0.278553 0.321104 0.655721
Si Si2 0.426228 0.996775 0.378342
Si Si3 0.968482 0.358875 0.327461
Si Si4 0.500000 0.500000 0.500000
Si Si5 0.570443 0.535258 0.866219
Si Si6 0.829636 0.232985 0.871730
Si Si7 0.971662 0.024673 0.164154
O O1 0.291991 0.427135 0.601767
O O2 0.519719 0.382131 0.705087
O O3 0.063000 0.328593 0.815944
O O4 0.273468 0.148157 0.502461
O O5 0.284405 0.851594 0.268706
O O6 0.500000 0.000000 0.500000
O O7 0.684134 0.006469 0.251062
O O8 0.160909 0.392609 0.189001
O O9 0.000000 0.500000 0.500000
O O10 0.677459 0.350474 0.374935
O O11 0.050110 0.203181 0.274173
O O12 0.500000 0.500000 0.000000
O O13 0.371873 0.657534 0.952494
O O14 0.901603 0.100994 0.864481
O O15 0.000000 0.000000 0.000000
#
# Coordination Sequence:
#
# PCOD9071108 Si02
#       7
#     2   2   2   1   2   2   2
#     4  12  26  47  78 110 151 203 259 316 383 458
#     4  12  25  50  77 111 149 205 263 320 386 464
#     4  12  27  49  76 110 152 196 261 316 376 459
#     4  12  26  46  76 110 146 196 258 318 376 442
#     4  12  27  50  78 112 155 207 257 316 390 464
#     4  12  29  48  80 113 162 203 257 326 394 456
#     4  12  29  47  76 115 160 202 254 322 393 462
#
# _framework density 24.662222
#
# number of rings (size 3 to 8) (size 9 to 14) (size 15 to 20)
#    0.000    0.000    4.615    3.692    6.462    2.462 
#    0.000    0.000    0.000    0.000    0.000    0.000 
#    0.000    0.000    0.000    0.000    0.000    0.000 
#
# Total GULP energy -72511.612722 kJ/mol
# GULP energy per Si atom -5577.816363 kJ/mol
# Density = 2.460609 g / cm^3
# Si number density = 24.662222 Si / 1000 Ang^3
#
#
#
# Elastic Constant Matrix: (Units=GPa)
#
#
# Indices 1 2 3 4 5 6 
#
# 1 65.7386 42.2206 32.9682 -13.6835 -20.0655 0.7328
# 2 42.2206 146.5941 45.0162 -18.9086 -15.1502 -15.1551
# 3 32.9682 45.0162 109.0816 -14.8957 -20.6638 -5.4182
# 4 -13.6835 -18.9086 -14.8957 58.6686 12.8947 -5.2973
# 5 -20.0655 -15.1502 -20.6638 12.8947 60.3256 -0.4286
# 6 0.7328 -15.1551 -5.4182 -5.2973 -0.4286 42.6969
#
#
#
# Elastic Compliance Matrix: (Units=1/GPa)
#
#
# Indices 1 2 3 4 5 6 
#
# 1 0.021797 -0.004731 -0.003708 0.001427 0.004470 -0.002302
# 2 -0.004731 0.009368 -0.002084 0.001752 -0.000286 0.003356
# 3 -0.003708 -0.002084 0.011730 0.001081 0.002037 0.000967
# 4 0.001427 0.001752 0.001081 0.019105 -0.002777 0.003077
# 5 0.004470 -0.000286 0.002037 -0.002777 0.019283 -0.000071
# 6 -0.002302 0.003356 0.000967 0.003077 -0.000071 0.025156
#
#
# Mechanical properties :
#
#
# Convention : Reuss Voigt Hill
#
# Bulk Modulus (GPa) = 45.77033 62.42493 54.09763
# Shear Modulus (GPa) = 37.10114 45.75218 41.42666
#
# Velocity S-wave (km/s) = 3.88283 4.31182 4.10294
# Velocity P-wave (km/s) = 6.22101 7.08209 6.66547
#
# Compressibility (1/GPa) = 0.02184822
#
# Stress axis : x y z
#
# Youngs Moduli (GPa) = 45.87772 106.75080 85.25342
#
# Poissons Ratio (x) = 0.50504 0.31612
# Poissons Ratio (y) = 0.21705 0.17768
# Poissons Ratio (z) = 0.17011 0.22248
#
# Static dielectric constant tensor:
#      x y z
#    x 2.119260 -0.093190 -0.015290 
#    y -0.093190 1.975230 0.027970 
#    z -0.015290 0.027970 1.932440 
# 
# From -- ./inp_files/363490.got.cif
#   From: 2010.05.17/outbox.cif.g08.bks.cpg/sg2_182_cif.got.tgz:363490.got - 2010.06.03 11:33:40.
