data_PCOD9071362
_publ_section_title
;
Structure prediction by ZEFSAII (Michael W. Deem and Ramdas Pophale) SiO2 
 PCOD9071362
Probable space group: P -1
;
_chemical_formula_sum "Si O2"
_cell_formula_units_Z 16
_cell_length_a 8.865690
_cell_length_b 19.082450
_cell_length_c 5.217704
_cell_angle_alpha 65.391772
_cell_angle_beta 80.826807
_cell_angle_gamma 48.990741
_cell_volume 597.217371
_symmetry_space_group_name_H-M "P -1"
_symmetry_group_IT_number 2
_symmetry_cell_setting 'triclinic'
loop_
_space_group_symop_operation_xyz
x,y,z
-x,-y,-z
loop_
_atom_site_type_symbol
_atom_site_label
_atom_site_fract_x
_atom_site_fract_y
_atom_site_fract_z
Si Si1 0.057936 0.753877 0.439447
Si Si2 0.076887 0.307994 0.056362
Si Si3 0.210062 0.427417 0.895111
Si Si4 0.988158 0.080223 0.056299
Si Si5 0.432563 0.097606 0.202809
Si Si6 0.275737 0.560766 0.367961
Si Si7 0.649585 0.252714 0.264199
Si Si8 0.386416 0.897877 0.370958
O O1 0.183599 0.673038 0.307311
O O2 0.215020 0.729402 0.653416
O O3 0.923109 0.726089 0.605886
O O4 0.950430 0.867407 0.214461
O O5 0.195670 0.195903 0.067608
O O6 0.191836 0.348293 0.895012
O O7 0.838309 0.405801 0.924446
O O8 0.211796 0.500907 0.601713
O O9 0.426218 0.355634 0.093223
O O10 0.000000 0.500000 0.000000
O O11 0.784083 0.172637 0.116840
O O12 0.164710 0.005879 0.326289
O O13 0.000000 0.000000 0.000000
O O14 0.494204 0.139191 0.339077
O O15 0.500000 0.000000 0.500000
O O16 0.533822 0.080087 0.927402
O O17 0.500000 0.500000 0.500000
O O18 0.624574 0.188485 0.562008
#
# Coordination Sequence:
#
# PCOD9071362 Si02
#       8
#     2   2   2   2   2   2   2   2
#     4  12  27  48  78 114 163 209 279 342 414 508
#     4  12  28  49  81 114 159 217 274 345 423 503
#     4  12  27  53  81 111 162 215 277 350 427 496
#     4  12  26  48  78 117 165 215 271 339 416 503
#     4  12  29  49  80 119 167 213 271 344 426 505
#     4  12  29  51  80 116 158 214 284 351 422 494
#     4  12  28  49  80 118 159 217 281 338 420 504
#     4  12  27  49  80 114 165 215 275 335 416 501
#
# _framework density 26.790915999999999
#
# number of rings (size 3 to 8) (size 9 to 14) (size 15 to 20)
#    0.000    0.000    3.750    4.875   10.500    2.000 
#    0.000    0.000    0.000    0.000    0.000    0.000 
#    0.000    0.000    0.000    0.000    0.000    0.000 
#
# Total GULP energy -89383.387640 kJ/mol
# GULP energy per Si atom -5586.461727 kJ/mol
# Density = 2.672994 g / cm^3
# Si number density = 26.790916 Si / 1000 Ang^3
#
#
#
# Elastic Constant Matrix: (Units=GPa)
#
#
# Indices 1 2 3 4 5 6 
#
# 1 97.7306 11.8280 41.7732 -20.0656 -3.0216 7.8392
# 2 11.8280 97.9413 40.7511 -30.7494 9.1475 -12.6214
# 3 41.7732 40.7511 142.9419 -35.7193 -18.8314 4.6402
# 4 -20.0656 -30.7494 -35.7193 58.5972 8.6213 2.1902
# 5 -3.0216 9.1475 -18.8314 8.6213 56.4323 -20.8476
# 6 7.8392 -12.6214 4.6402 2.1902 -20.8476 59.0267
#
#
#
# Elastic Compliance Matrix: (Units=1/GPa)
#
#
# Indices 1 2 3 4 5 6 
#
# 1 0.012216 0.000675 -0.003194 0.002909 -0.001678 -0.001927
# 2 0.000675 0.013897 -0.003172 0.006058 -0.003596 0.001636
# 3 -0.003194 -0.003172 0.009970 0.002843 0.003236 -0.000001
# 4 0.002909 0.006058 0.002843 0.023638 -0.004094 -0.001637
# 5 -0.001678 -0.003596 0.003236 -0.004094 0.022632 0.007345
# 6 -0.001927 0.001636 -0.000001 -0.001637 0.007345 0.020202
#
#
# Mechanical properties :
#
#
# Convention : Reuss Voigt Hill
#
# Bulk Modulus (GPa) = 40.48291 58.59093 49.53692
# Shear Modulus (GPa) = 40.92627 51.09535 46.01081
#
# Velocity S-wave (km/s) = 3.91271 4.37188 4.14865
# Velocity P-wave (km/s) = 5.96288 6.88488 6.44040
#
# Compressibility (1/GPa) = 0.02470178
#
# Stress axis : x y z
#
# Youngs Moduli (GPa) = 81.86173 71.95621 100.29662
#
# Poissons Ratio (x) = -0.04860 0.32034
# Poissons Ratio (y) = -0.05529 0.31818
# Poissons Ratio (z) = 0.26146 0.22827
#
# Static dielectric constant tensor:
#      x y z
#    x 2.423510 -0.095500 0.091970 
#    y -0.095500 2.261430 0.076400 
#    z 0.091970 0.076400 2.147480 
# 
# From -- ./inp_files/52467.got.cif
#   From: 2010.05.17/outbox.cif.g08.bks.cpg/sg2_27_cif.got.tgz:52467.got - 2010.06.03 11:33:40.
