data_PCOD9071031
_publ_section_title
;
Structure prediction by ZEFSAII (Michael W. Deem and Ramdas Pophale) SiO2 
 PCOD9071031
Probable space group: P -1
;
_chemical_formula_sum "Si O2"
_cell_formula_units_Z 12
_cell_length_a 5.698352
_cell_length_b 9.106397
_cell_length_c 19.252529
_cell_angle_alpha 138.253611
_cell_angle_beta 97.426872
_cell_angle_gamma 57.760558
_cell_volume 494.444132
_symmetry_space_group_name_H-M "P -1"
_symmetry_group_IT_number 2
_symmetry_cell_setting 'triclinic'
loop_
_space_group_symop_operation_xyz
x,y,z
-x,-y,-z
loop_
_atom_site_type_symbol
_atom_site_label
_atom_site_fract_x
_atom_site_fract_y
_atom_site_fract_z
Si Si1 0.752948 0.303589 0.196796
Si Si2 0.183522 0.571934 0.488119
Si Si3 0.298314 0.114760 0.237837
Si Si4 0.715841 0.841257 0.019882
Si Si5 0.947601 0.137587 0.621742
Si Si6 0.255731 0.313812 0.781854
O O1 0.378086 0.530079 0.272259
O O2 0.787216 0.442119 0.180593
O O3 0.940031 0.287717 0.263237
O O4 0.881862 0.977310 0.079958
O O5 0.500000 0.500000 0.500000
O O6 0.296368 0.368065 0.352626
O O7 0.000000 0.500000 0.500000
O O8 0.938880 0.920984 0.590089
O O9 0.507959 0.940316 0.115829
O O10 0.444749 0.889240 0.227989
O O11 0.963194 0.498203 0.890397
O O12 0.500000 0.000000 0.000000
O O13 0.209556 0.137782 0.664913
O O14 0.000000 0.000000 0.500000
#
# Coordination Sequence:
#
# PCOD9071031 Si02
#       6
#     2   2   2   2   2   2
#     4  12  26  47  75 106 151 197 259 319 392 459
#     4  12  28  51  79 115 159 201 264 325 390 473
#     4  12  28  47  78 111 149 201 260 318 393 461
#     4  12  25  49  74 108 154 196 254 322 390 465
#     4  12  27  48  77 107 156 201 258 318 396 465
#     4  12  26  49  74 111 149 199 253 317 389 471
#
# _framework density 24.269680999999999
#
# number of rings (size 3 to 8) (size 9 to 14) (size 15 to 20)
#    0.000    0.000    5.000    4.000    4.667    3.333 
#    0.000    0.000    0.000    0.000    0.000    0.000 
#    0.000    0.000    0.000    0.000    0.000    0.000 
#
# Total GULP energy -67133.472919 kJ/mol
# GULP energy per Si atom -5594.456077 kJ/mol
# Density = 2.421444 g / cm^3
# Si number density = 24.269681 Si / 1000 Ang^3
#
#
#
# Elastic Constant Matrix: (Units=GPa)
#
#
# Indices 1 2 3 4 5 6 
#
# 1 86.9374 48.3235 5.4871 -25.1922 14.3116 2.4312
# 2 48.3235 136.7394 8.6575 -14.9903 -0.4730 -17.4085
# 3 5.4871 8.6575 97.3521 -25.9108 2.4931 -1.1084
# 4 -25.1922 -14.9903 -25.9108 43.7264 -3.2449 4.5557
# 5 14.3116 -0.4730 2.4931 -3.2449 47.5558 -8.1739
# 6 2.4312 -17.4085 -1.1084 4.5557 -8.1739 48.2121
#
#
#
# Elastic Compliance Matrix: (Units=1/GPa)
#
#
# Indices 1 2 3 4 5 6 
#
# 1 0.019063 -0.006450 0.002321 0.010239 -0.006125 -0.005243
# 2 -0.006450 0.010122 -0.000822 -0.000998 0.002795 0.004529
# 3 0.002321 -0.000822 0.012488 0.008498 -0.000970 -0.001094
# 4 0.010239 -0.000998 0.008498 0.033755 -0.001956 -0.004202
# 5 -0.006125 0.002795 -0.000970 -0.001956 0.023763 0.005510
# 6 -0.005243 0.004529 -0.001094 -0.004202 0.005510 0.023948
#
#
# Mechanical properties :
#
#
# Convention : Reuss Voigt Hill
#
# Bulk Modulus (GPa) = 31.47458 49.55167 40.51312
# Shear Modulus (GPa) = 34.81141 45.13624 39.97382
#
# Velocity S-wave (km/s) = 3.79140 4.31719 4.06281
# Velocity P-wave (km/s) = 5.67125 6.73144 6.22396
#
# Compressibility (1/GPa) = 0.03177167
#
# Stress axis : x y z
#
# Youngs Moduli (GPa) = 52.45701 98.79861 80.07430
#
# Poissons Ratio (x) = 0.63726 -0.18589
# Poissons Ratio (y) = 0.33835 0.06583
# Poissons Ratio (z) = -0.12178 0.08123
#
# Static dielectric constant tensor:
#      x y z
#    x 1.982390 0.006890 -0.009980 
#    y 0.006890 1.959260 -0.031170 
#    z -0.009980 -0.031170 2.004150 
# 
# From -- ./inp_files/39147.got.cif
#   From: 2010.05.17/outbox.cif.g08.bks.cpg/sg2_20_cif.got.tgz:39147.got - 2010.06.03 11:33:40.
