data_PCOD9071275
_publ_section_title
;
Structure prediction by ZEFSAII (Michael W. Deem and Ramdas Pophale) SiO2 
 PCOD9071275
Probable space group: P -1
;
_chemical_formula_sum "Si O2"
_cell_formula_units_Z 16
_cell_length_a 24.064212
_cell_length_b 18.051608
_cell_length_c 14.323947
_cell_angle_alpha 158.706933
_cell_angle_beta 148.589151
_cell_angle_gamma 19.425714
_cell_volume 734.894798
_symmetry_space_group_name_H-M "P -1"
_symmetry_group_IT_number 2
_symmetry_cell_setting 'triclinic'
loop_
_space_group_symop_operation_xyz
x,y,z
-x,-y,-z
loop_
_atom_site_type_symbol
_atom_site_label
_atom_site_fract_x
_atom_site_fract_y
_atom_site_fract_z
Si Si1 0.132736 0.279660 0.016504
Si Si2 0.754781 0.532601 0.005225
Si Si3 0.196470 0.737678 0.443338
Si Si4 0.462847 0.686230 0.257004
Si Si5 0.618529 0.721995 0.656715
Si Si6 0.226196 0.765114 0.135941
Si Si7 0.313745 0.221857 0.535374
Si Si8 0.980209 0.513579 0.692789
O O1 0.263267 0.269555 0.193854
O O2 0.039879 0.414536 0.141534
O O3 0.000000 0.500000 0.000000
O O4 0.232309 0.922903 0.720927
O O5 0.909729 0.461462 0.159602
O O6 0.577956 0.919140 0.196176
O O7 0.784146 0.374998 0.764546
O O8 0.738376 0.389287 0.894448
O O9 0.314701 0.450837 0.351100
O O10 0.000000 0.000000 0.500000
O O11 0.623405 0.545376 0.374688
O O12 0.373225 0.678418 0.195755
O O13 0.348701 0.041277 0.467749
O O14 0.500000 0.500000 0.000000
O O15 0.213722 0.581253 0.837304
O O16 0.078271 0.153282 0.393038
O O17 0.202876 0.246989 0.337130
O O18 0.500000 0.000000 0.500000
#
# Coordination Sequence:
#
# PCOD9071275 Si02
#       8
#     2   2   2   2   2   2   2   2
#     4  12  26  47  75 112 148 194 252 306 378 449
#     4  12  27  50  73 113 150 194 250 313 380 443
#     4  12  26  48  77 109 148 197 253 308 375 450
#     4  12  27  47  76 111 151 194 252 303 369 450
#     4  12  27  48  77 109 152 195 251 312 376 448
#     4  12  26  48  74 109 152 192 253 303 380 430
#     4  12  26  49  75 111 149 198 254 302 370 448
#     4  12  27  46  78 104 155 196 247 313 370 444
#
# _framework density 21.771825
#
# number of rings (size 3 to 8) (size 9 to 14) (size 15 to 20)
#    0.000    0.000    6.250    2.250    3.500    3.500 
#    0.000    0.000    0.000    0.000    0.000    0.000 
#    0.000    0.000    0.000    0.000    0.000    0.000 
#
# Total GULP energy -89530.623321 kJ/mol
# GULP energy per Si atom -5595.663958 kJ/mol
# Density = 2.172227 g / cm^3
# Si number density = 21.771825 Si / 1000 Ang^3
#
#
#
# Elastic Constant Matrix: (Units=GPa)
#
#
# Indices 1 2 3 4 5 6 
#
# 1 161.2925 72.5046 59.0972 -16.8886 7.2835 10.3618
# 2 72.5046 118.4071 33.1098 -25.4029 4.7037 -0.2487
# 3 59.0972 33.1098 127.4667 -19.1296 1.5399 -2.3014
# 4 -16.8886 -25.4029 -19.1296 39.2952 1.3347 -0.2235
# 5 7.2835 4.7037 1.5399 1.3347 54.3853 -1.0725
# 6 10.3618 -0.2487 -2.3014 -0.2235 -1.0725 24.3179
#
#
#
# Elastic Compliance Matrix: (Units=1/GPa)
#
#
# Indices 1 2 3 4 5 6 
#
# 1 0.010174 -0.005400 -0.003514 -0.000827 -0.000870 -0.004769
# 2 -0.005400 0.013086 0.000088 0.006213 -0.000515 0.002478
# 3 -0.003514 0.000088 0.010009 0.003428 0.000144 0.002483
# 4 -0.000827 0.006213 0.003428 0.030827 -0.001261 0.000968
# 5 -0.000870 -0.000515 0.000144 -0.001261 0.018599 0.001188
# 6 -0.004769 0.002478 0.002483 0.000968 0.001188 0.043476
#
#
# Mechanical properties :
#
#
# Convention : Reuss Voigt Hill
#
# Bulk Modulus (GPa) = 64.03270 81.84327 72.93798
# Shear Modulus (GPa) = 33.55067 39.76332 36.65699
#
# Velocity S-wave (km/s) = 3.92983 4.27824 4.10773
# Velocity P-wave (km/s) = 7.07574 7.87892 7.48811
#
# Compressibility (1/GPa) = 0.01561702
#
# Stress axis : x y z
#
# Youngs Moduli (GPa) = 98.29044 76.41690 99.90896
#
# Poissons Ratio (x) = 0.41265 0.35107
# Poissons Ratio (y) = 0.53077 -0.00878
# Poissons Ratio (z) = 0.34538 -0.00671
#
# Static dielectric constant tensor:
#      x y z
#    x 1.756450 -0.005690 -0.013830 
#    y -0.005690 1.773890 0.005900 
#    z -0.013830 0.005900 1.847690 
# 
# From -- ./inp_files/543199.got.cif
#   From: 2010.05.17/outbox.cif.g08.bks.cpg/sg2_272_cif.got.tgz:543199.got - 2010.06.03 11:33:40.
