data_PCOD9071710
_publ_section_title
;
Structure prediction by ZEFSAII (Michael W. Deem and Ramdas Pophale) SiO2 
 PCOD9071710
Probable space group: P -1
;
_chemical_formula_sum "Si O2"
_cell_formula_units_Z 16
_cell_length_a 7.743230
_cell_length_b 7.561341
_cell_length_c 11.238232
_cell_angle_alpha 71.883627
_cell_angle_beta 85.848920
_cell_angle_gamma 75.587806
_cell_volume 605.681697
_symmetry_space_group_name_H-M "P -1"
_symmetry_group_IT_number 2
_symmetry_cell_setting 'triclinic'
loop_
_space_group_symop_operation_xyz
x,y,z
-x,-y,-z
loop_
_atom_site_type_symbol
_atom_site_label
_atom_site_fract_x
_atom_site_fract_y
_atom_site_fract_z
Si Si1 0.632715 0.689494 0.879335
Si Si2 0.891133 0.267957 0.368675
Si Si3 0.091625 0.060061 0.111699
Si Si4 0.854462 0.430328 0.099284
Si Si5 0.471901 0.266419 0.367357
Si Si6 0.528927 0.831179 0.365155
Si Si7 0.877551 0.157653 0.636916
Si Si8 0.349378 0.015082 0.900727
O O1 0.764340 0.836672 0.849763
O O2 0.321163 0.444958 0.979212
O O3 0.633456 0.608115 0.762130
O O4 0.432993 0.813352 0.877249
O O5 0.898203 0.429265 0.236929
O O6 0.680135 0.269141 0.367938
O O7 0.931437 0.284606 0.502787
O O8 0.019643 0.061285 0.366127
O O9 0.906129 0.208252 0.111044
O O10 0.084199 0.865407 0.220118
O O11 0.169538 0.051016 0.977729
O O12 0.000000 0.500000 0.000000
O O13 0.388231 0.293688 0.498088
O O14 0.479630 0.049175 0.371339
O O15 0.337103 0.789555 0.362214
O O16 0.635745 0.834573 0.236412
O O17 0.500000 0.000000 0.000000
#
# Coordination Sequence:
#
# PCOD9071710 Si02
#       8
#     2   2   2   2   2   2   2   2
#     4   9  16  27  44  65  93 118 143 184 219 264
#     4   9  18  25  42  66  92 117 146 187 225 261
#     4   9  15  27  47  71  87 115 153 185 219 256
#     4   9  18  30  44  64  92 119 150 185 222 263
#     4   9  16  26  41  68  94 116 145 183 228 261
#     4   9  15  25  44  67  94 116 144 186 222 261
#     4   9  14  27  42  65  90 116 145 185 218 257
#     4   9  14  24  45  73  85 113 154 186 213 254
#
# _framework density 26.416515
#
# number of rings (size 3 to 8) (size 9 to 14) (size 15 to 20)
#    0.000    3.000    3.750    0.000    0.000    0.500 
#    0.000    0.000    0.000   13.500    0.000    0.000 
#    0.000    0.000    0.000    0.000    0.000    0.000 
#
# Total GULP energy -89106.397700 kJ/mol
# GULP energy per Si atom -5569.149856 kJ/mol
# Density = 2.635639 g / cm^3
# Si number density = 26.416515 Si / 1000 Ang^3
#
#
#
# Elastic Constant Matrix: (Units=GPa)
#
#
# Indices 1 2 3 4 5 6 
#
# 1 97.2579 10.7138 43.4942 4.2402 -7.0861 -11.4953
# 2 10.7138 29.2214 21.3979 -4.4553 7.0731 -7.8284
# 3 43.4942 21.3979 316.2662 3.9489 12.4097 -16.4753
# 4 4.2402 -4.4553 3.9489 22.3133 -4.0714 2.3478
# 5 -7.0861 7.0731 12.4097 -4.0714 36.6445 3.4973
# 6 -11.4953 -7.8284 -16.4753 2.3478 3.4973 30.1837
#
#
#
# Elastic Compliance Matrix: (Units=1/GPa)
#
#
# Indices 1 2 3 4 5 6 
#
# 1 0.011937 -0.003781 -0.001329 -0.002533 0.002950 0.002695
# 2 -0.003781 0.042341 -0.001627 0.006963 -0.008447 0.009091
# 3 -0.001329 -0.001627 0.003590 -0.001098 -0.001403 0.001279
# 4 -0.002533 0.006963 -0.001098 0.048080 0.004261 -0.003992
# 5 0.002950 -0.008447 -0.001403 0.004261 0.030988 -0.005755
# 6 0.002695 0.009091 0.001279 -0.003992 -0.005755 0.038190
#
#
# Mechanical properties :
#
#
# Convention : Reuss Voigt Hill
#
# Bulk Modulus (GPa) = 22.52612 65.99526 44.26069
# Shear Modulus (GPa) = 24.58233 42.30426 33.44330
#
# Velocity S-wave (km/s) = 3.05383 4.00613 3.56195
# Velocity P-wave (km/s) = 4.58043 6.81437 5.80585
#
# Compressibility (1/GPa) = 0.04439290
#
# Stress axis : x y z
#
# Youngs Moduli (GPa) = 83.77352 23.61804 278.53604
#
# Poissons Ratio (x) = 0.08931 0.37031
# Poissons Ratio (y) = 0.31677 0.45307
# Poissons Ratio (z) = 0.11138 0.03842
#
# Static dielectric constant tensor:
#      x y z
#    x 2.175810 0.089730 0.018010 
#    y 0.089730 2.271430 -0.029700 
#    z 0.018010 -0.029700 2.325900 
# 
# From -- ./inp_files/253010.got.cif
#   From: 2010.05.17/outbox.cif.g08.bks.cpg/sg2_127_cif.got.tgz:253010.got - 2010.06.03 11:33:40.
