data_PCOD9071383
_publ_section_title
;
Structure prediction by ZEFSAII (Michael W. Deem and Ramdas Pophale) SiO2 
 PCOD9071383
Probable space group: P -1
;
_chemical_formula_sum "Si O2"
_cell_formula_units_Z 13
_cell_length_a 9.533593
_cell_length_b 5.110991
_cell_length_c 12.018292
_cell_angle_alpha 75.756608
_cell_angle_beta 114.688558
_cell_angle_gamma 112.494414
_cell_volume 488.992572
_symmetry_space_group_name_H-M "P -1"
_symmetry_group_IT_number 2
_symmetry_cell_setting 'triclinic'
loop_
_space_group_symop_operation_xyz
x,y,z
-x,-y,-z
loop_
_atom_site_type_symbol
_atom_site_label
_atom_site_fract_x
_atom_site_fract_y
_atom_site_fract_z
Si Si1 0.865198 0.476119 0.864174
Si Si2 0.063736 0.142187 0.365648
Si Si3 0.000000 0.500000 0.500000
Si Si4 0.808342 0.727333 0.191628
Si Si5 0.732990 0.854520 0.920375
Si Si6 0.346227 0.937966 0.535652
Si Si7 0.395046 0.915058 0.808495
O O1 0.934548 0.666964 0.761361
O O2 0.732085 0.592592 0.869178
O O3 0.800044 0.147097 0.844721
O O4 0.000000 0.500000 0.000000
O O5 0.976458 0.243444 0.426421
O O6 0.244954 0.146280 0.446463
O O7 0.954571 0.818215 0.322270
O O8 0.797954 0.366438 0.481457
O O9 0.737781 0.393205 0.187670
O O10 0.672561 0.853603 0.182008
O O11 0.843043 0.853345 0.065590
O O12 0.561199 0.866555 0.907701
O O13 0.413895 0.984014 0.677713
O O14 0.500000 0.000000 0.500000
#
# Coordination Sequence:
#
# PCOD9071383 Si02
#       7
#     2   2   1   2   2   2   2
#     4  12  27  48  79 116 158 211 279 345 416 497
#     4  12  29  49  84 117 167 221 280 347 418 499
#     4  12  28  54  82 114 170 218 284 336 420 486
#     4  12  26  48  83 114 166 214 278 340 419 501
#     4  12  26  50  77 120 162 213 273 348 415 501
#     4  12  29  51  79 120 164 219 280 345 413 499
#     4  12  27  47  77 118 162 219 270 342 422 498
#
# _framework density 26.585267999999999
#
# number of rings (size 3 to 8) (size 9 to 14) (size 15 to 20)
#    0.000    0.000    3.077    5.538    6.462    0.615 
#    0.000    0.000    0.000    0.000    0.000    0.000 
#    0.000    0.000    0.000    0.000    0.000    0.000 
#
# Total GULP energy -72799.488780 kJ/mol
# GULP energy per Si atom -5599.960675 kJ/mol
# Density = 2.652476 g / cm^3
# Si number density = 26.585268 Si / 1000 Ang^3
#
#
#
# Elastic Constant Matrix: (Units=GPa)
#
#
# Indices 1 2 3 4 5 6 
#
# 1 190.0778 22.7846 32.7330 -1.2449 6.0894 -15.8776
# 2 22.7846 62.1191 9.1759 -18.2300 -1.0870 0.4862
# 3 32.7330 9.1759 109.2816 -0.4048 1.2124 -1.3191
# 4 -1.2449 -18.2300 -0.4048 27.0205 6.5583 0.9126
# 5 6.0894 -1.0870 1.2124 6.5583 54.0942 -2.5595
# 6 -15.8776 0.4862 -1.3191 0.9126 -2.5595 43.1283
#
#
#
# Elastic Compliance Matrix: (Units=1/GPa)
#
#
# Indices 1 2 3 4 5 6 
#
# 1 0.006006 -0.002384 -0.001572 -0.001327 -0.000424 0.002193
# 2 -0.002384 0.021417 -0.001036 0.014649 -0.001126 -0.001528
# 3 -0.001572 -0.001036 0.009703 -0.000618 0.000001 -0.000257
# 4 -0.001327 0.014649 -0.000618 0.048221 -0.005484 -0.002018
# 5 -0.000424 -0.001126 0.000001 -0.005484 0.019229 0.001114
# 6 0.002193 -0.001528 -0.000257 -0.002018 0.001114 0.024112
#
#
# Mechanical properties :
#
#
# Convention : Reuss Voigt Hill
#
# Bulk Modulus (GPa) = 36.84515 54.54059 45.69287
# Shear Modulus (GPa) = 33.84780 44.63428 39.24104
#
# Velocity S-wave (km/s) = 3.57203 4.10190 3.84610
# Velocity P-wave (km/s) = 5.55895 6.55698 6.07848
#
# Compressibility (1/GPa) = 0.02714061
#
# Stress axis : x y z
#
# Youngs Moduli (GPa) = 166.50943 46.69191 103.05867
#
# Poissons Ratio (x) = 0.11134 0.16205
# Poissons Ratio (y) = 0.39704 0.10674
# Poissons Ratio (z) = 0.26182 0.04836
#
# Static dielectric constant tensor:
#      x y z
#    x 2.015000 0.017350 0.043290 
#    y 0.017350 2.036600 0.039500 
#    z 0.043290 0.039500 2.023280 
# 
# From -- ./inp_files/372519.got.cif
#   From: 2010.05.17/outbox.cif.g08.bks.cpg/sg2_187_cif.got.tgz:372519.got - 2010.06.03 11:33:40.
