data_PCOD9071311
_publ_section_title
;
Structure prediction by ZEFSAII (Michael W. Deem and Ramdas Pophale) SiO2 
 PCOD9071311
Probable space group: P -1
;
_chemical_formula_sum "Si O2"
_cell_formula_units_Z 15
_cell_length_a 11.844125
_cell_length_b 9.350812
_cell_length_c 9.316863
_cell_angle_alpha 98.159575
_cell_angle_beta 80.116276
_cell_angle_gamma 142.501043
_cell_volume 618.792187
_symmetry_space_group_name_H-M "P -1"
_symmetry_group_IT_number 2
_symmetry_cell_setting 'triclinic'
loop_
_space_group_symop_operation_xyz
x,y,z
-x,-y,-z
loop_
_atom_site_type_symbol
_atom_site_label
_atom_site_fract_x
_atom_site_fract_y
_atom_site_fract_z
Si Si1 0.906155 0.761440 0.429018
Si Si2 0.500000 0.000000 0.500000
Si Si3 0.855489 0.279009 0.655580
Si Si4 0.201012 0.175554 0.790186
Si Si5 0.447533 0.633004 0.354393
Si Si6 0.958096 0.282946 0.158327
Si Si7 0.361986 0.998266 0.045509
Si Si8 0.311595 0.489872 0.039406
O O1 0.886843 0.776501 0.266479
O O2 0.706491 0.543518 0.515754
O O3 0.028496 0.742298 0.427112
O O4 0.000000 0.000000 0.500000
O O5 0.298465 0.813933 0.431951
O O6 0.533762 0.875688 0.397837
O O7 0.994916 0.542685 0.717571
O O8 0.742246 0.114097 0.797367
O O9 0.386150 0.316311 0.682941
O O10 0.080789 0.911047 0.788158
O O11 0.248417 0.277192 0.953552
O O12 0.352251 0.529093 0.204723
O O13 0.146800 0.442873 0.049143
O O14 0.786126 0.145660 0.072089
O O15 0.499819 0.271637 0.044327
O O16 0.500000 0.000000 0.000000
#
# Coordination Sequence:
#
# PCOD9071311 Si02
#       8
#     2   1   2   2   2   2   2   2
#     4  12  30  51  79 119 167 216 275 335 413 497
#     4  12  28  52  82 112 162 220 272 342 406 490
#     4  12  29  51  84 118 164 219 275 345 406 495
#     4  12  28  50  85 117 171 214 269 345 412 497
#     4  12  27  51  79 120 161 219 275 330 419 483
#     4  12  26  51  81 125 162 210 275 336 419 486
#     4  12  26  47  82 123 162 202 278 339 411 480
#     4  12  26  50  82 122 161 216 270 344 412 490
#
# _framework density 24.240770999999999
#
# number of rings (size 3 to 8) (size 9 to 14) (size 15 to 20)
#    0.000    0.000    4.000    4.000    7.467    0.533 
#    0.000    0.000    0.000    0.000    0.000    0.000 
#    0.000    0.000    0.000    0.000    0.000    0.000 
#
# Total GULP energy -83876.750655 kJ/mol
# GULP energy per Si atom -5591.783377 kJ/mol
# Density = 2.418560 g / cm^3
# Si number density = 24.240771 Si / 1000 Ang^3
#
#
#
# Elastic Constant Matrix: (Units=GPa)
#
#
# Indices 1 2 3 4 5 6 
#
# 1 107.8886 27.7452 1.7501 13.6188 -9.8553 6.5418
# 2 27.7452 128.0448 52.0448 14.8447 2.3868 5.4626
# 3 1.7501 52.0448 85.8169 7.6593 -6.9556 -6.8055
# 4 13.6188 14.8447 7.6593 50.7751 -7.7293 -7.8899
# 5 -9.8553 2.3868 -6.9556 -7.7293 33.9548 9.8777
# 6 6.5418 5.4626 -6.8055 -7.8899 9.8777 38.4568
#
#
#
# Elastic Compliance Matrix: (Units=1/GPa)
#
#
# Indices 1 2 3 4 5 6 
#
# 1 0.010734 -0.002756 0.001758 -0.002140 0.003931 -0.002572
# 2 -0.002756 0.011811 -0.007313 -0.002417 -0.003033 -0.002220
# 3 0.001758 -0.007313 0.016553 0.000154 0.003646 0.002764
# 4 -0.002140 -0.002417 0.000154 0.022147 0.003336 0.004422
# 5 0.003931 -0.003033 0.003646 0.003336 0.034577 -0.007789
# 6 -0.002572 -0.002220 0.002764 0.004422 -0.007789 0.030153
#
#
# Mechanical properties :
#
#
# Convention : Reuss Voigt Hill
#
# Bulk Modulus (GPa) = 44.49095 53.87006 49.18050
# Shear Modulus (GPa) = 33.31380 40.65135 36.98257
#
# Velocity S-wave (km/s) = 3.71116 4.09954 3.91018
# Velocity P-wave (km/s) = 6.06277 6.68427 6.38109
#
# Compressibility (1/GPa) = 0.02247648
#
# Stress axis : x y z
#
# Youngs Moduli (GPa) = 93.16058 84.66885 60.41313
#
# Poissons Ratio (x) = 0.23334 -0.10621
# Poissons Ratio (y) = 0.25675 0.44178
# Poissons Ratio (z) = -0.16378 0.61915
#
# Static dielectric constant tensor:
#      x y z
#    x 1.915370 0.010610 0.043210 
#    y 0.010610 1.933660 -0.027840 
#    z 0.043210 -0.027840 1.946240 
# 
# From -- ./inp_files/244558.got.cif
#   From: 2010.05.17/outbox.cif.g08.bks.cpg/sg2_123_cif.got.tgz:244558.got - 2010.06.03 11:33:40.
