data_PCOD9071002
_publ_section_title
;
Structure prediction by ZEFSAII (Michael W. Deem and Ramdas Pophale) SiO2 
 PCOD9071002
Probable space group: P -1
;
_chemical_formula_sum "Si O2"
_cell_formula_units_Z 14
_cell_length_a 9.216512
_cell_length_b 15.545392
_cell_length_c 8.114897
_cell_angle_alpha 105.701340
_cell_angle_beta 31.412089
_cell_angle_gamma 109.805933
_cell_volume 569.710787
_symmetry_space_group_name_H-M "P -1"
_symmetry_group_IT_number 2
_symmetry_cell_setting 'triclinic'
loop_
_space_group_symop_operation_xyz
x,y,z
-x,-y,-z
loop_
_atom_site_type_symbol
_atom_site_label
_atom_site_fract_x
_atom_site_fract_y
_atom_site_fract_z
Si Si1 0.171450 0.202235 0.646988
Si Si2 0.036597 0.152203 0.384209
Si Si3 0.295130 0.703141 0.696308
Si Si4 0.752669 0.983409 0.363056
Si Si5 0.321644 0.503156 0.509455
Si Si6 0.403309 0.747802 0.251271
Si Si7 0.793144 0.445134 0.813451
O O1 0.031591 0.167901 0.591208
O O2 0.462631 0.278831 0.388508
O O3 0.952639 0.246088 0.988070
O O4 0.269633 0.115786 0.588275
O O5 0.851083 0.056777 0.450736
O O6 0.903588 0.228824 0.463588
O O7 0.362469 0.172945 0.018925
O O8 0.207334 0.596671 0.683519
O O9 0.449347 0.743168 0.398183
O O10 0.500000 0.000000 0.500000
O O11 0.000000 0.000000 0.000000
O O12 0.500000 0.500000 0.500000
O O13 0.028305 0.430589 0.715680
O O14 0.560590 0.498088 0.137394
O O15 0.381867 0.650478 0.136342
O O16 0.000000 0.500000 0.500000
#
# Coordination Sequence:
#
# PCOD9071002 Si02
#       7
#     2   2   2   2   2   2   2
#     4  12  27  46  73 107 148 185 237 296 360 429
#     4  12  27  46  73 110 145 185 236 301 358 426
#     4  12  26  46  71 104 144 194 241 293 359 430
#     4  12  25  48  79 108 143 190 237 289 360 436
#     4  12  28  46  72 104 148 189 245 305 366 421
#     4  12  26  45  73 103 145 190 243 294 363 426
#     4  12  26  48  72 105 141 194 248 304 357 425
#
# _framework density 24.573872000000001
#
# number of rings (size 3 to 8) (size 9 to 14) (size 15 to 20)
#    0.000    0.000    1.429    9.000    8.000    0.000 
#    0.000    4.286    0.000    0.000    0.000    0.000 
#    0.000    0.000    0.000    0.000    0.000    0.000 
#
# Total GULP energy -78435.345587 kJ/mol
# GULP energy per Si atom -5602.524685 kJ/mol
# Density = 2.451794 g / cm^3
# Si number density = 24.573872 Si / 1000 Ang^3
#
#
#
# Elastic Constant Matrix: (Units=GPa)
#
#
# Indices 1 2 3 4 5 6 
#
# 1 117.2853 41.9987 31.5497 15.5787 -5.4711 38.8638
# 2 41.9987 133.9205 39.7848 20.3538 -0.5746 39.4855
# 3 31.5497 39.7848 149.6531 16.7046 -12.1420 20.9124
# 4 15.5787 20.3538 16.7046 37.4895 6.3877 -1.8900
# 5 -5.4711 -0.5746 -12.1420 6.3877 38.0709 -7.2495
# 6 38.8638 39.4855 20.9124 -1.8900 -7.2495 37.3014
#
#
#
# Elastic Compliance Matrix: (Units=1/GPa)
#
#
# Indices 1 2 3 4 5 6 
#
# 1 0.014850 0.001837 -0.000259 -0.007952 0.000050 -0.017664
# 2 0.001837 0.013065 -0.000857 -0.008023 -0.001505 -0.015962
# 3 -0.000259 -0.000857 0.007985 -0.003567 0.002526 -0.002990
# 4 -0.007952 -0.008023 -0.003567 0.037767 -0.004982 0.019722
# 5 0.000050 -0.001505 0.002526 -0.004982 0.028940 0.005498
# 6 -0.017664 -0.015962 -0.002990 0.019722 0.005498 0.065854
#
#
# Mechanical properties :
#
#
# Convention : Reuss Voigt Hill
#
# Bulk Modulus (GPa) = 26.77897 69.72503 48.25200
# Shear Modulus (GPa) = 27.86055 41.74074 34.80065
#
# Velocity S-wave (km/s) = 3.37077 4.12586 3.76728
# Velocity P-wave (km/s) = 5.10592 7.15068 6.21299
#
# Compressibility (1/GPa) = 0.03734274
#
# Stress axis : x y z
#
# Youngs Moduli (GPa) = 67.34041 76.54125 125.23047
#
# Poissons Ratio (x) = -0.14059 0.03243
# Poissons Ratio (y) = -0.12369 0.10726
# Poissons Ratio (z) = 0.01744 0.06556
#
# Static dielectric constant tensor:
#      x y z
#    x 1.963480 0.011210 0.029600 
#    y 0.011210 1.811130 0.017930 
#    z 0.029600 0.017930 1.859790 
# 
# From -- ./inp_files/218147.got.cif
#   From: 2010.05.17/outbox.cif.g08.bks.cpg/sg2_110_cif.got.tgz:218147.got - 2010.06.03 11:33:40.
