data_PCOD9071671
_publ_section_title
;
Structure prediction by ZEFSAII (Michael W. Deem and Ramdas Pophale) SiO2 
 PCOD9071671
Probable space group: P -1
;
_chemical_formula_sum "Si O2"
_cell_formula_units_Z 12
_cell_length_a 10.387142
_cell_length_b 6.507732
_cell_length_c 13.782146
_cell_angle_alpha 36.824226
_cell_angle_beta 126.609643
_cell_angle_gamma 118.099273
_cell_volume 448.183939
_symmetry_space_group_name_H-M "P -1"
_symmetry_group_IT_number 2
_symmetry_cell_setting 'triclinic'
loop_
_space_group_symop_operation_xyz
x,y,z
-x,-y,-z
loop_
_atom_site_type_symbol
_atom_site_label
_atom_site_fract_x
_atom_site_fract_y
_atom_site_fract_z
Si Si1 0.823081 0.337148 0.973594
Si Si2 0.621873 0.029807 0.358619
Si Si3 0.374788 0.644463 0.499647
Si Si4 0.142542 0.515252 0.281536
Si Si5 0.780054 0.400742 0.138050
Si Si6 0.163346 0.303356 0.663908
O O1 0.728867 0.482716 0.972140
O O2 0.827139 0.930814 0.148940
O O3 0.778832 0.392520 0.821656
O O4 0.000000 0.500000 0.000000
O O5 0.495357 0.944679 0.417977
O O6 0.560745 0.726772 0.370244
O O7 0.795540 0.876842 0.528622
O O8 0.653092 0.367594 0.180634
O O9 0.219977 0.704850 0.336545
O O10 0.307548 0.556137 0.609059
O O11 0.952090 0.568453 0.170945
O O12 0.829285 0.999499 0.297553
O O13 0.000000 0.500000 0.500000
#
# Coordination Sequence:
#
# PCOD9071671 Si02
#       6
#     2   2   2   2   2   2
#     4   8  15  25  40  67  86 102 138 176 209 234
#     4   8  14  25  40  64  87 103 136 180 207 238
#     4   8  16  26  41  64  84 109 140 168 214 240
#     4   9  13  24  44  67  82 100 141 186 199 231
#     4   8  15  25  43  63  84 106 142 165 213 235
#     4   9  17  29  42  58  90 115 134 164 209 259
#
# _framework density 26.774722000000001
#
# number of rings (size 3 to 8) (size 9 to 14) (size 15 to 20)
#    2.000    1.667    0.000    0.500    0.000    0.000 
#    0.000    4.167    0.000    1.000    0.000    4.667 
#    0.000    1.333    0.000    0.000    0.000    0.000 
#
# Total GULP energy -66811.921625 kJ/mol
# GULP energy per Si atom -5567.660135 kJ/mol
# Density = 2.671378 g / cm^3
# Si number density = 26.774722 Si / 1000 Ang^3
#
#
#
# Elastic Constant Matrix: (Units=GPa)
#
#
# Indices 1 2 3 4 5 6 
#
# 1 79.1167 21.4870 43.9018 -8.0590 -49.2722 11.2798
# 2 21.4870 110.3984 22.9848 -20.7643 -12.4814 27.1097
# 3 43.9018 22.9848 161.7901 -0.6321 -58.1702 4.5262
# 4 -8.0590 -20.7643 -0.6321 31.1607 3.2295 -9.3141
# 5 -49.2722 -12.4814 -58.1702 3.2295 63.7295 -9.3083
# 6 11.2798 27.1097 4.5262 -9.3141 -9.3083 37.3771
#
#
#
# Elastic Compliance Matrix: (Units=1/GPa)
#
#
# Indices 1 2 3 4 5 6 
#
# 1 0.025469 -0.002136 0.000393 0.002979 0.019391 -0.000613
# 2 -0.002136 0.012466 -0.001739 0.005764 -0.002154 -0.007286
# 3 0.000393 -0.001739 0.009486 -0.001219 0.008964 0.001923
# 4 0.002979 0.005764 -0.001219 0.038003 0.001096 0.004811
# 5 0.019391 -0.002154 0.008964 0.001096 0.039064 0.004626
# 6 -0.000613 -0.007286 0.001923 0.004811 0.004626 0.034342
#
#
# Mechanical properties :
#
#
# Convention : Reuss Voigt Hill
#
# Bulk Modulus (GPa) = 24.71820 58.67250 41.69535
# Shear Modulus (GPa) = 27.88954 43.98222 35.93588
#
# Velocity S-wave (km/s) = 3.23094 4.05739 3.66752
# Velocity P-wave (km/s) = 4.81359 6.62653 5.79144
#
# Compressibility (1/GPa) = 0.04045602
#
# Stress axis : x y z
#
# Youngs Moduli (GPa) = 39.26412 80.21892 105.42166
#
# Poissons Ratio (x) = 0.17132 -0.04145
# Poissons Ratio (y) = 0.08386 0.18338
# Poissons Ratio (z) = -0.01544 0.13954
#
# Static dielectric constant tensor:
#      x y z
#    x 2.209650 -0.063150 -0.095760 
#    y -0.063150 2.122980 0.015240 
#    z -0.095760 0.015240 2.196980 
# 
# From -- ./inp_files/511417.got.cif
#   From: 2010.05.17/outbox.cif.g08.bks.cpg/sg2_256_cif.got.tgz:511417.got - 2010.06.03 11:33:40.
