data_PCOD9071175
_publ_section_title
;
Structure prediction by ZEFSAII (Michael W. Deem and Ramdas Pophale) SiO2 
 PCOD9071175
Probable space group: P -1
;
_chemical_formula_sum "Si O2"
_cell_formula_units_Z 12
_cell_length_a 14.773589
_cell_length_b 5.632174
_cell_length_c 9.225678
_cell_angle_alpha 57.699000
_cell_angle_beta 56.963445
_cell_angle_gamma 53.586964
_cell_volume 491.972151
_symmetry_space_group_name_H-M "P -1"
_symmetry_group_IT_number 2
_symmetry_cell_setting 'triclinic'
loop_
_space_group_symop_operation_xyz
x,y,z
-x,-y,-z
loop_
_atom_site_type_symbol
_atom_site_label
_atom_site_fract_x
_atom_site_fract_y
_atom_site_fract_z
Si Si1 0.497124 0.343644 0.400600
Si Si2 0.940262 0.775069 0.346990
Si Si3 0.131787 0.303871 0.885486
Si Si4 0.570231 0.634395 0.006338
Si Si5 0.183788 0.758918 0.197170
Si Si6 0.231119 0.707640 0.498196
O O1 0.500000 0.500000 0.500000
O O2 0.590375 0.407196 0.200483
O O3 0.367081 0.567630 0.381559
O O4 0.500000 0.000000 0.500000
O O5 0.894878 0.786902 0.221085
O O6 0.000000 0.500000 0.500000
O O7 0.055919 0.846183 0.206656
O O8 0.821164 0.975126 0.474873
O O9 0.204876 0.496319 0.708137
O O10 0.000000 0.500000 0.000000
O O11 0.205419 0.050766 0.024348
O O12 0.500000 0.500000 0.000000
O O13 0.701371 0.547098 0.853302
O O14 0.500000 0.000000 0.000000
O O15 0.164267 0.753548 0.388209
#
# Coordination Sequence:
#
# PCOD9071175 Si02
#       6
#     2   2   2   2   2   2
#     4  12  29  51  81 113 156 205 264 322 388 461
#     4  12  26  44  76 110 148 198 246 313 388 455
#     4  12  26  46  73 112 150 194 256 305 386 462
#     4  12  28  51  78 114 151 206 263 318 387 462
#     4  12  26  49  75 108 152 198 252 319 382 462
#     4  12  27  49  76 107 153 198 249 320 385 459
#
# _framework density 24.391625999999999
#
# number of rings (size 3 to 8) (size 9 to 14) (size 15 to 20)
#    0.000    0.000    5.000    4.000    7.000    1.333 
#    0.000    0.000    0.000    0.000    0.000    0.000 
#    0.000    0.000    0.000    0.000    0.000    0.000 
#
# Total GULP energy -66918.511024 kJ/mol
# GULP energy per Si atom -5576.542585 kJ/mol
# Density = 2.433611 g / cm^3
# Si number density = 24.391626 Si / 1000 Ang^3
#
#
#
# Elastic Constant Matrix: (Units=GPa)
#
#
# Indices 1 2 3 4 5 6 
#
# 1 57.0109 8.6682 -13.2747 3.8525 7.3646 11.9494
# 2 8.6682 139.6227 41.2314 15.0863 5.5594 4.3859
# 3 -13.2747 41.2314 126.1595 2.0623 -8.9452 17.1763
# 4 3.8525 15.0863 2.0623 57.6156 -0.3469 -3.6556
# 5 7.3646 5.5594 -8.9452 -0.3469 37.3822 8.1319
# 6 11.9494 4.3859 17.1763 -3.6556 8.1319 35.0975
#
#
#
# Elastic Compliance Matrix: (Units=1/GPa)
#
#
# Indices 1 2 3 4 5 6 
#
# 1 0.020834 -0.001988 0.003988 -0.001575 -0.000969 -0.008736
# 2 -0.001988 0.008498 -0.003302 -0.001891 -0.002006 0.001499
# 3 0.003988 -0.003302 0.010659 -0.000209 0.003790 -0.007061
# 4 -0.001575 -0.001891 -0.000209 0.018139 0.000114 0.002738
# 5 -0.000969 -0.002006 0.003790 0.000114 0.029931 -0.008197
# 6 -0.008736 0.001499 -0.007061 0.002738 -0.008197 0.036919
#
#
# Mechanical properties :
#
#
# Convention : Reuss Voigt Hill
#
# Bulk Modulus (GPa) = 26.74652 44.00476 35.37564
# Shear Modulus (GPa) = 35.70278 45.09694 40.39986
#
# Velocity S-wave (km/s) = 3.83002 4.30451 4.07418
# Velocity P-wave (km/s) = 5.52703 6.54104 6.05530
#
# Compressibility (1/GPa) = 0.03738804
#
# Stress axis : x y z
#
# Youngs Moduli (GPa) = 47.99805 117.67875 93.81950
#
# Poissons Ratio (x) = 0.23395 -0.37420
# Poissons Ratio (y) = 0.09542 0.30977
# Poissons Ratio (z) = -0.19144 0.38854
#
# Static dielectric constant tensor:
#      x y z
#    x -0.582840 -0.621730 1.089030 
#    y -0.621730 1.519530 0.162340 
#    z 1.089030 0.162340 1.565240 
# 
# From -- ./inp_files/22039.got.cif
#   From: 2010.05.17/outbox.cif.g08.bks.cpg/sg2_12_cif.got.tgz:22039.got - 2010.06.03 11:33:40.
