data_PCOD9071718
_publ_section_title
;
Structure prediction by ZEFSAII (Michael W. Deem and Ramdas Pophale) SiO2 
 PCOD9071718
Probable space group: P -1
;
_chemical_formula_sum "Si O2"
_cell_formula_units_Z 12
_cell_length_a 14.883807
_cell_length_b 29.383572
_cell_length_c 23.413144
_cell_angle_alpha 9.355816
_cell_angle_beta 17.324056
_cell_angle_gamma 14.337763
_cell_volume 411.988932
_symmetry_space_group_name_H-M "P -1"
_symmetry_group_IT_number 2
_symmetry_cell_setting 'triclinic'
loop_
_space_group_symop_operation_xyz
x,y,z
-x,-y,-z
loop_
_atom_site_type_symbol
_atom_site_label
_atom_site_fract_x
_atom_site_fract_y
_atom_site_fract_z
Si Si1 0.515939 0.320270 0.280126
Si Si2 0.818934 0.053358 0.230628
Si Si3 0.664237 0.153418 0.077509
Si Si4 0.505200 0.471971 0.666560
Si Si5 0.259718 0.298725 0.859759
Si Si6 0.673964 0.952852 0.752639
O O1 0.491831 0.083050 0.542667
O O2 0.465008 0.176247 0.548223
O O3 0.204346 0.714757 0.990488
O O4 0.898489 0.290513 0.080165
O O5 0.685460 0.262723 0.992791
O O6 0.500000 0.000000 0.500000
O O7 0.132430 0.669177 0.501925
O O8 0.465235 0.463605 0.769502
O O9 0.090776 0.870019 0.159477
O O10 0.545720 0.718760 0.295739
O O11 0.220425 0.409894 0.886474
O O12 0.470604 0.037485 0.107819
O O13 0.000000 0.000000 0.500000
#
# Coordination Sequence:
#
# PCOD9071718 Si02
#       6
#     2   2   2   2   2   2
#     4   9  18  33  55  76  99 135 168 203 248 295
#     4   9  18  31  52  78 100 130 169 208 245 290
#     4   9  18  33  51  76 105 130 166 207 249 297
#     4   9  17  30  50  73 102 135 163 206 253 292
#     4   9  17  30  52  78 102 132 167 204 250 297
#     4   9  17  31  52  74  99 135 171 201 248 303
#
# _framework density 29.126995999999998
#
# number of rings (size 3 to 8) (size 9 to 14) (size 15 to 20)
#    0.000    3.000    0.000    0.500    0.000    6.000 
#    0.000   20.833    0.000   59.000    0.000    0.000 
#    0.000    0.000    0.000    0.000    0.000    0.000 
#
# Total GULP energy -66975.610346 kJ/mol
# GULP energy per Si atom -5581.300862 kJ/mol
# Density = 2.906070 g / cm^3
# Si number density = 29.126996 Si / 1000 Ang^3
#
#
#
# Elastic Constant Matrix: (Units=GPa)
#
#
# Indices 1 2 3 4 5 6 
#
# 1 174.6612 22.8973 79.6476 5.4373 42.7954 8.6037
# 2 22.8973 67.3741 60.0651 2.6771 -15.0372 -9.0454
# 3 79.6476 60.0651 189.5885 22.0775 -4.6687 16.4279
# 4 5.4373 2.6771 22.0775 50.0356 15.2087 -8.5188
# 5 42.7954 -15.0372 -4.6687 15.2087 83.1775 5.3342
# 6 8.6037 -9.0454 16.4279 -8.5188 5.3342 33.3032
#
#
#
# Elastic Compliance Matrix: (Units=1/GPa)
#
#
# Indices 1 2 3 4 5 6 
#
# 1 0.008865 -0.000511 -0.004118 0.002742 -0.005462 0.001179
# 2 -0.000511 0.025401 -0.009287 0.004012 0.002819 0.012187
# 3 -0.004118 -0.009287 0.011603 -0.006651 0.002907 -0.009349
# 4 0.002742 0.004012 -0.006651 0.026371 -0.006616 0.011467
# 5 -0.005462 0.002819 0.002907 -0.006616 0.016950 -0.003665
# 6 0.001179 0.012187 -0.009349 0.011467 -0.003665 0.041165
#
#
# Mechanical properties :
#
#
# Convention : Reuss Voigt Hill
#
# Bulk Modulus (GPa) = 55.44060 84.09378 69.76719
# Shear Modulus (GPa) = 30.45073 51.23750 40.84412
#
# Velocity S-wave (km/s) = 3.23685 4.19872 3.74876
# Velocity P-wave (km/s) = 5.74848 7.24153 6.53777
#
# Compressibility (1/GPa) = 0.01803732
#
# Stress axis : x y z
#
# Youngs Moduli (GPa) = 112.80081 39.36810 86.18404
#
# Poissons Ratio (x) = 0.02012 0.35494
# Poissons Ratio (y) = 0.05764 0.80037
# Poissons Ratio (z) = 0.46456 0.36560
#
# Static dielectric constant tensor:
#      x y z
#    x 3.673330 -1.186810 1.270190 
#    y -1.186810 3.354950 -1.130030 
#    z 1.270190 -1.130030 3.450540 
# 
# From -- ./inp_files/117711.got.cif
#   From: 2010.05.17/outbox.cif.g08.bks.cpg/sg2_59_cif.got.tgz:117711.got - 2010.06.03 11:33:40.
