data_PCOD9071745
_publ_section_title
;
Structure prediction by ZEFSAII (Michael W. Deem and Ramdas Pophale) SiO2 
 PCOD9071745
Probable space group: P -1
;
_chemical_formula_sum "Si O2"
_cell_formula_units_Z 12
_cell_length_a 10.540528
_cell_length_b 8.794795
_cell_length_c 11.139889
_cell_angle_alpha 142.984668
_cell_angle_beta 52.945109
_cell_angle_gamma 136.625547
_cell_volume 426.351007
_symmetry_space_group_name_H-M "P -1"
_symmetry_group_IT_number 2
_symmetry_cell_setting 'triclinic'
loop_
_space_group_symop_operation_xyz
x,y,z
-x,-y,-z
loop_
_atom_site_type_symbol
_atom_site_label
_atom_site_fract_x
_atom_site_fract_y
_atom_site_fract_z
Si Si1 0.692445 0.672244 0.185045
Si Si2 0.450253 0.736265 0.630863
Si Si3 0.014979 0.788802 0.230010
Si Si4 0.804493 0.299640 0.712347
Si Si5 0.144331 0.775049 0.721497
Si Si6 0.315078 0.101466 0.066345
O O1 0.476002 0.439761 0.178311
O O2 0.820598 0.745660 0.274994
O O3 0.757124 0.983053 0.283619
O O4 0.753684 0.499650 0.949709
O O5 0.500000 0.500000 0.500000
O O6 0.266611 0.630317 0.591782
O O7 0.611927 0.996610 0.623389
O O8 0.414102 0.904920 0.868836
O O9 0.062048 0.775541 0.332247
O O10 0.192118 0.033852 0.211391
O O11 0.000000 0.500000 0.000000
O O12 0.932016 0.517244 0.672245
O O13 0.176068 0.972597 0.949727
#
# Coordination Sequence:
#
# PCOD9071745 Si02
#       6
#     2   2   2   2   2   2
#     4  10  18  29  49  74 110 122 154 201 248 302
#     4   9  20  34  48  70  99 132 171 203 232 280
#     4  10  18  31  46  78 105 128 153 193 256 306
#     4  10  20  31  52  76 103 127 157 200 251 297
#     4  10  19  31  49  77 100 128 162 200 247 288
#     4   9  19  29  51  75 101 129 161 194 249 288
#
# _framework density 28.145823
#
# number of rings (size 3 to 8) (size 9 to 14) (size 15 to 20)
#    1.000    1.333    3.333    1.000    0.000    8.000 
#    0.000    0.000    0.000    1.000    0.000   17.500 
#    0.000    5.333    0.000    0.000    0.000    0.000 
#
# Total GULP energy -67236.546200 kJ/mol
# GULP energy per Si atom -5603.045517 kJ/mol
# Density = 2.808176 g / cm^3
# Si number density = 28.145823 Si / 1000 Ang^3
#
#
#
# Elastic Constant Matrix: (Units=GPa)
#
#
# Indices 1 2 3 4 5 6 
#
# 1 49.7043 30.4713 29.7800 17.8622 6.3647 20.3036
# 2 30.4713 229.7668 50.3015 44.1331 15.3250 40.8539
# 3 29.7800 50.3015 145.9221 27.3837 12.3499 10.4008
# 4 17.8622 44.1331 27.3837 52.4389 3.4674 7.9213
# 5 6.3647 15.3250 12.3499 3.4674 37.6115 8.9315
# 6 20.3036 40.8539 10.4008 7.9213 8.9315 49.5942
#
#
#
# Elastic Compliance Matrix: (Units=1/GPa)
#
#
# Indices 1 2 3 4 5 6 
#
# 1 0.028842 0.000049 -0.003967 -0.006255 -0.000672 -0.009896
# 2 0.000049 0.006104 -0.001012 -0.003958 -0.000836 -0.004054
# 3 -0.003967 -0.001012 0.008504 -0.002325 -0.001820 0.001373
# 4 -0.006255 -0.003958 -0.002325 0.025382 0.000584 0.002150
# 5 -0.000672 -0.000836 -0.001820 0.000584 0.028508 -0.003882
# 6 -0.009896 -0.004054 0.001373 0.002150 -0.003882 0.027622
#
#
# Mechanical properties :
#
#
# Convention : Reuss Voigt Hill
#
# Bulk Modulus (GPa) = 29.77005 71.83320 50.80163
# Shear Modulus (GPa) = 34.24241 48.91826 41.58034
#
# Velocity S-wave (km/s) = 3.49177 4.17349 3.84776
# Velocity P-wave (km/s) = 5.18234 6.98579 6.15053
#
# Compressibility (1/GPa) = 0.03359081
#
# Stress axis : x y z
#
# Youngs Moduli (GPa) = 34.67166 163.82899 117.59380
#
# Poissons Ratio (x) = -0.00809 0.46651
# Poissons Ratio (y) = -0.00171 0.11898
# Poissons Ratio (z) = 0.13755 0.16576
#
# Static dielectric constant tensor:
#      x y z
#    x 2.179790 -0.046820 0.030670 
#    y -0.046820 2.178380 -0.064180 
#    z 0.030670 -0.064180 2.243300 
# 
# From -- ./inp_files/266993.got.cif
#   From: 2010.05.17/outbox.cif.g08.bks.cpg/sg2_134_cif.got.tgz:266993.got - 2010.06.03 11:33:40.
