data_PCOD9071454
_publ_section_title
;
Structure prediction by ZEFSAII (Michael W. Deem and Ramdas Pophale) SiO2 
 PCOD9071454
Probable space group: P -1
;
_chemical_formula_sum "Si O2"
_cell_formula_units_Z 14
_cell_length_a 5.189403
_cell_length_b 14.926532
_cell_length_c 14.792466
_cell_angle_alpha 151.054491
_cell_angle_beta 100.804445
_cell_angle_gamma 88.036285
_cell_volume 524.032580
_symmetry_space_group_name_H-M "P -1"
_symmetry_group_IT_number 2
_symmetry_cell_setting 'triclinic'
loop_
_space_group_symop_operation_xyz
x,y,z
-x,-y,-z
loop_
_atom_site_type_symbol
_atom_site_label
_atom_site_fract_x
_atom_site_fract_y
_atom_site_fract_z
Si Si1 0.769075 0.352981 0.299565
Si Si2 0.028004 0.928429 0.067276
Si Si3 0.500000 0.000000 0.500000
Si Si4 0.941776 0.283119 0.931826
Si Si5 0.613012 0.722345 0.183779
Si Si6 0.855538 0.282999 0.624051
Si Si7 0.500000 0.000000 0.000000
Si Si8 0.705189 0.692499 0.479115
O O1 0.682183 0.482140 0.333398
O O2 0.000000 0.500000 0.500000
O O3 0.834841 0.160932 0.087046
O O4 0.559039 0.225403 0.242242
O O5 0.044204 0.793710 0.034883
O O6 0.728932 0.943479 0.037246
O O7 0.202461 0.137757 0.292555
O O8 0.682341 0.840327 0.382898
O O9 0.261874 0.874149 0.446586
O O10 0.991901 0.512247 0.138654
O O11 0.179596 0.244045 0.853375
O O12 0.649235 0.192084 0.782478
O O13 0.500000 0.500000 0.000000
O O14 0.585813 0.314105 0.586182
O O15 0.050404 0.257162 0.533030
#
# Coordination Sequence:
#
# PCOD9071454 Si02
#       8
#     2   2   1   2   2   2   1   2
#     4  12  28  50  77 115 155 210 259 335 394 480
#     4  12  28  48  79 111 157 203 268 325 397 475
#     4  12  28  46  78 110 156 200 260 320 394 466
#     4  12  26  50  78 110 155 206 258 323 392 463
#     4  12  27  48  76 111 153 199 256 322 384 468
#     4  12  27  49  78 112 154 209 261 325 397 472
#     4  12  28  48  80 114 154 208 262 334 400 474
#     4  12  28  51  79 113 157 209 264 326 400 474
#
# _framework density 26.715899
#
# number of rings (size 3 to 8) (size 9 to 14) (size 15 to 20)
#    0.000    0.000    4.286    4.286    4.000    1.714 
#    0.000    0.000    0.000    0.000    0.000    0.000 
#    0.000    0.000    0.000    0.000    0.000    0.000 
#
# Total GULP energy -78132.140479 kJ/mol
# GULP energy per Si atom -5580.867177 kJ/mol
# Density = 2.665509 g / cm^3
# Si number density = 26.715899 Si / 1000 Ang^3
#
#
#
# Elastic Constant Matrix: (Units=GPa)
#
#
# Indices 1 2 3 4 5 6 
#
# 1 175.6123 87.2735 42.6634 -24.4425 0.0352 14.7425
# 2 87.2735 159.2402 52.9051 23.0869 -2.4406 -6.1289
# 3 42.6634 52.9051 186.1175 30.6287 -2.4716 17.9556
# 4 -24.4425 23.0869 30.6287 54.2811 7.3657 4.0787
# 5 0.0352 -2.4406 -2.4716 7.3657 59.0481 -23.7355
# 6 14.7425 -6.1289 17.9556 4.0787 -23.7355 58.0483
#
#
#
# Elastic Compliance Matrix: (Units=1/GPa)
#
#
# Indices 1 2 3 4 5 6 
#
# 1 0.011976 -0.007801 -0.001791 0.010698 -0.004035 -0.005713
# 2 -0.007801 0.012436 -0.000710 -0.009379 0.003993 0.005806
# 3 -0.001791 -0.000710 0.006822 -0.004290 0.000261 -0.001322
# 4 0.010698 -0.009379 -0.004290 0.031250 -0.007553 -0.007664
# 5 -0.004035 0.003993 0.000261 -0.007553 0.022519 0.011104
# 6 -0.005713 0.005806 -0.001322 -0.007664 0.011104 0.024779
#
#
# Mechanical properties :
#
#
# Convention : Reuss Voigt Hill
#
# Bulk Modulus (GPa) = 94.07588 98.51711 96.29649
# Shear Modulus (GPa) = 37.33287 56.81738 47.07512
#
# Velocity S-wave (km/s) = 3.74224 4.61665 4.20225
# Velocity P-wave (km/s) = 7.34591 8.08541 7.72451
#
# Compressibility (1/GPa) = 0.01062972
#
# Stress axis : x y z
#
# Youngs Moduli (GPa) = 83.50208 80.41260 146.57858
#
# Poissons Ratio (x) = 0.62732 0.26246
# Poissons Ratio (y) = 0.65143 0.10410
# Poissons Ratio (z) = 0.14951 0.05711
#
# Static dielectric constant tensor:
#      x y z
#    x 1.892970 -0.197460 -0.548030 
#    y -0.197460 1.721450 0.633470 
#    z -0.548030 0.633470 -1.503800 
# 
# From -- ./inp_files/484657.got.cif
#   From: 2010.05.17/outbox.cif.g08.bks.cpg/sg2_243_cif.got.tgz:484657.got - 2010.06.03 11:33:40.
