data_PCOD9071619
_publ_section_title
;
Structure prediction by ZEFSAII (Michael W. Deem and Ramdas Pophale) SiO2 
 PCOD9071619
Probable space group: P -1
;
_chemical_formula_sum "Si O2"
_cell_formula_units_Z 11
_cell_length_a 9.912911
_cell_length_b 13.105810
_cell_length_c 9.076125
_cell_angle_alpha 74.236267
_cell_angle_beta 29.910993
_cell_angle_gamma 61.290316
_cell_volume 486.649672
_symmetry_space_group_name_H-M "P -1"
_symmetry_group_IT_number 2
_symmetry_cell_setting 'triclinic'
loop_
_space_group_symop_operation_xyz
x,y,z
-x,-y,-z
loop_
_atom_site_type_symbol
_atom_site_label
_atom_site_fract_x
_atom_site_fract_y
_atom_site_fract_z
Si Si1 0.000000 0.500000 0.000000
Si Si2 0.655454 0.687300 0.687665
Si Si3 0.698703 0.444991 0.036347
Si Si4 0.690216 0.032892 0.193802
Si Si5 0.847800 0.932579 0.758953
Si Si6 0.983178 0.340231 0.356112
O O1 0.190810 0.551648 0.903117
O O2 0.976392 0.591400 0.850015
O O3 0.400954 0.653636 0.882371
O O4 0.529669 0.824291 0.695045
O O5 0.742339 0.686777 0.776295
O O6 0.991408 0.589733 0.336580
O O7 0.363717 0.569422 0.284113
O O8 0.500000 0.000000 0.500000
O O9 0.810922 0.958102 0.957342
O O10 0.000000 0.000000 0.000000
O O11 0.001454 0.787465 0.643765
O O12 0.000000 0.000000 0.500000
O O13 0.500000 0.000000 0.000000
#
# Coordination Sequence:
#
# PCOD9071619 Si02
#       6
#     1   2   2   2   2   2
#     4  12  30  50  76 124 158 210 262 338 402 472
#     4  12  28  49  82 112 162 210 264 326 403 489
#     4  12  28  50  77 117 154 210 257 331 401 470
#     4  12  28  51  79 119 160 213 270 334 403 475
#     4  12  29  52  81 116 159 217 273 329 398 484
#     4  12  29  51  83 115 168 206 277 323 412 476
#
# _framework density 22.603529999999999
#
# number of rings (size 3 to 8) (size 9 to 14) (size 15 to 20)
#    0.000    0.000    3.636    3.818   12.727    0.000 
#    0.000    0.000    0.000    0.000    0.000    0.000 
#    0.000    0.000    0.000    0.000    0.000    0.000 
#
# Total GULP energy -61283.827319 kJ/mol
# GULP energy per Si atom -5571.257029 kJ/mol
# Density = 2.255208 g / cm^3
# Si number density = 22.603530 Si / 1000 Ang^3
#
#
#
# Elastic Constant Matrix: (Units=GPa)
#
#
# Indices 1 2 3 4 5 6 
#
# 1 241.8881 58.9898 45.1943 -26.4339 -9.3346 1.3527
# 2 58.9898 182.3613 44.3485 -16.3072 19.0540 -5.0255
# 3 45.1943 44.3485 106.2222 -32.2243 -9.5339 -3.5272
# 4 -26.4339 -16.3072 -32.2243 46.4507 5.5011 -0.5960
# 5 -9.3346 19.0540 -9.5339 5.5011 35.4050 -2.6372
# 6 1.3527 -5.0255 -3.5272 -0.5960 -2.6372 48.7688
#
#
#
# Elastic Compliance Matrix: (Units=1/GPa)
#
#
# Indices 1 2 3 4 5 6 
#
# 1 0.004864 -0.001387 -0.000918 0.001459 0.001537 -0.000243
# 2 -0.001387 0.007159 -0.002701 0.000445 -0.004992 0.000316
# 3 -0.000918 -0.002701 0.013587 0.007521 0.003778 0.001026
# 4 0.001459 0.000445 0.007521 0.027994 -0.002121 0.000777
# 5 0.001537 -0.004992 0.003778 -0.002121 0.032792 0.001464
# 6 -0.000243 0.000316 0.001026 0.000777 0.001464 0.020707
#
#
# Mechanical properties :
#
#
# Convention : Reuss Voigt Hill
#
# Bulk Modulus (GPa) = 64.10967 91.94853 78.02910
# Shear Modulus (GPa) = 40.87782 51.58752 46.23267
#
# Velocity S-wave (km/s) = 4.25723 4.78250 4.52749
# Velocity P-wave (km/s) = 7.25186 8.44178 7.86934
#
# Compressibility (1/GPa) = 0.01559827
#
# Stress axis : x y z
#
# Youngs Moduli (GPa) = 205.59155 139.67812 73.59733
#
# Poissons Ratio (x) = 0.19373 0.06755
# Poissons Ratio (y) = 0.28515 0.19881
# Poissons Ratio (z) = 0.18871 0.37732
#
# Static dielectric constant tensor:
#      x y z
#    x 1.749310 0.048810 0.037490 
#    y 0.048810 1.845320 -0.015960 
#    z 0.037490 -0.015960 1.819820 
# 
# From -- ./inp_files/177113.got.cif
#   From: 2010.05.17/outbox.cif.g08.bks.cpg/sg2_89_cif.got.tgz:177113.got - 2010.06.03 11:33:40.
