data_PCOD9071250
_publ_section_title
;
Structure prediction by ZEFSAII (Michael W. Deem and Ramdas Pophale) SiO2 
 PCOD9071250
Probable space group: P -1
;
_chemical_formula_sum "Si O2"
_cell_formula_units_Z 11
_cell_length_a 8.747443
_cell_length_b 9.549893
_cell_length_c 8.310064
_cell_angle_alpha 129.076449
_cell_angle_beta 79.318291
_cell_angle_gamma 70.518229
_cell_volume 427.445620
_symmetry_space_group_name_H-M "P -1"
_symmetry_group_IT_number 2
_symmetry_cell_setting 'triclinic'
loop_
_space_group_symop_operation_xyz
x,y,z
-x,-y,-z
loop_
_atom_site_type_symbol
_atom_site_label
_atom_site_fract_x
_atom_site_fract_y
_atom_site_fract_z
Si Si1 0.567832 0.470312 0.648997
Si Si2 0.000000 0.000000 0.500000
Si Si3 0.445365 0.929714 0.617054
Si Si4 0.003418 0.311977 0.962062
Si Si5 0.692230 0.037366 0.811409
Si Si6 0.958811 0.322730 0.335202
O O1 0.500000 0.500000 0.500000
O O2 0.534804 0.293200 0.591143
O O3 0.796791 0.352311 0.506845
O O4 0.462181 0.702032 0.930957
O O5 0.825252 0.985010 0.592521
O O6 0.929966 0.203655 0.785461
O O7 0.500000 0.000000 0.500000
O O8 0.223187 0.122933 0.834248
O O9 0.580176 0.924052 0.724831
O O10 0.895725 0.371900 0.197650
O O11 0.000000 0.500000 0.000000
O O12 0.846143 0.919506 0.841066
O O13 0.000000 0.500000 0.500000
#
# Coordination Sequence:
#
# PCOD9071250 Si02
#       6
#     2   1   2   2   2   2
#     4  12  28  50  82 119 161 213 266 332 404 477
#     4  12  26  46  78 114 154 210 262 324 400 470
#     4  12  28  51  77 119 162 208 271 331 405 481
#     4  12  28  51  80 115 164 208 266 339 403 483
#     4  12  28  52  81 116 164 210 273 336 406 475
#     4  12  27  52  85 123 161 215 275 335 407 487
#
# _framework density 25.734269000000001
#
# number of rings (size 3 to 8) (size 9 to 14) (size 15 to 20)
#    0.000    0.000    1.818    6.545    5.091    6.545 
#    0.000    3.636    0.000    0.000    0.000    0.000 
#    0.000    0.000    0.000    0.000    0.000    0.000 
#
# Total GULP energy -61502.820569 kJ/mol
# GULP energy per Si atom -5591.165506 kJ/mol
# Density = 2.567570 g / cm^3
# Si number density = 25.734269 Si / 1000 Ang^3
#
#
#
# Elastic Constant Matrix: (Units=GPa)
#
#
# Indices 1 2 3 4 5 6 
#
# 1 128.4972 27.1606 36.0200 23.5283 2.7682 22.6150
# 2 27.1606 110.3260 40.7913 11.0482 11.1511 16.6232
# 3 36.0200 40.7913 140.4730 11.5816 12.5199 11.7985
# 4 23.5283 11.0482 11.5816 46.1453 -0.1604 2.9173
# 5 2.7682 11.1511 12.5199 -0.1604 57.6328 11.1060
# 6 22.6150 16.6232 11.7985 2.9173 11.1060 50.6300
#
#
#
# Elastic Compliance Matrix: (Units=1/GPa)
#
#
# Indices 1 2 3 4 5 6 
#
# 1 0.009825 -0.000915 -0.001675 -0.004138 0.000756 -0.003625
# 2 -0.000915 0.010797 -0.002505 -0.001352 -0.001073 -0.002239
# 3 -0.001675 -0.002505 0.008450 -0.000666 -0.001256 -0.000084
# 4 -0.004138 -0.001352 -0.000666 0.024213 0.000490 0.000945
# 5 0.000756 -0.001073 -0.001256 0.000490 0.018526 -0.003785
# 6 -0.003625 -0.002239 -0.000084 0.000945 -0.003785 0.022901
#
#
# Mechanical properties :
#
#
# Convention : Reuss Voigt Hill
#
# Bulk Modulus (GPa) = 52.96693 65.24889 59.10791
# Shear Modulus (GPa) = 44.96543 49.23657 47.10100
#
# Velocity S-wave (km/s) = 4.18460 4.37884 4.28282
# Velocity P-wave (km/s) = 6.63135 7.13972 6.89022
#
# Compressibility (1/GPa) = 0.01887970
#
# Stress axis : x y z
#
# Youngs Moduli (GPa) = 101.78450 92.61939 118.34556
#
# Poissons Ratio (x) = 0.08476 0.19826
# Poissons Ratio (y) = 0.09315 0.29651
# Poissons Ratio (z) = 0.17051 0.23205
#
# Static dielectric constant tensor:
#      x y z
#    x 1.496460 0.210830 0.566510 
#    y 0.210830 2.025180 -0.246970 
#    z 0.566510 -0.246970 1.298430 
# 
# From -- ./inp_files/153396.got.cif
#   From: 2010.05.17/outbox.cif.g08.bks.cpg/sg2_77_cif.got.tgz:153396.got - 2010.06.03 11:33:40.
