data_PCOD9071948
_publ_section_title
;
Structure prediction by ZEFSAII (Michael W. Deem and Ramdas Pophale) SiO2 
 PCOD9071948
Probable space group: P -1
;
_chemical_formula_sum "Si O2"
_cell_formula_units_Z 16
_cell_length_a 28.984572
_cell_length_b 11.916641
_cell_length_c 5.154916
_cell_angle_alpha 101.257656
_cell_angle_beta 113.611513
_cell_angle_gamma 27.273590
_cell_volume 690.608089
_symmetry_space_group_name_H-M "P -1"
_symmetry_group_IT_number 2
_symmetry_cell_setting 'triclinic'
loop_
_space_group_symop_operation_xyz
x,y,z
-x,-y,-z
loop_
_atom_site_type_symbol
_atom_site_label
_atom_site_fract_x
_atom_site_fract_y
_atom_site_fract_z
Si Si1 0.398480 0.197272 0.569109
Si Si2 0.929704 0.531014 0.282867
Si Si3 0.794992 0.846751 0.618114
Si Si4 0.682400 0.453730 0.115777
Si Si5 0.891790 0.377241 0.252370
Si Si6 0.756572 0.191418 0.673185
Si Si7 0.732683 0.746292 0.562672
Si Si8 0.160202 0.757680 0.978930
O O1 0.409282 0.270487 0.849165
O O2 0.372228 0.126637 0.592132
O O3 0.276519 0.480609 0.273267
O O4 0.500000 0.000000 0.500000
O O5 0.820293 0.772037 0.339822
O O6 0.978686 0.307395 0.388884
O O7 0.000000 0.500000 0.500000
O O8 0.899709 0.598838 0.941835
O O9 0.700577 0.944504 0.529980
O O10 0.778816 0.014130 0.695004
O O11 0.711263 0.303540 0.333302
O O12 0.666576 0.422534 0.793352
O O13 0.792921 0.310427 0.234532
O O14 0.822097 0.526452 0.434435
O O15 0.801695 0.594371 0.919168
O O16 0.924223 0.178179 0.182103
O O17 0.862974 0.065977 0.891612
#
# Coordination Sequence:
#
# PCOD9071948 Si02
#       8
#     2   2   2   2   2   2   2   2
#     4  10  18  30  49  74 101 123 151 201 252 283
#     4  10  20  32  50  77 100 121 149 192 248 287
#     4  10  19  32  54  70  96 128 157 195 227 280
#     4   9  17  30  46  69  93 120 163 201 223 274
#     4   9  16  30  49  66  95 123 153 195 231 273
#     4   9  17  30  49  70  88 124 167 196 219 267
#     4   9  17  30  44  72  92 120 162 191 230 277
#     4   8  17  30  48  69  94 120 163 194 228 274
#
# _framework density 23.167988999999999
#
# number of rings (size 3 to 8) (size 9 to 14) (size 15 to 20)
#    0.750    2.000    1.250    1.125    0.000    0.500 
#    0.000    0.000    0.000    5.250    0.000    0.000 
#    0.000    0.000    0.000    0.000    0.000    0.000 
#
# Total GULP energy -89093.368350 kJ/mol
# GULP energy per Si atom -5568.335522 kJ/mol
# Density = 2.311526 g / cm^3
# Si number density = 23.167989 Si / 1000 Ang^3
#
#
#
# Elastic Constant Matrix: (Units=GPa)
#
#
# Indices 1 2 3 4 5 6 
#
# 1 199.0423 49.2968 37.6445 5.7352 13.9311 29.6292
# 2 49.2968 66.3502 20.8268 27.7855 4.8626 10.5718
# 3 37.6445 20.8268 92.0780 18.1591 -11.9521 -3.0154
# 4 5.7352 27.7855 18.1591 36.5643 -6.3961 -6.4323
# 5 13.9311 4.8626 -11.9521 -6.3961 29.0065 13.7417
# 6 29.6292 10.5718 -3.0154 -6.4323 13.7417 30.5506
#
#
#
# Elastic Compliance Matrix: (Units=1/GPa)
#
#
# Indices 1 2 3 4 5 6 
#
# 1 0.007518 -0.005237 -0.002800 0.003203 -0.000983 -0.004639
# 2 -0.005237 0.031541 -0.000907 -0.025078 -0.004279 -0.009281
# 3 -0.002800 -0.000907 0.013903 -0.004615 0.005824 0.000810
# 4 0.003203 -0.025078 -0.004615 0.051561 0.005803 0.013362
# 5 -0.000983 -0.004279 0.005824 0.005803 0.047451 -0.017113
# 6 -0.004639 -0.009281 0.000810 0.013362 -0.017113 0.051034
#
#
# Mechanical properties :
#
#
# Convention : Reuss Voigt Hill
#
# Bulk Modulus (GPa) = 28.51103 63.66741 46.08922
# Shear Modulus (GPa) = 21.49742 35.87110 28.68426
#
# Velocity S-wave (km/s) = 3.04944 3.93912 3.52248
# Velocity P-wave (km/s) = 4.97310 6.94473 6.03991
#
# Compressibility (1/GPa) = 0.03507414
#
# Stress axis : x y z
#
# Youngs Moduli (GPa) = 133.02098 31.70475 71.92740
#
# Poissons Ratio (x) = 0.16603 0.20140
# Poissons Ratio (y) = 0.69659 0.06523
# Poissons Ratio (z) = 0.37247 0.02875
#
# Static dielectric constant tensor:
#      x y z
#    x 1.969140 0.011660 0.062900 
#    y 0.011660 1.950910 -0.031500 
#    z 0.062900 -0.031500 1.958000 
# 
# From -- ./inp_files/123260.got.cif
#   From: 2010.05.17/outbox.cif.g08.bks.cpg/sg2_62_cif.got.tgz:123260.got - 2010.06.03 11:33:40.
