data_PCOD9071639
_publ_section_title
;
Structure prediction by ZEFSAII (Michael W. Deem and Ramdas Pophale) SiO2 
 PCOD9071639
Probable space group: P -1
;
_chemical_formula_sum "Si O2"
_cell_formula_units_Z 10
_cell_length_a 7.978201
_cell_length_b 13.478196
_cell_length_c 6.912829
_cell_angle_alpha 69.412163
_cell_angle_beta 51.898837
_cell_angle_gamma 43.362156
_cell_volume 395.114856
_symmetry_space_group_name_H-M "P -1"
_symmetry_group_IT_number 2
_symmetry_cell_setting 'triclinic'
loop_
_space_group_symop_operation_xyz
x,y,z
-x,-y,-z
loop_
_atom_site_type_symbol
_atom_site_label
_atom_site_fract_x
_atom_site_fract_y
_atom_site_fract_z
Si Si1 0.124726 0.284873 0.374398
Si Si2 0.853130 0.315470 0.957012
Si Si3 0.661160 0.592822 0.006747
Si Si4 0.107170 0.864026 0.394547
Si Si5 0.722392 0.993987 0.213972
O O1 0.482118 0.156826 0.195917
O O2 0.997156 0.321285 0.658339
O O3 0.021299 0.208327 0.412912
O O4 0.078062 0.417108 0.229882
O O5 0.560486 0.358879 0.051142
O O6 0.775557 0.434982 0.077220
O O7 0.097842 0.145211 0.960254
O O8 0.452926 0.717687 0.231188
O O9 0.000000 0.000000 0.500000
O O10 0.966757 0.943254 0.230412
O O11 0.500000 0.000000 0.500000
#
# Coordination Sequence:
#
# PCOD9071639 Si02
#       5
#     2   2   2   2   2
#     4   9  16  28  47  66  83 107 141 177 209 244
#     4   8  15  26  41  67  89 103 134 179 214 242
#     4   9  16  26  44  66  85 109 139 174 212 244
#     4   9  18  29  41  62  90 114 139 170 205 250
#     4   7  14  28  45  63  83 108 137 174 212 241
#
# _framework density 25.309094000000002
#
# number of rings (size 3 to 8) (size 9 to 14) (size 15 to 20)
#    0.000    4.400    0.000    0.600    0.000    4.000 
#    0.000    0.000    0.000   10.800    0.000   61.600 
#    0.000    0.000    0.000    0.000    0.000    0.000 
#
# Total GULP energy -55720.746557 kJ/mol
# GULP energy per Si atom -5572.074656 kJ/mol
# Density = 2.525149 g / cm^3
# Si number density = 25.309094 Si / 1000 Ang^3
#
#
#
# Elastic Constant Matrix: (Units=GPa)
#
#
# Indices 1 2 3 4 5 6 
#
# 1 39.5256 22.6661 37.2405 3.0504 -2.0273 11.5989
# 2 22.6661 181.6542 32.4665 9.3278 0.6835 35.0920
# 3 37.2405 32.4665 84.3081 -9.0627 -30.7149 15.8229
# 4 3.0504 9.3278 -9.0627 42.7541 6.2900 -7.5759
# 5 -2.0273 0.6835 -30.7149 6.2900 26.8794 1.0883
# 6 11.5989 35.0920 15.8229 -7.5759 1.0883 42.0574
#
#
#
# Elastic Compliance Matrix: (Units=1/GPa)
#
#
# Indices 1 2 3 4 5 6 
#
# 1 0.071589 0.001249 -0.051384 -0.009058 -0.051157 -0.001762
# 2 0.001249 0.007264 -0.004067 -0.002910 -0.003842 -0.005300
# 3 -0.051384 -0.004067 0.061946 0.006930 0.065642 -0.006192
# 4 -0.009058 -0.002910 0.006930 0.027329 0.000622 0.007226
# 5 -0.051157 -0.003842 0.065642 0.000622 0.108714 -0.010083
# 6 -0.001762 -0.005300 -0.006192 0.007226 -0.010083 0.032577
#
#
# Mechanical properties :
#
#
# Convention : Reuss Voigt Hill
#
# Bulk Modulus (GPa) = 30.86807 54.47044 42.66926
# Shear Modulus (GPa) = 11.66537 36.54584 24.10561
#
# Velocity S-wave (km/s) = 2.14923 3.80410 3.08952
# Velocity P-wave (km/s) = 4.28740 6.39247 5.44268
#
# Compressibility (1/GPa) = 0.03239593
#
# Stress axis : x y z
#
# Youngs Moduli (GPa) = 13.96868 137.67179 16.14310
#
# Poissons Ratio (x) = -0.17195 0.82949
# Poissons Ratio (y) = -0.01745 0.06565
# Poissons Ratio (z) = 0.71776 0.55987
#
# Static dielectric constant tensor:
#      x y z
#    x 2.048930 -0.026000 0.021630 
#    y -0.026000 2.067330 -0.038660 
#    z 0.021630 -0.038660 2.043050 
# 
# From -- ./inp_files/39390.got.cif
#   From: 2010.05.17/outbox.cif.g08.bks.cpg/sg2_20_cif.got.tgz:39390.got - 2010.06.03 11:33:40.
