data_PCOD9071313
_publ_section_title
;
Structure prediction by ZEFSAII (Michael W. Deem and Ramdas Pophale) SiO2 
 PCOD9071313
Probable space group: P -1
;
_chemical_formula_sum "Si O2"
_cell_formula_units_Z 16
_cell_length_a 8.232625
_cell_length_b 9.635936
_cell_length_c 19.420207
_cell_angle_alpha 29.647542
_cell_angle_beta 95.364944
_cell_angle_gamma 99.189915
_cell_volume 749.045674
_symmetry_space_group_name_H-M "P -1"
_symmetry_group_IT_number 2
_symmetry_cell_setting 'triclinic'
loop_
_space_group_symop_operation_xyz
x,y,z
-x,-y,-z
loop_
_atom_site_type_symbol
_atom_site_label
_atom_site_fract_x
_atom_site_fract_y
_atom_site_fract_z
Si Si1 0.459084 0.302375 0.388435
Si Si2 0.098834 0.175575 0.365102
Si Si3 0.954445 0.229251 0.952197
Si Si4 0.404874 0.225507 0.578091
Si Si5 0.077236 0.217325 0.107076
Si Si6 0.030860 0.196621 0.605674
Si Si7 0.549441 0.835676 0.856943
Si Si8 0.587612 0.941952 0.100233
O O1 0.280374 0.302398 0.346237
O O2 0.458554 0.266234 0.485103
O O3 0.577190 0.599207 0.249143
O O4 0.500000 0.000000 0.500000
O O5 0.028995 0.456748 0.215042
O O6 0.000000 0.000000 0.500000
O O7 0.090063 0.968781 0.386468
O O8 0.076530 0.220731 0.023970
O O9 0.771500 0.121482 0.023161
O O10 0.000000 0.000000 0.000000
O O11 0.500000 0.500000 0.500000
O O12 0.210730 0.222762 0.569388
O O13 0.452880 0.966436 0.735614
O O14 0.257069 0.137501 0.165971
O O15 0.961687 0.982918 0.247156
O O16 0.000000 0.500000 0.000000
O O17 0.000000 0.500000 0.500000
O O18 0.502213 0.966409 0.872772
O O19 0.500000 0.500000 0.000000
O O20 0.500000 0.000000 0.000000
#
# Coordination Sequence:
#
# PCOD9071313 Si02
#       8
#     2   2   2   2   2   2   2   2
#     4  12  30  47  77 109 156 200 252 310 380 454
#     4  12  28  51  73 111 153 193 254 315 377 454
#     4  12  28  47  79 107 152 198 252 312 380 453
#     4  12  26  50  71 111 151 198 254 306 377 452
#     4  12  26  48  72 109 145 195 253 305 377 449
#     4  12  28  46  79 106 153 199 249 314 382 448
#     4  12  28  45  77 106 152 196 251 314 373 449
#     4  12  26  50  74 110 152 199 254 309 383 450
#
# _framework density 21.360512
#
# number of rings (size 3 to 8) (size 9 to 14) (size 15 to 20)
#    0.000    0.000    5.000    3.750    8.750    0.000 
#    0.000    0.000    0.000    0.000    0.000    0.000 
#    0.000    0.000    0.000    0.000    0.000    0.000 
#
# Total GULP energy -89334.831608 kJ/mol
# GULP energy per Si atom -5583.426975 kJ/mol
# Density = 2.131189 g / cm^3
# Si number density = 21.360512 Si / 1000 Ang^3
#
#
#
# Elastic Constant Matrix: (Units=GPa)
#
#
# Indices 1 2 3 4 5 6 
#
# 1 34.3415 -5.6618 -8.3394 -0.3873 -2.4942 -3.2213
# 2 -5.6618 140.5093 56.2433 1.4308 15.6374 -4.2177
# 3 -8.3394 56.2433 182.9453 -6.3836 -0.5042 -9.8366
# 4 -0.3873 1.4308 -6.3836 45.0874 5.0918 3.3086
# 5 -2.4942 15.6374 -0.5042 5.0918 34.4950 3.5166
# 6 -3.2213 -4.2177 -9.8366 3.3086 3.5166 33.4307
#
#
#
# Elastic Compliance Matrix: (Units=1/GPa)
#
#
# Indices 1 2 3 4 5 6 
#
# 1 0.029962 0.000579 0.001364 0.000018 0.001596 0.003192
# 2 0.000579 0.008653 -0.002609 -0.000252 -0.003966 0.000822
# 3 0.001364 -0.002609 0.006441 0.000771 0.001109 0.001505
# 4 0.000018 -0.000252 0.000771 0.022769 -0.003057 -0.001735
# 5 0.001596 -0.003966 0.001109 -0.003057 0.031681 -0.003050
# 6 0.003192 0.000822 0.001505 -0.001735 -0.003050 0.031259
#
#
# Mechanical properties :
#
#
# Convention : Reuss Voigt Hill
#
# Bulk Modulus (GPa) = 22.87043 49.14226 36.00634
# Shear Modulus (GPa) = 34.08952 43.63955 38.86454
#
# Velocity S-wave (km/s) = 3.99922 4.52486 4.27014
# Velocity P-wave (km/s) = 5.66173 7.09614 6.41913
#
# Compressibility (1/GPa) = 0.04372459
#
# Stress axis : x y z
#
# Youngs Moduli (GPa) = 33.37605 115.56160 155.24591
#
# Poissons Ratio (x) = -0.06693 -0.21181
# Poissons Ratio (y) = -0.01933 0.40511
# Poissons Ratio (z) = -0.04554 0.30155
#
# Static dielectric constant tensor:
#      x y z
#    x 1.582150 -0.007620 0.120180 
#    y -0.007620 1.606270 0.232730 
#    z 0.120180 0.232730 1.024390 
# 
# From -- ./inp_files/244802.got.cif
#   From: 2010.05.17/outbox.cif.g08.bks.cpg/sg2_123_cif.got.tgz:244802.got - 2010.06.03 11:33:40.
