data_PCOD9071928
_publ_section_title
;
Structure prediction by ZEFSAII (Michael W. Deem and Ramdas Pophale) SiO2 
 PCOD9071928
Probable space group: P -1
;
_chemical_formula_sum "Si O2"
_cell_formula_units_Z 14
_cell_length_a 13.581598
_cell_length_b 14.075081
_cell_length_c 5.080843
_cell_angle_alpha 53.250334
_cell_angle_beta 77.537912
_cell_angle_gamma 71.211511
_cell_volume 736.422524
_symmetry_space_group_name_H-M "P -1"
_symmetry_group_IT_number 2
_symmetry_cell_setting 'triclinic'
loop_
_space_group_symop_operation_xyz
x,y,z
-x,-y,-z
loop_
_atom_site_type_symbol
_atom_site_label
_atom_site_fract_x
_atom_site_fract_y
_atom_site_fract_z
Si Si1 0.387117 0.619514 0.067801
Si Si2 0.808149 0.165075 0.068667
Si Si3 0.987806 0.861791 0.254388
Si Si4 0.138289 0.077009 0.272007
Si Si5 0.668334 0.998827 0.415299
Si Si6 0.518715 0.643548 0.454281
Si Si7 0.468560 0.119269 0.642376
O O1 0.468736 0.651882 0.179553
O O2 0.389521 0.479671 0.371784
O O3 0.277836 0.717592 0.984768
O O4 0.431076 0.622270 0.744513
O O5 0.861023 0.067938 0.431551
O O6 0.742114 0.077928 0.105490
O O7 0.896084 0.206800 0.782965
O O8 0.937663 0.848170 0.584149
O O9 0.903523 0.862892 0.075317
O O10 0.000000 0.000000 0.000000
O O11 0.257613 0.069847 0.281245
O O12 0.628780 0.900406 0.433515
O O13 0.568447 0.096467 0.427173
O O14 0.546128 0.763300 0.359089
O O15 0.500000 0.000000 0.000000
#
# Coordination Sequence:
#
# PCOD9071928 Si02
#       7
#     2   2   2   2   2   2   2
#     4  10  20  35  52  77  96 144 165 218 252 304
#     4   9  17  31  51  73 106 127 169 205 261 308
#     4  10  18  30  48  74 102 129 161 212 261 311
#     4   9  20  31  47  73 106 129 161 211 260 311
#     4   9  21  31  47  75 103 138 167 202 261 298
#     4  10  21  35  53  70 108 132 181 204 255 297
#     4  11  21  33  50  76 104 144 173 212 242 316
#
# _framework density 19.010826999999999
#
# number of rings (size 3 to 8) (size 9 to 14) (size 15 to 20)
#    0.857    1.429    1.429    2.571    4.000    4.571 
#    0.000    0.000    0.000    0.000    0.000    2.000 
#    0.000    0.000    0.000    0.000    0.000    0.000 
#
# Total GULP energy -77949.926236 kJ/mol
# GULP energy per Si atom -5567.851874 kJ/mol
# Density = 1.896756 g / cm^3
# Si number density = 19.010827 Si / 1000 Ang^3
#
#
#
# Elastic Constant Matrix: (Units=GPa)
#
#
# Indices 1 2 3 4 5 6 
#
# 1 85.9212 29.6007 3.9970 -2.9778 6.5203 1.8421
# 2 29.6007 88.9094 13.0907 -13.0509 0.6439 -0.8184
# 3 3.9970 13.0907 37.5828 -1.8479 1.3130 -1.3404
# 4 -2.9778 -13.0509 -1.8479 30.3473 5.2456 1.8149
# 5 6.5203 0.6439 1.3130 5.2456 9.9425 0.5710
# 6 1.8421 -0.8184 -1.3404 1.8149 0.5710 42.4718
#
#
#
# Elastic Compliance Matrix: (Units=1/GPa)
#
#
# Indices 1 2 3 4 5 6 
#
# 1 0.013930 -0.004472 0.000442 0.001144 -0.009473 -0.000598
# 2 -0.004472 0.014152 -0.004172 0.005440 -0.000309 0.000107
# 3 0.000442 -0.004172 0.028218 0.000632 -0.004127 0.000819
# 4 0.001144 0.005440 0.000632 0.039296 -0.021843 -0.001310
# 5 -0.009473 -0.000309 -0.004127 -0.021843 0.118902 -0.000391
# 6 -0.000598 0.000107 0.000819 -0.001310 -0.000391 0.023660
#
#
# Mechanical properties :
#
#
# Convention : Reuss Voigt Hill
#
# Bulk Modulus (GPa) = 25.06421 33.97670 29.52046
# Shear Modulus (GPa) = 18.66635 27.60064 23.13349
#
# Velocity S-wave (km/s) = 3.13690 3.81443 3.49213
# Velocity P-wave (km/s) = 5.13156 6.10827 5.64109
#
# Compressibility (1/GPa) = 0.03989752
#
# Stress axis : x y z
#
# Youngs Moduli (GPa) = 71.78783 70.66007 35.43781
#
# Poissons Ratio (x) = 0.31598 -0.01566
# Poissons Ratio (y) = 0.32102 0.14784
# Poissons Ratio (z) = -0.03173 0.29478
#
# Static dielectric constant tensor:
#      x y z
#    x 1.757340 -0.006340 0.002000 
#    y -0.006340 1.721550 0.046040 
#    z 0.002000 0.046040 1.729540 
# 
# From -- ./inp_files/95714.got.cif
#   From: 2010.05.17/outbox.cif.g08.bks.cpg/sg2_48_cif.got.tgz:95714.got - 2010.06.03 11:33:40.
