data_PCOD9071934
_publ_section_title
;
Structure prediction by ZEFSAII (Michael W. Deem and Ramdas Pophale) SiO2 
 PCOD9071934
Probable space group: P -1
;
_chemical_formula_sum "Si O2"
_cell_formula_units_Z 16
_cell_length_a 7.522909
_cell_length_b 9.945147
_cell_length_c 8.183695
_cell_angle_alpha 103.441688
_cell_angle_beta 78.491325
_cell_angle_gamma 85.584331
_cell_volume 578.620298
_symmetry_space_group_name_H-M "P -1"
_symmetry_group_IT_number 2
_symmetry_cell_setting 'triclinic'
loop_
_space_group_symop_operation_xyz
x,y,z
-x,-y,-z
loop_
_atom_site_type_symbol
_atom_site_label
_atom_site_fract_x
_atom_site_fract_y
_atom_site_fract_z
Si Si1 0.219926 0.330207 0.077364
Si Si2 0.714627 0.098225 0.860784
Si Si3 0.584369 0.354872 0.816933
Si Si4 0.718735 0.940696 0.142492
Si Si5 0.610676 0.440679 0.306160
Si Si6 0.794387 0.826043 0.608407
Si Si7 0.615819 0.181726 0.429730
Si Si8 0.967084 0.568035 0.344638
O O1 0.232051 0.253759 0.233454
O O2 0.114748 0.483842 0.174789
O O3 0.391224 0.345886 0.935398
O O4 0.151323 0.204652 0.945556
O O5 0.722473 0.263147 0.888779
O O6 0.497903 0.078850 0.857121
O O7 0.824269 0.982791 0.690445
O O8 0.759652 0.039859 0.014823
O O9 0.534897 0.509772 0.793085
O O10 0.630119 0.257951 0.620067
O O11 0.719802 0.028800 0.332594
O O12 0.500000 0.500000 0.500000
O O13 0.669092 0.282744 0.302978
O O14 0.781926 0.524329 0.293128
O O15 0.598677 0.826401 0.558578
O O16 0.940160 0.730469 0.443118
O O17 0.000000 0.500000 0.500000
#
# Coordination Sequence:
#
# PCOD9071934 Si02
#       8
#     2   2   2   2   2   2   2   2
#     4   9  19  31  51  78 105 129 175 209 253 298
#     4   8  15  27  48  74 107 122 168 216 254 282
#     4  10  18  30  48  79 106 130 162 225 256 287
#     4   8  15  30  47  73 101 139 163 208 248 310
#     4  10  20  35  50  76 106 134 169 213 252 302
#     4   9  16  32  51  76 100 137 168 206 249 308
#     4  10  18  31  53  69 106 135 170 203 261 299
#     4  10  19  35  56  73  99 145 173 199 250 316
#
# _framework density 27.651983999999999
#
# number of rings (size 3 to 8) (size 9 to 14) (size 15 to 20)
#    0.000    2.750    2.500    2.250    0.000    5.000 
#    0.000    3.125    0.000    0.000    0.000   10.500 
#    0.000    0.000    0.000    0.000    0.000    0.000 
#
# Total GULP energy -89257.928235 kJ/mol
# GULP energy per Si atom -5578.620515 kJ/mol
# Density = 2.758905 g / cm^3
# Si number density = 27.651984 Si / 1000 Ang^3
#
#
#
# Elastic Constant Matrix: (Units=GPa)
#
#
# Indices 1 2 3 4 5 6 
#
# 1 78.3951 -4.8362 22.2517 -1.8443 -11.6045 -15.6482
# 2 -4.8362 143.1345 70.0531 10.5894 -13.3094 -3.9186
# 3 22.2517 70.0531 123.9325 27.4514 -9.6070 -7.2693
# 4 -1.8443 10.5894 27.4514 60.4255 -10.5778 -7.3211
# 5 -11.6045 -13.3094 -9.6070 -10.5778 28.8597 5.7955
# 6 -15.6482 -3.9186 -7.2693 -7.3211 5.7955 18.4084
#
#
#
# Elastic Compliance Matrix: (Units=1/GPa)
#
#
# Indices 1 2 3 4 5 6 
#
# 1 0.018436 0.003807 -0.005261 0.005157 0.006408 0.014438
# 2 0.003807 0.010763 -0.006806 0.002419 0.004646 0.002339
# 3 -0.005261 -0.006806 0.013869 -0.005937 -0.002402 -0.002049
# 4 0.005157 0.002419 -0.005937 0.021312 0.007268 0.008741
# 5 0.006408 0.004646 -0.002402 0.007268 0.042221 -0.004914
# 6 0.014438 0.002339 -0.002049 0.008741 -0.004914 0.071308
#
#
# Mechanical properties :
#
#
# Convention : Reuss Voigt Hill
#
# Bulk Modulus (GPa) = 37.66546 57.82213 47.74380
# Shear Modulus (GPa) = 24.59695 38.73829 31.66762
#
# Velocity S-wave (km/s) = 2.98572 3.74695 3.38778
# Velocity P-wave (km/s) = 5.05340 6.29886 5.71018
#
# Compressibility (1/GPa) = 0.02654952
#
# Stress axis : x y z
#
# Youngs Moduli (GPa) = 54.24237 92.91013 72.10196
#
# Poissons Ratio (x) = -0.35373 0.37931
# Poissons Ratio (y) = -0.20652 0.49071
# Poissons Ratio (z) = 0.28535 0.63233
#
# Static dielectric constant tensor:
#      x y z
#    x 3.151180 0.522800 -0.142680 
#    y 0.522800 2.554460 -0.097000 
#    z -0.142680 -0.097000 2.178190 
# 
# From -- ./inp_files/248735.got.cif
#   From: 2010.05.17/outbox.cif.g08.bks.cpg/sg2_125_cif.got.tgz:248735.got - 2010.06.03 11:33:40.
