data_PCOD9071516
_publ_section_title
;
Structure prediction by ZEFSAII (Michael W. Deem and Ramdas Pophale) SiO2 
 PCOD9071516
Probable space group: P -1
;
_chemical_formula_sum "Si O2"
_cell_formula_units_Z 12
_cell_length_a 10.374986
_cell_length_b 8.072056
_cell_length_c 11.546699
_cell_angle_alpha 122.968866
_cell_angle_beta 140.865676
_cell_angle_gamma 76.711148
_cell_volume 477.096165
_symmetry_space_group_name_H-M "P -1"
_symmetry_group_IT_number 2
_symmetry_cell_setting 'triclinic'
loop_
_space_group_symop_operation_xyz
x,y,z
-x,-y,-z
loop_
_atom_site_type_symbol
_atom_site_label
_atom_site_fract_x
_atom_site_fract_y
_atom_site_fract_z
Si Si1 0.410262 0.999783 0.774208
Si Si2 0.164683 0.109603 0.947683
Si Si3 0.302367 0.316250 0.357471
Si Si4 0.342284 0.408450 0.986352
Si Si5 0.676741 0.844952 0.458895
Si Si6 0.046445 0.557060 0.419125
O O1 0.390055 0.211001 0.891851
O O2 0.392609 0.014466 0.628649
O O3 0.637668 0.976463 0.954927
O O4 0.212377 0.798168 0.607795
O O5 0.836621 0.578949 0.621913
O O6 0.939461 0.945506 0.680245
O O7 0.226921 0.320640 0.994391
O O8 0.157737 0.173435 0.100170
O O9 0.500000 0.500000 0.500000
O O10 0.382395 0.183232 0.457101
O O11 0.177474 0.469723 0.813559
O O12 0.559239 0.607932 0.238172
O O13 0.000000 0.500000 0.500000
#
# Coordination Sequence:
#
# PCOD9071516 Si02
#       6
#     2   2   2   2   2   2
#     4  12  27  52  82 123 165 218 279 342 411 489
#     4  12  28  53  82 119 166 220 278 336 412 494
#     4  12  26  55  81 121 170 218 273 343 408 492
#     4  12  27  51  80 124 166 215 278 344 411 491
#     4  12  28  52  80 121 166 218 278 336 410 492
#     4  12  28  53  90 122 166 218 275 349 415 489
#
# _framework density 25.152162000000001
#
# number of rings (size 3 to 8) (size 9 to 14) (size 15 to 20)
#    0.000    0.000    5.000    3.000    4.667    3.333 
#    3.000    0.000    0.000    0.000    0.000    0.000 
#    0.000    0.000    0.000    0.000    0.000    0.000 
#
# Total GULP energy -67341.461732 kJ/mol
# GULP energy per Si atom -5611.788478 kJ/mol
# Density = 2.509491 g / cm^3
# Si number density = 25.152162 Si / 1000 Ang^3
#
#
#
# Elastic Constant Matrix: (Units=GPa)
#
#
# Indices 1 2 3 4 5 6 
#
# 1 142.1202 56.0974 61.3637 -11.2685 -18.3885 20.0803
# 2 56.0974 183.6942 69.6642 -29.3552 -0.9239 51.4180
# 3 61.3637 69.6642 205.3686 -9.9137 15.2840 -0.6904
# 4 -11.2685 -29.3552 -9.9137 64.3090 7.3149 1.1156
# 5 -18.3885 -0.9239 15.2840 7.3149 44.7960 -2.8213
# 6 20.0803 51.4180 -0.6904 1.1156 -2.8213 45.8111
#
#
#
# Elastic Compliance Matrix: (Units=1/GPa)
#
#
# Indices 1 2 3 4 5 6 
#
# 1 0.009736 -0.000960 -0.002930 0.000329 0.004737 -0.002951
# 2 -0.000960 0.011180 -0.003276 0.004711 -0.000591 -0.012328
# 3 -0.002930 -0.003276 0.007086 -0.000628 -0.003278 0.004881
# 4 0.000329 0.004711 -0.000628 0.018095 -0.002890 -0.006060
# 5 0.004737 -0.000591 -0.003278 -0.002890 0.025859 0.000201
# 6 -0.002951 -0.012328 0.004881 -0.006060 0.000201 0.037192
#
#
# Mechanical properties :
#
#
# Convention : Reuss Voigt Hill
#
# Bulk Modulus (GPa) = 73.14759 100.60373 86.87566
# Shear Modulus (GPa) = 39.05137 53.92040 46.48589
#
# Velocity S-wave (km/s) = 3.94459 4.63511 4.30372
# Velocity P-wave (km/s) = 7.06339 8.29039 7.70136
#
# Compressibility (1/GPa) = 0.01367099
#
# Stress axis : x y z
#
# Youngs Moduli (GPa) = 102.70929 89.44723 141.12287
#
# Poissons Ratio (x) = 0.08584 0.41352
# Poissons Ratio (y) = 0.09857 0.46226
# Poissons Ratio (z) = 0.30096 0.29299
#
# Static dielectric constant tensor:
#      x y z
#    x 1.989340 0.019130 -0.028420 
#    y 0.019130 2.027320 0.004200 
#    z -0.028420 0.004200 1.942310 
# 
# From -- ./inp_files/444801.got.cif
#   From: 2010.05.17/outbox.cif.g08.bks.cpg/sg2_223_cif.got.tgz:444801.got - 2010.06.03 11:33:40.
