data_PCOD9071051
_publ_section_title
;
Structure prediction by ZEFSAII (Michael W. Deem and Ramdas Pophale) SiO2 
 PCOD9071051
Probable space group: P -1
;
_chemical_formula_sum "Si O2"
_cell_formula_units_Z 11
_cell_length_a 9.707468
_cell_length_b 7.602908
_cell_length_c 9.390473
_cell_angle_alpha 94.253947
_cell_angle_beta 54.660823
_cell_angle_gamma 58.955248
_cell_volume 409.861484
_symmetry_space_group_name_H-M "P -1"
_symmetry_group_IT_number 2
_symmetry_cell_setting 'triclinic'
loop_
_space_group_symop_operation_xyz
x,y,z
-x,-y,-z
loop_
_atom_site_type_symbol
_atom_site_label
_atom_site_fract_x
_atom_site_fract_y
_atom_site_fract_z
Si Si1 0.076342 0.646303 0.943079
Si Si2 0.238946 0.429240 0.338252
Si Si3 0.475988 0.339092 0.914434
Si Si4 0.811063 0.230800 0.395465
Si Si5 0.585724 0.106833 0.367472
Si Si6 0.000000 0.000000 0.500000
O O1 0.301905 0.504364 0.898007
O O2 0.112902 0.684338 0.761551
O O3 0.848851 0.912464 0.144946
O O4 0.000000 0.500000 0.000000
O O5 0.183529 0.674880 0.441764
O O6 0.423336 0.245042 0.336826
O O7 0.000000 0.500000 0.500000
O O8 0.342335 0.321606 0.114009
O O9 0.724574 0.092767 0.697165
O O10 0.500000 0.500000 0.000000
O O11 0.597328 0.272771 0.467390
O O12 0.992317 0.958290 0.328817
O O13 0.500000 0.000000 0.500000
#
# Coordination Sequence:
#
# PCOD9071051 Si02
#       6
#     2   2   2   2   2   1
#     4  12  28  51  79 115 159 213 270 339 405 488
#     4  12  27  49  79 118 164 209 271 343 403 486
#     4  12  25  49  76 114 156 203 272 328 399 481
#     4  12  27  50  77 113 160 213 266 330 406 484
#     4  12  27  47  77 118 160 212 272 327 414 488
#     4  12  28  44  86 112 156 216 272 324 416 464
#
# _framework density 26.838335000000001
#
# number of rings (size 3 to 8) (size 9 to 14) (size 15 to 20)
#    0.000    0.000    1.818    7.636    7.636    0.000 
#    0.000    3.636    0.000    0.000    0.000    0.000 
#    0.000    0.000    0.000    0.000    0.000    0.000 
#
# Total GULP energy -61418.867979 kJ/mol
# GULP energy per Si atom -5583.533453 kJ/mol
# Density = 2.677725 g / cm^3
# Si number density = 26.838335 Si / 1000 Ang^3
#
#
#
# Elastic Constant Matrix: (Units=GPa)
#
#
# Indices 1 2 3 4 5 6 
#
# 1 161.5674 67.9622 57.7364 -18.0025 -6.5954 -30.7355
# 2 67.9622 154.2721 96.4905 -34.2623 1.2163 -45.3321
# 3 57.7364 96.4905 216.8388 -21.0124 -12.9159 -36.6111
# 4 -18.0025 -34.2623 -21.0124 72.8030 -8.6467 -1.1503
# 5 -6.5954 1.2163 -12.9159 -8.6467 40.9800 -3.2337
# 6 -30.7355 -45.3321 -36.6111 -1.1503 -3.2337 71.7957
#
#
#
# Elastic Compliance Matrix: (Units=1/GPa)
#
#
# Indices 1 2 3 4 5 6 
#
# 1 0.007890 -0.002486 -0.000557 0.000820 0.001468 0.001603
# 2 -0.002486 0.012130 -0.003568 0.004063 -0.000648 0.004811
# 3 -0.000557 -0.003568 0.006698 0.000405 0.002294 0.001034
# 4 0.000820 0.004063 0.000405 0.016487 0.003899 0.003563
# 5 0.001468 -0.000648 0.002294 0.003899 0.026412 0.002641
# 6 0.001603 0.004811 0.001034 0.003563 0.002641 0.018356
#
#
# Mechanical properties :
#
#
# Convention : Reuss Voigt Hill
#
# Bulk Modulus (GPa) = 74.09425 108.56181 91.32803
# Shear Modulus (GPa) = 47.30567 57.81502 52.56035
#
# Velocity S-wave (km/s) = 4.20291 4.64637 4.43019
# Velocity P-wave (km/s) = 7.15682 8.32605 7.76348
#
# Compressibility (1/GPa) = 0.01349632
#
# Stress axis : x y z
#
# Youngs Moduli (GPa) = 126.73598 82.43817 149.28727
#
# Poissons Ratio (x) = 0.20492 0.08318
# Poissons Ratio (y) = 0.31504 0.53273
# Poissons Ratio (z) = 0.07061 0.29418
#
# Static dielectric constant tensor:
#      x y z
#    x 2.037410 -0.097210 -0.401510 
#    y -0.097210 2.146720 -0.469760 
#    z -0.401510 -0.469760 0.810600 
# 
# From -- ./inp_files/153215.got.cif
#   From: 2010.05.17/outbox.cif.g08.bks.cpg/sg2_77_cif.got.tgz:153215.got - 2010.06.03 11:33:40.
