data_PCOD9071177
_publ_section_title
;
Structure prediction by ZEFSAII (Michael W. Deem and Ramdas Pophale) SiO2 
 PCOD9071177
Probable space group: P -1
;
_chemical_formula_sum "Si O2"
_cell_formula_units_Z 16
_cell_length_a 13.836785
_cell_length_b 13.953949
_cell_length_c 5.981533
_cell_angle_alpha 128.779891
_cell_angle_beta 125.135918
_cell_angle_gamma 54.738439
_cell_volume 692.364897
_symmetry_space_group_name_H-M "P -1"
_symmetry_group_IT_number 2
_symmetry_cell_setting 'triclinic'
loop_
_space_group_symop_operation_xyz
x,y,z
-x,-y,-z
loop_
_atom_site_type_symbol
_atom_site_label
_atom_site_fract_x
_atom_site_fract_y
_atom_site_fract_z
Si Si1 0.689414 0.167046 0.450371
Si Si2 0.918903 0.236532 0.679597
Si Si3 0.240225 0.250398 0.667598
Si Si4 0.896388 0.952179 0.661902
Si Si5 0.808507 0.515214 0.760794
Si Si6 0.923962 0.632236 0.716743
Si Si7 0.478403 0.442657 0.641895
Si Si8 0.494184 0.940271 0.155727
O O1 0.793035 0.214061 0.542220
O O2 0.573742 0.293372 0.555331
O O3 0.768219 0.071373 0.610561
O O4 0.632637 0.092709 0.086235
O O5 0.878318 0.360819 0.641963
O O6 0.024835 0.110200 0.543923
O O7 0.982152 0.286678 0.039278
O O8 0.153342 0.165256 0.498259
O O9 0.211588 0.268329 0.394911
O O10 0.378233 0.182589 0.842146
O O11 0.205131 0.402432 0.910290
O O12 0.000000 0.000000 0.000000
O O13 0.889430 0.582272 0.827940
O O14 0.667969 0.541547 0.527434
O O15 0.000000 0.500000 0.500000
O O16 0.500000 0.500000 0.500000
O O17 0.500000 0.500000 0.000000
O O18 0.500000 0.000000 0.500000
O O19 0.500000 0.000000 0.000000
#
# Coordination Sequence:
#
# PCOD9071177 Si02
#       8
#     2   2   2   2   2   2   2   2
#     4  12  28  50  80 118 162 212 269 331 416 483
#     4  12  26  48  74 113 165 204 266 327 403 482
#     4  12  26  49  78 111 155 205 272 329 401 468
#     4  12  28  48  75 113 161 215 264 329 402 488
#     4  12  26  49  79 113 157 209 273 334 402 470
#     4  12  26  44  76 114 157 206 260 330 395 480
#     4  12  30  52  81 117 163 211 268 339 402 480
#     4  12  30  52  81 113 158 213 271 333 396 482
#
# _framework density 23.109199
#
# number of rings (size 3 to 8) (size 9 to 14) (size 15 to 20)
#    0.000    0.000    6.250    2.250   10.500    1.000 
#    0.000    0.000    0.000    0.000    0.000    0.000 
#    0.000    0.000    0.000    0.000    0.000    0.000 
#
# Total GULP energy -89136.440382 kJ/mol
# GULP energy per Si atom -5571.027524 kJ/mol
# Density = 2.305660 g / cm^3
# Si number density = 23.109199 Si / 1000 Ang^3
#
#
#
# Elastic Constant Matrix: (Units=GPa)
#
#
# Indices 1 2 3 4 5 6 
#
# 1 62.6313 2.5540 30.0911 -12.2320 19.8946 3.3987
# 2 2.5540 119.2441 42.0314 -30.4227 -3.5504 -17.5708
# 3 30.0911 42.0314 153.8332 -10.0956 22.8124 1.7208
# 4 -12.2320 -30.4227 -10.0956 44.3274 -11.5377 7.0997
# 5 19.8946 -3.5504 22.8124 -11.5377 44.2042 1.7958
# 6 3.3987 -17.5708 1.7208 7.0997 1.7958 38.3440
#
#
#
# Elastic Compliance Matrix: (Units=1/GPa)
#
#
# Indices 1 2 3 4 5 6 
#
# 1 0.020344 0.001402 -0.003132 0.004503 -0.006188 -0.001564
# 2 0.001402 0.012679 -0.003879 0.008732 0.004504 0.004032
# 3 -0.003132 -0.003879 0.008612 -0.002382 -0.003917 -0.001262
# 4 0.004503 0.008732 -0.002382 0.031829 0.008317 -0.002574
# 5 -0.006188 0.004504 -0.003917 0.008317 0.029967 -0.000155
# 6 -0.001564 0.004032 -0.001262 -0.002574 -0.000155 0.028606
#
#
# Mechanical properties :
#
#
# Convention : Reuss Voigt Hill
#
# Bulk Modulus (GPa) = 32.87491 53.89576 43.38534
# Shear Modulus (GPa) = 32.59576 42.77726 37.68651
#
# Velocity S-wave (km/s) = 3.75975 4.30710 4.04270
# Velocity P-wave (km/s) = 5.75364 6.93597 6.37229
#
# Compressibility (1/GPa) = 0.03041833
#
# Stress axis : x y z
#
# Youngs Moduli (GPa) = 49.15460 78.86804 116.12367
#
# Poissons Ratio (x) = -0.11060 0.36369
# Poissons Ratio (y) = -0.06893 0.45040
# Poissons Ratio (z) = 0.15395 0.30590
#
# Static dielectric constant tensor:
#      x y z
#    x 1.815520 0.072510 0.034790 
#    y 0.072510 1.972900 -0.053330 
#    z 0.034790 -0.053330 1.933060 
# 
# From -- ./inp_files/98718.got.cif
#   From: 2010.05.17/outbox.cif.g08.bks.cpg/sg2_50_cif.got.tgz:98718.got - 2010.06.03 11:33:40.
