data_PCOD9071341
_publ_section_title
;
Structure prediction by ZEFSAII (Michael W. Deem and Ramdas Pophale) SiO2 
 PCOD9071341
Probable space group: P -1
;
_chemical_formula_sum "Si O2"
_cell_formula_units_Z 13
_cell_length_a 8.750942
_cell_length_b 13.933083
_cell_length_c 15.219855
_cell_angle_alpha 149.531169
_cell_angle_beta 145.327357
_cell_angle_gamma 43.642668
_cell_volume 534.604499
_symmetry_space_group_name_H-M "P -1"
_symmetry_group_IT_number 2
_symmetry_cell_setting 'triclinic'
loop_
_space_group_symop_operation_xyz
x,y,z
-x,-y,-z
loop_
_atom_site_type_symbol
_atom_site_label
_atom_site_fract_x
_atom_site_fract_y
_atom_site_fract_z
Si Si1 0.265615 0.147507 0.975994
Si Si2 0.265604 0.377351 0.830391
Si Si3 0.778592 0.585350 0.677059
Si Si4 0.705045 0.036126 0.545339
Si Si5 0.000000 0.000000 0.000000
Si Si6 0.450134 0.662461 0.898718
Si Si7 0.294002 0.286194 0.456038
O O1 0.004687 0.069815 0.745935
O O2 0.169933 0.248329 0.099706
O O3 0.414558 0.283649 0.086514
O O4 0.500000 0.000000 0.000000
O O5 0.012137 0.434910 0.695096
O O6 0.293989 0.154856 0.658832
O O7 0.500000 0.500000 0.000000
O O8 0.305268 0.406819 0.976032
O O9 0.500000 0.500000 0.500000
O O10 0.746505 0.669593 0.631621
O O11 0.584788 0.205794 0.561878
O O12 0.500000 0.000000 0.500000
O O13 0.113433 0.102100 0.225908
O O14 0.270573 0.842094 0.995783
O O15 0.263971 0.483385 0.651187
#
# Coordination Sequence:
#
# PCOD9071341 Si02
#       7
#     2   2   2   2   1   2   2
#     4  12  28  49  79 117 158 208 268 329 400 471
#     4  12  27  51  75 113 155 209 265 327 393 473
#     4  12  26  49  77 112 157 203 263 322 392 474
#     4  12  29  51  80 116 160 207 268 328 399 478
#     4  12  26  48  76 118 158 206 264 322 396 468
#     4  12  27  50  81 112 162 212 266 330 400 471
#     4  12  27  49  81 116 158 214 261 329 397 474
#
# _framework density 24.317041
#
# number of rings (size 3 to 8) (size 9 to 14) (size 15 to 20)
#    0.000    0.000    3.077    6.000    6.462    1.846 
#    0.000    0.000    0.000    0.000    0.000    0.000 
#    0.000    0.000    0.000    0.000    0.000    0.000 
#
# Total GULP energy -72430.035964 kJ/mol
# GULP energy per Si atom -5571.541228 kJ/mol
# Density = 2.426169 g / cm^3
# Si number density = 24.317041 Si / 1000 Ang^3
#
#
#
# Elastic Constant Matrix: (Units=GPa)
#
#
# Indices 1 2 3 4 5 6 
#
# 1 68.7210 44.2074 21.5832 -10.2480 -10.5377 18.5890
# 2 44.2074 147.4212 45.0235 -28.9481 -5.6352 18.1452
# 3 21.5832 45.0235 177.1934 -13.8410 -6.4120 -5.0042
# 4 -10.2480 -28.9481 -13.8410 66.4980 -9.5928 -11.5863
# 5 -10.5377 -5.6352 -6.4120 -9.5928 47.6639 -12.5144
# 6 18.5890 18.1452 -5.0042 -11.5863 -12.5144 33.8253
#
#
#
# Elastic Compliance Matrix: (Units=1/GPa)
#
#
# Indices 1 2 3 4 5 6 
#
# 1 0.020517 -0.004658 -0.001548 -0.000493 0.001406 -0.008655
# 2 -0.004658 0.009451 -0.001678 0.002712 -0.000080 -0.001859
# 3 -0.001548 -0.001678 0.006519 0.001264 0.001570 0.003729
# 4 -0.000493 0.002712 0.001264 0.018625 0.006140 0.007655
# 5 0.001406 -0.000080 0.001570 0.006140 0.025641 0.011092
# 6 -0.008655 -0.001859 0.003729 0.007655 0.011092 0.042595
#
#
# Mechanical properties :
#
#
# Convention : Reuss Voigt Hill
#
# Bulk Modulus (GPa) = 48.26053 68.32931 58.29492
# Shear Modulus (GPa) = 34.24188 48.43220 41.33704
#
# Velocity S-wave (km/s) = 3.75659 4.46769 4.12748
# Velocity P-wave (km/s) = 6.22137 7.40094 6.83665
#
# Compressibility (1/GPa) = 0.02072086
#
# Stress axis : x y z
#
# Youngs Moduli (GPa) = 48.74027 105.81432 153.39276
#
# Poissons Ratio (x) = 0.49284 0.23740
# Poissons Ratio (y) = 0.22701 0.25733
# Poissons Ratio (z) = 0.07543 0.17751
#
# Static dielectric constant tensor:
#      x y z
#    x 1.769160 -0.143040 -0.578280 
#    y -0.143040 1.701410 -0.596570 
#    z -0.578280 -0.596570 0.096160 
# 
# From -- ./inp_files/157561.got.cif
#   From: 2010.05.17/outbox.cif.g08.bks.cpg/sg2_79_cif.got.tgz:157561.got - 2010.06.03 11:33:40.
