data_PCOD9071990
_publ_section_title
;
Structure prediction by ZEFSAII (Michael W. Deem and Ramdas Pophale) SiO2 
 PCOD9071990
Probable space group: P -1
;
_chemical_formula_sum "Si O2"
_cell_formula_units_Z 16
_cell_length_a 12.000000
_cell_length_b 15.000000
_cell_length_c 12.000000
_cell_angle_alpha 60.000000
_cell_angle_beta 50.000000
_cell_angle_gamma 30.000000
_cell_volume 818.222392
_symmetry_space_group_name_H-M "P -1"
_symmetry_group_IT_number 2
_symmetry_cell_setting 'triclinic'
loop_
_space_group_symop_operation_xyz
x,y,z
-x,-y,-z
loop_
_atom_site_type_symbol
_atom_site_label
_atom_site_fract_x
_atom_site_fract_y
_atom_site_fract_z
Si Si1 0.048029 0.466876 0.355423
Si Si2 0.863639 0.690183 0.970011
Si Si3 0.741829 0.445040 0.483090
Si Si4 0.206676 0.915721 0.241422
Si Si5 0.318575 0.176018 0.750692
Si Si6 0.496269 0.862007 0.894261
Si Si7 0.833503 0.979815 0.542251
Si Si8 0.374668 0.495297 0.733608
O O1 0.319797 0.299205 0.217152
O O2 0.000000 0.500000 0.500000
O O3 0.879873 0.465382 0.426575
O O4 0.920506 0.641572 0.274628
O O5 0.694119 0.793363 0.903215
O O6 0.084607 0.647540 0.860571
O O7 0.710158 0.784994 0.123331
O O8 0.000000 0.500000 0.000000
O O9 0.505779 0.529428 0.646973
O O10 0.631715 0.527180 0.379716
O O11 0.953451 0.232921 0.465899
O O12 0.437374 0.699559 0.218362
O O13 0.944351 0.004269 0.374296
O O14 0.209345 0.965855 0.333030
O O15 0.278829 0.938852 0.069195
O O16 0.363058 0.029691 0.806692
O O17 0.567592 0.090754 0.601752
#
# Coordination Sequence:
#
# PCOD9071990 Si02
#       8
#     2   2   2   2   2   2   2   2
#     4  12  26  45  65  86 120 171 222 264 302 363
#     4  12  18  33  61  94 132 157 191 250 324 377
#     4  10  20  35  55  89 126 159 205 252 305 368
#     4  10  20  32  55  92 135 163 187 244 321 388
#     4  12  23  38  64  91 122 162 206 261 319 371
#     4  12  23  39  60  95 128 160 211 258 312 376
#     4  10  19  34  56  92 131 163 193 243 318 385
#     4  10  18  32  57  88 129 161 189 249 317 372
#
# _framework density 19.554586
#
# number of rings (size 3 to 8) (size 9 to 14) (size 15 to 20)
#    0.000    1.000    6.250    1.125    1.750    1.500 
#    0.000    0.000    0.000    7.500    0.000    0.000 
#    0.000    0.000    0.000    0.000    0.000    0.000 
#
# Total GULP energy -89161.592798 kJ/mol
# GULP energy per Si atom -5572.599550 kJ/mol
# Density = 1.951008 g / cm^3
# Si number density = 19.554586 Si / 1000 Ang^3
#
#
#
# Elastic Constant Matrix: (Units=GPa)
#
#
# Indices 1 2 3 4 5 6 
#
# 1 30.8541 9.4246 33.7195 -2.8106 -3.7750 3.1424
# 2 9.4246 105.7366 43.7917 -10.5977 0.8244 12.1239
# 3 33.7195 43.7917 155.8794 18.2950 -17.1088 3.1675
# 4 -2.8106 -10.5977 18.2950 23.6328 -1.3794 -3.5869
# 5 -3.7750 0.8244 -17.1088 -1.3794 40.6529 2.5195
# 6 3.1424 12.1239 3.1675 -3.5869 2.5195 6.3365
#
#
#
# Elastic Compliance Matrix: (Units=1/GPa)
#
#
# Indices 1 2 3 4 5 6 
#
# 1 0.048808 0.004791 -0.013305 0.015531 0.000486 -0.018121
# 2 0.004791 0.014899 -0.005775 0.008176 -0.000576 -0.023139
# 3 -0.013305 -0.005775 0.012881 -0.013620 0.003715 0.002021
# 4 0.015531 0.008176 -0.013620 0.061120 -0.003590 0.019488
# 5 0.000486 -0.000576 0.003715 -0.003590 0.026949 -0.013743
# 6 -0.018121 -0.023139 0.002021 0.019488 -0.013743 0.226559
#
#
# Mechanical properties :
#
#
# Convention : Reuss Voigt Hill
#
# Bulk Modulus (GPa) = 20.82912 51.81572 36.32242
# Shear Modulus (GPa) = 11.47324 27.82673 19.64998
#
# Velocity S-wave (km/s) = 2.42488 3.77640 3.17342
# Velocity P-wave (km/s) = 4.30290 6.75059 5.66063
#
# Compressibility (1/GPa) = 0.04800970
#
# Stress axis : x y z
#
# Youngs Moduli (GPa) = 20.48853 67.11811 77.63470
#
# Poissons Ratio (x) = -0.32154 1.03294
# Poissons Ratio (y) = -0.09816 0.44831
# Poissons Ratio (z) = 0.27260 0.38758
#
# Static dielectric constant tensor:
#      x y z
#    x 1.691800 0.027250 -0.071150 
#    y 0.027250 1.762990 0.001940 
#    z -0.071150 0.001940 1.745870 
# 
# From -- ./inp_files/432681.got.cif
#   From: 2010.05.17/outbox.ucp.g08.bks.cvg/sg2_217_cif.got.tgz:432681.got - 2010.06.11 11:32:03.
