data_PCOD9071492
_publ_section_title
;
Structure prediction by ZEFSAII (Michael W. Deem and Ramdas Pophale) SiO2 
 PCOD9071492
Probable space group: P -1
;
_chemical_formula_sum "Si O2"
_cell_formula_units_Z 11
_cell_length_a 5.070640
_cell_length_b 12.263685
_cell_length_c 14.330702
_cell_angle_alpha 31.790383
_cell_angle_beta 116.695217
_cell_angle_gamma 100.927526
_cell_volume 382.829940
_symmetry_space_group_name_H-M "P -1"
_symmetry_group_IT_number 2
_symmetry_cell_setting 'triclinic'
loop_
_space_group_symop_operation_xyz
x,y,z
-x,-y,-z
loop_
_atom_site_type_symbol
_atom_site_label
_atom_site_fract_x
_atom_site_fract_y
_atom_site_fract_z
Si Si1 0.406565 0.915761 0.806950
Si Si2 0.155742 0.176297 0.880940
Si Si3 0.819620 0.426781 0.942085
Si Si4 0.000000 0.500000 0.500000
Si Si5 0.372667 0.843973 0.652204
Si Si6 0.644068 0.585665 0.591730
O O1 0.530484 0.793409 0.816832
O O2 0.353790 0.170143 0.594791
O O3 0.632298 0.830291 0.993581
O O4 0.126973 0.832658 0.847053
O O5 0.263992 0.217947 0.766623
O O6 0.866345 0.439881 0.645308
O O7 0.000000 0.000000 0.000000
O O8 0.453071 0.612151 0.778175
O O9 0.812630 0.478988 0.793714
O O10 0.000000 0.500000 0.000000
O O11 0.706920 0.418279 0.467869
O O12 0.500000 0.000000 0.500000
O O13 0.000000 0.000000 0.500000
#
# Coordination Sequence:
#
# PCOD9071492 Si02
#       6
#     2   2   2   1   2   2
#     4  12  27  48  80 116 160 214 272 335 415 492
#     4  12  28  50  78 117 155 209 269 340 414 490
#     4  12  27  53  81 121 164 224 276 339 421 506
#     4  12  26  52  74 114 154 200 270 336 410 474
#     4  12  27  49  81 122 171 217 276 349 416 500
#     4  12  28  51  81 115 159 209 277 335 411 497
#
# _framework density 28.733384000000001
#
# number of rings (size 3 to 8) (size 9 to 14) (size 15 to 20)
#    0.000    0.000    5.455    3.273    2.545    2.182 
#    3.273    0.000    0.000    0.000    0.000    0.000 
#    0.000    0.000    0.000    0.000    0.000    0.000 
#
# Total GULP energy -61537.644702 kJ/mol
# GULP energy per Si atom -5594.331337 kJ/mol
# Density = 2.866799 g / cm^3
# Si number density = 28.733384 Si / 1000 Ang^3
#
#
#
# Elastic Constant Matrix: (Units=GPa)
#
#
# Indices 1 2 3 4 5 6 
#
# 1 148.4949 62.8596 33.4386 1.9346 -22.4758 14.2036
# 2 62.8596 192.1753 81.5385 32.2236 -13.8891 11.2617
# 3 33.4386 81.5385 176.2841 18.9393 -80.7276 20.4187
# 4 1.9346 32.2236 18.9393 96.0624 1.5007 -2.2722
# 5 -22.4758 -13.8891 -80.7276 1.5007 60.2713 -14.9613
# 6 14.2036 11.2617 20.4187 -2.2722 -14.9613 73.3246
#
#
#
# Elastic Compliance Matrix: (Units=1/GPa)
#
#
# Indices 1 2 3 4 5 6 
#
# 1 0.008579 -0.003579 0.002774 0.000373 0.005916 -0.000666
# 2 -0.003579 0.009303 -0.008004 -0.001328 -0.010025 -0.000593
# 3 0.002774 -0.008004 0.022628 -0.002287 0.029646 0.000369
# 4 0.000373 -0.001328 -0.002287 0.011362 -0.003407 0.000425
# 5 0.005916 -0.010025 0.029646 -0.003407 0.057200 0.003704
# 6 -0.000666 -0.000593 0.000369 0.000425 0.003704 0.014524
#
#
# Mechanical properties :
#
#
# Convention : Reuss Voigt Hill
#
# Bulk Modulus (GPa) = 43.68253 96.95864 70.32059
# Shear Modulus (GPa) = 33.59235 68.53950 51.06592
#
# Velocity S-wave (km/s) = 3.42293 4.88931 4.22030
# Velocity P-wave (km/s) = 5.55496 8.10502 6.94798
#
# Compressibility (1/GPa) = 0.02289244
#
# Stress axis : x y z
#
# Youngs Moduli (GPa) = 116.56590 107.49060 44.19395
#
# Poissons Ratio (x) = 0.38473 -0.12261
# Poissons Ratio (y) = 0.41721 0.35372
# Poissons Ratio (z) = -0.32340 0.86033
#
# Static dielectric constant tensor:
#      x y z
#    x 2.856750 -0.049490 0.027480 
#    y -0.049490 2.213760 0.077900 
#    z 0.027480 0.077900 2.448930 
# 
# From -- ./inp_files/481904.got.cif
#   From: 2010.05.17/outbox.cif.g08.bks.cpg/sg2_241_cif.got.tgz:481904.got - 2010.06.03 11:33:40.
