data_PCOD9071939
_publ_section_title
;
Structure prediction by ZEFSAII (Michael W. Deem and Ramdas Pophale) SiO2 
 PCOD9071939
Probable space group: P -1
;
_chemical_formula_sum "Si O2"
_cell_formula_units_Z 14
_cell_length_a 14.238554
_cell_length_b 11.852685
_cell_length_c 7.648776
_cell_angle_alpha 87.033342
_cell_angle_beta 136.413051
_cell_angle_gamma 125.740939
_cell_volume 540.409803
_symmetry_space_group_name_H-M "P -1"
_symmetry_group_IT_number 2
_symmetry_cell_setting 'triclinic'
loop_
_space_group_symop_operation_xyz
x,y,z
-x,-y,-z
loop_
_atom_site_type_symbol
_atom_site_label
_atom_site_fract_x
_atom_site_fract_y
_atom_site_fract_z
Si Si1 0.304091 0.986844 0.268191
Si Si2 0.019532 0.151861 0.899672
Si Si3 0.353245 0.234150 0.757076
Si Si4 0.360262 0.402908 0.067226
Si Si5 0.414436 0.838357 0.009059
Si Si6 0.954324 0.619339 0.295908
Si Si7 0.774531 0.322243 0.821643
O O1 0.513866 0.164145 0.412691
O O2 0.098871 0.931042 0.061791
O O3 0.210650 0.802351 0.106704
O O4 0.453543 0.070830 0.638389
O O5 0.963835 0.244268 0.760279
O O6 0.273528 0.313022 0.151923
O O7 0.874407 0.974697 0.595000
O O8 0.420700 0.378768 0.700254
O O9 0.526323 0.243956 0.985676
O O10 0.351116 0.291000 0.937236
O O11 0.172122 0.371475 0.758110
O O12 0.151884 0.688768 0.654021
O O13 0.500000 0.000000 0.000000
O O14 0.795031 0.427252 0.996937
O O15 0.000000 0.500000 0.000000
#
# Coordination Sequence:
#
# PCOD9071939 Si02
#       7
#     2   2   2   2   2   2   2
#     4  10  21  30  52  71 105 140 171 205 267 298
#     4   9  17  31  46  73  97 134 165 211 246 304
#     4  10  18  30  49  67 110 137 172 201 260 300
#     4   9  19  31  45  75  98 145 171 206 244 315
#     4  11  18  33  51  84 107 136 164 215 263 310
#     4  10  19  31  53  75 110 129 168 211 261 297
#     4  11  19  35  47  74 104 140 172 214 249 316
#
# _framework density 25.906267
#
# number of rings (size 3 to 8) (size 9 to 14) (size 15 to 20)
#    0.857    1.143    4.286    2.143    0.000    2.286 
#    0.000    0.000    0.000    0.000    0.000   13.000 
#    0.000   50.286    0.000    0.000    0.000    0.000 
#
# Total GULP energy -77984.004807 kJ/mol
# GULP energy per Si atom -5570.286058 kJ/mol
# Density = 2.584730 g / cm^3
# Si number density = 25.906267 Si / 1000 Ang^3
#
#
#
# Elastic Constant Matrix: (Units=GPa)
#
#
# Indices 1 2 3 4 5 6 
#
# 1 155.9621 40.1927 30.8358 4.5498 0.4668 -16.4247
# 2 40.1927 87.7524 49.5480 21.5829 -19.9147 -10.6547
# 3 30.8358 49.5480 108.5609 41.4456 9.5898 -7.2502
# 4 4.5498 21.5829 41.4456 54.9933 1.0882 8.1347
# 5 0.4668 -19.9147 9.5898 1.0882 25.1440 32.0454
# 6 -16.4247 -10.6547 -7.2502 8.1347 32.0454 37.3681
#
#
#
# Elastic Compliance Matrix: (Units=1/GPa)
#
#
# Indices 1 2 3 4 5 6 
#
# 1 0.006620 -0.000456 -0.004003 0.003306 0.007924 -0.005512
# 2 -0.000456 0.010842 0.001682 -0.008404 -0.020295 0.022451
# 3 -0.004003 0.001682 0.007277 -0.003282 0.024813 -0.020432
# 4 0.003306 -0.008404 -0.003282 0.022539 -0.019638 0.010354
# 5 0.007924 -0.020295 0.024813 -0.019638 -0.067654 0.064803
# 6 -0.005512 0.022451 -0.020432 0.010354 0.064803 -0.031051
#
#
# Mechanical properties :
#
#
# Convention : Reuss Voigt Hill
#
# Bulk Modulus (GPa) = 52.12263 65.93647 59.02955
# Shear Modulus (GPa) = -126.65757 38.94767 -43.85495
#
# Velocity S-wave (km/s) = -6.99977 3.88159 -4.11887
# Velocity P-wave (km/s) = 6.72055 6.75249 0.46389
#
# Compressibility (1/GPa) = 0.01918552
#
# Stress axis : x y z
#
# Youngs Moduli (GPa) = 151.05499 92.23079 137.41462
#
# Poissons Ratio (x) = 0.04209 0.55000
# Poissons Ratio (y) = 0.06894 -0.23110
# Poissons Ratio (z) = 0.60460 -0.15511
#
# Static dielectric constant tensor:
#      x y z
#    x 2.236400 0.152400 0.146830 
#    y 0.152400 2.097320 0.067930 
#    z 0.146830 0.067930 2.059110 
# 
# From -- ./inp_files/449199.got.cif
#   From: 2010.05.17/outbox.cif.g08.bks.cpg/sg2_225_cif.got.tgz:449199.got - 2010.06.03 11:33:40.
