data_PCOD9071750
_publ_section_title
;
Structure prediction by ZEFSAII (Michael W. Deem and Ramdas Pophale) SiO2 
 PCOD9071750
Probable space group: P -1
;
_chemical_formula_sum "Si O2"
_cell_formula_units_Z 14
_cell_length_a 15.461035
_cell_length_b 20.065051
_cell_length_c 13.692398
_cell_angle_alpha 23.762019
_cell_angle_beta 152.754810
_cell_angle_gamma 150.888852
_cell_volume 740.967294
_symmetry_space_group_name_H-M "P -1"
_symmetry_group_IT_number 2
_symmetry_cell_setting 'triclinic'
loop_
_space_group_symop_operation_xyz
x,y,z
-x,-y,-z
loop_
_atom_site_type_symbol
_atom_site_label
_atom_site_fract_x
_atom_site_fract_y
_atom_site_fract_z
Si Si1 0.926953 0.154575 0.757520
Si Si2 0.430518 0.116782 0.161087
Si Si3 0.183713 0.432267 0.762725
Si Si4 0.762801 0.717392 0.409886
Si Si5 0.489302 0.515746 0.133297
Si Si6 0.631680 0.579265 0.659663
Si Si7 0.143982 0.702454 0.701840
O O1 0.070041 0.232568 0.887323
O O2 0.648693 0.135772 0.313528
O O3 0.455373 0.287572 0.027440
O O4 0.695019 0.065150 0.672514
O O5 0.295633 0.141017 0.902737
O O6 0.000000 0.000000 0.000000
O O7 0.327296 0.503664 0.718402
O O8 0.000000 0.500000 0.500000
O O9 0.315031 0.479496 0.927682
O O10 0.732886 0.724543 0.486223
O O11 0.587721 0.537821 0.443219
O O12 0.977636 0.713808 0.595603
O O13 0.414357 0.383820 0.325264
O O14 0.055611 0.706511 0.498580
O O15 0.775398 0.457980 0.976950
#
# Coordination Sequence:
#
# PCOD9071750 Si02
#       7
#     2   2   2   2   2   2   2
#     4  12  20  35  55  77 110 141 170 215 264 309
#     4  10  20  34  52  81 106 139 173 216 261 311
#     4  11  21  34  52  75 106 141 170 211 259 312
#     4   9  16  30  49  76 108 132 171 220 261 298
#     4   9  19  34  50  74 106 131 174 212 256 309
#     4   9  18  30  50  76 105 138 170 216 261 304
#     4  10  18  29  49  76 107 133 171 216 259 305
#
# _framework density 18.894221999999999
#
# number of rings (size 3 to 8) (size 9 to 14) (size 15 to 20)
#    0.000    2.286    2.857    3.429    0.000    0.000 
#    0.000    0.000    0.000    0.857    0.000    2.000 
#    0.000    0.000    0.000    0.000    0.000    0.000 
#
# Total GULP energy -77953.775686 kJ/mol
# GULP energy per Si atom -5568.126835 kJ/mol
# Density = 1.885122 g / cm^3
# Si number density = 18.894222 Si / 1000 Ang^3
#
#
#
# Elastic Constant Matrix: (Units=GPa)
#
#
# Indices 1 2 3 4 5 6 
#
# 1 159.6405 37.9623 48.9129 18.9351 -11.3829 19.1129
# 2 37.9623 50.9875 23.6961 13.7214 -7.1952 3.8272
# 3 48.9129 23.6961 64.3619 18.6196 -0.7813 2.8904
# 4 18.9351 13.7214 18.6196 23.4706 8.0899 5.2607
# 5 -11.3829 -7.1952 -0.7813 8.0899 37.8919 9.4283
# 6 19.1129 3.8272 2.8904 5.2607 9.4283 25.1984
#
#
#
# Elastic Compliance Matrix: (Units=1/GPa)
#
#
# Indices 1 2 3 4 5 6 
#
# 1 0.010297 -0.003293 -0.005711 -0.001668 0.004715 -0.008071
# 2 -0.003293 0.028676 -0.004101 -0.013124 0.007539 -0.001469
# 3 -0.005711 -0.004101 0.025225 -0.014064 -0.000237 0.005086
# 4 -0.001668 -0.013124 -0.014064 0.069461 -0.017330 -0.003145
# 5 0.004715 0.007539 -0.000237 -0.017330 0.036610 -0.014774
# 6 -0.008071 -0.001469 0.005086 -0.003145 -0.014774 0.051631
#
#
# Mechanical properties :
#
#
# Convention : Reuss Voigt Hill
#
# Bulk Modulus (GPa) = 26.32383 55.12584 40.72483
# Shear Modulus (GPa) = 19.17380 28.27341 23.72361
#
# Velocity S-wave (km/s) = 3.18904 3.87254 3.54729
# Velocity P-wave (km/s) = 5.24619 7.01675 6.19505
#
# Compressibility (1/GPa) = 0.03798839
#
# Stress axis : x y z
#
# Youngs Moduli (GPa) = 97.11391 34.87223 39.64337
#
# Poissons Ratio (x) = 0.11482 0.22641
# Poissons Ratio (y) = 0.31975 0.16259
# Poissons Ratio (z) = 0.55464 0.14302
#
# Static dielectric constant tensor:
#      x y z
#    x 1.682210 0.037630 -0.032430 
#    y 0.037630 1.660020 0.039350 
#    z -0.032430 0.039350 1.683420 
# 
# From -- ./inp_files/457250.got.cif
#   From: 2010.05.17/outbox.cif.g08.bks.cpg/sg2_229_cif.got.tgz:457250.got - 2010.06.03 11:33:40.
