data_PCOD9071204
_publ_section_title
;
Structure prediction by ZEFSAII (Michael W. Deem and Ramdas Pophale) SiO2 
 PCOD9071204
Probable space group: P -1
;
_chemical_formula_sum "Si O2"
_cell_formula_units_Z 12
_cell_length_a 21.673363
_cell_length_b 9.143883
_cell_length_c 5.000973
_cell_angle_alpha 63.034629
_cell_angle_beta 116.112119
_cell_angle_gamma 146.946196
_cell_volume 478.103060
_symmetry_space_group_name_H-M "P -1"
_symmetry_group_IT_number 2
_symmetry_cell_setting 'triclinic'
loop_
_space_group_symop_operation_xyz
x,y,z
-x,-y,-z
loop_
_atom_site_type_symbol
_atom_site_label
_atom_site_fract_x
_atom_site_fract_y
_atom_site_fract_z
Si Si1 0.577016 0.188432 0.739077
Si Si2 0.892909 0.916969 0.318918
Si Si3 0.957792 0.559283 0.168476
Si Si4 0.234704 0.607183 0.769230
Si Si5 0.720909 0.781566 0.463314
Si Si6 0.751551 0.061679 0.812297
O O1 0.623673 0.462170 0.589174
O O2 0.500000 0.000000 0.500000
O O3 0.686594 0.282665 0.921006
O O4 0.500000 0.000000 0.000000
O O5 0.054343 0.848014 0.970566
O O6 0.795461 0.619807 0.245351
O O7 0.831473 0.892327 0.467894
O O8 0.000000 0.000000 0.500000
O O9 0.880626 0.533277 0.221461
O O10 0.000000 0.500000 0.500000
O O11 0.126028 0.667145 0.037838
O O12 0.286569 0.838463 0.472260
O O13 0.746270 0.931069 0.655436
O O14 0.688629 0.849680 0.111200
#
# Coordination Sequence:
#
# PCOD9071204 Si02
#       6
#     2   2   2   2   2   2
#     4  12  29  55  87 111 147 204 270 339 407 458
#     4  12  26  45  77 117 164 214 263 309 382 474
#     4  12  28  48  78 118 169 219 258 304 390 478
#     4  12  27  51  80 118 163 205 274 328 378 470
#     4  12  28  52  78 116 156 206 261 328 397 470
#     4  12  27  50  78 110 169 206 256 317 390 460
#
# _framework density 25.099193
#
# number of rings (size 3 to 8) (size 9 to 14) (size 15 to 20)
#    0.000    0.000    3.333    5.500    7.000    2.000 
#    0.000    5.000    0.000    0.000    0.000    0.000 
#    0.000    0.000    0.000    0.000    0.000    0.000 
#
# Total GULP energy -67344.788493 kJ/mol
# GULP energy per Si atom -5612.065708 kJ/mol
# Density = 2.504207 g / cm^3
# Si number density = 25.099193 Si / 1000 Ang^3
#
#
#
# Elastic Constant Matrix: (Units=GPa)
#
#
# Indices 1 2 3 4 5 6 
#
# 1 85.4785 42.9380 39.8375 -1.8399 -25.7495 -40.3384
# 2 42.9380 157.5565 107.9939 -27.0666 -5.9868 -42.6963
# 3 39.8375 107.9939 224.1217 -18.0881 -14.6295 -41.6396
# 4 -1.8399 -27.0666 -18.0881 69.6746 -1.8650 -8.0491
# 5 -25.7495 -5.9868 -14.6295 -1.8650 53.0422 2.2073
# 6 -40.3384 -42.6963 -41.6396 -8.0491 2.2073 44.8736
#
#
#
# Elastic Compliance Matrix: (Units=1/GPa)
#
#
# Indices 1 2 3 4 5 6 
#
# 1 0.027116 -0.000006 0.001092 0.004283 0.012552 0.025534
# 2 -0.000006 0.012221 -0.003838 0.004784 0.000115 0.008913
# 3 0.001092 -0.003838 0.007041 0.000870 0.001906 0.003926
# 4 0.004283 0.004784 0.000870 0.018051 0.002982 0.012301
# 5 0.012552 0.000115 0.001906 0.002982 0.025071 0.012464
# 6 0.025534 0.008913 0.003926 0.012301 0.012464 0.058955
#
#
# Mechanical properties :
#
#
# Convention : Reuss Voigt Hill
#
# Bulk Modulus (GPa) = 24.46538 94.29949 59.38243
# Shear Modulus (GPa) = 29.83568 51.94390 40.88979
#
# Velocity S-wave (km/s) = 3.45151 4.55416 4.04062
# Velocity P-wave (km/s) = 5.06483 8.08122 6.74384
#
# Compressibility (1/GPa) = 0.04087408
#
# Stress axis : x y z
#
# Youngs Moduli (GPa) = 36.87834 81.82717 142.02164
#
# Poissons Ratio (x) = 0.00050 -0.15509
# Poissons Ratio (y) = 0.00023 0.54507
# Poissons Ratio (z) = -0.04027 0.31405
#
# Static dielectric constant tensor:
#      x y z
#    x 2.084450 0.047900 0.043800 
#    y 0.047900 1.976750 0.018500 
#    z 0.043800 0.018500 1.979440 
# 
# From -- ./inp_files/106421.got.cif
#   From: 2010.05.17/outbox.cif.g08.bks.cpg/sg2_54_cif.got.tgz:106421.got - 2010.06.03 11:33:40.
