data_PCOD9071199
_publ_section_title
;
Structure prediction by ZEFSAII (Michael W. Deem and Ramdas Pophale) SiO2 
 PCOD9071199
Probable space group: P -1
;
_chemical_formula_sum "Si O2"
_cell_formula_units_Z 14
_cell_length_a 14.056519
_cell_length_b 8.822601
_cell_length_c 15.988013
_cell_angle_alpha 80.390783
_cell_angle_beta 21.940670
_cell_angle_gamma 94.644835
_cell_volume 561.200622
_symmetry_space_group_name_H-M "P -1"
_symmetry_group_IT_number 2
_symmetry_cell_setting 'triclinic'
loop_
_space_group_symop_operation_xyz
x,y,z
-x,-y,-z
loop_
_atom_site_type_symbol
_atom_site_label
_atom_site_fract_x
_atom_site_fract_y
_atom_site_fract_z
Si Si1 0.725783 0.884128 0.017985
Si Si2 0.196971 0.513148 0.114933
Si Si3 0.440047 0.188652 0.363725
Si Si4 0.371970 0.602670 0.647326
Si Si5 0.495620 0.863467 0.368665
Si Si6 0.732049 0.505276 0.672829
Si Si7 0.285433 0.856091 0.110786
O O1 0.615175 0.008396 0.063697
O O2 0.418244 0.300935 0.447796
O O3 0.768025 0.893443 0.081777
O O4 0.447742 0.659261 0.237477
O O5 0.413162 0.456112 0.980639
O O6 0.339270 0.649064 0.902110
O O7 0.258361 0.671189 0.117980
O O8 0.844421 0.309464 0.389556
O O9 0.584053 0.077431 0.282490
O O10 0.056500 0.992003 0.684224
O O11 0.500000 0.500000 0.500000
O O12 0.451378 0.769319 0.502434
O O13 0.000000 0.500000 0.000000
O O14 0.000000 0.500000 0.500000
O O15 0.920506 0.724385 0.460519
O O16 0.500000 0.000000 0.000000
#
# Coordination Sequence:
#
# PCOD9071199 Si02
#       7
#     2   2   2   2   2   2   2
#     4  12  26  45  76 110 146 204 256 323 388 474
#     4  12  26  47  78 108 152 204 260 323 390 472
#     4  12  27  49  80 111 156 205 266 315 400 472
#     4  12  31  51  82 123 168 208 262 334 399 476
#     4  12  27  49  80 111 156 205 266 315 400 472
#     4  12  26  46  70 107 151 194 256 324 388 461
#     4  12  26  46  70 107 151 194 256 324 388 461
#
# _framework density 24.946515999999999
#
# number of rings (size 3 to 8) (size 9 to 14) (size 15 to 20)
#    0.000    0.000    8.571    0.429    8.000    1.714 
#    2.571    0.000    0.000    0.000    0.000    0.000 
#    0.000    0.000    0.000    0.000    0.000    0.000 
#
# Total GULP energy -77995.682947 kJ/mol
# GULP energy per Si atom -5571.120211 kJ/mol
# Density = 2.488974 g / cm^3
# Si number density = 24.946516 Si / 1000 Ang^3
#
#
#
# Elastic Constant Matrix: (Units=GPa)
#
#
# Indices 1 2 3 4 5 6 
#
# 1 100.3815 15.7952 13.8942 -6.3861 31.2795 13.5545
# 2 15.7952 93.8714 11.8755 -4.7408 1.8743 24.7865
# 3 13.8942 11.8755 84.5427 -26.4502 3.2299 -0.0631
# 4 -6.3861 -4.7408 -26.4502 38.0905 -3.9116 1.9893
# 5 31.2795 1.8743 3.2299 -3.9116 42.6653 -11.1386
# 6 13.5545 24.7865 -0.0631 1.9893 -11.1386 46.8555
#
#
#
# Elastic Compliance Matrix: (Units=1/GPa)
#
#
# Indices 1 2 3 4 5 6 
#
# 1 0.015330 -0.000080 -0.001931 0.000274 -0.013023 -0.007502
# 2 -0.000080 0.012878 -0.001495 0.000704 -0.002249 -0.007356
# 3 -0.001931 -0.001495 0.015543 0.010379 0.001598 0.001309
# 4 0.000274 0.000704 0.010379 0.033846 0.001702 -0.001470
# 5 -0.013023 -0.002249 0.001598 0.001702 0.036672 0.013605
# 6 -0.007502 -0.007356 0.001309 -0.001470 0.013605 0.030702
#
#
# Mechanical properties :
#
#
# Convention : Reuss Voigt Hill
#
# Bulk Modulus (GPa) = 27.21850 40.21395 33.71622
# Shear Modulus (GPa) = 30.44523 41.33764 35.89144
#
# Velocity S-wave (km/s) = 3.49724 4.07510 3.79718
# Velocity P-wave (km/s) = 5.21939 6.18846 5.72447
#
# Compressibility (1/GPa) = 0.03673971
#
# Stress axis : x y z
#
# Youngs Moduli (GPa) = 65.22968 77.64962 64.33887
#
# Poissons Ratio (x) = 0.00625 0.12421
# Poissons Ratio (y) = 0.00525 0.09618
# Poissons Ratio (z) = 0.12593 0.11608
#
# Static dielectric constant tensor:
#      x y z
#    x 2.064610 0.019570 0.006960 
#    y 0.019570 2.091260 0.168580 
#    z 0.006960 0.168580 2.185750 
# 
# From -- ./inp_files/572586.got.cif
#   From: 2010.05.17/outbox.cif.g08.bks.cpg/sg2_287_cif.got.tgz:572586.got - 2010.06.03 11:33:40.
