data_PCOD9071905
_publ_section_title
;
Structure prediction by ZEFSAII (Michael W. Deem and Ramdas Pophale) SiO2 
 PCOD9071905
Probable space group: P -1
;
_chemical_formula_sum "Si O2"
_cell_formula_units_Z 16
_cell_length_a 8.198604
_cell_length_b 27.544883
_cell_length_c 14.950291
_cell_angle_alpha 20.063192
_cell_angle_beta 142.017153
_cell_angle_gamma 135.012416
_cell_volume 703.989653
_symmetry_space_group_name_H-M "P -1"
_symmetry_group_IT_number 2
_symmetry_cell_setting 'triclinic'
loop_
_space_group_symop_operation_xyz
x,y,z
-x,-y,-z
loop_
_atom_site_type_symbol
_atom_site_label
_atom_site_fract_x
_atom_site_fract_y
_atom_site_fract_z
Si Si1 0.312560 0.829773 0.386586
Si Si2 0.301060 0.158473 0.844196
Si Si3 0.095439 0.773724 0.681785
Si Si4 0.160167 0.168512 0.123472
Si Si5 0.730369 0.607533 0.726318
Si Si6 0.433540 0.356299 0.027775
Si Si7 0.450563 0.857541 0.832515
Si Si8 0.764138 0.072274 0.000941
O O1 0.513916 0.721187 0.720176
O O2 0.018999 0.825752 0.307106
O O3 0.384148 0.989668 0.152253
O O4 0.267234 0.812867 0.290713
O O5 0.332724 0.269428 0.587869
O O6 0.444560 0.191180 0.941093
O O7 0.847088 0.687260 0.721803
O O8 0.996390 0.934790 0.324863
O O9 0.329306 0.708006 0.828697
O O10 0.215846 0.783864 0.814473
O O11 0.180221 0.305851 0.955936
O O12 0.311992 0.174210 0.083636
O O13 0.330773 0.027357 0.487676
O O14 0.867486 0.135622 0.027127
O O15 0.487983 0.517840 0.785065
O O16 0.000000 0.500000 0.000000
O O17 0.500000 0.000000 0.000000
#
# Coordination Sequence:
#
# PCOD9071905 Si02
#       8
#     2   2   2   2   2   2   2   2
#     4  11  18  29  50  77  99 127 171 207 241 296
#     4  11  17  28  50  80 103 126 167 204 252 301
#     4   9  17  32  49  75 103 132 158 201 258 293
#     4   9  17  30  47  74 104 129 162 204 260 292
#     4  10  18  30  47  80 110 130 154 199 263 310
#     4  10  18  32  54  79 105 129 156 206 266 300
#     4   9  16  26  50  74 101 128 155 208 257 294
#     4  11  21  33  51  74 101 134 172 211 243 288
#
# _framework density 22.727606000000002
#
# number of rings (size 3 to 8) (size 9 to 14) (size 15 to 20)
#    0.000    2.000    6.250    1.500    0.000    0.000 
#    0.000    7.500    0.000    1.500    0.000    0.000 
#    0.000    0.000    0.000    0.000    0.000    0.000 
#
# Total GULP energy -89305.623612 kJ/mol
# GULP energy per Si atom -5581.601476 kJ/mol
# Density = 2.267588 g / cm^3
# Si number density = 22.727606 Si / 1000 Ang^3
#
#
#
# Elastic Constant Matrix: (Units=GPa)
#
#
# Indices 1 2 3 4 5 6 
#
# 1 17.2879 20.4668 14.7660 5.1701 0.6045 5.9492
# 2 20.4668 222.0389 69.6397 4.3216 -25.8827 -8.6254
# 3 14.7660 69.6397 96.4408 -2.7414 -22.1467 0.4415
# 4 5.1701 4.3216 -2.7414 38.5260 -5.1236 -6.9646
# 5 0.6045 -25.8827 -22.1467 -5.1236 27.8734 2.7948
# 6 5.9492 -8.6254 0.4415 -6.9646 2.7948 23.8119
#
#
#
# Elastic Compliance Matrix: (Units=1/GPa)
#
#
# Indices 1 2 3 4 5 6 
#
# 1 0.097434 -0.007625 -0.014941 -0.021741 -0.021992 -0.030605
# 2 -0.007625 0.006663 -0.002697 0.001399 0.004035 0.004304
# 3 -0.014941 -0.002697 0.017657 0.005718 0.012637 0.002617
# 4 -0.021741 0.001399 0.005718 0.033159 0.010980 0.014242
# 5 -0.021992 0.004035 0.012637 0.010980 0.051773 0.003857
# 6 -0.030605 0.004304 0.002617 0.014242 0.003857 0.054866
#
#
# Mechanical properties :
#
#
# Convention : Reuss Voigt Hill
#
# Bulk Modulus (GPa) = 14.03918 60.61253 37.32586
# Shear Modulus (GPa) = 14.88900 33.43528 24.16214
#
# Velocity S-wave (km/s) = 2.56228 3.83969 3.26409
# Velocity P-wave (km/s) = 3.86578 6.81063 5.53755
#
# Compressibility (1/GPa) = 0.07122922
#
# Stress axis : x y z
#
# Youngs Moduli (GPa) = 10.26334 150.08809 56.63548
#
# Poissons Ratio (x) = 1.14436 0.84616
# Poissons Ratio (y) = 0.07825 0.15276
# Poissons Ratio (z) = 0.15334 0.40481
#
# Static dielectric constant tensor:
#      x y z
#    x 1.934980 0.010710 0.021260 
#    y 0.010710 1.915260 -0.023490 
#    z 0.021260 -0.023490 1.813260 
# 
# From -- ./inp_files/276689.got.cif
#   From: 2010.05.17/outbox.cif.g08.bks.cpg/sg2_139_cif.got.tgz:276689.got - 2010.06.03 11:33:40.
