data_PCOD9071956
_publ_section_title
;
Structure prediction by ZEFSAII (Michael W. Deem and Ramdas Pophale) SiO2 
 PCOD9071956
Probable space group: P -1
;
_chemical_formula_sum "Si O2"
_cell_formula_units_Z 15
_cell_length_a 18.000000
_cell_length_b 15.000000
_cell_length_c 12.000000
_cell_angle_alpha 130.000000
_cell_angle_beta 30.000000
_cell_angle_gamma 150.000000
_cell_volume 731.734496
_symmetry_space_group_name_H-M "P -1"
_symmetry_group_IT_number 2
_symmetry_cell_setting 'triclinic'
loop_
_space_group_symop_operation_xyz
x,y,z
-x,-y,-z
loop_
_atom_site_type_symbol
_atom_site_label
_atom_site_fract_x
_atom_site_fract_y
_atom_site_fract_z
Si Si1 0.000000 0.500000 0.000000
Si Si2 0.136039 0.704360 0.310084
Si Si3 0.974732 0.872445 0.349094
Si Si4 0.283236 0.577816 0.901124
Si Si5 0.246081 0.371055 0.158382
Si Si6 0.417812 0.435225 0.738924
Si Si7 0.807382 0.904654 0.386105
Si Si8 0.662835 0.093657 0.031093
O O1 0.747253 0.257717 0.123831
O O2 0.114643 0.487169 0.938914
O O3 0.194387 0.794252 0.183370
O O4 0.875398 0.587160 0.602336
O O5 0.162246 0.583233 0.157177
O O6 0.368295 0.891921 0.234499
O O7 0.721336 0.637721 0.515381
O O8 0.940638 0.898028 0.290091
O O9 0.216648 0.946299 0.109219
O O10 0.000000 0.000000 0.500000
O O11 0.326923 0.474120 0.799366
O O12 0.567352 0.801817 0.684437
O O13 0.500000 0.500000 0.000000
O O14 0.316038 0.411740 0.970979
O O15 0.017196 0.133756 0.276278
O O16 0.312581 0.244051 0.680541
#
# Coordination Sequence:
#
# PCOD9071956 Si02
#       8
#     1   2   2   2   2   2   2   2
#     4  10  18  30  56  86 114 140 184 242 292 344
#     4  10  21  36  57  83 118 154 193 245 297 348
#     4  11  20  35  63  91 115 148 200 251 288 345
#     4  10  21  39  64  91 115 150 199 249 297 342
#     4  12  25  41  60  85 121 164 203 240 296 364
#     4  11  23  39  60  89 126 160 193 243 301 356
#     4  11  22  40  63  88 120 158 199 247 299 350
#     4  10  18  33  56  86 113 145 194 246 292 338
#
# _framework density 20.499238999999999
#
# number of rings (size 3 to 8) (size 9 to 14) (size 15 to 20)
#    0.000    1.333    0.000   10.000    0.000    1.600 
#    0.000    2.667    0.000    4.800    0.000    0.000 
#    0.000    0.000    0.000    0.000    0.000    0.000 
#
# Total GULP energy -83535.997279 kJ/mol
# GULP energy per Si atom -5569.066485 kJ/mol
# Density = 2.045258 g / cm^3
# Si number density = 20.499239 Si / 1000 Ang^3
#
#
#
# Elastic Constant Matrix: (Units=GPa)
#
#
# Indices 1 2 3 4 5 6 
#
# 1 72.0377 1.0990 16.3916 -12.6878 -19.6043 11.0284
# 2 1.0990 86.6607 13.8834 4.2889 -11.2316 10.7025
# 3 16.3916 13.8834 97.7358 7.5507 -13.9170 0.8859
# 4 -12.6878 4.2889 7.5507 29.7882 -0.3515 -3.3015
# 5 -19.6043 -11.2316 -13.9170 -0.3515 32.3178 -4.1312
# 6 11.0284 10.7025 0.8859 -3.3015 -4.1312 22.9873
#
#
#
# Elastic Compliance Matrix: (Units=1/GPa)
#
#
# Indices 1 2 3 4 5 6 
#
# 1 0.019973 0.002078 -0.002668 0.008201 0.010842 -0.007320
# 2 0.002078 0.013175 -0.001436 -0.001314 0.004378 -0.006478
# 3 -0.002668 -0.001436 0.011583 -0.003662 0.003025 0.001520
# 4 0.008201 -0.001314 -0.003662 0.038561 0.003748 0.003030
# 5 0.010842 0.004378 0.003025 0.003748 0.040442 0.000450
# 6 -0.007320 -0.006478 0.001520 0.003030 0.000450 0.050487
#
#
# Mechanical properties :
#
#
# Convention : Reuss Voigt Hill
#
# Bulk Modulus (GPa) = 24.58381 35.46471 30.02426
# Shear Modulus (GPa) = 26.06414 32.02267 29.04341
#
# Velocity S-wave (km/s) = 3.56963 3.95668 3.76813
# Velocity P-wave (km/s) = 5.38594 6.18157 5.79742
#
# Compressibility (1/GPa) = 0.04067717
#
# Stress axis : x y z
#
# Youngs Moduli (GPa) = 50.06847 75.89860 86.33350
#
# Poissons Ratio (x) = -0.15768 0.23035
# Poissons Ratio (y) = -0.10402 0.12400
# Poissons Ratio (z) = 0.13359 0.10901
#
# Static dielectric constant tensor:
#      x y z
#    x 1.744780 -0.014110 0.003120 
#    y -0.014110 1.778470 0.049570 
#    z 0.003120 0.049570 1.735200 
# 
# From -- ./inp_files/392054.got.cif
#   From: 2010.05.17/outbox.ucp.g08.bks.cvg/sg2_197_cif.got.tgz:392054.got - 2010.06.11 11:32:03.
