data_PCOD9071343
_publ_section_title
;
Structure prediction by ZEFSAII (Michael W. Deem and Ramdas Pophale) SiO2 
 PCOD9071343
Probable space group: P -1
;
_chemical_formula_sum "Si O2"
_cell_formula_units_Z 16
_cell_length_a 9.687413
_cell_length_b 7.913004
_cell_length_c 11.614454
_cell_angle_alpha 55.513295
_cell_angle_beta 62.455032
_cell_angle_gamma 85.407117
_cell_volume 630.225867
_symmetry_space_group_name_H-M "P -1"
_symmetry_group_IT_number 2
_symmetry_cell_setting 'triclinic'
loop_
_space_group_symop_operation_xyz
x,y,z
-x,-y,-z
loop_
_atom_site_type_symbol
_atom_site_label
_atom_site_fract_x
_atom_site_fract_y
_atom_site_fract_z
Si Si1 0.749726 0.906436 0.017535
Si Si2 0.892706 0.382767 0.484837
Si Si3 0.610635 0.761370 0.695922
Si Si4 0.224324 0.866133 0.659641
Si Si5 0.872864 0.914410 0.713189
Si Si6 0.275307 0.768331 0.913767
Si Si7 0.451394 0.563198 0.366116
Si Si8 0.931084 0.582806 0.151267
O O1 0.590556 0.741110 0.185824
O O2 0.889930 0.800724 0.050276
O O3 0.743132 0.121953 0.000795
O O4 0.773271 0.923572 0.865342
O O5 0.705596 0.351121 0.591196
O O6 0.935679 0.537919 0.300904
O O7 0.000000 0.500000 0.500000
O O8 0.918715 0.149826 0.551032
O O9 0.343156 0.002628 0.468789
O O10 0.755946 0.759716 0.728446
O O11 0.443727 0.711660 0.849627
O O12 0.596599 0.619535 0.641955
O O13 0.270147 0.931459 0.747641
O O14 0.213417 0.615945 0.754498
O O15 0.042343 0.873814 0.700910
O O16 0.108759 0.588819 0.033509
O O17 0.500000 0.500000 0.500000
#
# Coordination Sequence:
#
# PCOD9071343 Si02
#       8
#     2   2   2   2   2   2   2   2
#     4  12  27  49  78 111 153 202 256 314 375 453
#     4  12  27  47  78 113 153 201 253 312 382 451
#     4  12  28  49  75 116 154 200 249 322 383 446
#     4  12  26  48  77 109 154 201 253 310 377 457
#     4  12  28  50  75 112 159 200 250 316 386 445
#     4  12  27  46  80 112 150 197 260 313 375 450
#     4  12  27  50  81 111 153 202 258 311 380 461
#     4  12  26  48  79 110 150 201 259 306 373 456
#
# _framework density 25.387723000000001
#
# number of rings (size 3 to 8) (size 9 to 14) (size 15 to 20)
#    0.000    0.000    3.750    5.250    5.250    3.500 
#    0.000    0.000    0.000    0.000    0.000    0.000 
#    0.000    0.000    0.000    0.000    0.000    0.000 
#
# Total GULP energy -89684.248768 kJ/mol
# GULP energy per Si atom -5605.265548 kJ/mol
# Density = 2.532994 g / cm^3
# Si number density = 25.387723 Si / 1000 Ang^3
#
#
#
# Elastic Constant Matrix: (Units=GPa)
#
#
# Indices 1 2 3 4 5 6 
#
# 1 135.3795 12.0468 15.6971 10.3396 -2.4676 -8.4449
# 2 12.0468 97.5830 4.9081 11.1269 9.2487 15.6761
# 3 15.6971 4.9081 102.5867 32.1049 -12.9684 5.3695
# 4 10.3396 11.1269 32.1049 48.5829 9.3936 5.1345
# 5 -2.4676 9.2487 -12.9684 9.3936 52.2743 10.6544
# 6 -8.4449 15.6761 5.3695 5.1345 10.6544 47.5479
#
#
#
# Elastic Compliance Matrix: (Units=1/GPa)
#
#
# Indices 1 2 3 4 5 6 
#
# 1 0.007793 -0.001123 -0.000898 -0.001039 0.000136 0.001937
# 2 -0.001123 0.011250 0.000340 -0.002019 -0.000876 -0.003532
# 3 -0.000898 0.000340 0.013736 -0.009812 0.005474 -0.001990
# 4 -0.001039 -0.002019 -0.009812 0.029169 -0.007387 0.000095
# 5 0.000136 -0.000876 0.005474 -0.007387 0.022923 -0.004644
# 6 0.001937 -0.003532 -0.001990 0.000095 -0.004644 0.023795
#
#
# Mechanical properties :
#
#
# Convention : Reuss Voigt Hill
#
# Bulk Modulus (GPa) = 33.99348 44.53923 39.26636
# Shear Modulus (GPa) = 41.03951 49.87417 45.45684
#
# Velocity S-wave (km/s) = 4.02495 4.43708 4.23603
# Velocity P-wave (km/s) = 5.91769 6.62057 6.27897
#
# Compressibility (1/GPa) = 0.02941740
#
# Stress axis : x y z
#
# Youngs Moduli (GPa) = 128.31476 88.88940 72.80300
#
# Poissons Ratio (x) = 0.09978 0.06536
# Poissons Ratio (y) = 0.14404 -0.02472
# Poissons Ratio (z) = 0.11520 -0.03019
#
# Static dielectric constant tensor:
#      x y z
#    x 2.003670 -0.004020 0.039160 
#    y -0.004020 2.109490 -0.010700 
#    z 0.039160 -0.010700 2.005040 
# 
# From -- ./inp_files/381017.got.cif
#   From: 2010.05.17/outbox.cif.g08.bks.cpg/sg2_191_cif.got.tgz:381017.got - 2010.06.03 11:33:40.
