data_PCOD9071439
_publ_section_title
;
Structure prediction by ZEFSAII (Michael W. Deem and Ramdas Pophale) SiO2 
 PCOD9071439
Probable space group: P -1
;
_chemical_formula_sum "Si O2"
_cell_formula_units_Z 11
_cell_length_a 15.218251
_cell_length_b 8.975212
_cell_length_c 9.303198
_cell_angle_alpha 32.149844
_cell_angle_beta 47.887503
_cell_angle_gamma 43.847974
_cell_volume 462.178352
_symmetry_space_group_name_H-M "P -1"
_symmetry_group_IT_number 2
_symmetry_cell_setting 'triclinic'
loop_
_space_group_symop_operation_xyz
x,y,z
-x,-y,-z
loop_
_atom_site_type_symbol
_atom_site_label
_atom_site_fract_x
_atom_site_fract_y
_atom_site_fract_z
Si Si1 0.316374 0.708871 0.665579
Si Si2 0.469662 0.344424 0.297666
Si Si3 0.091977 0.172330 0.724337
Si Si4 0.258425 0.123995 0.135045
Si Si5 0.777135 0.634103 0.319429
Si Si6 0.000000 0.000000 0.500000
O O1 0.439018 0.643006 0.684020
O O2 0.197704 0.982976 0.646701
O O3 0.335382 0.836044 0.385705
O O4 0.276968 0.419837 0.936450
O O5 0.322218 0.470452 0.402980
O O6 0.500000 0.000000 0.500000
O O7 0.500000 0.500000 0.000000
O O8 0.161996 0.209107 0.761651
O O9 0.000000 0.500000 0.500000
O O10 0.000000 0.000000 0.000000
O O11 0.112861 0.141609 0.280572
O O12 0.293504 0.138178 0.918042
O O13 0.887242 0.337234 0.375687
#
# Coordination Sequence:
#
# PCOD9071439 Si02
#       6
#     2   2   2   2   2   1
#     4  12  26  52  75 115 155 202 265 324 379 469
#     4  12  29  53  81 115 155 207 265 323 389 460
#     4  12  28  44  77 113 151 207 261 318 383 456
#     4  12  28  49  79 114 160 203 254 325 395 460
#     4  12  29  50  84 113 161 207 259 324 395 465
#     4  12  26  50  74 120 160 202 252 314 404 456
#
# _framework density 23.800336000000001
#
# number of rings (size 3 to 8) (size 9 to 14) (size 15 to 20)
#    0.000    0.000    3.636    4.909   10.182    1.455 
#    0.000    0.000    0.000    0.000    0.000    0.000 
#    0.000    0.000    0.000    0.000    0.000    0.000 
#
# Total GULP energy -61451.129816 kJ/mol
# GULP energy per Si atom -5586.466347 kJ/mol
# Density = 2.374617 g / cm^3
# Si number density = 23.800336 Si / 1000 Ang^3
#
#
#
# Elastic Constant Matrix: (Units=GPa)
#
#
# Indices 1 2 3 4 5 6 
#
# 1 169.7695 24.7035 98.8456 15.3822 -24.7755 22.1205
# 2 24.7035 51.0931 38.8427 -5.2019 -4.4882 10.8153
# 3 98.8456 38.8427 198.1359 -13.0189 -9.5379 10.4204
# 4 15.3822 -5.2019 -13.0189 32.8119 15.0480 -11.6850
# 5 -24.7755 -4.4882 -9.5379 15.0480 52.4609 -3.0295
# 6 22.1205 10.8153 10.4204 -11.6850 -3.0295 35.9413
#
#
#
# Elastic Compliance Matrix: (Units=1/GPa)
#
#
# Indices 1 2 3 4 5 6 
#
# 1 0.015558 0.000138 -0.007899 -0.020011 0.010918 -0.012912
# 2 0.000138 0.024265 -0.004491 -0.000761 0.001183 -0.006232
# 3 -0.007899 -0.004491 0.010036 0.011776 -0.005282 0.006687
# 4 -0.020011 -0.000761 0.011776 0.065833 -0.024615 0.028459
# 5 0.010918 0.001183 -0.005282 -0.024615 0.029782 -0.011036
# 6 -0.012912 -0.006232 0.006687 0.028459 -0.011036 0.044029
#
#
# Mechanical properties :
#
#
# Convention : Reuss Voigt Hill
#
# Bulk Modulus (GPa) = 39.43992 82.64244 61.04118
# Shear Modulus (GPa) = 22.47593 41.34995 31.91294
#
# Velocity S-wave (km/s) = 3.07637 4.17270 3.66575
# Velocity P-wave (km/s) = 5.40609 7.61668 6.60453
#
# Compressibility (1/GPa) = 0.02535502
#
# Stress axis : x y z
#
# Youngs Moduli (GPa) = 64.27506 41.21087 99.64269
#
# Poissons Ratio (x) = -0.00567 0.78706
# Poissons Ratio (y) = -0.00884 0.44749
# Poissons Ratio (z) = 0.50770 0.18508
#
# Static dielectric constant tensor:
#      x y z
#    x 1.874740 0.027800 0.038430 
#    y 0.027800 1.988490 -0.008670 
#    z 0.038430 -0.008670 1.880200 
# 
# From -- ./inp_files/293703.got.cif
#   From: 2010.05.17/outbox.cif.g08.bks.cpg/sg2_147_cif.got.tgz:293703.got - 2010.06.03 11:33:40.
