data_PCOD9071014
_publ_section_title
;
Structure prediction by ZEFSAII (Michael W. Deem and Ramdas Pophale) SiO2 
 PCOD9071014
Probable space group: P -1
;
_chemical_formula_sum "Si O2"
_cell_formula_units_Z 16
_cell_length_a 21.304036
_cell_length_b 16.287384
_cell_length_c 6.428551
_cell_angle_alpha 128.979349
_cell_angle_beta 48.343657
_cell_angle_gamma 145.353931
_cell_volume 929.543035
_symmetry_space_group_name_H-M "P -1"
_symmetry_group_IT_number 2
_symmetry_cell_setting 'triclinic'
loop_
_space_group_symop_operation_xyz
x,y,z
-x,-y,-z
loop_
_atom_site_type_symbol
_atom_site_label
_atom_site_fract_x
_atom_site_fract_y
_atom_site_fract_z
Si Si1 0.618757 0.992296 0.159083
Si Si2 0.219182 0.209382 0.296984
Si Si3 0.438799 0.701929 0.804804
Si Si4 0.366016 0.290556 0.718369
Si Si5 0.725383 0.597093 0.132507
Si Si6 0.947244 0.846079 0.774744
Si Si7 0.187614 0.001822 0.358505
Si Si8 0.539361 0.111780 0.277132
O O1 0.570378 0.952326 0.437242
O O2 0.619619 0.111300 0.251965
O O3 0.522574 0.843825 0.997451
O O4 0.739179 0.035715 0.931651
O O5 0.260183 0.330793 0.566089
O O6 0.121587 0.176352 0.314017
O O7 0.174079 0.069754 0.303027
O O8 0.324547 0.263529 0.003296
O O9 0.514489 0.666442 0.511743
O O10 0.329657 0.564042 0.956289
O O11 0.410107 0.744003 0.728471
O O12 0.360577 0.403217 0.814420
O O13 0.266658 0.135726 0.565936
O O14 0.849879 0.710472 0.922958
O O15 0.058704 0.870766 0.523015
O O16 0.000000 0.000000 0.000000
O O17 0.500000 0.000000 0.000000
#
# Coordination Sequence:
#
# PCOD9071014 Si02
#       8
#     2   2   2   2   2   2   2   2
#     4   9  19  34  54  75  98 124 157 205 253 288
#     4  10  18  29  47  69  97 134 168 198 241 273
#     4  10  19  32  49  72 103 129 161 196 243 301
#     4   9  18  30  45  70 101 132 163 199 234 287
#     4  10  21  30  44  72 101 138 166 194 237 282
#     4  11  19  33  47  67 102 135 170 205 228 276
#     4  10  18  30  50  73  95 130 168 203 238 280
#     4   9  18  34  53  76  97 121 158 203 251 299
#
# _framework density 17.212758999999998
#
# number of rings (size 3 to 8) (size 9 to 14) (size 15 to 20)
#    0.000    2.250    3.750    1.500    0.000    2.500 
#    0.000    0.000    0.000    0.750    0.000    8.750 
#    0.000    0.000    0.000    0.000    0.000    0.000 
#
# Total GULP energy -89202.668823 kJ/mol
# GULP energy per Si atom -5575.166801 kJ/mol
# Density = 1.717358 g / cm^3
# Si number density = 17.212759 Si / 1000 Ang^3
#
#
#
# Elastic Constant Matrix: (Units=GPa)
#
#
# Indices 1 2 3 4 5 6 
#
# 1 44.5706 44.6927 35.7292 -15.5394 -5.7486 -7.1558
# 2 44.6927 88.4129 29.1151 -29.5885 -9.7473 -17.9284
# 3 35.7292 29.1151 102.6928 -22.5992 -7.6494 -4.1104
# 4 -15.5394 -29.5885 -22.5992 19.4360 0.0082 1.8362
# 5 -5.7486 -9.7473 -7.6494 0.0082 31.9245 -3.5724
# 6 -7.1558 -17.9284 -4.1104 1.8362 -3.5724 18.3138
#
#
#
# Elastic Compliance Matrix: (Units=1/GPa)
#
#
# Indices 1 2 3 4 5 6 
#
# 1 0.063961 -0.041299 -0.018866 -0.031971 -0.007613 -0.017952
# 2 -0.041299 0.068056 0.017880 0.086611 0.023239 0.050350
# 3 -0.018866 0.017880 0.019838 0.033992 0.008237 0.012783
# 4 -0.031971 0.086611 0.033992 0.190837 0.036380 0.067888
# 5 -0.007613 0.023239 0.008237 0.036380 0.041940 0.026157
# 6 -0.017952 0.050350 0.012783 0.067888 0.026157 0.098045
#
#
# Mechanical properties :
#
#
# Convention : Reuss Voigt Hill
#
# Bulk Modulus (GPa) = 14.86184 50.52781 32.69483
# Shear Modulus (GPa) = 8.47924 22.34414 15.41169
#
# Velocity S-wave (km/s) = 2.22190 3.60684 2.99551
# Velocity P-wave (km/s) = 3.90325 6.83845 5.56775
#
# Compressibility (1/GPa) = 0.06728640
#
# Stress axis : x y z
#
# Youngs Moduli (GPa) = 15.63444 14.69369 50.40797
#
# Poissons Ratio (x) = 0.60683 0.95100
# Poissons Ratio (y) = 0.64568 -0.90130
# Poissons Ratio (z) = 0.29496 -0.26273
#
# Static dielectric constant tensor:
#      x y z
#    x 1.599420 -0.011950 0.004140 
#    y -0.011950 1.595740 -0.006350 
#    z 0.004140 -0.006350 1.605510 
# 
# From -- ./inp_files/66245.got.cif
#   From: 2010.05.17/outbox.cif.g08.bks.cpg/sg2_34_cif.got.tgz:66245.got - 2010.06.03 11:33:40.
