data_PCOD9071019
_publ_section_title
;
Structure prediction by ZEFSAII (Michael W. Deem and Ramdas Pophale) SiO2 
 PCOD9071019
Probable space group: P -1
;
_chemical_formula_sum "Si O2"
_cell_formula_units_Z 14
_cell_length_a 8.140987
_cell_length_b 9.063890
_cell_length_c 9.254261
_cell_angle_alpha 78.575042
_cell_angle_beta 76.726036
_cell_angle_gamma 58.652326
_cell_volume 565.056321
_symmetry_space_group_name_H-M "P -1"
_symmetry_group_IT_number 2
_symmetry_cell_setting 'triclinic'
loop_
_space_group_symop_operation_xyz
x,y,z
-x,-y,-z
loop_
_atom_site_type_symbol
_atom_site_label
_atom_site_fract_x
_atom_site_fract_y
_atom_site_fract_z
Si Si1 0.611076 0.823793 0.105307
Si Si2 0.321436 0.374703 0.157571
Si Si3 0.935969 0.956532 0.372050
Si Si4 0.974926 0.243353 0.870160
Si Si5 0.270822 0.693482 0.806904
Si Si6 0.609354 0.589335 0.380770
Si Si7 0.680301 0.813092 0.541081
O O1 0.513149 0.761747 0.261876
O O2 0.796856 0.823824 0.140637
O O3 0.676869 0.676185 0.998128
O O4 0.500000 0.000000 0.000000
O O5 0.133325 0.556631 0.192441
O O6 0.511991 0.387646 0.157779
O O7 0.326011 0.224312 0.283051
O O8 0.866644 0.823522 0.457039
O O9 0.064450 0.866031 0.221673
O O10 0.768009 0.139586 0.309996
O O11 0.000000 0.000000 0.500000
O O12 0.877895 0.245102 0.042262
O O13 0.250239 0.562607 0.727696
O O14 0.500000 0.500000 0.500000
O O15 0.685219 0.656105 0.482937
O O16 0.500000 0.000000 0.500000
#
# Coordination Sequence:
#
# PCOD9071019 Si02
#       7
#     2   2   2   2   2   2   2
#     4  12  27  50  83 115 164 216 264 327 407 478
#     4  12  26  47  82 109 159 211 262 327 398 473
#     4  12  29  50  77 116 160 205 265 333 404 473
#     4  12  28  51  76 118 156 205 271 326 395 483
#     4  12  27  52  76 118 158 210 262 329 400 476
#     4  12  25  48  85 117 160 208 273 327 398 476
#     4  12  25  50  78 113 160 209 269 331 403 474
#
# _framework density 24.776294
#
# number of rings (size 3 to 8) (size 9 to 14) (size 15 to 20)
#    0.000    0.000    5.714    3.000    4.000    1.714 
#    0.000    0.000    0.000    0.000    0.000    0.000 
#    0.000    0.000    0.000    0.000    0.000    0.000 
#
# Total GULP energy -78360.228296 kJ/mol
# GULP energy per Si atom -5597.159164 kJ/mol
# Density = 2.471990 g / cm^3
# Si number density = 24.776294 Si / 1000 Ang^3
#
#
#
# Elastic Constant Matrix: (Units=GPa)
#
#
# Indices 1 2 3 4 5 6 
#
# 1 95.3083 36.7153 46.6241 -0.8843 5.8841 17.0363
# 2 36.7153 117.0777 48.2068 -3.0378 7.0639 15.1390
# 3 46.6241 48.2068 188.7680 -5.5526 1.5622 15.9042
# 4 -0.8843 -3.0378 -5.5526 75.6763 16.9689 13.0546
# 5 5.8841 7.0639 1.5622 16.9689 37.6716 -2.5698
# 6 17.0363 15.1390 15.9042 13.0546 -2.5698 43.9623
#
#
#
# Elastic Compliance Matrix: (Units=1/GPa)
#
#
# Indices 1 2 3 4 5 6 
#
# 1 0.013468 -0.002610 -0.002277 0.001077 -0.002274 -0.003949
# 2 -0.002610 0.010582 -0.001797 0.001181 -0.002202 -0.002462
# 3 -0.002277 -0.001797 0.006414 0.000508 0.000132 -0.000962
# 4 0.001077 0.001181 0.000508 0.016226 -0.008149 -0.006302
# 5 -0.002274 -0.002202 0.000132 -0.008149 0.031377 0.005846
# 6 -0.003949 -0.002462 -0.000962 -0.006302 0.005846 0.027686
#
#
# Mechanical properties :
#
#
# Convention : Reuss Voigt Hill
#
# Bulk Modulus (GPa) = 58.49669 73.80516 66.15093
# Shear Modulus (GPa) = 40.05786 49.43591 44.74688
#
# Velocity S-wave (km/s) = 4.02528 4.47171 4.25436
# Velocity P-wave (km/s) = 6.72793 7.51764 7.13372
#
# Compressibility (1/GPa) = 0.01709498
#
# Stress axis : x y z
#
# Youngs Moduli (GPa) = 74.25100 94.50279 155.91552
#
# Poissons Ratio (x) = 0.24668 0.35496
# Poissons Ratio (y) = 0.19381 0.28022
# Poissons Ratio (z) = 0.16904 0.16985
#
# Static dielectric constant tensor:
#      x y z
#    x 1.516710 0.496670 0.233870 
#    y 0.496670 1.382400 -0.299080 
#    z 0.233870 -0.299080 1.823230 
# 
# From -- ./inp_files/158020.got.cif
#   From: 2010.05.17/outbox.cif.g08.bks.cpg/sg2_80_cif.got.tgz:158020.got - 2010.06.03 11:33:40.
