data_PCOD9071335
_publ_section_title
;
Structure prediction by ZEFSAII (Michael W. Deem and Ramdas Pophale) SiO2 
 PCOD9071335
Probable space group: P -1
;
_chemical_formula_sum "Si O2"
_cell_formula_units_Z 12
_cell_length_a 9.900059
_cell_length_b 14.324174
_cell_length_c 9.617238
_cell_angle_alpha 73.465594
_cell_angle_beta 107.127126
_cell_angle_gamma 42.148956
_cell_volume 542.674334
_symmetry_space_group_name_H-M "P -1"
_symmetry_group_IT_number 2
_symmetry_cell_setting 'triclinic'
loop_
_space_group_symop_operation_xyz
x,y,z
-x,-y,-z
loop_
_atom_site_type_symbol
_atom_site_label
_atom_site_fract_x
_atom_site_fract_y
_atom_site_fract_z
Si Si1 0.419652 0.280069 0.551626
Si Si2 0.283623 0.216443 0.920007
Si Si3 0.201531 0.842848 0.490720
Si Si4 0.631674 0.950813 0.709495
Si Si5 0.648899 0.402547 0.933666
Si Si6 0.661975 0.169613 0.965719
O O1 0.585583 0.201328 0.487866
O O2 0.656106 0.157696 0.803830
O O3 0.091253 0.546848 0.343348
O O4 0.377751 0.189967 0.586058
O O5 0.406304 0.249081 0.911527
O O6 0.319081 0.165542 0.114524
O O7 0.500000 0.000000 0.000000
O O8 0.438216 0.607598 0.693854
O O9 0.000000 0.000000 0.500000
O O10 0.971194 0.955131 0.246277
O O11 0.500000 0.000000 0.500000
O O12 0.980393 0.789286 0.873778
O O13 0.604940 0.319016 0.908868
O O14 0.500000 0.500000 0.000000
#
# Coordination Sequence:
#
# PCOD9071335 Si02
#       6
#     2   2   2   2   2   2
#     4  12  27  50  74 112 150 198 258 307 375 451
#     4  12  29  50  74 112 152 199 253 308 382 446
#     4  12  26  48  76 111 151 196 253 310 376 443
#     4  12  29  48  78 108 152 200 250 312 380 444
#     4  12  27  48  75 112 150 196 253 309 375 444
#     4  12  28  45  81 108 152 198 252 312 373 445
#
# _framework density 22.112708999999999
#
# number of rings (size 3 to 8) (size 9 to 14) (size 15 to 20)
#    0.000    0.000    6.667    1.000    9.333    1.333 
#    0.000    0.000    0.000    0.000    0.000    0.000 
#    0.000    0.000    0.000    0.000    0.000    0.000 
#
# Total GULP energy -67093.773525 kJ/mol
# GULP energy per Si atom -5591.147794 kJ/mol
# Density = 2.206238 g / cm^3
# Si number density = 22.112709 Si / 1000 Ang^3
#
#
#
# Elastic Constant Matrix: (Units=GPa)
#
#
# Indices 1 2 3 4 5 6 
#
# 1 140.5367 48.6061 46.7786 5.4885 -20.1960 -3.1751
# 2 48.6061 105.5618 62.9536 6.8978 -3.7701 5.8690
# 3 46.7786 62.9536 179.5851 -1.5254 -30.3908 16.4771
# 4 5.4885 6.8978 -1.5254 47.0506 1.9071 -1.3425
# 5 -20.1960 -3.7701 -30.3908 1.9071 41.2526 2.9315
# 6 -3.1751 5.8690 16.4771 -1.3425 2.9315 48.1108
#
#
#
# Elastic Compliance Matrix: (Units=1/GPa)
#
#
# Indices 1 2 3 4 5 6 
#
# 1 0.009187 -0.003793 -0.000532 -0.000655 0.003718 0.001006
# 2 -0.003793 0.013898 -0.004527 -0.001592 -0.003834 -0.000206
# 3 -0.000532 -0.004527 0.008527 0.000690 0.005770 -0.002736
# 4 -0.000655 -0.001592 0.000690 0.021643 -0.000999 0.000579
# 5 0.003718 -0.003834 0.005770 -0.000999 0.030231 -0.003133
# 6 0.001006 -0.000206 -0.002736 0.000579 -0.003133 0.022021
#
#
# Mechanical properties :
#
#
# Convention : Reuss Voigt Hill
#
# Bulk Modulus (GPa) = 71.90446 82.48448 77.19447
# Shear Modulus (GPa) = 39.10865 45.10582 42.10724
#
# Velocity S-wave (km/s) = 4.21004 4.52133 4.36846
# Velocity P-wave (km/s) = 7.49803 8.03986 7.77367
#
# Compressibility (1/GPa) = 0.01390734
#
# Stress axis : x y z
#
# Youngs Moduli (GPa) = 108.84649 71.95100 117.26832
#
# Poissons Ratio (x) = 0.27294 0.06240
# Poissons Ratio (y) = 0.41289 0.53092
# Poissons Ratio (z) = 0.05792 0.32575
#
# Static dielectric constant tensor:
#      x y z
#    x 1.883690 -0.028490 0.008580 
#    y -0.028490 1.827420 -0.025310 
#    z 0.008580 -0.025310 1.819360 
# 
# From -- ./inp_files/148762.got.cif
#   From: 2010.05.17/outbox.cif.g08.bks.cpg/sg2_75_cif.got.tgz:148762.got - 2010.06.03 11:33:40.
