data_PCOD9071997
_publ_section_title
;
Structure prediction by ZEFSAII (Michael W. Deem and Ramdas Pophale) SiO2 
 PCOD9071997
Probable space group: P -1
;
_chemical_formula_sum "Si O2"
_cell_formula_units_Z 14
_cell_length_a 15.000000
_cell_length_b 12.000000
_cell_length_c 15.000000
_cell_angle_alpha 50.000000
_cell_angle_beta 20.000000
_cell_angle_gamma 50.000000
_cell_volume 699.621350
_symmetry_space_group_name_H-M "P -1"
_symmetry_group_IT_number 2
_symmetry_cell_setting 'triclinic'
loop_
_space_group_symop_operation_xyz
x,y,z
-x,-y,-z
loop_
_atom_site_type_symbol
_atom_site_label
_atom_site_fract_x
_atom_site_fract_y
_atom_site_fract_z
Si Si1 0.512963 0.846341 0.620264
Si Si2 0.898042 0.935995 0.803018
Si Si3 0.389274 0.482400 0.373460
Si Si4 0.657999 0.933088 0.796716
Si Si5 0.251838 0.573779 0.252835
Si Si6 0.060418 0.870578 0.183654
Si Si7 0.135406 0.343660 0.140899
O O1 0.536142 0.695142 0.617466
O O2 0.784184 0.830944 0.428724
O O3 0.500000 0.000000 0.500000
O O4 0.265094 0.861984 0.913323
O O5 0.892026 0.770535 0.856379
O O6 0.997072 0.974691 0.788193
O O7 0.094416 0.000370 0.513454
O O8 0.595470 0.020928 0.051065
O O9 0.320943 0.543919 0.306157
O O10 0.132886 0.548849 0.638150
O O11 0.634748 0.557496 0.139044
O O12 0.772029 0.767404 0.805139
O O13 0.500000 0.000000 0.000000
O O14 0.176831 0.743675 0.209347
O O15 0.000000 0.500000 0.500000
O O16 0.500000 0.500000 0.000000
#
# Coordination Sequence:
#
# PCOD9071997 Si02
#       7
#     2   2   2   2   2   2   2
#     4  12  27  47  67  89 120 168 225 273 316 372
#     4  11  22  36  59  90 130 168 206 249 305 382
#     4  12  23  39  63  92 127 164 205 254 319 373
#     4  10  18  33  52  86 133 174 202 229 292 380
#     4  12  21  37  59  94 135 156 197 254 313 379
#     4  12  23  43  67  95 127 168 211 261 323 378
#     4  11  21  35  58  90 127 165 203 246 302 381
#
# _framework density 20.010824
#
# number of rings (size 3 to 8) (size 9 to 14) (size 15 to 20)
#    0.000    0.571    2.857    9.000    0.000    0.000 
#    0.000    0.000    0.000    5.143    0.000    0.000 
#    0.000    0.000    0.000    0.000    0.000    0.000 
#
# Total GULP energy -78154.854409 kJ/mol
# GULP energy per Si atom -5582.489601 kJ/mol
# Density = 1.996528 g / cm^3
# Si number density = 20.010824 Si / 1000 Ang^3
#
#
#
# Elastic Constant Matrix: (Units=GPa)
#
#
# Indices 1 2 3 4 5 6 
#
# 1 26.9293 34.7895 15.1210 -3.0554 -7.4178 27.2417
# 2 34.7895 151.9907 42.9623 -3.5856 -3.0801 29.8023
# 3 15.1210 42.9623 154.6826 14.7553 -19.2843 25.6438
# 4 -3.0554 -3.5856 14.7553 38.4013 6.3914 -0.4054
# 5 -7.4178 -3.0801 -19.2843 6.3914 28.4525 -8.8871
# 6 27.2417 29.8023 25.6438 -0.4054 -8.8871 44.6539
#
#
#
# Elastic Compliance Matrix: (Units=1/GPa)
#
#
# Indices 1 2 3 4 5 6 
#
# 1 0.128577 -0.017232 0.004542 0.004018 0.012923 -0.066939
# 2 -0.017232 0.010349 -0.002522 0.001282 -0.004038 0.004262
# 3 0.004542 -0.002522 0.008726 -0.004322 0.006269 -0.004891
# 4 0.004018 0.001282 -0.004322 0.029637 -0.009142 -0.002375
# 5 0.012923 -0.004038 0.006269 -0.009142 0.044368 -0.000042
# 6 -0.066939 0.004262 -0.004891 -0.002375 -0.000042 0.063166
#
#
# Mechanical properties :
#
#
# Convention : Reuss Voigt Hill
#
# Bulk Modulus (GPa) = 8.53036 57.70538 33.11787
# Shear Modulus (GPa) = 14.11140 38.35020 26.23080
#
# Velocity S-wave (km/s) = 2.65842 4.38250 3.62447
# Velocity P-wave (km/s) = 3.70068 7.38296 5.83966
#
# Compressibility (1/GPa) = 0.11722830
#
# Stress axis : x y z
#
# Youngs Moduli (GPa) = 7.77744 96.62456 114.60144
#
# Poissons Ratio (x) = 1.66505 -0.52057
# Poissons Ratio (y) = 0.13402 0.28905
# Poissons Ratio (z) = -0.03533 0.24371
#
# Static dielectric constant tensor:
#      x y z
#    x 1.801720 0.015240 -0.040980 
#    y 0.015240 1.734300 -0.012240 
#    z -0.040980 -0.012240 1.698970 
# 
# From -- ./inp_files/123787.got.cif
#   From: 2010.05.17/outbox.ucp.g08.bks.cvg/sg2_62_cif.got.tgz:123787.got - 2010.06.11 11:32:03.
