data_PCOD9071711
_publ_section_title
;
Structure prediction by ZEFSAII (Michael W. Deem and Ramdas Pophale) SiO2 
 PCOD9071711
Probable space group: P -1
;
_chemical_formula_sum "Si O2"
_cell_formula_units_Z 16
_cell_length_a 24.564027
_cell_length_b 5.456632
_cell_length_c 17.512277
_cell_angle_alpha 83.970300
_cell_angle_beta 159.872367
_cell_angle_gamma 85.629385
_cell_volume 690.514786
_symmetry_space_group_name_H-M "P -1"
_symmetry_group_IT_number 2
_symmetry_cell_setting 'triclinic'
loop_
_space_group_symop_operation_xyz
x,y,z
-x,-y,-z
loop_
_atom_site_type_symbol
_atom_site_label
_atom_site_fract_x
_atom_site_fract_y
_atom_site_fract_z
Si Si1 0.562110 0.676420 0.151798
Si Si2 0.077317 0.911989 0.865158
Si Si3 0.537071 0.059640 0.421917
Si Si4 0.126580 0.017990 0.556431
Si Si5 0.191359 0.300080 0.077049
Si Si6 0.181064 0.611893 0.769537
Si Si7 0.490783 0.208830 0.095674
Si Si8 0.416101 0.677472 0.201137
O O1 0.592481 0.388036 0.238259
O O2 0.622446 0.870964 0.269512
O O3 0.602760 0.656223 0.115649
O O4 0.340224 0.896926 0.852190
O O5 0.925267 0.997308 0.597227
O O6 0.097787 0.642067 0.947425
O O7 0.266359 0.785334 0.068936
O O8 0.063384 0.177129 0.884273
O O9 0.707449 0.858663 0.706984
O O10 0.513028 0.862393 0.334239
O O11 0.355199 0.195879 0.232724
O O12 0.542074 0.333807 0.387966
O O13 0.982601 0.332461 0.390761
O O14 0.094337 0.806529 0.574531
O O15 0.331988 0.304829 0.946251
O O16 0.299400 0.718236 0.969878
#
# Coordination Sequence:
#
# PCOD9071711 Si02
#       8
#     2   2   2   2   2   2   2   2
#     4   9  18  32  48  65  88 122 162 198 228 262
#     4   9  17  27  40  61  87 115 149 185 222 270
#     4   9  16  27  42  59  83 115 148 186 232 273
#     4   9  18  31  47  69  99 131 158 187 228 278
#     4   9  16  27  42  59  83 115 148 186 232 273
#     4   9  18  31  47  69  99 131 158 187 228 278
#     4   9  18  32  48  65  88 122 162 198 228 262
#     4   9  17  27  40  61  87 115 149 185 222 270
#
# _framework density 23.171120999999999
#
# number of rings (size 3 to 8) (size 9 to 14) (size 15 to 20)
#    0.000    3.000    0.000    0.750    0.000    7.500 
#    0.000    7.500    0.000    0.000    0.000    0.000 
#    0.000    6.000    0.000    0.000    0.000    0.000 
#
# Total GULP energy -89265.901814 kJ/mol
# GULP energy per Si atom -5579.118863 kJ/mol
# Density = 2.311838 g / cm^3
# Si number density = 23.171121 Si / 1000 Ang^3
#
#
#
# Elastic Constant Matrix: (Units=GPa)
#
#
# Indices 1 2 3 4 5 6 
#
# 1 46.9073 23.5649 28.3361 -2.1484 4.0993 -13.8256
# 2 23.5649 143.4313 11.3179 5.7760 -4.1160 -0.3043
# 3 28.3361 11.3179 41.9653 1.4484 -13.3443 5.7552
# 4 -2.1484 5.7760 1.4484 21.2018 4.3622 -3.6728
# 5 4.0993 -4.1160 -13.3443 4.3622 28.6497 -10.3076
# 6 -13.8256 -0.3043 5.7552 -3.6728 -10.3076 27.2198
#
#
#
# Elastic Compliance Matrix: (Units=1/GPa)
#
#
# Indices 1 2 3 4 5 6 
#
# 1 0.112510 -0.013701 -0.097501 0.042725 -0.046297 0.065842
# 2 -0.013701 0.008874 0.010152 -0.007112 0.006323 -0.007572
# 3 -0.097501 0.010152 0.113406 -0.041564 0.053416 -0.058768
# 4 0.042725 -0.007112 -0.041564 0.066747 -0.026021 0.029562
# 5 -0.046297 0.006323 0.053416 -0.026021 0.066589 -0.013034
# 6 0.065842 -0.007572 -0.058768 0.029562 -0.013034 0.081575
#
#
# Mechanical properties :
#
#
# Convention : Reuss Voigt Hill
#
# Bulk Modulus (GPa) = 30.58946 39.86020 35.22483
# Shear Modulus (GPa) = 7.54494 26.68659 17.11577
#
# Velocity S-wave (km/s) = 1.80645 3.39738 2.72079
# Velocity P-wave (km/s) = 4.19300 5.71222 5.01052
#
# Compressibility (1/GPa) = 0.03269100
#
# Stress axis : x y z
#
# Youngs Moduli (GPa) = 8.88813 112.69413 8.81789
#
# Poissons Ratio (x) = 1.54397 0.85975
# Poissons Ratio (y) = 0.12177 -0.08952
# Poissons Ratio (z) = 0.86660 -1.14408
#
# Static dielectric constant tensor:
#      x y z
#    x 1.896930 -0.001890 0.044910 
#    y -0.001890 2.025940 0.003160 
#    z 0.044910 0.003160 1.874760 
# 
# From -- ./inp_files/79533.got.cif
#   From: 2010.05.17/outbox.cif.g08.bks.cpg/sg2_40_cif.got.tgz:79533.got - 2010.06.03 11:33:40.
