data_PCOD9071720
_publ_section_title
;
Structure prediction by ZEFSAII (Michael W. Deem and Ramdas Pophale) SiO2 
 PCOD9071720
Probable space group: P -1
;
_chemical_formula_sum "Si O2"
_cell_formula_units_Z 16
_cell_length_a 11.256359
_cell_length_b 14.689187
_cell_length_c 9.414931
_cell_angle_alpha 102.840227
_cell_angle_beta 79.505945
_cell_angle_gamma 34.379595
_cell_volume 640.881731
_symmetry_space_group_name_H-M "P -1"
_symmetry_group_IT_number 2
_symmetry_cell_setting 'triclinic'
loop_
_space_group_symop_operation_xyz
x,y,z
-x,-y,-z
loop_
_atom_site_type_symbol
_atom_site_label
_atom_site_fract_x
_atom_site_fract_y
_atom_site_fract_z
Si Si1 0.562135 0.813615 0.684339
Si Si2 0.065112 0.310638 0.939912
Si Si3 0.779887 0.352410 0.708940
Si Si4 0.117004 0.015293 0.158762
Si Si5 0.471474 0.122369 0.984307
Si Si6 0.386471 0.745773 0.724188
Si Si7 0.189946 0.216211 0.578149
Si Si8 0.510261 0.621983 0.143567
O O1 0.639849 0.744518 0.808597
O O2 0.522953 0.736805 0.605981
O O3 0.216418 0.270182 0.463477
O O4 0.264197 0.078602 0.828601
O O5 0.013253 0.371114 0.807035
O O6 0.256615 0.256785 0.950079
O O7 0.756319 0.503439 0.134261
O O8 0.599428 0.538060 0.701122
O O9 0.689045 0.308705 0.701710
O O10 0.087167 0.182321 0.560809
O O11 0.689952 0.438816 0.921507
O O12 0.313031 0.824453 0.161390
O O13 0.221302 0.048187 0.169700
O O14 0.196353 0.932415 0.949724
O O15 0.804204 0.193547 0.300539
O O16 0.500000 0.000000 0.000000
O O17 0.500000 0.000000 0.500000
#
# Coordination Sequence:
#
# PCOD9071720 Si02
#       8
#     2   2   2   2   2   2   2   2
#     4   9  18  31  50  75  99 133 162 205 248 296
#     4   9  18  31  50  75  99 133 162 205 248 296
#     4   9  18  29  46  75 100 130 162 209 248 289
#     4   9  18  29  46  75 100 130 162 209 248 289
#     4   9  18  31  50  74 100 130 166 200 249 296
#     4   9  18  28  48  72 103 126 166 208 248 289
#     4   9  18  31  50  74 100 130 166 200 249 296
#     4   9  18  28  48  72 103 126 166 208 248 289
#
# _framework density 24.965606000000001
#
# number of rings (size 3 to 8) (size 9 to 14) (size 15 to 20)
#    0.000    3.000    0.000    0.000   14.000    1.000 
#    0.000    0.000    0.000    1.500    0.000    0.000 
#    0.000    0.000    0.000    0.000    0.000    0.000 
#
# Total GULP energy -89203.697521 kJ/mol
# GULP energy per Si atom -5575.231095 kJ/mol
# Density = 2.490878 g / cm^3
# Si number density = 24.965606 Si / 1000 Ang^3
#
#
#
# Elastic Constant Matrix: (Units=GPa)
#
#
# Indices 1 2 3 4 5 6 
#
# 1 166.1062 28.2511 51.0397 -9.0291 -70.8178 -5.2253
# 2 28.2511 51.2262 20.1865 -15.1813 -8.0750 -11.0339
# 3 51.0397 20.1865 50.0446 -7.5136 -30.0185 -7.7226
# 4 -9.0291 -15.1813 -7.5136 34.0383 -0.7480 -9.9731
# 5 -70.8178 -8.0750 -30.0185 -0.7480 51.7683 2.4985
# 6 -5.2253 -11.0339 -7.7226 -9.9731 2.4985 45.0408
#
#
#
# Elastic Compliance Matrix: (Units=1/GPa)
#
#
# Indices 1 2 3 4 5 6 
#
# 1 0.016154 -0.004136 -0.002445 0.002293 0.020076 -0.000164
# 2 -0.004136 0.029662 -0.008086 0.012721 -0.005949 0.008547
# 3 -0.002445 -0.008086 0.037478 0.005704 0.016992 0.004482
# 4 0.002293 0.012721 0.005704 0.040899 0.008395 0.012951
# 5 0.020076 -0.005949 0.016992 0.008395 0.055703 0.002554
# 6 -0.000164 0.008547 0.004482 0.012951 0.002554 0.027771
#
#
# Mechanical properties :
#
#
# Convention : Reuss Voigt Hill
#
# Bulk Modulus (GPa) = 18.53261 51.81464 35.17362
# Shear Modulus (GPa) = 19.60877 37.36280 28.48578
#
# Velocity S-wave (km/s) = 2.80560 3.87275 3.38154
# Velocity P-wave (km/s) = 4.23492 6.38726 5.41902
#
# Compressibility (1/GPa) = 0.05395895
#
# Stress axis : x y z
#
# Youngs Moduli (GPa) = 61.90490 33.71331 26.68228
#
# Poissons Ratio (x) = 0.13945 0.06525
# Poissons Ratio (y) = 0.25605 0.21575
# Poissons Ratio (z) = 0.15138 0.27260
#
# Static dielectric constant tensor:
#      x y z
#    x 2.164150 -0.024220 0.029880 
#    y -0.024220 1.964610 -0.033370 
#    z 0.029880 -0.033370 2.201020 
# 
# From -- ./inp_files/385781.got.cif
#   From: 2010.05.17/outbox.cif.g08.bks.cpg/sg2_193_cif.got.tgz:385781.got - 2010.06.03 11:33:40.
