data_PCOD9071988
_publ_section_title
;
Structure prediction by ZEFSAII (Michael W. Deem and Ramdas Pophale) SiO2 
 PCOD9071988
Probable space group: P -1
;
_chemical_formula_sum "Si O2"
_cell_formula_units_Z 16
_cell_length_a 9.000000
_cell_length_b 15.000000
_cell_length_c 18.000000
_cell_angle_alpha 20.000000
_cell_angle_beta 90.000000
_cell_angle_gamma 90.000000
_cell_volume 831.108948
_symmetry_space_group_name_H-M "P -1"
_symmetry_group_IT_number 2
_symmetry_cell_setting 'triclinic'
loop_
_space_group_symop_operation_xyz
x,y,z
-x,-y,-z
loop_
_atom_site_type_symbol
_atom_site_label
_atom_site_fract_x
_atom_site_fract_y
_atom_site_fract_z
Si Si1 0.168468 0.568528 0.979480
Si Si2 0.386642 0.479586 0.744749
Si Si3 0.033443 0.274302 0.326343
Si Si4 0.798500 0.148723 0.637160
Si Si5 0.605845 0.138092 0.782852
Si Si6 0.380342 0.404128 0.467051
Si Si7 0.118965 0.129575 0.603117
Si Si8 0.275349 0.434403 0.933508
O O1 0.172930 0.380321 0.196857
O O2 0.283461 0.525675 0.946837
O O3 0.000000 0.500000 0.000000
O O4 0.178880 0.853543 0.790313
O O5 0.243658 0.621720 0.598692
O O6 0.519078 0.600851 0.602639
O O7 0.386515 0.521117 0.800653
O O8 0.385512 0.171876 0.968274
O O9 0.074286 0.259876 0.423251
O O10 0.886707 0.454002 0.178384
O O11 0.000000 0.000000 0.500000
O O12 0.736764 0.218770 0.662945
O O13 0.970180 0.086725 0.682954
O O14 0.722452 0.878856 0.822802
O O15 0.457080 0.227644 0.669058
O O16 0.620780 0.305522 0.726154
O O17 0.226274 0.292790 0.526998
#
# Coordination Sequence:
#
# PCOD9071988 Si02
#       8
#     2   2   2   2   2   2   2   2
#     4  10  19  32  52  84 120 153 182 225 280 336
#     4  10  20  37  62  81 110 154 196 227 281 350
#     4  11  18  31  55  85 115 151 186 225 282 333
#     4  10  19  34  59  89 112 145 191 236 281 340
#     4   9  21  43  62  78 109 158 192 227 293 342
#     4  10  23  40  60  84 114 148 191 239 284 343
#     4  12  21  34  58  93 118 143 191 239 281 329
#     4  10  18  32  57  83 112 154 192 221 270 344
#
# _framework density 19.251387000000001
#
# number of rings (size 3 to 8) (size 9 to 14) (size 15 to 20)
#    0.000    1.750    6.250    0.375    0.000    1.500 
#    0.000    1.250    0.000    7.500    0.000    0.000 
#    0.000    0.000    0.000    0.000    0.000    0.000 
#
# Total GULP energy -89098.045451 kJ/mol
# GULP energy per Si atom -5568.627841 kJ/mol
# Density = 1.920757 g / cm^3
# Si number density = 19.251387 Si / 1000 Ang^3
#
#
#
# Elastic Constant Matrix: (Units=GPa)
#
#
# Indices 1 2 3 4 5 6 
#
# 1 2.8582 4.9367 -13.6321 8.5207 2.5244 -12.3702
# 2 4.9367 33.3704 -18.5687 16.4216 13.2929 -16.7249
# 3 -13.6321 -18.5687 63.1147 3.9559 21.5325 -1.4093
# 4 8.5207 16.4216 3.9559 17.9943 -15.2485 0.2181
# 5 2.5244 13.2929 21.5325 -15.2485 10.6523 -2.3461
# 6 -12.3702 -16.7249 -1.4093 0.2181 -2.3461 25.0767
#
#
#
# Elastic Compliance Matrix: (Units=1/GPa)
#
#
# Indices 1 2 3 4 5 6 
#
# 1 4.375895 -1.150314 -0.126629 0.774715 2.110287 1.574980
# 2 -1.150314 0.312630 0.025521 -0.186758 -0.525662 -0.405056
# 3 -0.126629 0.025521 0.012762 -0.008570 -0.050784 -0.049404
# 4 0.774715 -0.186758 -0.008570 0.150537 0.345739 0.288160
# 5 2.110287 -0.525662 -0.050784 0.345739 1.019079 0.779883
# 6 1.574980 -0.405056 -0.049404 0.288160 0.779883 0.614335
#
#
# Mechanical properties :
#
#
# Convention : Reuss Voigt Hill
#
# Bulk Modulus (GPa) = 0.45487 4.97945 2.71716
# Shear Modulus (GPa) = 0.51436 19.18514 9.84975
#
# Velocity S-wave (km/s) = 0.51745 3.16026 2.26440
# Velocity P-wave (km/s) = 0.77059 3.98854 2.87248
#
# Compressibility (1/GPa) = 2.19844250
#
# Stress axis : x y z
#
# Youngs Moduli (GPa) = 0.22852 3.19867 78.35824
#
# Poissons Ratio (x) = 3.67947 9.92244
# Poissons Ratio (y) = 0.26288 -1.99977
# Poissons Ratio (z) = 0.02894 -0.08163
#
# Static dielectric constant tensor:
#      x y z
#    x 1.705880 -0.039180 -0.008890 
#    y -0.039180 1.672590 0.048370 
#    z -0.008890 0.048370 1.664440 
# 
# From -- ./inp_files/323711.got.cif
#   From: 2010.05.17/outbox.ucp.g08.bks.cvg/sg2_162_cif.got.tgz:323711.got - 2010.06.11 11:32:03.
