data_PCOD9071781
_publ_section_title
;
Structure prediction by ZEFSAII (Michael W. Deem and Ramdas Pophale) SiO2 
 PCOD9071781
Probable space group: P -1
;
_chemical_formula_sum "Si O2"
_cell_formula_units_Z 16
_cell_length_a 30.000000
_cell_length_b 9.000000
_cell_length_c 15.000000
_cell_angle_alpha 40.000000
_cell_angle_beta 20.000000
_cell_angle_gamma 40.000000
_cell_volume 870.496911
_symmetry_space_group_name_H-M "P -1"
_symmetry_group_IT_number 2
_symmetry_cell_setting 'triclinic'
loop_
_space_group_symop_operation_xyz
x,y,z
-x,-y,-z
loop_
_atom_site_type_symbol
_atom_site_label
_atom_site_fract_x
_atom_site_fract_y
_atom_site_fract_z
Si Si1 0.095770 0.265436 0.121379
Si Si2 0.298545 0.271267 0.463319
Si Si3 0.002538 0.312440 0.999501
Si Si4 0.172769 0.940085 0.280500
Si Si5 0.484463 0.787225 0.068244
Si Si6 0.575063 0.301558 0.193881
Si Si7 0.634009 0.968834 0.379494
Si Si8 0.232073 0.808729 0.417458
O O1 0.960660 0.165331 0.408101
O O2 0.140042 0.182342 0.175549
O O3 0.062727 0.537270 0.031484
O O4 0.217999 0.148731 0.880978
O O5 0.270407 0.531062 0.443011
O O6 0.367551 0.076824 0.493165
O O7 0.396101 0.277244 0.196706
O O8 0.155832 0.215704 0.734442
O O9 0.909509 0.146280 0.287459
O O10 0.000000 0.500000 0.000000
O O11 0.227385 0.956157 0.268602
O O12 0.284200 0.766908 0.091697
O O13 0.498290 0.564335 0.207696
O O14 0.346513 0.843602 0.250872
O O15 0.500000 0.000000 0.000000
O O16 0.602005 0.226576 0.279449
O O17 0.476512 0.156114 0.398760
#
# Coordination Sequence:
#
# PCOD9071781 Si02
#       8
#     2   2   2   2   2   2   2   2
#     4  10  16  26  42  83 110 124 149 211 271 299
#     4  11  18  33  55  80 101 134 172 215 263 302
#     4  10  16  28  52  80 108 124 164 216 262 307
#     4  10  18  26  48  75 108 128 160 207 260 306
#     4  12  24  36  51  74 107 143 178 212 252 307
#     4  10  19  32  47  76 102 132 168 212 258 297
#     4  10  18  29  53  76 102 127 166 215 259 303
#     4  11  18  33  54  77 103 133 172 215 255 305
#
# _framework density 18.380306000000001
#
# number of rings (size 3 to 8) (size 9 to 14) (size 15 to 20)
#    0.000    1.500    7.500    1.125    0.000    0.000 
#    0.000    1.250    0.000    0.000    0.000   16.625 
#    0.000    0.000    0.000    0.000    0.000    0.000 
#
# Total GULP energy -89093.158894 kJ/mol
# GULP energy per Si atom -5568.322431 kJ/mol
# Density = 1.833847 g / cm^3
# Si number density = 18.380306 Si / 1000 Ang^3
#
#
#
# Elastic Constant Matrix: (Units=GPa)
#
#
# Indices 1 2 3 4 5 6 
#
# 1 69.7354 45.8150 -6.5398 -19.3883 -6.2402 -36.2860
# 2 45.8150 -33.9759 -21.1345 -34.2329 -22.5288 -24.2216
# 3 -6.5398 -21.1345 35.9867 -4.5923 -19.2215 10.3840
# 4 -19.3883 -34.2329 -4.5923 4.7379 -21.0875 3.0219
# 5 -6.2402 -22.5288 -19.2215 -21.0875 17.8437 -10.0175
# 6 -36.2860 -24.2216 10.3840 3.0219 -10.0175 28.8698
#
#
#
# Elastic Compliance Matrix: (Units=1/GPa)
#
#
# Indices 1 2 3 4 5 6 
#
# 1 -0.038631 0.036912 -0.003736 -0.044336 -0.037057 -0.024460
# 2 0.036912 -0.022943 -0.007190 0.015709 0.013077 0.032626
# 3 -0.003736 -0.007190 0.030159 -0.005684 0.004479 -0.019427
# 4 -0.044336 0.015709 -0.005684 -0.006966 -0.040184 -0.053716
# 5 -0.037057 0.013077 0.004479 -0.040184 -0.001991 -0.033701
# 6 -0.024460 0.032626 -0.019427 -0.053716 -0.033701 0.032184
#
#
# Mechanical properties :
#
#
# Convention : Reuss Voigt Hill
#
# Bulk Modulus (GPa) = 48.64434 12.00305 30.32369
# Shear Modulus (GPa) = -93.79519 13.86399 -39.96560
#
# Velocity S-wave (km/s) = -7.15130 2.74940 -4.66807
# Velocity P-wave (km/s) = 6.45485 4.07720 3.53847
#
# Compressibility (1/GPa) = 0.02055738
#
# Stress axis : x y z
#
# Youngs Moduli (GPa) = -25.88587 -43.58720 33.15806
#
# Poissons Ratio (x) = 1.60891 0.12387
# Poissons Ratio (y) = 0.95551 0.23842
# Poissons Ratio (z) = -0.09670 -0.31341
#
# Static dielectric constant tensor:
#      x y z
#    x 1.648570 -0.060530 0.001920 
#    y -0.060530 1.630320 0.011100 
#    z 0.001920 0.011100 1.650500 
# 
# From -- ./inp_files/262289.got.cif
#   From: 2010.05.17/outbox.ucp.g08.bks.cvg/sg2_132_cif.got.tgz:262289.got - 2010.06.11 11:32:03.
