data_PCOD9071354
_publ_section_title
;
Structure prediction by ZEFSAII (Michael W. Deem and Ramdas Pophale) SiO2 
 PCOD9071354
Probable space group: P -1
;
_chemical_formula_sum "Si O2"
_cell_formula_units_Z 10
_cell_length_a 8.710525
_cell_length_b 14.424557
_cell_length_c 7.407793
_cell_angle_alpha 65.295228
_cell_angle_beta 89.622495
_cell_angle_gamma 35.301176
_cell_volume 376.598424
_symmetry_space_group_name_H-M "P -1"
_symmetry_group_IT_number 2
_symmetry_cell_setting 'triclinic'
loop_
_space_group_symop_operation_xyz
x,y,z
-x,-y,-z
loop_
_atom_site_type_symbol
_atom_site_label
_atom_site_fract_x
_atom_site_fract_y
_atom_site_fract_z
Si Si1 0.438321 0.142101 0.492211
Si Si2 0.849441 0.817331 0.245952
Si Si3 0.598622 0.631755 0.582444
Si Si4 0.665886 0.153552 0.969252
Si Si5 0.770378 0.247563 0.202899
O O1 0.841036 0.941080 0.687087
O O2 0.500000 0.000000 0.500000
O O3 0.158819 0.258967 0.534167
O O4 0.270817 0.355386 0.295998
O O5 0.161420 0.606910 0.279905
O O6 0.500000 0.000000 0.000000
O O7 0.773184 0.977469 0.176511
O O8 0.561527 0.710395 0.323567
O O9 0.723104 0.223469 0.421002
O O10 0.614015 0.261973 0.044945
O O11 0.000000 0.000000 0.000000
O O12 0.500000 0.500000 0.000000
#
# Coordination Sequence:
#
# PCOD9071354 Si02
#       5
#     2   2   2   2   2
#     4  12  27  48  74 112 154 196 247 318 381 439
#     4  12  26  49  75 114 154 193 255 315 379 448
#     4  12  27  50  80 109 152 204 253 309 379 454
#     4  12  26  48  78 110 152 200 255 310 375 457
#     4  12  28  51  76 114 151 202 258 308 374 461
#
# _framework density 26.553483
#
# number of rings (size 3 to 8) (size 9 to 14) (size 15 to 20)
#    0.000    0.000    4.000    4.800    5.600    1.600 
#    0.000    4.000    0.000    0.000    0.000    0.000 
#    0.000    0.000    0.000    0.000    0.000    0.000 
#
# Total GULP energy -55668.538462 kJ/mol
# GULP energy per Si atom -5566.853846 kJ/mol
# Density = 2.649305 g / cm^3
# Si number density = 26.553483 Si / 1000 Ang^3
#
#
#
# Elastic Constant Matrix: (Units=GPa)
#
#
# Indices 1 2 3 4 5 6 
#
# 1 169.9353 76.2932 38.4391 14.7712 -18.3023 36.5760
# 2 76.2932 225.0240 31.0603 7.8706 1.4944 27.3508
# 3 38.4391 31.0603 54.0163 13.4191 -7.7706 12.6883
# 4 14.7712 7.8706 13.4191 32.8357 6.2304 -6.3639
# 5 -18.3023 1.4944 -7.7706 6.2304 40.3511 5.7901
# 6 36.5760 27.3508 12.6883 -6.3639 5.7901 80.9699
#
#
#
# Elastic Compliance Matrix: (Units=1/GPa)
#
#
# Indices 1 2 3 4 5 6 
#
# 1 0.009131 -0.002173 -0.002666 -0.004128 0.004869 -0.003646
# 2 -0.002173 0.005480 -0.001907 0.000668 -0.001601 -0.000404
# 3 -0.002666 -0.001907 0.025846 -0.010716 0.005991 -0.003472
# 4 -0.004128 0.000668 -0.010716 0.040062 -0.011189 0.007267
# 5 0.004869 -0.001601 0.005991 -0.011189 0.030746 -0.005676
# 6 -0.003646 -0.000404 -0.003472 0.007267 -0.005676 0.015655
#
#
# Mechanical properties :
#
#
# Convention : Reuss Voigt Hill
#
# Bulk Modulus (GPa) = 37.08306 82.28456 59.68381
# Shear Modulus (GPa) = 33.46722 51.04354 42.25538
#
# Velocity S-wave (km/s) = 3.55402 4.38915 3.99348
# Velocity P-wave (km/s) = 5.55312 7.53271 6.61736
#
# Compressibility (1/GPa) = 0.02696649
#
# Stress axis : x y z
#
# Youngs Moduli (GPa) = 109.51773 182.47858 38.69020
#
# Poissons Ratio (x) = 0.39646 0.10316
# Poissons Ratio (y) = 0.23794 0.07376
# Poissons Ratio (z) = 0.29201 0.34790
#
# Static dielectric constant tensor:
#      x y z
#    x 2.125870 0.202890 0.107280 
#    y 0.202890 2.344840 0.063790 
#    z 0.107280 0.063790 2.231460 
# 
# From -- ./inp_files/169674.got.cif
#   From: 2010.05.17/outbox.cif.g08.bks.cpg/sg2_85_cif.got.tgz:169674.got - 2010.06.03 11:33:40.
