data_PCOD9071777
_publ_section_title
;
Structure prediction by ZEFSAII (Michael W. Deem and Ramdas Pophale) SiO2 
 PCOD9071777
Probable space group: P -1
;
_chemical_formula_sum "Si O2"
_cell_formula_units_Z 14
_cell_length_a 9.422141
_cell_length_b 15.360077
_cell_length_c 6.969806
_cell_angle_alpha 122.526789
_cell_angle_beta 126.832814
_cell_angle_gamma 35.902013
_cell_volume 470.507440
_symmetry_space_group_name_H-M "P -1"
_symmetry_group_IT_number 2
_symmetry_cell_setting 'triclinic'
loop_
_space_group_symop_operation_xyz
x,y,z
-x,-y,-z
loop_
_atom_site_type_symbol
_atom_site_label
_atom_site_fract_x
_atom_site_fract_y
_atom_site_fract_z
Si Si1 0.936333 0.005046 0.181824
Si Si2 0.820755 0.414800 0.777770
Si Si3 0.362555 0.231295 0.968241
Si Si4 0.614663 0.513661 0.321293
Si Si5 0.868068 0.816882 0.788385
Si Si6 0.278106 0.332818 0.577200
Si Si7 0.802321 0.912165 0.423073
O O1 0.637704 0.159736 0.158367
O O2 0.933976 0.882145 0.061132
O O3 0.133918 0.994973 0.442293
O O4 0.000000 0.000000 0.000000
O O5 0.689818 0.515511 0.602193
O O6 0.606626 0.478558 0.832526
O O7 0.079771 0.364190 0.990498
O O8 0.929814 0.259155 0.609890
O O9 0.309838 0.290735 0.776394
O O10 0.386703 0.094787 0.828537
O O11 0.865554 0.351360 0.250939
O O12 0.541158 0.649634 0.316194
O O13 0.689730 0.791266 0.650428
O O14 0.770819 0.909545 0.622921
O O15 0.000000 0.500000 0.500000
#
# Coordination Sequence:
#
# PCOD9071777 Si02
#       7
#     2   2   2   2   2   2   2
#     4  10  18  29  50  77 103 125 164 219 238 283
#     4   8  15  28  49  76  93 129 171 194 246 302
#     4   9  17  30  50  82  92 129 172 198 253 295
#     4   9  14  27  50  73  99 130 161 203 248 300
#     4   8  15  25  43  73  94 126 157 197 250 280
#     4   9  14  27  45  76 102 123 165 203 250 293
#     4   7  15  29  43  73  96 122 157 206 240 277
#
# _framework density 29.755109000000001
#
# number of rings (size 3 to 8) (size 9 to 14) (size 15 to 20)
#    0.857    2.571    2.857    0.000    0.000    5.143 
#    0.000    0.000    0.000   46.286   11.143    0.000 
#    0.000    0.000    0.000    0.000    0.000    0.000 
#
# Total GULP energy -78342.986161 kJ/mol
# GULP energy per Si atom -5595.927583 kJ/mol
# Density = 2.968739 g / cm^3
# Si number density = 29.755109 Si / 1000 Ang^3
#
#
#
# Elastic Constant Matrix: (Units=GPa)
#
#
# Indices 1 2 3 4 5 6 
#
# 1 140.3465 48.9416 86.1216 -13.9348 47.4806 17.7595
# 2 48.9416 111.7068 63.0279 17.3121 29.9363 5.1899
# 3 86.1216 63.0279 151.6762 -1.4792 39.6070 5.8658
# 4 -13.9348 17.3121 -1.4792 66.5229 7.1678 12.0294
# 5 47.4806 29.9363 39.6070 7.1678 64.3287 -19.3960
# 6 17.7595 5.1899 5.8658 12.0294 -19.3960 61.3149
#
#
#
# Elastic Compliance Matrix: (Units=1/GPa)
#
#
# Indices 1 2 3 4 5 6 
#
# 1 0.016952 -0.001864 -0.005289 0.006910 -0.011991 -0.009395
# 2 -0.001864 0.013051 -0.003897 -0.003652 -0.001916 -0.000082
# 3 -0.005289 -0.003897 0.011558 0.000257 -0.001343 0.000281
# 4 0.006910 -0.003652 0.000257 0.019809 -0.008241 -0.008210
# 5 -0.011991 -0.001916 -0.001343 -0.008241 0.031676 0.015401
# 6 -0.009395 -0.000082 0.000281 -0.008210 0.015401 0.025493
#
#
# Mechanical properties :
#
#
# Convention : Reuss Voigt Hill
#
# Bulk Modulus (GPa) = 51.38458 88.87909 70.13183
# Shear Modulus (GPa) = 33.98461 52.14252 43.06356
#
# Velocity S-wave (km/s) = 3.38323 4.19070 3.80842
# Velocity P-wave (km/s) = 5.70686 7.30417 6.55436
#
# Compressibility (1/GPa) = 0.01946109
#
# Stress axis : x y z
#
# Youngs Moduli (GPa) = 58.98843 76.62477 86.52213
#
# Poissons Ratio (x) = 0.14281 0.45762
# Poissons Ratio (y) = 0.10994 0.33718
# Poissons Ratio (z) = 0.31199 0.29861
#
# Static dielectric constant tensor:
#      x y z
#    x 2.395250 -0.078240 0.014340 
#    y -0.078240 2.328930 0.010550 
#    z 0.014340 0.010550 2.349680 
# 
# From -- ./inp_files/396250.got.cif
#   From: 2010.05.17/outbox.cif.g08.bks.cpg/sg2_199_cif.got.tgz:396250.got - 2010.06.03 11:33:40.
