data_PCOD9071504
_publ_section_title
;
Structure prediction by ZEFSAII (Michael W. Deem and Ramdas Pophale) SiO2 
 PCOD9071504
Probable space group: P -1
;
_chemical_formula_sum "Si O2"
_cell_formula_units_Z 13
_cell_length_a 15.145820
_cell_length_b 13.841324
_cell_length_c 9.058153
_cell_angle_alpha 91.410389
_cell_angle_beta 80.310644
_cell_angle_gamma 19.923556
_cell_volume 535.079990
_symmetry_space_group_name_H-M "P -1"
_symmetry_group_IT_number 2
_symmetry_cell_setting 'triclinic'
loop_
_space_group_symop_operation_xyz
x,y,z
-x,-y,-z
loop_
_atom_site_type_symbol
_atom_site_label
_atom_site_fract_x
_atom_site_fract_y
_atom_site_fract_z
Si Si1 0.500000 0.500000 0.000000
Si Si2 0.596933 0.193973 0.098865
Si Si3 0.548564 0.647544 0.521242
Si Si4 0.699578 0.695471 0.939882
Si Si5 0.805775 0.106800 0.602979
Si Si6 0.128237 0.374663 0.622961
Si Si7 0.826010 0.489984 0.218863
O O1 0.441612 0.453306 0.096440
O O2 0.409762 0.648483 0.186458
O O3 0.623261 0.166800 0.267539
O O4 0.428831 0.267940 0.102426
O O5 0.938011 0.837135 0.913461
O O6 0.401385 0.713522 0.469591
O O7 0.551027 0.731373 0.405019
O O8 0.915543 0.255403 0.446083
O O9 0.016186 0.402950 0.758630
O O10 0.732768 0.637161 0.099570
O O11 0.500000 0.000000 0.000000
O O12 0.000000 0.000000 0.500000
O O13 0.007910 0.599847 0.734773
O O14 0.000000 0.500000 0.500000
O O15 0.500000 0.000000 0.500000
#
# Coordination Sequence:
#
# PCOD9071504 Si02
#       7
#     1   2   2   2   2   2   2
#     4  12  26  52  84 114 168 208 282 322 422 470
#     4  12  28  50  83 121 162 227 265 348 407 497
#     4  12  29  49  80 117 167 208 278 332 415 483
#     4  12  27  53  80 116 170 216 281 340 419 493
#     4  12  27  51  76 115 158 217 267 342 397 489
#     4  12  28  49  81 118 162 214 273 344 413 489
#     4  12  28  48  81 120 163 214 277 337 413 496
#
# _framework density 24.295432000000002
#
# number of rings (size 3 to 8) (size 9 to 14) (size 15 to 20)
#    0.000    0.000    4.615    3.692    6.462    1.846 
#    0.000    0.000    0.000    0.000    0.000    0.000 
#    0.000    0.000    0.000    0.000    0.000    0.000 
#
# Total GULP energy -72558.490027 kJ/mol
# GULP energy per Si atom -5581.422310 kJ/mol
# Density = 2.424013 g / cm^3
# Si number density = 24.295432 Si / 1000 Ang^3
#
#
#
# Elastic Constant Matrix: (Units=GPa)
#
#
# Indices 1 2 3 4 5 6 
#
# 1 150.7563 38.6131 59.3886 -24.0851 -10.8091 -1.6610
# 2 38.6131 84.1522 41.4714 -20.5935 5.2965 -11.5194
# 3 59.3886 41.4714 208.7078 -41.2106 -0.5021 -12.4899
# 4 -24.0851 -20.5935 -41.2106 51.1866 1.3443 4.2587
# 5 -10.8091 5.2965 -0.5021 1.3443 65.2782 -10.8966
# 6 -1.6610 -11.5194 -12.4899 4.2587 -10.8966 37.3694
#
#
#
# Elastic Compliance Matrix: (Units=1/GPa)
#
#
# Indices 1 2 3 4 5 6 
#
# 1 0.008316 -0.002880 -0.001532 0.001549 0.001435 -0.000788
# 2 -0.002880 0.015245 -0.001327 0.003461 -0.001232 0.003374
# 3 -0.001532 -0.001327 0.006297 0.003713 0.000028 0.001212
# 4 0.001549 0.003461 0.003713 0.024714 -0.000608 -0.000617
# 5 0.001435 -0.001232 0.000028 -0.000608 0.016430 0.004553
# 6 -0.000788 0.003374 0.001212 -0.000617 0.004553 0.029568
#
#
# Mechanical properties :
#
#
# Convention : Reuss Voigt Hill
#
# Bulk Modulus (GPa) = 54.40863 80.28472 67.34668
# Shear Modulus (GPa) = 42.30985 51.04306 46.67645
#
# Velocity S-wave (km/s) = 4.17762 4.58857 4.38791
# Velocity P-wave (km/s) = 6.76116 7.82241 7.31107
#
# Compressibility (1/GPa) = 0.01837944
#
# Stress axis : x y z
#
# Youngs Moduli (GPa) = 120.24917 65.59375 158.80863
#
# Poissons Ratio (x) = 0.18891 0.24329
# Poissons Ratio (y) = 0.34632 0.21080
# Poissons Ratio (z) = 0.18422 0.08707
#
# Static dielectric constant tensor:
#      x y z
#    x 1.986850 0.064960 -0.024030 
#    y 0.064960 1.993450 0.061410 
#    z -0.024030 0.061410 1.927100 
# 
# From -- ./inp_files/313552.got.cif
#   From: 2010.05.17/outbox.cif.g08.bks.cpg/sg2_157_cif.got.tgz:313552.got - 2010.06.03 11:33:40.
