data_PCOD9071460
_publ_section_title
;
Structure prediction by ZEFSAII (Michael W. Deem and Ramdas Pophale) SiO2 
 PCOD9071460
Probable space group: P -1
;
_chemical_formula_sum "Si O2"
_cell_formula_units_Z 13
_cell_length_a 5.266245
_cell_length_b 8.873452
_cell_length_c 12.731432
_cell_angle_alpha 85.070622
_cell_angle_beta 61.461899
_cell_angle_gamma 75.828946
_cell_volume 506.410691
_symmetry_space_group_name_H-M "P -1"
_symmetry_group_IT_number 2
_symmetry_cell_setting 'triclinic'
loop_
_space_group_symop_operation_xyz
x,y,z
-x,-y,-z
loop_
_atom_site_type_symbol
_atom_site_label
_atom_site_fract_x
_atom_site_fract_y
_atom_site_fract_z
Si Si1 0.608288 0.857914 0.747689
Si Si2 0.334833 0.178715 0.500846
Si Si3 0.714682 0.812775 0.138895
Si Si4 0.260208 0.624074 0.312504
Si Si5 0.500000 0.500000 0.500000
Si Si6 0.186795 0.533945 0.118001
Si Si7 0.000342 0.765927 0.875503
O O1 0.724880 0.811140 0.612254
O O2 0.862768 0.829746 0.787157
O O3 0.333730 0.778145 0.829285
O O4 0.436092 0.038312 0.774559
O O5 0.503230 0.311111 0.495458
O O6 0.019682 0.235196 0.617181
O O7 0.500000 0.000000 0.500000
O O8 0.507615 0.693238 0.202325
O O9 0.031030 0.713893 0.121443
O O10 0.779245 0.851940 0.004531
O O11 0.373020 0.535409 0.402094
O O12 0.169415 0.512560 0.248841
O O13 0.015514 0.413310 0.109369
O O14 0.500000 0.500000 0.000000
#
# Coordination Sequence:
#
# PCOD9071460 Si02
#       7
#     2   2   2   2   1   2   2
#     4  12  30  50  83 118 168 217 277 341 421 494
#     4  12  30  54  81 119 168 225 282 347 417 505
#     4  12  28  50  81 119 161 214 275 341 425 497
#     4  12  28  50  85 118 166 214 285 342 422 507
#     4  12  28  50  78 120 162 218 280 342 412 500
#     4  12  26  50  79 119 159 213 273 339 416 500
#     4  12  28  50  80 121 166 213 274 348 414 499
#
# _framework density 25.670863000000001
#
# number of rings (size 3 to 8) (size 9 to 14) (size 15 to 20)
#    0.000    0.000    1.538    6.462   12.923    1.231 
#    0.000    0.000    0.000    0.000    0.000    0.000 
#    0.000    0.000    0.000    0.000    0.000    0.000 
#
# Total GULP energy -72686.849988 kJ/mol
# GULP energy per Si atom -5591.296153 kJ/mol
# Density = 2.561244 g / cm^3
# Si number density = 25.670863 Si / 1000 Ang^3
#
#
#
# Elastic Constant Matrix: (Units=GPa)
#
#
# Indices 1 2 3 4 5 6 
#
# 1 61.0057 24.6805 22.2944 5.8818 7.3491 -13.0701
# 2 24.6805 117.7959 2.4252 17.3996 -2.9962 -10.9554
# 3 22.2944 2.4252 124.4991 24.8142 9.4003 -15.7568
# 4 5.8818 17.3996 24.8142 43.6267 -6.6330 6.3519
# 5 7.3491 -2.9962 9.4003 -6.6330 53.9049 4.9996
# 6 -13.0701 -10.9554 -15.7568 6.3519 4.9996 40.0670
#
#
#
# Elastic Compliance Matrix: (Units=1/GPa)
#
#
# Indices 1 2 3 4 5 6 
#
# 1 0.020382 -0.003639 -0.002439 -0.001163 -0.003188 0.005277
# 2 -0.003639 0.010274 0.001910 -0.005193 -0.000204 0.003222
# 3 -0.002439 0.001910 0.010956 -0.007942 -0.002975 0.005666
# 4 -0.001163 -0.005193 -0.007942 0.032185 0.006217 -0.010800
# 5 -0.003188 -0.000204 -0.002975 0.006217 0.020801 -0.005847
# 6 0.005277 0.003222 0.005666 -0.010800 -0.005847 0.032230
#
#
# Mechanical properties :
#
#
# Convention : Reuss Voigt Hill
#
# Bulk Modulus (GPa) = 30.05126 44.67790 37.36458
# Shear Modulus (GPa) = 34.18682 44.44641 39.31662
#
# Velocity S-wave (km/s) = 3.65326 4.16552 3.91777
# Velocity P-wave (km/s) = 5.43386 6.37003 5.92048
#
# Compressibility (1/GPa) = 0.03327648
#
# Stress axis : x y z
#
# Youngs Moduli (GPa) = 49.06308 97.33402 91.27240
#
# Poissons Ratio (x) = 0.35418 0.22258
# Poissons Ratio (y) = 0.17853 -0.17430
# Poissons Ratio (z) = 0.11965 -0.18588
#
# Static dielectric constant tensor:
#      x y z
#    x 2.062540 -0.033840 0.007170 
#    y -0.033840 2.015420 -0.057860 
#    z 0.007170 -0.057860 2.007630 
# 
# From -- ./inp_files/28854.got.cif
#   From: 2010.05.17/outbox.cif.g08.bks.cpg/sg2_15_cif.got.tgz:28854.got - 2010.06.03 11:33:40.
