data_PCOD9071630
_publ_section_title
;
Structure prediction by ZEFSAII (Michael W. Deem and Ramdas Pophale) SiO2 
 PCOD9071630
Probable space group: P -1
;
_chemical_formula_sum "Si O2"
_cell_formula_units_Z 10
_cell_length_a 9.065324
_cell_length_b 9.803525
_cell_length_c 9.539668
_cell_angle_alpha 51.615961
_cell_angle_beta 69.016334
_cell_angle_gamma 112.064508
_cell_volume 357.732378
_symmetry_space_group_name_H-M "P -1"
_symmetry_group_IT_number 2
_symmetry_cell_setting 'triclinic'
loop_
_space_group_symop_operation_xyz
x,y,z
-x,-y,-z
loop_
_atom_site_type_symbol
_atom_site_label
_atom_site_fract_x
_atom_site_fract_y
_atom_site_fract_z
Si Si1 0.069675 0.243361 0.903386
Si Si2 0.322074 0.663696 0.286880
Si Si3 0.349093 0.849478 0.793781
Si Si4 0.655103 0.679614 0.980776
Si Si5 0.079820 0.759986 0.541824
O O1 0.239492 0.511249 0.563241
O O2 0.235517 0.360621 0.916670
O O3 0.799933 0.111457 0.123348
O O4 0.000000 0.000000 0.000000
O O5 0.056531 0.441552 0.420183
O O6 0.608549 0.012974 0.686906
O O7 0.481990 0.650395 0.161289
O O8 0.500000 0.000000 0.000000
O O9 0.889330 0.511221 0.886993
O O10 0.500000 0.000000 0.500000
O O11 0.912024 0.028656 0.623179
O O12 0.500000 0.500000 0.000000
#
# Coordination Sequence:
#
# PCOD9071630 Si02
#       5
#     2   2   2   2   2
#     4  12  30  57  97 142 191 248 322 398 477 561
#     4  12  29  59  98 139 192 257 319 388 474 585
#     4  12  31  58  92 136 190 250 319 388 475 573
#     4  12  30  58  98 143 197 246 318 402 486 557
#     4  12  28  59  94 133 187 252 319 381 477 567
#
# _framework density 27.953856999999999
#
# number of rings (size 3 to 8) (size 9 to 14) (size 15 to 20)
#    0.000    0.000    4.000    2.400    5.600    8.000 
#    3.600    2.000    0.000    0.000    0.000    0.000 
#    0.000    0.000    0.000    0.000    0.000    0.000 
#
# Total GULP energy -56069.350935 kJ/mol
# GULP energy per Si atom -5606.935094 kJ/mol
# Density = 2.789023 g / cm^3
# Si number density = 27.953857 Si / 1000 Ang^3
#
#
#
# Elastic Constant Matrix: (Units=GPa)
#
#
# Indices 1 2 3 4 5 6 
#
# 1 202.9054 60.4513 105.4769 27.7430 9.2533 21.0135
# 2 60.4513 174.4114 106.1875 22.3174 11.3172 0.5689
# 3 105.4769 106.1875 269.7737 13.4233 11.7211 -9.1001
# 4 27.7430 22.3174 13.4233 72.0188 0.5778 -13.7944
# 5 9.2533 11.3172 11.7211 0.5778 64.2263 7.1599
# 6 21.0135 0.5689 -9.1001 -13.7944 7.1599 49.8200
#
#
#
# Elastic Compliance Matrix: (Units=1/GPa)
#
#
# Indices 1 2 3 4 5 6 
#
# 1 0.007336 -0.000524 -0.002663 -0.003013 0.000041 -0.004415
# 2 -0.000524 0.007917 -0.002815 -0.001875 -0.000700 -0.000802
# 3 -0.002663 -0.002815 0.005903 0.001313 -0.000507 0.002670
# 4 -0.003013 -0.001875 0.001313 0.016565 -0.000311 0.006164
# 5 0.000041 -0.000700 -0.000507 -0.000311 0.016061 -0.002496
# 6 -0.004415 -0.000802 0.002670 0.006164 -0.002496 0.024497
#
#
# Mechanical properties :
#
#
# Convention : Reuss Voigt Hill
#
# Bulk Modulus (GPa) = 109.26180 132.36911 120.81545
# Shear Modulus (GPa) = 53.57219 62.21133 57.89176
#
# Velocity S-wave (km/s) = 4.38248 4.72264 4.55573
# Velocity P-wave (km/s) = 8.04857 8.78597 8.42534
#
# Compressibility (1/GPa) = 0.00915233
#
# Stress axis : x y z
#
# Youngs Moduli (GPa) = 136.31227 126.31391 169.41970
#
# Poissons Ratio (x) = 0.06622 0.45111
# Poissons Ratio (y) = 0.07146 0.47685
# Poissons Ratio (z) = 0.36296 0.35552
#
# Static dielectric constant tensor:
#      x y z
#    x 2.343390 -0.088210 -0.057950 
#    y -0.088210 2.381460 0.112500 
#    z -0.057950 0.112500 2.212520 
# 
# From -- ./inp_files/152648.got.cif
#   From: 2010.05.17/outbox.cif.g08.bks.cpg/sg2_77_cif.got.tgz:152648.got - 2010.06.03 11:33:40.
