data_PCOD9071100
_publ_section_title
;
Structure prediction by ZEFSAII (Michael W. Deem and Ramdas Pophale) SiO2 
 PCOD9071100
Probable space group: P -1
;
_chemical_formula_sum "Si O2"
_cell_formula_units_Z 16
_cell_length_a 12.913013
_cell_length_b 8.867338
_cell_length_c 8.449188
_cell_angle_alpha 53.046193
_cell_angle_beta 97.497190
_cell_angle_gamma 107.953361
_cell_volume 733.561606
_symmetry_space_group_name_H-M "P -1"
_symmetry_group_IT_number 2
_symmetry_cell_setting 'triclinic'
loop_
_space_group_symop_operation_xyz
x,y,z
-x,-y,-z
loop_
_atom_site_type_symbol
_atom_site_label
_atom_site_fract_x
_atom_site_fract_y
_atom_site_fract_z
Si Si1 0.606578 0.156817 0.848821
Si Si2 0.968264 0.352763 0.439053
Si Si3 0.249642 0.711579 0.754823
Si Si4 0.650247 0.619261 0.616401
Si Si5 0.990374 0.027071 0.167843
Si Si6 0.547405 0.216695 0.442526
Si Si7 0.136420 0.376474 0.179657
Si Si8 0.736585 0.958806 0.213707
O O1 0.624634 0.382943 0.762909
O O2 0.594153 0.177677 0.646475
O O3 0.698996 0.062984 0.990519
O O4 0.500000 0.000000 0.000000
O O5 0.847636 0.325808 0.366822
O O6 0.000000 0.500000 0.500000
O O7 0.057332 0.412936 0.278153
O O8 0.972490 0.141380 0.630905
O O9 0.353484 0.669179 0.722448
O O10 0.285492 0.927665 0.704920
O O11 0.197944 0.573059 0.977081
O O12 0.546819 0.676875 0.627588
O O13 0.766732 0.699580 0.678466
O O14 0.673336 0.728936 0.379756
O O15 0.063343 0.230224 0.128354
O O16 0.864512 0.993729 0.204348
O O17 0.000000 0.000000 0.000000
O O18 0.500000 0.000000 0.500000
#
# Coordination Sequence:
#
# PCOD9071100 Si02
#       8
#     2   2   2   2   2   2   2   2
#     4  12  27  50  79 107 146 204 253 318 378 450
#     4  12  27  46  75 111 149 198 255 311 381 457
#     4  12  26  46  75 108 154 199 243 320 376 445
#     4  12  26  49  80 109 149 202 256 311 384 446
#     4  12  28  46  74 116 151 200 252 311 383 462
#     4  12  28  49  73 112 151 192 258 312 375 455
#     4  12  26  49  77 108 153 204 248 315 384 449
#     4  12  25  50  76 110 154 197 252 312 387 447
#
# _framework density 21.811392000000001
#
# number of rings (size 3 to 8) (size 9 to 14) (size 15 to 20)
#    0.000    0.000    6.250    2.625    5.250    1.500 
#    0.000    0.000    0.000    0.000    0.000    0.000 
#    0.000    0.000    0.000    0.000    0.000    0.000 
#
# Total GULP energy -89536.963253 kJ/mol
# GULP energy per Si atom -5596.060203 kJ/mol
# Density = 2.176175 g / cm^3
# Si number density = 21.811392 Si / 1000 Ang^3
#
#
#
# Elastic Constant Matrix: (Units=GPa)
#
#
# Indices 1 2 3 4 5 6 
#
# 1 139.3841 29.6467 32.1377 5.4284 -3.2829 -1.6260
# 2 29.6467 97.7730 35.9637 9.5179 -5.2424 7.0137
# 3 32.1377 35.9637 87.0057 -19.0412 -12.9955 -2.7115
# 4 5.4284 9.5179 -19.0412 44.7536 -1.1413 -0.0147
# 5 -3.2829 -5.2424 -12.9955 -1.1413 49.8539 2.2979
# 6 -1.6260 7.0137 -2.7115 -0.0147 2.2979 21.6393
#
#
#
# Elastic Compliance Matrix: (Units=1/GPa)
#
#
# Indices 1 2 3 4 5 6 
#
# 1 0.008210 -0.001266 -0.002995 -0.002012 -0.000452 0.000699
# 2 -0.001266 0.014053 -0.006807 -0.005740 -0.000259 -0.005479
# 3 -0.002995 -0.006807 0.018229 0.009667 0.003882 0.003860
# 4 -0.002012 -0.005740 0.009667 0.027982 0.002300 0.002695
# 5 -0.000452 -0.000259 0.003882 0.002300 0.021145 -0.001707
# 6 0.000699 -0.005479 0.003860 0.002695 -0.001707 0.048707
#
#
# Mechanical properties :
#
#
# Convention : Reuss Voigt Hill
#
# Bulk Modulus (GPa) = 54.47724 57.73989 56.10857
# Shear Modulus (GPa) = 30.01513 38.34370 34.17941
#
# Velocity S-wave (km/s) = 3.71364 4.19736 3.96289
# Velocity P-wave (km/s) = 6.58930 7.07250 6.83517
#
# Compressibility (1/GPa) = 0.01835629
#
# Stress axis : x y z
#
# Youngs Moduli (GPa) = 121.79890 71.15736 54.85673
#
# Poissons Ratio (x) = 0.09010 0.16432
# Poissons Ratio (y) = 0.15422 0.37340
# Poissons Ratio (z) = 0.36483 0.48435
#
# Static dielectric constant tensor:
#      x y z
#    x 0.607370 -0.614600 0.026330 
#    y -0.614600 1.462680 0.009970 
#    z 0.026330 0.009970 1.812310 
# 
# From -- ./inp_files/242133.got.cif
#   From: 2010.05.17/outbox.cif.g08.bks.cpg/sg2_122_cif.got.tgz:242133.got - 2010.06.03 11:33:40.
