data_PCOD9071705
_publ_section_title
;
Structure prediction by ZEFSAII (Michael W. Deem and Ramdas Pophale) SiO2 
 PCOD9071705
Probable space group: P -1
;
_chemical_formula_sum "Si O2"
_cell_formula_units_Z 14
_cell_length_a 10.419071
_cell_length_b 9.304685
_cell_length_c 19.135797
_cell_angle_alpha 49.018147
_cell_angle_beta 145.247275
_cell_angle_gamma 148.266449
_cell_volume 550.469680
_symmetry_space_group_name_H-M "P -1"
_symmetry_group_IT_number 2
_symmetry_cell_setting 'triclinic'
loop_
_space_group_symop_operation_xyz
x,y,z
-x,-y,-z
loop_
_atom_site_type_symbol
_atom_site_label
_atom_site_fract_x
_atom_site_fract_y
_atom_site_fract_z
Si Si1 0.746063 0.546530 0.322025
Si Si2 0.945339 0.828104 0.133608
Si Si3 0.501115 0.727315 0.076491
Si Si4 0.803144 0.906149 0.567566
Si Si5 0.162880 0.445880 0.491651
Si Si6 0.510673 0.773759 0.847534
Si Si7 0.258362 0.855697 0.827870
O O1 0.490518 0.510649 0.173470
O O2 0.611878 0.428806 0.377243
O O3 0.914300 0.461829 0.394474
O O4 0.050251 0.873986 0.373202
O O5 0.819813 0.899393 0.113715
O O6 0.827331 0.551204 0.196302
O O7 0.743062 0.764862 0.994416
O O8 0.311580 0.051132 0.199044
O O9 0.548388 0.891223 0.111946
O O10 0.225609 0.644407 0.928439
O O11 0.415169 0.647639 0.479449
O O12 0.955462 0.791840 0.685587
O O13 0.958943 0.123764 0.503947
O O14 0.460283 0.919497 0.830000
#
# Coordination Sequence:
#
# PCOD9071705 Si02
#       7
#     2   2   2   2   2   2   2
#     4   8  17  29  50  69 105 130 173 211 262 297
#     4   9  18  34  51  71 100 140 179 209 247 308
#     4   9  17  35  51  85 111 137 167 226 271 306
#     4   9  17  30  47  71 100 130 171 208 254 305
#     4   9  17  30  48  69 101 135 172 209 256 303
#     4   9  18  34  52  69 100 144 179 202 245 320
#     4   9  18  32  55  79 115 138 171 212 273 318
#
# _framework density 25.432827
#
# number of rings (size 3 to 8) (size 9 to 14) (size 15 to 20)
#    0.857    2.286    0.000    0.429    0.000    1.143 
#    5.143    2.143    0.000    0.000    0.000    6.000 
#    0.000    0.000    0.000    0.000    0.000    0.000 
#
# Total GULP energy -78014.964629 kJ/mol
# GULP energy per Si atom -5572.497474 kJ/mol
# Density = 2.537494 g / cm^3
# Si number density = 25.432827 Si / 1000 Ang^3
#
#
#
# Elastic Constant Matrix: (Units=GPa)
#
#
# Indices 1 2 3 4 5 6 
#
# 1 108.2024 70.0747 14.1046 -10.2315 29.2101 -4.4277
# 2 70.0747 137.0490 34.5645 1.2028 16.0822 28.7980
# 3 14.1046 34.5645 91.4287 -12.9228 2.6417 -20.3955
# 4 -10.2315 1.2028 -12.9228 21.8779 -0.5407 4.7518
# 5 29.2101 16.0822 2.6417 -0.5407 24.7504 -2.9486
# 6 -4.4277 28.7980 -20.3955 4.7518 -2.9486 11.9057
#
#
#
# Elastic Compliance Matrix: (Units=1/GPa)
#
#
# Indices 1 2 3 4 5 6 
#
# 1 0.011813 0.005068 -0.009224 0.006037 -0.019809 -0.030981
# 2 0.005068 -0.009200 0.013301 0.000455 0.004283 0.047803
# 3 -0.009224 0.013301 -0.000844 0.002812 -0.002218 -0.038719
# 4 0.006037 0.000455 0.002812 0.053787 -0.008648 -0.017649
# 5 -0.019809 0.004283 -0.002218 -0.008648 0.060684 -0.003045
# 6 -0.030981 0.047803 -0.038719 -0.017649 -0.003045 -0.103196
#
#
# Mechanical properties :
#
#
# Convention : Reuss Voigt Hill
#
# Bulk Modulus (GPa) = 49.85472 63.79640 56.82556
# Shear Modulus (GPa) = 3469.61422 26.23588 1747.92505
#
# Velocity S-wave (km/s) = 36.97551 3.21530 26.24430
# Velocity P-wave (km/s) = 42.92508 6.23882 30.67153
#
# Compressibility (1/GPa) = 0.02005828
#
# Stress axis : x y z
#
# Youngs Moduli (GPa) = 84.65249 -108.69297 -1185.24859
#
# Poissons Ratio (x) = 0.55081 -10.93223
# Poissons Ratio (y) = -0.42898 15.76451
# Poissons Ratio (z) = 0.78080 1.44568
#
# Static dielectric constant tensor:
#      x y z
#    x 2.082640 -0.030820 -0.047150 
#    y -0.030820 2.013320 -0.040460 
#    z -0.047150 -0.040460 2.021030 
# 
# From -- ./inp_files/618315.got.cif
#   From: 2010.05.17/outbox.cif.g08.bks.cpg/sg2_310_cif.got.tgz:618315.got - 2010.06.03 11:33:40.
