data_PCOD9071398
_publ_section_title
;
Structure prediction by ZEFSAII (Michael W. Deem and Ramdas Pophale) SiO2 
 PCOD9071398
Probable space group: P -1
;
_chemical_formula_sum "Si O2"
_cell_formula_units_Z 14
_cell_length_a 16.807584
_cell_length_b 9.376087
_cell_length_c 8.432668
_cell_angle_alpha 110.296715
_cell_angle_beta 32.067210
_cell_angle_gamma 121.192630
_cell_volume 591.015907
_symmetry_space_group_name_H-M "P -1"
_symmetry_group_IT_number 2
_symmetry_cell_setting 'triclinic'
loop_
_space_group_symop_operation_xyz
x,y,z
-x,-y,-z
loop_
_atom_site_type_symbol
_atom_site_label
_atom_site_fract_x
_atom_site_fract_y
_atom_site_fract_z
Si Si1 0.144948 0.952602 0.673153
Si Si2 0.390705 0.484806 0.333376
Si Si3 0.472008 0.261937 0.344488
Si Si4 0.457081 0.154144 0.675663
Si Si5 0.147270 0.605535 0.170620
Si Si6 0.050330 0.372992 0.954929
Si Si7 0.126685 0.933048 0.324547
O O1 0.110148 0.906272 0.530345
O O2 0.334791 0.096875 0.422859
O O3 0.110589 0.793636 0.782649
O O4 0.000000 0.000000 0.000000
O O5 0.461449 0.418689 0.335283
O O6 0.404919 0.671748 0.414669
O O7 0.193967 0.352351 0.604638
O O8 0.500000 0.500000 0.000000
O O9 0.412370 0.217594 0.610326
O O10 0.666646 0.300383 0.032339
O O11 0.500000 0.000000 0.500000
O O12 0.307189 0.075838 0.022225
O O13 0.109325 0.753778 0.216883
O O14 0.000000 0.500000 0.500000
O O15 0.142470 0.468706 0.998044
O O16 0.000000 0.500000 0.000000
O O17 0.000000 0.000000 0.500000
#
# Coordination Sequence:
#
# PCOD9071398 Si02
#       7
#     2   2   2   2   2   2   2
#     4  12  27  50  75 119 152 202 255 324 387 461
#     4  12  28  49  79 115 152 209 264 319 392 465
#     4  12  27  49  80 109 164 197 262 319 395 459
#     4  12  26  49  76 112 155 205 258 317 395 466
#     4  12  28  52  76 114 150 211 256 322 393 462
#     4  12  29  49  78 110 162 198 260 323 393 460
#     4  12  28  47  80 111 157 203 262 315 393 468
#
# _framework density 23.688026000000001
#
# number of rings (size 3 to 8) (size 9 to 14) (size 15 to 20)
#    0.000    0.000    5.714    2.143   10.000    0.571 
#    0.000    0.000    0.000    0.000    0.000    0.000 
#    0.000    0.000    0.000    0.000    0.000    0.000 
#
# Total GULP energy -78349.619004 kJ/mol
# GULP energy per Si atom -5596.401357 kJ/mol
# Density = 2.363411 g / cm^3
# Si number density = 23.688026 Si / 1000 Ang^3
#
#
#
# Elastic Constant Matrix: (Units=GPa)
#
#
# Indices 1 2 3 4 5 6 
#
# 1 75.9591 29.1882 26.4820 -2.4630 -2.4035 -24.8400
# 2 29.1882 134.9504 33.0651 -20.6338 -8.7464 -18.3236
# 3 26.4820 33.0651 144.7806 -23.5258 3.8152 -12.4568
# 4 -2.4630 -20.6338 -23.5258 43.5138 -2.8989 4.4473
# 5 -2.4035 -8.7464 3.8152 -2.8989 51.4183 -5.0227
# 6 -24.8400 -18.3236 -12.4568 4.4473 -5.0227 49.9781
#
#
#
# Elastic Compliance Matrix: (Units=1/GPa)
#
#
# Indices 1 2 3 4 5 6 
#
# 1 0.017312 -0.002404 -0.002352 -0.002113 0.001183 0.007444
# 2 -0.002404 0.009073 -0.000945 0.003600 0.001876 0.001764
# 3 -0.002352 -0.000945 0.008197 0.003794 -0.000653 0.000125
# 4 -0.002113 0.003600 0.003794 0.026833 0.001646 -0.001007
# 5 0.001183 0.001876 -0.000653 0.001646 0.020257 0.003002
# 6 0.007444 0.001764 0.000125 -0.001007 0.003002 0.024778
#
#
# Mechanical properties :
#
#
# Convention : Reuss Voigt Hill
#
# Bulk Modulus (GPa) = 43.13850 59.24007 51.18928
# Shear Modulus (GPa) = 39.81571 46.77904 43.29738
#
# Velocity S-wave (km/s) = 4.10425 4.44869 4.27994
# Velocity P-wave (km/s) = 6.38047 7.17290 6.78826
#
# Compressibility (1/GPa) = 0.02318115
#
# Stress axis : x y z
#
# Youngs Moduli (GPa) = 57.76456 110.21372 121.98859
#
# Poissons Ratio (x) = 0.26494 0.28687
# Poissons Ratio (y) = 0.13886 0.11529
# Poissons Ratio (z) = 0.13584 0.10416
#
# Static dielectric constant tensor:
#      x y z
#    x 1.929880 0.066380 -0.035920 
#    y 0.066380 1.979960 -0.014820 
#    z -0.035920 -0.014820 1.955370 
# 
# From -- ./inp_files/219009.got.cif
#   From: 2010.05.17/outbox.cif.g08.bks.cpg/sg2_110_cif.got.tgz:219009.got - 2010.06.03 11:33:40.
