data_PCOD9071699
_publ_section_title
;
Structure prediction by ZEFSAII (Michael W. Deem and Ramdas Pophale) SiO2 
 PCOD9071699
Probable space group: P -1
;
_chemical_formula_sum "Si O2"
_cell_formula_units_Z 10
_cell_length_a 6.490329
_cell_length_b 16.565750
_cell_length_c 13.034315
_cell_angle_alpha 22.177907
_cell_angle_beta 73.744954
_cell_angle_gamma 88.768953
_cell_volume 383.327712
_symmetry_space_group_name_H-M "P -1"
_symmetry_group_IT_number 2
_symmetry_cell_setting 'triclinic'
loop_
_space_group_symop_operation_xyz
x,y,z
-x,-y,-z
loop_
_atom_site_type_symbol
_atom_site_label
_atom_site_fract_x
_atom_site_fract_y
_atom_site_fract_z
Si Si1 0.571859 0.396399 0.996555
Si Si2 0.217255 0.878499 0.306210
Si Si3 0.144662 0.627333 0.188671
Si Si4 0.319043 0.654087 0.738821
Si Si5 0.856567 0.764419 0.207046
O O1 0.512989 0.270810 0.265821
O O2 0.623448 0.244889 0.084669
O O3 0.354951 0.437653 0.942613
O O4 0.889814 0.707677 0.588650
O O5 0.374045 0.862019 0.396483
O O6 0.147077 0.657943 0.487353
O O7 0.324473 0.171585 0.900272
O O8 0.236035 0.504876 0.400434
O O9 0.057606 0.789470 0.063130
O O10 0.000000 0.500000 0.000000
O O11 0.000000 0.000000 0.000000
#
# Coordination Sequence:
#
# PCOD9071699 Si02
#       5
#     2   2   2   2   2
#     4   8  16  28  49  72  95 124 158 187 232 284
#     4   8  16  28  50  70  94 126 152 190 232 272
#     4   8  16  28  49  72  95 124 158 187 232 284
#     4   9  15  29  51  71  94 127 154 192 238 272
#     4   9  15  29  51  71  94 127 154 192 238 272
#
# _framework density 26.087337999999999
#
# number of rings (size 3 to 8) (size 9 to 14) (size 15 to 20)
#    1.200    2.400    0.000    0.000    0.000    0.000 
#    0.000    2.000    4.400   12.000    0.000    0.000 
#    0.000    0.000    0.000    0.000    0.000    0.000 
#
# Total GULP energy -55722.116968 kJ/mol
# GULP energy per Si atom -5572.211697 kJ/mol
# Density = 2.602796 g / cm^3
# Si number density = 26.087338 Si / 1000 Ang^3
#
#
#
# Elastic Constant Matrix: (Units=GPa)
#
#
# Indices 1 2 3 4 5 6 
#
# 1 151.4089 77.9921 57.3226 -2.6992 42.1614 0.5183
# 2 77.9921 190.2118 26.5862 -7.8006 28.5261 -13.8805
# 3 57.3226 26.5862 89.8829 -2.9642 55.2242 -4.5931
# 4 -2.6992 -7.8006 -2.9642 29.9884 -0.2195 9.2550
# 5 42.1614 28.5261 55.2242 -0.2195 58.8280 8.4732
# 6 0.5183 -13.8805 -4.5931 9.2550 8.4732 64.5177
#
#
#
# Elastic Compliance Matrix: (Units=1/GPa)
#
#
# Indices 1 2 3 4 5 6 
#
# 1 0.010706 -0.003622 -0.005399 -0.000167 -0.000686 -0.001136
# 2 -0.003622 0.007110 0.002476 0.001116 -0.003464 0.002030
# 3 -0.005399 0.002476 0.030943 0.001103 -0.027268 0.006202
# 4 -0.000167 0.001116 0.001103 0.035157 -0.000658 -0.004637
# 5 -0.000686 -0.003464 -0.027268 -0.000658 0.046008 -0.008629
# 6 -0.001136 0.002030 0.006202 -0.004637 -0.008629 0.018185
#
#
# Mechanical properties :
#
#
# Convention : Reuss Voigt Hill
#
# Bulk Modulus (GPa) = 28.03550 83.92284 55.97917
# Shear Modulus (GPa) = 28.88693 48.64032 38.76363
#
# Velocity S-wave (km/s) = 3.33125 4.32269 3.85894
# Velocity P-wave (km/s) = 5.05632 7.56003 6.43119
#
# Compressibility (1/GPa) = 0.03566906
#
# Stress axis : x y z
#
# Youngs Moduli (GPa) = 93.40377 140.65050 32.31743
#
# Poissons Ratio (x) = 0.50946 0.17447
# Poissons Ratio (y) = 0.33832 -0.08001
# Poissons Ratio (z) = 0.50426 -0.34823
#
# Static dielectric constant tensor:
#      x y z
#    x 1.989100 0.039680 -0.069120 
#    y 0.039680 2.087580 -0.040130 
#    z -0.069120 -0.040130 2.227480 
# 
# From -- ./inp_files/5257.got.cif
#   From: 2010.05.17/outbox.cif.g08.bks.cpg/sg2_3_cif.got.tgz:5257.got - 2010.06.03 11:33:40.
