data_PCOD9071931
_publ_section_title
;
Structure prediction by ZEFSAII (Michael W. Deem and Ramdas Pophale) SiO2 
 PCOD9071931
Probable space group: P -1
;
_chemical_formula_sum "Si O2"
_cell_formula_units_Z 14
_cell_length_a 10.509880
_cell_length_b 10.911743
_cell_length_c 11.494603
_cell_angle_alpha 138.958531
_cell_angle_beta 36.690962
_cell_angle_gamma 126.665292
_cell_volume 517.063977
_symmetry_space_group_name_H-M "P -1"
_symmetry_group_IT_number 2
_symmetry_cell_setting 'triclinic'
loop_
_space_group_symop_operation_xyz
x,y,z
-x,-y,-z
loop_
_atom_site_type_symbol
_atom_site_label
_atom_site_fract_x
_atom_site_fract_y
_atom_site_fract_z
Si Si1 0.397528 0.406112 0.349759
Si Si2 0.162188 0.099885 0.038423
Si Si3 0.754192 0.519735 0.734677
Si Si4 0.359787 0.779171 0.769716
Si Si5 0.800367 0.126059 0.511282
Si Si6 0.874019 0.725304 0.154202
Si Si7 0.961675 0.323914 0.741869
O O1 0.380543 0.419641 0.234930
O O2 0.459351 0.609829 0.500197
O O3 0.543319 0.249186 0.193474
O O4 0.160518 0.373612 0.549560
O O5 0.231981 0.292203 0.065747
O O6 0.026158 0.133023 0.279879
O O7 0.363970 0.974779 0.840730
O O8 0.000000 0.000000 0.000000
O O9 0.689730 0.320300 0.688654
O O10 0.000000 0.500000 0.500000
O O11 0.106928 0.749147 0.941918
O O12 0.840888 0.165060 0.645901
O O13 0.735796 0.915479 0.373814
O O14 0.935302 0.728650 0.248441
O O15 0.823395 0.513451 0.003772
#
# Coordination Sequence:
#
# PCOD9071931 Si02
#       7
#     2   2   2   2   2   2   2
#     4  10  18  33  51  78 106 134 171 216 270 307
#     4  10  19  30  50  78 106 137 174 217 265 308
#     4  10  18  30  48  77 103 136 171 220 255 314
#     4   9  19  32  51  78 106 135 169 218 265 309
#     4  10  19  31  51  75 104 136 173 217 258 305
#     4   9  20  33  52  79 102 141 173 220 252 312
#     4  10  18  34  53  77 106 136 181 211 259 313
#
# _framework density 27.075953999999999
#
# number of rings (size 3 to 8) (size 9 to 14) (size 15 to 20)
#    0.000    2.286    2.857    2.143    4.000    0.571 
#    0.000    0.000    0.000    0.857    0.000    8.000 
#    0.000    0.000    0.000    0.000    0.000    0.000 
#
# Total GULP energy -78242.308446 kJ/mol
# GULP energy per Si atom -5588.736318 kJ/mol
# Density = 2.701433 g / cm^3
# Si number density = 27.075954 Si / 1000 Ang^3
#
#
#
# Elastic Constant Matrix: (Units=GPa)
#
#
# Indices 1 2 3 4 5 6 
#
# 1 116.2611 20.8200 41.7872 17.6162 -4.8674 -16.4226
# 2 20.8200 61.7444 51.0771 38.2072 -21.1875 -9.6028
# 3 41.7872 51.0771 116.8637 35.2032 1.9191 5.3638
# 4 17.6162 38.2072 35.2032 74.9268 -1.2298 -13.1620
# 5 -4.8674 -21.1875 1.9191 -1.2298 38.2249 1.0264
# 6 -16.4226 -9.6028 5.3638 -13.1620 1.0264 43.7124
#
#
#
# Elastic Compliance Matrix: (Units=1/GPa)
#
#
# Indices 1 2 3 4 5 6 
#
# 1 0.010931 0.002985 -0.005308 -0.000643 0.003154 0.005146
# 2 0.002985 0.055436 -0.021250 -0.016689 0.031365 0.010146
# 3 -0.005308 -0.021250 0.020068 0.000940 -0.013203 -0.008532
# 4 -0.000643 -0.016689 0.000940 0.021911 -0.008749 0.002780
# 5 0.003154 0.031365 -0.013203 -0.008749 0.044167 0.006024
# 6 0.005146 0.010146 -0.008532 0.002780 0.006024 0.028781
#
#
# Mechanical properties :
#
#
# Convention : Reuss Voigt Hill
#
# Bulk Modulus (GPa) = 25.45202 58.02644 41.73923
# Shear Modulus (GPa) = 20.70093 43.45181 32.07637
#
# Velocity S-wave (km/s) = 2.76805 4.01036 3.44565
# Velocity P-wave (km/s) = 4.43134 6.55145 5.59277
#
# Compressibility (1/GPa) = 0.03928961
#
# Stress axis : x y z
#
# Youngs Moduli (GPa) = 91.48432 18.03895 49.83107
#
# Poissons Ratio (x) = -0.05385 0.26449
# Poissons Ratio (y) = -0.27312 1.05891
# Poissons Ratio (z) = 0.48558 0.38333
#
# Static dielectric constant tensor:
#      x y z
#    x 2.067460 0.006530 -0.009900 
#    y 0.006530 2.252010 0.053220 
#    z -0.009900 0.053220 2.170740 
# 
# From -- ./inp_files/254650.got.cif
#   From: 2010.05.17/outbox.cif.g08.bks.cpg/sg2_128_cif.got.tgz:254650.got - 2010.06.03 11:33:40.
