data_PCOD9071656
_publ_section_title
;
Structure prediction by ZEFSAII (Michael W. Deem and Ramdas Pophale) SiO2 
 PCOD9071656
Probable space group: P -1
;
_chemical_formula_sum "Si O2"
_cell_formula_units_Z 14
_cell_length_a 14.835021
_cell_length_b 21.938067
_cell_length_c 7.087154
_cell_angle_alpha 66.459028
_cell_angle_beta 108.941369
_cell_angle_gamma 166.625743
_cell_volume 466.334479
_symmetry_space_group_name_H-M "P -1"
_symmetry_group_IT_number 2
_symmetry_cell_setting 'triclinic'
loop_
_space_group_symop_operation_xyz
x,y,z
-x,-y,-z
loop_
_atom_site_type_symbol
_atom_site_label
_atom_site_fract_x
_atom_site_fract_y
_atom_site_fract_z
Si Si1 0.553802 0.091978 0.193917
Si Si2 0.428941 0.580406 0.629890
Si Si3 0.518019 0.668166 0.131417
Si Si4 0.455696 0.457015 0.745628
Si Si5 0.449191 0.879617 0.405614
Si Si6 0.528587 0.250464 0.479973
Si Si7 0.474493 0.185205 0.961541
O O1 0.675500 0.098999 0.210495
O O2 0.057380 0.751370 0.253767
O O3 0.640478 0.160495 0.390947
O O4 0.661478 0.238408 0.013585
O O5 0.464723 0.616831 0.383126
O O6 0.610722 0.630636 0.731258
O O7 0.606586 0.765202 0.632520
O O8 0.380964 0.505621 0.142175
O O9 0.356530 0.634595 0.036585
O O10 0.000000 0.000000 0.000000
O O11 0.500000 0.500000 0.500000
O O12 0.977043 0.129961 0.873124
O O13 0.633076 0.929934 0.482972
O O14 0.018889 0.582012 0.373628
O O15 0.466280 0.200741 0.721286
#
# Coordination Sequence:
#
# PCOD9071656 Si02
#       7
#     2   2   2   2   2   2   2
#     4   9  17  29  44  62  86 114 146 175 212 253
#     4   8  14  25  42  64  86 110 141 175 206 252
#     4   8  13  22  39  66  88 105 134 178 214 241
#     4   8  13  23  41  66  88 109 136 173 214 251
#     4   9  18  31  44  59  85 122 145 171 214 258
#     4   9  17  29  44  63  88 112 145 179 211 248
#     4   9  16  25  42  68  88 106 141 185 210 243
#
# _framework density 30.021370000000001
#
# number of rings (size 3 to 8) (size 9 to 14) (size 15 to 20)
#    0.000    3.429    0.000    0.000    0.000    1.143 
#    0.000    0.000    0.000    0.000    0.000  126.000 
#    0.000    0.000    0.000    0.000    0.000    0.000 
#
# Total GULP energy -78351.972821 kJ/mol
# GULP energy per Si atom -5596.569487 kJ/mol
# Density = 2.995304 g / cm^3
# Si number density = 30.021370 Si / 1000 Ang^3
#
#
#
# Elastic Constant Matrix: (Units=GPa)
#
#
# Indices 1 2 3 4 5 6 
#
# 1 398.0403 72.4253 69.9262 -20.9840 77.1509 -33.0753
# 2 72.4253 103.3329 42.0531 -16.6396 25.1910 -17.6646
# 3 69.9262 42.0531 99.2897 -12.9966 9.1055 -18.7852
# 4 -20.9840 -16.6396 -12.9966 42.7978 -21.3037 19.7944
# 5 77.1509 25.1910 9.1055 -21.3037 77.7919 -14.0556
# 6 -33.0753 -17.6646 -18.7852 19.7944 -14.0556 58.2541
#
#
#
# Elastic Compliance Matrix: (Units=1/GPa)
#
#
# Indices 1 2 3 4 5 6 
#
# 1 0.003663 -0.001087 -0.001827 -0.001152 -0.003243 0.000770
# 2 -0.001087 0.013080 -0.004178 0.001884 -0.001993 0.000881
# 3 -0.001827 -0.004178 0.013529 0.001882 0.002460 0.002013
# 4 -0.001152 0.001884 0.001882 0.031737 0.007476 -0.008456
# 5 -0.003243 -0.001993 0.002460 0.007476 0.018526 0.000277
# 6 0.000770 0.000881 0.002013 -0.008456 0.000277 0.021460
#
#
# Mechanical properties :
#
#
# Convention : Reuss Voigt Hill
#
# Bulk Modulus (GPa) = 62.16001 107.71909 84.93955
# Shear Modulus (GPa) = 41.13814 63.51930 52.32872
#
# Velocity S-wave (km/s) = 3.70577 4.60478 4.17951
# Velocity P-wave (km/s) = 6.24984 8.01440 7.18648
#
# Compressibility (1/GPa) = 0.01608751
#
# Stress axis : x y z
#
# Youngs Moduli (GPa) = 273.00544 76.45506 73.91342
#
# Poissons Ratio (x) = 0.08311 0.13504
# Poissons Ratio (y) = 0.29677 0.30882
# Poissons Ratio (z) = 0.49877 0.31944
#
# Static dielectric constant tensor:
#      x y z
#    x 2.419830 0.045650 0.031540 
#    y 0.045650 2.322970 -0.057810 
#    z 0.031540 -0.057810 2.397880 
# 
# From -- ./inp_files/109445.got.cif
#   From: 2010.05.17/outbox.cif.g08.bks.cpg/sg2_55_cif.got.tgz:109445.got - 2010.06.03 11:33:40.
