data_PCOD9071974
_publ_section_title
;
Structure prediction by ZEFSAII (Michael W. Deem and Ramdas Pophale) SiO2 
 PCOD9071974
Probable space group: P -1
;
_chemical_formula_sum "Si O2"
_cell_formula_units_Z 16
_cell_length_a 11.580730
_cell_length_b 9.220747
_cell_length_c 13.079836
_cell_angle_alpha 130.362567
_cell_angle_beta 89.123409
_cell_angle_gamma 121.669044
_cell_volume 784.044151
_symmetry_space_group_name_H-M "P -1"
_symmetry_group_IT_number 2
_symmetry_cell_setting 'triclinic'
loop_
_space_group_symop_operation_xyz
x,y,z
-x,-y,-z
loop_
_atom_site_type_symbol
_atom_site_label
_atom_site_fract_x
_atom_site_fract_y
_atom_site_fract_z
Si Si1 0.079523 0.822725 0.252656
Si Si2 0.826767 0.454274 0.916559
Si Si3 0.300621 0.385728 0.541835
Si Si4 0.573098 0.955094 0.831283
Si Si5 0.705996 0.074637 0.105586
Si Si6 0.165686 0.159777 0.659783
Si Si7 0.321744 0.336462 0.958460
Si Si8 0.954783 0.585603 0.445553
O O1 0.116008 0.648218 0.206691
O O2 0.975190 0.842735 0.335786
O O3 0.239469 0.120628 0.374059
O O4 0.977582 0.685766 0.087685
O O5 0.702062 0.202008 0.873493
O O6 0.733187 0.537329 0.921418
O O7 0.471227 0.667058 0.655934
O O8 0.273822 0.327331 0.638354
O O9 0.173755 0.399949 0.511610
O O10 0.439867 0.964765 0.865405
O O11 0.661712 0.995374 0.952435
O O12 0.862113 0.368242 0.260236
O O13 0.727002 0.903074 0.087898
O O14 0.246036 0.277854 0.821493
O O15 0.101271 0.873017 0.536496
O O16 0.500000 0.500000 0.000000
O O17 0.000000 0.500000 0.500000
#
# Coordination Sequence:
#
# PCOD9071974 Si02
#       8
#     2   2   2   2   2   2   2   2
#     4   9  20  36  54  79 109 150 181 219 267 332
#     4  10  21  35  57  79 109 148 185 217 271 333
#     4  10  21  35  57  83 109 141 186 228 271 320
#     4  10  21  34  55  84 106 144 183 223 275 318
#     4  10  20  32  51  83 114 132 179 230 274 318
#     4  10  20  34  57  83 111 142 183 224 274 325
#     4  11  19  32  54  81 111 142 177 232 275 316
#     4  10  18  30  49  82 109 138 172 226 280 312
#
# _framework density 20.407015999999999
#
# number of rings (size 3 to 8) (size 9 to 14) (size 15 to 20)
#    0.000    2.000    2.500    2.250   10.500    0.500 
#    0.000    0.000    0.000   15.750    0.000    0.000 
#    0.000    0.000    0.000    0.000    0.000    0.000 
#
# Total GULP energy -89220.544456 kJ/mol
# GULP energy per Si atom -5576.284029 kJ/mol
# Density = 2.036057 g / cm^3
# Si number density = 20.407016 Si / 1000 Ang^3
#
#
#
# Elastic Constant Matrix: (Units=GPa)
#
#
# Indices 1 2 3 4 5 6 
#
# 1 93.8021 38.5981 32.1734 9.5625 -9.6864 -17.7058
# 2 38.5981 87.5078 23.2410 12.4738 -0.6742 -9.1649
# 3 32.1734 23.2410 104.7024 29.9986 -1.5038 -6.5700
# 4 9.5625 12.4738 29.9986 27.5883 -12.0417 4.2005
# 5 -9.6864 -0.6742 -1.5038 -12.0417 30.1988 6.6762
# 6 -17.7058 -9.1649 -6.5700 4.2005 6.6762 36.1553
#
#
#
# Elastic Compliance Matrix: (Units=1/GPa)
#
#
# Indices 1 2 3 4 5 6 
#
# 1 0.015338 -0.005687 -0.004046 0.003212 0.004978 0.004042
# 2 -0.005687 0.015271 0.001150 -0.009283 -0.005893 0.003462
# 3 -0.004046 0.001150 0.017823 -0.024572 -0.011631 0.006551
# 4 0.003212 -0.009283 -0.024572 0.086537 0.039084 -0.022516
# 5 0.004978 -0.005893 -0.011631 0.039084 0.053011 -0.015499
# 6 0.004042 0.003462 0.006551 -0.022516 -0.015499 0.037184
#
#
# Mechanical properties :
#
#
# Convention : Reuss Voigt Hill
#
# Bulk Modulus (GPa) = 31.98296 52.67081 42.32688
# Shear Modulus (GPa) = 19.78225 31.58848 25.68536
#
# Velocity S-wave (km/s) = 3.11687 3.93863 3.55160
# Velocity P-wave (km/s) = 5.35348 6.82275 6.13228
#
# Compressibility (1/GPa) = 0.03126665
#
# Stress axis : x y z
#
# Youngs Moduli (GPa) = 65.19660 65.48388 56.10712
#
# Poissons Ratio (x) = 0.37241 0.22700
# Poissons Ratio (y) = 0.37077 -0.06453
# Poissons Ratio (z) = 0.26378 -0.07531
#
# Static dielectric constant tensor:
#      x y z
#    x 1.791490 0.016580 -0.015820 
#    y 0.016580 1.750430 0.008100 
#    z -0.015820 0.008100 1.785630 
# 
# From -- ./inp_files/259401.got.cif
#   From: 2010.05.17/outbox.cif.g08.bks.cpg/sg2_130_cif.got.tgz:259401.got - 2010.06.03 11:33:40.
