data_PCOD9071944
_publ_section_title
;
Structure prediction by ZEFSAII (Michael W. Deem and Ramdas Pophale) SiO2 
 PCOD9071944
Probable space group: P -1
;
_chemical_formula_sum "Si O2"
_cell_formula_units_Z 14
_cell_length_a 11.759141
_cell_length_b 11.257749
_cell_length_c 9.539705
_cell_angle_alpha 56.398215
_cell_angle_beta 135.868139
_cell_angle_gamma 143.933295
_cell_volume 516.598169
_symmetry_space_group_name_H-M "P -1"
_symmetry_group_IT_number 2
_symmetry_cell_setting 'triclinic'
loop_
_space_group_symop_operation_xyz
x,y,z
-x,-y,-z
loop_
_atom_site_type_symbol
_atom_site_label
_atom_site_fract_x
_atom_site_fract_y
_atom_site_fract_z
Si Si1 0.568692 0.603682 0.793851
Si Si2 0.143600 0.185177 0.848275
Si Si3 0.846226 0.495243 0.019162
Si Si4 0.775505 0.553996 0.612284
Si Si5 0.195806 0.118871 0.478233
Si Si6 0.730440 0.149141 0.294726
Si Si7 0.136429 0.707730 0.398746
O O1 0.348796 0.386848 0.809820
O O2 0.719795 0.563658 0.905523
O O3 0.452041 0.630690 0.555927
O O4 0.712406 0.785897 0.912806
O O5 0.964780 0.978321 0.740106
O O6 0.991121 0.221682 0.742296
O O7 0.854007 0.516953 0.843649
O O8 0.689279 0.264310 0.087820
O O9 0.083944 0.641441 0.230900
O O10 0.994805 0.698294 0.606152
O O11 0.706302 0.668038 0.532366
O O12 0.337350 0.057754 0.657590
O O13 0.000000 0.000000 0.500000
O O14 0.663551 0.145278 0.400460
O O15 0.000000 0.500000 0.500000
#
# Coordination Sequence:
#
# PCOD9071944 Si02
#       7
#     2   2   2   2   2   2   2
#     4  10  18  30  49  73 102 127 163 202 243 293
#     4   9  16  30  50  72  93 133 170 195 234 293
#     4  10  20  29  48  79 102 123 160 211 251 279
#     4  11  19  32  52  76 101 126 162 209 247 284
#     4   9  16  31  53  72  95 129 170 199 235 293
#     4   9  17  33  50  70  97 134 168 196 237 296
#     4   8  14  28  47  68  94 122 163 198 228 280
#
# _framework density 27.100369000000001
#
# number of rings (size 3 to 8) (size 9 to 14) (size 15 to 20)
#    0.000    2.571    4.286    0.857    0.000    0.000 
#    0.000    7.143    0.000    0.000    0.000   13.000 
#    0.000    1.000    0.000    0.000    0.000    0.000 
#
# Total GULP energy -77935.218335 kJ/mol
# GULP energy per Si atom -5566.801310 kJ/mol
# Density = 2.703869 g / cm^3
# Si number density = 27.100369 Si / 1000 Ang^3
#
#
#
# Elastic Constant Matrix: (Units=GPa)
#
#
# Indices 1 2 3 4 5 6 
#
# 1 38.0841 23.7155 28.6450 3.5666 -16.5420 -11.0519
# 2 23.7155 107.7191 54.6583 -0.0341 3.9528 -11.7963
# 3 28.6450 54.6583 216.6547 22.4154 -29.5392 -11.0094
# 4 3.5666 -0.0341 22.4154 56.9494 -4.5429 -2.8936
# 5 -16.5420 3.9528 -29.5392 -4.5429 49.9460 -0.0567
# 6 -11.0519 -11.7963 -11.0094 -2.8936 -0.0567 34.7425
#
#
#
# Elastic Compliance Matrix: (Units=1/GPa)
#
#
# Indices 1 2 3 4 5 6 
#
# 1 0.040687 -0.007859 -0.000996 -0.000582 0.013467 0.009932
# 2 -0.007859 0.012843 -0.003005 0.001313 -0.005276 0.001009
# 3 -0.000996 -0.003005 0.006207 -0.002089 0.003390 0.000462
# 4 -0.000582 0.001313 -0.002089 0.018489 0.000151 0.001139
# 5 0.013467 -0.005276 0.003390 0.000151 0.026922 0.003623
# 6 0.009932 0.001009 0.000462 0.001139 0.003623 0.032532
#
#
# Mechanical properties :
#
#
# Convention : Reuss Voigt Hill
#
# Bulk Modulus (GPa) = 27.76424 64.05504 45.90964
# Shear Modulus (GPa) = 28.83431 45.35687 37.09559
#
# Velocity S-wave (km/s) = 3.26541 4.09548 3.70377
# Velocity P-wave (km/s) = 4.94818 6.78612 5.93868
#
# Compressibility (1/GPa) = 0.03601755
#
# Stress axis : x y z
#
# Youngs Moduli (GPa) = 24.57804 77.86413 161.10726
#
# Poissons Ratio (x) = 0.61194 0.16041
# Poissons Ratio (y) = 0.19316 0.48410
# Poissons Ratio (z) = 0.02447 0.23397
#
# Static dielectric constant tensor:
#      x y z
#    x 5.375600 2.455030 -4.649760 
#    y 2.455030 4.064440 -3.401290 
#    z -4.649760 -3.401290 8.709200 
# 
# From -- ./inp_files/235353.got.cif
#   From: 2010.05.17/outbox.cif.g08.bks.cpg/sg2_118_cif.got.tgz:235353.got - 2010.06.03 11:33:40.
