data_PCOD9071556
_publ_section_title
;
Structure prediction by ZEFSAII (Michael W. Deem and Ramdas Pophale) SiO2 
 PCOD9071556
Probable space group: P -1
;
_chemical_formula_sum "Si O2"
_cell_formula_units_Z 12
_cell_length_a 15.382229
_cell_length_b 9.220711
_cell_length_c 5.324683
_cell_angle_alpha 95.349925
_cell_angle_beta 84.351890
_cell_angle_gamma 42.190780
_cell_volume 488.901396
_symmetry_space_group_name_H-M "P -1"
_symmetry_group_IT_number 2
_symmetry_cell_setting 'triclinic'
loop_
_space_group_symop_operation_xyz
x,y,z
-x,-y,-z
loop_
_atom_site_type_symbol
_atom_site_label
_atom_site_fract_x
_atom_site_fract_y
_atom_site_fract_z
Si Si1 0.568440 0.539761 0.658764
Si Si2 0.962714 0.883155 0.055442
Si Si3 0.352277 0.001476 0.086612
Si Si4 0.138071 0.412410 0.899843
Si Si5 0.795368 0.049772 0.632583
Si Si6 0.637434 0.762593 0.540121
O O1 0.500000 0.500000 0.500000
O O2 0.686657 0.314248 0.743492
O O3 0.628272 0.600511 0.497030
O O4 0.466101 0.754595 0.903579
O O5 0.862894 0.994158 0.336985
O O6 0.092482 0.625904 0.058025
O O7 0.899080 0.910817 0.811978
O O8 0.000000 0.000000 0.000000
O O9 0.288835 0.993205 0.335067
O O10 0.373144 0.143909 0.174745
O O11 0.241020 0.166041 0.937764
O O12 0.219551 0.364938 0.625633
O O13 0.000000 0.500000 0.000000
O O14 0.500000 0.000000 0.500000
#
# Coordination Sequence:
#
# PCOD9071556 Si02
#       6
#     2   2   2   2   2   2
#     4  12  27  51  80 118 162 212 274 341 408 487
#     4  12  28  48  77 114 162 215 271 332 408 491
#     4  12  27  48  81 115 159 211 274 334 413 479
#     4  12  27  49  79 114 164 211 268 336 404 489
#     4  12  27  49  76 113 161 213 273 331 410 482
#     4  12  27  49  80 119 159 207 277 337 407 484
#
# _framework density 24.544830000000001
#
# number of rings (size 3 to 8) (size 9 to 14) (size 15 to 20)
#    0.000    0.000    3.333    5.500    4.667    2.667 
#    0.000    0.000    0.000    0.000    0.000    0.000 
#    0.000    0.000    0.000    0.000    0.000    0.000 
#
# Total GULP energy -66956.450975 kJ/mol
# GULP energy per Si atom -5579.704248 kJ/mol
# Density = 2.448896 g / cm^3
# Si number density = 24.544830 Si / 1000 Ang^3
#
#
#
# Elastic Constant Matrix: (Units=GPa)
#
#
# Indices 1 2 3 4 5 6 
#
# 1 121.1349 6.3670 59.5792 16.3980 -18.7186 37.0572
# 2 6.3670 128.6266 32.9817 23.9878 -11.1856 27.3228
# 3 59.5792 32.9817 126.0681 19.8937 -31.9057 -5.1568
# 4 16.3980 23.9878 19.8937 45.0869 0.5213 -6.2114
# 5 -18.7186 -11.1856 -31.9057 0.5213 45.7727 -1.7527
# 6 37.0572 27.3228 -5.1568 -6.2114 -1.7527 52.1599
#
#
#
# Elastic Compliance Matrix: (Units=1/GPa)
#
#
# Indices 1 2 3 4 5 6 
#
# 1 0.022306 0.008975 -0.011429 -0.011030 0.002598 -0.022905
# 2 0.008975 0.014443 -0.006487 -0.010279 0.002193 -0.015734
# 3 -0.011429 -0.006487 0.016770 0.002015 0.005929 0.013615
# 4 -0.011030 -0.010279 0.002015 0.033201 -0.005338 0.017195
# 5 0.002598 0.002193 0.005929 -0.005338 0.027558 -0.002118
# 6 -0.022905 -0.015734 0.013615 0.017195 -0.002118 0.047009
#
#
# Mechanical properties :
#
#
# Convention : Reuss Voigt Hill
#
# Bulk Modulus (GPa) = 28.05977 63.74280 45.90128
# Shear Modulus (GPa) = 26.17154 47.06401 36.61778
#
# Velocity S-wave (km/s) = 3.26893 4.38364 3.86667
# Velocity P-wave (km/s) = 5.06998 7.18666 6.21904
#
# Compressibility (1/GPa) = 0.03563822
#
# Stress axis : x y z
#
# Youngs Moduli (GPa) = 44.83059 69.23642 59.63147
#
# Poissons Ratio (x) = -0.62138 0.68151
# Poissons Ratio (y) = -0.40234 0.38680
# Poissons Ratio (z) = 0.51235 0.44911
#
# Static dielectric constant tensor:
#      x y z
#    x 1.783390 0.572050 -0.644170 
#    y 0.572050 1.110000 0.781500 
#    z -0.644170 0.781500 1.212190 
# 
# From -- ./inp_files/87637.got.cif
#   From: 2010.05.17/outbox.cif.g08.bks.cpg/sg2_44_cif.got.tgz:87637.got - 2010.06.03 11:33:40.
