data_PCOD9071176
_publ_section_title
;
Structure prediction by ZEFSAII (Michael W. Deem and Ramdas Pophale) SiO2 
 PCOD9071176
Probable space group: P -1
;
_chemical_formula_sum "Si O2"
_cell_formula_units_Z 14
_cell_length_a 27.425846
_cell_length_b 24.891557
_cell_length_c 6.350694
_cell_angle_alpha 117.073810
_cell_angle_beta 62.821234
_cell_angle_gamma 169.935451
_cell_volume 673.589013
_symmetry_space_group_name_H-M "P -1"
_symmetry_group_IT_number 2
_symmetry_cell_setting 'triclinic'
loop_
_space_group_symop_operation_xyz
x,y,z
-x,-y,-z
loop_
_atom_site_type_symbol
_atom_site_label
_atom_site_fract_x
_atom_site_fract_y
_atom_site_fract_z
Si Si1 0.316223 0.360355 0.566179
Si Si2 0.314259 0.166992 0.643777
Si Si3 0.958730 0.240576 0.783047
Si Si4 0.386946 0.668810 0.063137
Si Si5 0.329603 0.716353 0.580380
Si Si6 0.955293 0.425799 0.705811
Si Si7 0.743468 0.596184 0.914169
O O1 0.500000 0.500000 0.500000
O O2 0.471638 0.563103 0.434171
O O3 0.302979 0.394481 0.840228
O O4 0.000000 0.000000 0.500000
O O5 0.504817 0.341603 0.755178
O O6 0.164621 0.951617 0.429605
O O7 0.061382 0.935825 0.811455
O O8 0.134766 0.473787 0.702700
O O9 0.162689 0.437818 0.913054
O O10 0.696403 0.993989 0.946625
O O11 0.382465 0.721517 0.315066
O O12 0.303881 0.516917 0.069216
O O13 0.160789 0.590334 0.595363
O O14 0.626493 0.056435 0.694157
O O15 0.000000 0.500000 0.500000
O O16 0.000000 0.500000 0.000000
#
# Coordination Sequence:
#
# PCOD9071176 Si02
#       7
#     2   2   2   2   2   2   2
#     4  12  28  46  69  98 139 196 246 288 364 454
#     4  12  26  45  72 103 144 184 238 308 376 433
#     4  12  26  44  76 111 148 186 241 311 378 439
#     4  12  26  44  76 111 148 186 241 311 378 439
#     4  12  28  48  80 112 147 197 258 300 374 451
#     4  12  30  54  79 112 164 211 254 312 374 455
#     4  12  26  45  72 103 144 184 238 308 376 433
#
# _framework density 20.784186999999999
#
# number of rings (size 3 to 8) (size 9 to 14) (size 15 to 20)
#    0.000    0.000    2.857    6.000   10.000    3.429 
#    0.000    0.000    0.000    0.000    0.000    0.000 
#    0.000    0.000    0.000    0.000    0.000    0.000 
#
# Total GULP energy -78242.279548 kJ/mol
# GULP energy per Si atom -5588.734253 kJ/mol
# Density = 2.073688 g / cm^3
# Si number density = 20.784187 Si / 1000 Ang^3
#
#
#
# Elastic Constant Matrix: (Units=GPa)
#
#
# Indices 1 2 3 4 5 6 
#
# 1 178.3936 91.6843 104.6641 13.4675 -2.0544 27.1923
# 2 91.6843 217.3239 85.5271 -5.3984 18.1493 13.5585
# 3 104.6641 85.5271 149.1405 -3.5925 0.6331 10.7083
# 4 13.4675 -5.3984 -3.5925 45.4940 14.5773 -0.9105
# 5 -2.0544 18.1493 0.6331 14.5773 42.2887 -3.8339
# 6 27.1923 13.5585 10.7083 -0.9105 -3.8339 52.0793
#
#
#
# Elastic Compliance Matrix: (Units=1/GPa)
#
#
# Indices 1 2 3 4 5 6 
#
# 1 0.011972 -0.002534 -0.006806 -0.005523 0.003308 -0.004045
# 2 -0.002534 0.006909 -0.002081 0.002684 -0.004009 -0.000296
# 3 -0.006806 -0.002081 0.012640 0.002959 -0.000510 0.001511
# 4 -0.005523 0.002684 0.002959 0.027684 -0.010893 0.001259
# 5 0.003308 -0.004009 -0.000510 -0.010893 0.029418 0.001397
# 6 -0.004045 -0.000296 0.001511 0.001259 0.001397 0.021205
#
#
# Mechanical properties :
#
#
# Convention : Reuss Voigt Hill
#
# Bulk Modulus (GPa) = 115.20370 123.17879 119.19124
# Shear Modulus (GPa) = 36.88346 45.50457 41.19402
#
# Velocity S-wave (km/s) = 4.21716 4.68416 4.45678
# Velocity P-wave (km/s) = 8.90289 9.41538 9.16272
#
# Compressibility (1/GPa) = 0.00868028
#
# Stress axis : x y z
#
# Youngs Moduli (GPa) = 83.52678 144.73062 79.11584
#
# Poissons Ratio (x) = 0.36669 0.53843
# Poissons Ratio (y) = 0.21162 0.16467
# Poissons Ratio (z) = 0.56845 0.30123
#
# Static dielectric constant tensor:
#      x y z
#    x 1.696410 -0.047210 0.018340 
#    y -0.047210 1.672170 -0.021970 
#    z 0.018340 -0.021970 1.796020 
# 
# From -- ./inp_files/125189.got.cif
#   From: 2010.05.17/outbox.cif.g08.bks.cpg/sg2_63_cif.got.tgz:125189.got - 2010.06.03 11:33:40.
