data_PCOD9071251
_publ_section_title
;
Structure prediction by ZEFSAII (Michael W. Deem and Ramdas Pophale) SiO2 
 PCOD9071251
Probable space group: P -1
;
_chemical_formula_sum "Si O2"
_cell_formula_units_Z 16
_cell_length_a 9.097125
_cell_length_b 8.951847
_cell_length_c 13.866199
_cell_angle_alpha 129.841890
_cell_angle_beta 108.956497
_cell_angle_gamma 97.136976
_cell_volume 729.071735
_symmetry_space_group_name_H-M "P -1"
_symmetry_group_IT_number 2
_symmetry_cell_setting 'triclinic'
loop_
_space_group_symop_operation_xyz
x,y,z
-x,-y,-z
loop_
_atom_site_type_symbol
_atom_site_label
_atom_site_fract_x
_atom_site_fract_y
_atom_site_fract_z
Si Si1 0.411537 0.233915 0.869170
Si Si2 0.971920 0.213960 0.071976
Si Si3 0.685539 0.085168 0.121895
Si Si4 0.399522 0.309248 0.477922
Si Si5 0.862446 0.540363 0.426823
Si Si6 0.720746 0.164715 0.829385
Si Si7 0.138567 0.915488 0.520160
Si Si8 0.706876 0.322576 0.677781
O O1 0.574115 0.181509 0.870437
O O2 0.312406 0.109381 0.893884
O O3 0.275878 0.096420 0.698138
O O4 0.500000 0.500000 0.000000
O O5 0.833425 0.177507 0.111119
O O6 0.147866 0.434431 0.216450
O O7 0.892147 0.237231 0.961715
O O8 0.000000 0.000000 0.000000
O O9 0.713067 0.297312 0.275761
O O10 0.500000 0.000000 0.000000
O O11 0.500000 0.500000 0.500000
O O12 0.233386 0.330582 0.493135
O O13 0.527687 0.309164 0.591177
O O14 0.337020 0.082635 0.315604
O O15 0.000000 0.500000 0.500000
O O16 0.994260 0.679910 0.429568
O O17 0.720773 0.287516 0.780466
O O18 0.248678 0.855955 0.440710
O O19 0.000000 0.000000 0.500000
#
# Coordination Sequence:
#
# PCOD9071251 Si02
#       8
#     2   2   2   2   2   2   2   2
#     4  12  29  48  76 111 154 196 245 312 384 452
#     4  12  29  48  77 108 148 201 252 311 381 447
#     4  12  27  49  75 107 149 194 252 306 375 453
#     4  12  26  46  79 108 149 198 252 312 379 449
#     4  12  26  48  77 108 146 194 254 318 368 442
#     4  12  27  50  71 110 152 196 252 306 380 455
#     4  12  27  47  76 111 146 198 254 306 377 445
#     4  12  27  50  76 109 154 199 252 315 376 452
#
# _framework density 21.945715
#
# number of rings (size 3 to 8) (size 9 to 14) (size 15 to 20)
#    0.000    0.000    5.000    3.750   10.500    1.000 
#    0.000    0.000    0.000    0.000    0.000    0.000 
#    0.000    0.000    0.000    0.000    0.000    0.000 
#
# Total GULP energy -89394.508514 kJ/mol
# GULP energy per Si atom -5587.156782 kJ/mol
# Density = 2.189577 g / cm^3
# Si number density = 21.945715 Si / 1000 Ang^3
#
#
#
# Elastic Constant Matrix: (Units=GPa)
#
#
# Indices 1 2 3 4 5 6 
#
# 1 111.5782 21.3485 27.5256 -2.9367 0.2853 -19.2821
# 2 21.3485 113.2274 24.4080 3.3136 -2.8434 0.9630
# 3 27.5256 24.4080 138.6167 18.4326 12.6753 -17.1328
# 4 -2.9367 3.3136 18.4326 47.1667 -5.5976 7.8666
# 5 0.2853 -2.8434 12.6753 -5.5976 33.3358 -0.9504
# 6 -19.2821 0.9630 -17.1328 7.8666 -0.9504 48.2221
#
#
#
# Elastic Compliance Matrix: (Units=1/GPa)
#
#
# Indices 1 2 3 4 5 6 
#
# 1 0.010267 -0.001657 -0.001476 0.000818 0.000569 0.003492
# 2 -0.001657 0.009555 -0.001716 0.000321 0.001493 -0.001486
# 3 -0.001476 -0.001716 0.009248 -0.004668 -0.004337 0.003406
# 4 0.000818 0.000321 -0.004668 0.024614 0.005779 -0.005239
# 5 0.000569 0.001493 -0.004337 0.005779 0.032693 -0.001642
# 6 0.003492 -0.001486 0.003406 -0.005239 -0.001642 0.024196
#
#
# Mechanical properties :
#
#
# Convention : Reuss Voigt Hill
#
# Bulk Modulus (GPa) = 51.62464 56.66517 54.14490
# Shear Modulus (GPa) = 39.45468 45.08760 42.27114
#
# Velocity S-wave (km/s) = 4.24468 4.53758 4.39357
# Velocity P-wave (km/s) = 6.89913 7.30271 7.10378
#
# Compressibility (1/GPa) = 0.01937060
#
# Stress axis : x y z
#
# Youngs Moduli (GPa) = 97.39940 104.65807 108.13482
#
# Poissons Ratio (x) = 0.17341 0.15963
# Poissons Ratio (y) = 0.16138 0.18561
# Poissons Ratio (z) = 0.14378 0.17964
#
# Static dielectric constant tensor:
#      x y z
#    x 1.711280 0.062430 -0.026640 
#    y 0.062430 1.799240 -0.044080 
#    z -0.026640 -0.044080 1.794750 
# 
# From -- ./inp_files/495771.got.cif
#   From: 2010.05.17/outbox.cif.g08.bks.cpg/sg2_248_cif.got.tgz:495771.got - 2010.06.03 11:33:40.
