data_PCOD9071496
_publ_section_title
;
Structure prediction by ZEFSAII (Michael W. Deem and Ramdas Pophale) SiO2 
 PCOD9071496
Probable space group: P -1
;
_chemical_formula_sum "Si O2"
_cell_formula_units_Z 12
_cell_length_a 4.971637
_cell_length_b 14.191795
_cell_length_c 8.277196
_cell_angle_alpha 109.686207
_cell_angle_beta 54.081959
_cell_angle_gamma 99.937604
_cell_volume 445.080078
_symmetry_space_group_name_H-M "P -1"
_symmetry_group_IT_number 2
_symmetry_cell_setting 'triclinic'
loop_
_space_group_symop_operation_xyz
x,y,z
-x,-y,-z
loop_
_atom_site_type_symbol
_atom_site_label
_atom_site_fract_x
_atom_site_fract_y
_atom_site_fract_z
Si Si1 0.053655 0.383693 0.469982
Si Si2 0.229910 0.023776 0.779539
Si Si3 0.784101 0.286960 0.119254
Si Si4 0.140201 0.854458 0.290444
Si Si5 0.204222 0.808941 0.602009
Si Si6 0.109078 0.491612 0.134666
O O1 0.745449 0.310314 0.517880
O O2 0.398231 0.326424 0.269736
O O3 0.072296 0.413446 0.665863
O O4 0.000000 0.500000 0.500000
O O5 0.490284 0.106705 0.783607
O O6 0.386957 0.913973 0.612531
O O7 0.012372 0.059317 0.723098
O O8 0.000000 0.000000 0.000000
O O9 0.992003 0.381539 0.159314
O O10 0.857113 0.207705 0.191850
O O11 0.864987 0.239164 0.887574
O O12 0.015053 0.831429 0.505235
O O13 0.500000 0.500000 0.000000
O O14 0.000000 0.500000 0.000000
#
# Coordination Sequence:
#
# PCOD9071496 Si02
#       6
#     2   2   2   2   2   2
#     4  12  27  51  79 115 165 217 275 335 411 484
#     4  12  26  52  80 118 164 215 266 343 406 491
#     4  12  28  51  83 117 167 219 272 342 417 482
#     4  12  29  51  83 121 161 210 278 334 412 491
#     4  12  28  47  83 115 167 214 277 332 417 485
#     4  12  28  50  78 114 157 210 274 333 397 482
#
# _framework density 26.961442999999999
#
# number of rings (size 3 to 8) (size 9 to 14) (size 15 to 20)
#    0.000    0.000    3.333    5.000    7.000    1.333 
#    0.000    0.000    0.000    0.000    0.000    0.000 
#    0.000    0.000    0.000    0.000    0.000    0.000 
#
# Total GULP energy -66809.625232 kJ/mol
# GULP energy per Si atom -5567.468769 kJ/mol
# Density = 2.690008 g / cm^3
# Si number density = 26.961443 Si / 1000 Ang^3
#
#
#
# Elastic Constant Matrix: (Units=GPa)
#
#
# Indices 1 2 3 4 5 6 
#
# 1 155.9096 34.3786 37.8691 -20.8438 21.1523 -12.1675
# 2 34.3786 160.4792 29.8492 30.0858 -6.4104 -11.6131
# 3 37.8691 29.8492 90.0649 -2.2472 28.8064 -11.6355
# 4 -20.8438 30.0858 -2.2472 51.0990 2.2549 25.2365
# 5 21.1523 -6.4104 28.8064 2.2549 47.1381 -6.7801
# 6 -12.1675 -11.6131 -11.6355 25.2365 -6.7801 49.1280
#
#
#
# Elastic Compliance Matrix: (Units=1/GPa)
#
#
# Indices 1 2 3 4 5 6 
#
# 1 0.008850 -0.003453 -0.001416 0.007455 -0.004421 -0.003399
# 2 -0.003453 0.010801 -0.003620 -0.012227 0.006978 0.008085
# 3 -0.001416 -0.003620 0.016095 0.002789 -0.009853 -0.000187
# 4 0.007455 -0.012227 0.002789 0.042189 -0.012144 -0.023731
# 5 -0.004421 0.006978 -0.009853 -0.012144 0.032026 0.008879
# 6 -0.003399 0.008085 -0.000187 -0.023731 0.008879 0.034796
#
#
# Mechanical properties :
#
#
# Convention : Reuss Voigt Hill
#
# Bulk Modulus (GPa) = 53.28231 67.84973 60.56602
# Shear Modulus (GPa) = 29.76344 49.76347 39.76346
#
# Velocity S-wave (km/s) = 3.32614 4.30085 3.84451
# Velocity P-wave (km/s) = 5.87846 7.06281 6.49767
#
# Compressibility (1/GPa) = 0.01876795
#
# Stress axis : x y z
#
# Youngs Moduli (GPa) = 112.98909 92.58829 62.13023
#
# Poissons Ratio (x) = 0.31968 0.08798
# Poissons Ratio (y) = 0.39012 0.22493
# Poissons Ratio (z) = 0.16000 0.33520
#
# Static dielectric constant tensor:
#      x y z
#    x 2.191180 -0.046480 0.184570 
#    y -0.046480 2.035520 -0.143630 
#    z 0.184570 -0.143630 2.494860 
# 
# From -- ./inp_files/132488.got.cif
#   From: 2010.05.17/outbox.cif.g08.bks.cpg/sg2_67_cif.got.tgz:132488.got - 2010.06.03 11:33:40.
