data_PCOD9071280
_publ_section_title
;
Structure prediction by ZEFSAII (Michael W. Deem and Ramdas Pophale) SiO2 
 PCOD9071280
Probable space group: P -1
;
_chemical_formula_sum "Si O2"
_cell_formula_units_Z 14
_cell_length_a 8.325899
_cell_length_b 5.221430
_cell_length_c 15.339821
_cell_angle_alpha 87.672019
_cell_angle_beta 117.153948
_cell_angle_gamma 91.951887
_cell_volume 592.789424
_symmetry_space_group_name_H-M "P -1"
_symmetry_group_IT_number 2
_symmetry_cell_setting 'triclinic'
loop_
_space_group_symop_operation_xyz
x,y,z
-x,-y,-z
loop_
_atom_site_type_symbol
_atom_site_label
_atom_site_fract_x
_atom_site_fract_y
_atom_site_fract_z
Si Si1 0.136032 0.900555 0.462076
Si Si2 0.612121 0.287915 0.764683
Si Si3 0.202615 0.416912 0.050600
Si Si4 0.788561 0.378429 0.132307
Si Si5 0.637138 0.597962 0.459433
Si Si6 0.976730 0.116048 0.765802
Si Si7 0.532852 0.944559 0.907381
O O1 0.211814 0.620048 0.506399
O O2 0.051036 0.891823 0.344899
O O3 0.289318 0.123019 0.498122
O O4 0.000000 0.000000 0.500000
O O5 0.710992 0.518093 0.836881
O O6 0.471303 0.373557 0.657146
O O7 0.779815 0.144295 0.761628
O O8 0.510233 0.136783 0.819474
O O9 0.257173 0.129985 0.047930
O O10 0.277769 0.569444 0.983341
O O11 0.000000 0.500000 0.000000
O O12 0.610269 0.289753 0.141970
O O13 0.895334 0.636843 0.183458
O O14 0.923981 0.140740 0.175592
O O15 0.500000 0.500000 0.500000
O O16 0.500000 0.000000 0.000000
#
# Coordination Sequence:
#
# PCOD9071280 Si02
#       7
#     2   2   2   2   2   2   2
#     4  12  29  54  81 119 159 200 263 338 397 459
#     4  12  29  46  82 111 156 214 261 312 400 465
#     4  12  26  47  76 111 160 206 262 315 386 476
#     4  12  27  47  78 115 161 201 261 321 391 463
#     4  12  28  53  83 115 157 205 268 327 390 471
#     4  12  28  50  81 113 156 213 262 320 394 476
#     4  12  28  48  74 116 162 206 262 326 387 458
#
# _framework density 23.617153999999999
#
# number of rings (size 3 to 8) (size 9 to 14) (size 15 to 20)
#    0.000    0.000    4.286    3.857    6.000    1.143 
#    0.000    0.000    0.000    0.000    0.000    0.000 
#    0.000    0.000    0.000    0.000    0.000    0.000 
#
# Total GULP energy -78374.514683 kJ/mol
# GULP energy per Si atom -5598.179620 kJ/mol
# Density = 2.356340 g / cm^3
# Si number density = 23.617154 Si / 1000 Ang^3
#
#
#
# Elastic Constant Matrix: (Units=GPa)
#
#
# Indices 1 2 3 4 5 6 
#
# 1 79.0326 8.4893 19.2271 -1.5411 -21.8459 -0.6349
# 2 8.4893 118.6552 62.0998 -5.6995 3.2744 -5.6506
# 3 19.2271 62.0998 189.4534 -12.1678 -17.7940 -1.0043
# 4 -1.5411 -5.6995 -12.1678 45.8175 2.4622 7.8374
# 5 -21.8459 3.2744 -17.7940 2.4622 40.4958 -0.6034
# 6 -0.6349 -5.6506 -1.0043 7.8374 -0.6034 59.6073
#
#
#
# Elastic Compliance Matrix: (Units=1/GPa)
#
#
# Indices 1 2 3 4 5 6 
#
# 1 0.015099 -0.001077 -0.000435 -0.000202 0.008056 0.000159
# 2 -0.001077 0.010529 -0.003600 0.000334 -0.003022 0.000851
# 3 -0.000435 -0.003600 0.006862 0.001262 0.002990 -0.000366
# 4 -0.000202 0.000334 0.001262 0.022755 -0.001009 -0.002951
# 5 0.008056 -0.003022 0.002990 -0.001009 0.030663 0.000293
# 6 0.000159 0.000851 -0.000366 -0.002951 0.000293 0.017244
#
#
# Mechanical properties :
#
#
# Convention : Reuss Voigt Hill
#
# Bulk Modulus (GPa) = 44.91038 62.97485 53.94261
# Shear Modulus (GPa) = 41.39182 49.00579 45.19880
#
# Velocity S-wave (km/s) = 4.19097 4.56017 4.37946
# Velocity P-wave (km/s) = 6.51738 7.37900 6.96153
#
# Compressibility (1/GPa) = 0.02226657
#
# Stress axis : x y z
#
# Youngs Moduli (GPa) = 66.23134 94.97781 145.72396
#
# Poissons Ratio (x) = 0.10230 0.06335
# Poissons Ratio (y) = 0.07134 0.52456
# Poissons Ratio (z) = 0.02879 0.34189
#
# Static dielectric constant tensor:
#      x y z
#    x 1.955550 -0.012520 0.021580 
#    y -0.012520 2.011340 0.054410 
#    z 0.021580 0.054410 1.853720 
# 
# From -- ./inp_files/487242.got.cif
#   From: 2010.05.17/outbox.cif.g08.bks.cpg/sg2_244_cif.got.tgz:487242.got - 2010.06.03 11:33:40.
