data_PCOD9071673
_publ_section_title
;
Structure prediction by ZEFSAII (Michael W. Deem and Ramdas Pophale) SiO2 
 PCOD9071673
Probable space group: P -1
;
_chemical_formula_sum "Si O2"
_cell_formula_units_Z 12
_cell_length_a 12.401699
_cell_length_b 14.409806
_cell_length_c 14.413258
_cell_angle_alpha 26.742882
_cell_angle_beta 45.405819
_cell_angle_gamma 30.306725
_cell_volume 557.308917
_symmetry_space_group_name_H-M "P -1"
_symmetry_group_IT_number 2
_symmetry_cell_setting 'triclinic'
loop_
_space_group_symop_operation_xyz
x,y,z
-x,-y,-z
loop_
_atom_site_type_symbol
_atom_site_label
_atom_site_fract_x
_atom_site_fract_y
_atom_site_fract_z
Si Si1 0.438884 0.232322 0.752045
Si Si2 0.608175 0.675725 0.689947
Si Si3 0.009271 0.316011 0.288743
Si Si4 0.504651 0.952544 0.327622
Si Si5 0.918072 0.880330 0.782261
Si Si6 0.295443 0.588644 0.949192
O O1 0.190220 0.555438 0.639395
O O2 0.437649 0.137949 0.733764
O O3 0.650669 0.173605 0.680492
O O4 0.500000 0.000000 0.000000
O O5 0.774450 0.431073 0.889329
O O6 0.500000 0.000000 0.500000
O O7 0.673296 0.673166 0.547915
O O8 0.432852 0.662037 0.807849
O O9 0.995845 0.211164 0.293248
O O10 0.267253 0.072095 0.381176
O O11 0.955943 0.607309 0.037520
O O12 0.453028 0.245283 0.119110
O O13 0.084597 0.831531 0.792969
#
# Coordination Sequence:
#
# PCOD9071673 Si02
#       6
#     2   2   2   2   2   2
#     4   9  15  26  49  76 103 133 158 192 243 290
#     4   9  18  31  51  75  94 126 170 205 246 289
#     4   8  14  26  46  74 104 128 156 196 238 288
#     4   9  17  30  51  76  99 129 164 195 239 292
#     4   8  14  25  46  73  98 129 162 192 239 292
#     4   9  16  30  51  72  98 128 163 206 242 285
#
# _framework density 21.532043000000002
#
# number of rings (size 3 to 8) (size 9 to 14) (size 15 to 20)
#    0.000    3.333    0.000    3.000    0.000    0.000 
#    0.000    3.333    0.000   40.000    0.000   88.667 
#    0.000    0.000    0.000    0.000    0.000    0.000 
#
# Total GULP energy -66822.407136 kJ/mol
# GULP energy per Si atom -5568.533928 kJ/mol
# Density = 2.148304 g / cm^3
# Si number density = 21.532043 Si / 1000 Ang^3
#
#
#
# Elastic Constant Matrix: (Units=GPa)
#
#
# Indices 1 2 3 4 5 6 
#
# 1 120.7727 32.4928 37.4325 4.2663 -8.9424 12.5484
# 2 32.4928 101.8363 16.9900 7.3402 0.5059 15.4483
# 3 37.4325 16.9900 92.2296 -8.4791 -25.4285 24.7083
# 4 4.2663 7.3402 -8.4791 14.3890 -18.7438 16.7021
# 5 -8.9424 0.5059 -25.4285 -18.7438 5.7079 25.9993
# 6 12.5484 15.4483 24.7083 16.7021 25.9993 5.9847
#
#
#
# Elastic Compliance Matrix: (Units=1/GPa)
#
#
# Indices 1 2 3 4 5 6 
#
# 1 0.010185 -0.002447 -0.003322 -0.001483 0.000870 -0.000959
# 2 -0.002447 0.011606 -0.000879 -0.003400 -0.001778 -0.003988
# 3 -0.003322 -0.000879 0.009229 -0.005117 -0.004558 0.005213
# 4 -0.001483 -0.003400 -0.005117 0.028298 -0.014769 0.018195
# 5 0.000870 -0.001778 -0.004558 -0.014769 0.009482 0.021609
# 6 -0.000959 -0.003988 0.005213 0.018195 0.021609 0.013220
#
#
# Mechanical properties :
#
#
# Convention : Reuss Voigt Hill
#
# Bulk Modulus (GPa) = 56.42554 54.29656 55.36105
# Shear Modulus (GPa) = 49.39547 20.41122 34.90334
#
# Velocity S-wave (km/s) = 4.79481 3.08221 4.03053
# Velocity P-wave (km/s) = 7.54426 6.15939 6.88673
#
# Compressibility (1/GPa) = 0.01772247
#
# Stress axis : x y z
#
# Youngs Moduli (GPa) = 98.18754 86.16240 108.35165
#
# Poissons Ratio (x) = 0.21086 0.35999
# Poissons Ratio (y) = 0.24029 0.09525
# Poissons Ratio (z) = 0.32622 0.07574
#
# Static dielectric constant tensor:
#      x y z
#    x 1.849660 -0.011060 0.004320 
#    y -0.011060 1.770450 0.000310 
#    z 0.004320 0.000310 1.839570 
# 
# From -- ./inp_files/520599.got.cif
#   From: 2010.05.17/outbox.cif.g08.bks.cpg/sg2_261_cif.got.tgz:520599.got - 2010.06.03 11:33:40.
