data_PCOD9071834
_publ_section_title
;
Structure prediction by ZEFSAII (Michael W. Deem and Ramdas Pophale) SiO2 
 PCOD9071834
Probable space group: P -1
;
_chemical_formula_sum "Si O2"
_cell_formula_units_Z 12
_cell_length_a 18.000000
_cell_length_b 12.000000
_cell_length_c 9.000000
_cell_angle_alpha 60.000000
_cell_angle_beta 60.000000
_cell_angle_gamma 20.000000
_cell_volume 572.817632
_symmetry_space_group_name_H-M "P -1"
_symmetry_group_IT_number 2
_symmetry_cell_setting 'triclinic'
loop_
_space_group_symop_operation_xyz
x,y,z
-x,-y,-z
loop_
_atom_site_type_symbol
_atom_site_label
_atom_site_fract_x
_atom_site_fract_y
_atom_site_fract_z
Si Si1 0.089258 0.905151 0.309254
Si Si2 0.689451 0.910206 0.125344
Si Si3 0.885702 0.938165 0.395435
Si Si4 0.359983 0.172605 0.372095
Si Si5 0.884013 0.855353 0.790548
Si Si6 0.408047 0.837083 0.636855
O O1 0.343281 0.517851 0.322330
O O2 0.952188 0.996958 0.282432
O O3 0.085197 0.063476 0.188164
O O4 0.000000 0.000000 0.500000
O O5 0.890705 0.534078 0.169284
O O6 0.474952 0.117887 0.188659
O O7 0.711908 0.949712 0.236479
O O8 0.706149 0.999765 0.929144
O O9 0.836259 0.971308 0.594906
O O10 0.108442 0.554046 0.390656
O O11 0.695230 0.147524 0.341363
O O12 0.500000 0.000000 0.500000
O O13 0.387311 0.983294 0.442214
#
# Coordination Sequence:
#
# PCOD9071834 Si02
#       6
#     2   2   2   2   2   2
#     4  10  21  38  59  86 117 151 188 238 287 336
#     4  10  20  38  61  84 115 153 187 237 288 335
#     4  11  20  37  64  86 110 152 198 234 277 342
#     4  10  16  34  60  84 107 151 194 229 273 338
#     4  10  21  36  59  86 119 149 185 238 294 331
#     4  11  21  36  65  86 110 151 201 233 276 343
#
# _framework density 20.949076000000002
#
# number of rings (size 3 to 8) (size 9 to 14) (size 15 to 20)
#    0.000    1.667    6.667    1.500    0.000    3.333 
#    0.000    1.667    7.333    0.000    0.000    0.000 
#    0.000    0.000    0.000    0.000    0.000    0.000 
#
# Total GULP energy -66947.093428 kJ/mol
# GULP energy per Si atom -5578.924452 kJ/mol
# Density = 2.090139 g / cm^3
# Si number density = 20.949076 Si / 1000 Ang^3
#
#
#
# Elastic Constant Matrix: (Units=GPa)
#
#
# Indices 1 2 3 4 5 6 
#
# 1 133.7831 36.0845 17.5373 8.4913 -22.7756 8.2213
# 2 36.0845 32.3899 20.0341 9.9117 -16.8179 10.5238
# 3 17.5373 20.0341 56.6157 14.1572 -29.6072 2.5774
# 4 8.4913 9.9117 14.1572 11.9208 -8.7597 -9.9225
# 5 -22.7756 -16.8179 -29.6072 -8.7597 23.4242 -4.1230
# 6 8.2213 10.5238 2.5774 -9.9225 -4.1230 33.5277
#
#
#
# Elastic Compliance Matrix: (Units=1/GPa)
#
#
# Indices 1 2 3 4 5 6 
#
# 1 0.012383 -0.019116 0.004218 0.019994 0.012910 0.010144
# 2 -0.019116 0.135792 0.014425 -0.184218 0.012043 -0.092082
# 3 0.004218 0.014425 0.061205 -0.049369 0.070503 -0.016208
# 4 0.019994 -0.184218 -0.049369 0.481275 0.040688 0.204152
# 5 0.012910 0.012043 0.070503 0.040688 0.171882 0.020813
# 6 0.010144 -0.092082 -0.016208 0.204152 0.020813 0.120465
#
#
# Mechanical properties :
#
#
# Convention : Reuss Voigt Hill
#
# Bulk Modulus (GPa) = 4.79767 41.12226 22.95997
# Shear Modulus (GPa) = 4.74642 23.71672 14.23157
#
# Velocity S-wave (km/s) = 1.50685 3.36834 2.60925
# Velocity P-wave (km/s) = 2.30708 5.89914 4.47898
#
# Compressibility (1/GPa) = 0.20843451
#
# Stress axis : x y z
#
# Youngs Moduli (GPa) = 80.75453 7.36420 16.33866
#
# Poissons Ratio (x) = 0.14077 -0.06892
# Poissons Ratio (y) = 1.54369 -0.23568
# Poissons Ratio (z) = -0.34064 -0.10623
#
# Static dielectric constant tensor:
#      x y z
#    x 1.735070 -0.009620 -0.056420 
#    y -0.009620 1.723800 0.014590 
#    z -0.056420 0.014590 1.795820 
# 
# From -- ./inp_files/159883.got.cif
#   From: 2010.05.17/outbox.ucp.g08.bks.cvg/sg2_80_cif.got.tgz:159883.got - 2010.06.11 11:32:03.
