data_PCOD9071116
_publ_section_title
;
Structure prediction by ZEFSAII (Michael W. Deem and Ramdas Pophale) SiO2 
 PCOD9071116
Probable space group: P -1
;
_chemical_formula_sum "Si O2"
_cell_formula_units_Z 14
_cell_length_a 12.074176
_cell_length_b 10.890770
_cell_length_c 5.321933
_cell_angle_alpha 104.097848
_cell_angle_beta 92.574864
_cell_angle_gamma 60.638775
_cell_volume 589.251472
_symmetry_space_group_name_H-M "P -1"
_symmetry_group_IT_number 2
_symmetry_cell_setting 'triclinic'
loop_
_space_group_symop_operation_xyz
x,y,z
-x,-y,-z
loop_
_atom_site_type_symbol
_atom_site_label
_atom_site_fract_x
_atom_site_fract_y
_atom_site_fract_z
Si Si1 0.806920 0.918112 0.936537
Si Si2 0.001046 0.348573 0.892851
Si Si3 0.717368 0.427600 0.998346
Si Si4 0.423525 0.081343 0.285712
Si Si5 0.698506 0.229645 0.235850
Si Si6 0.029006 0.857077 0.591412
Si Si7 0.589241 0.611525 0.575167
O O1 0.709864 0.918049 0.725448
O O2 0.869081 0.770103 0.023133
O O3 0.929900 0.919998 0.840682
O O4 0.727654 0.064849 0.157941
O O5 0.866662 0.377120 0.008794
O O6 0.999486 0.264357 0.596546
O O7 0.000000 0.500000 0.000000
O O8 0.698348 0.288552 0.982402
O O9 0.645835 0.530003 0.279445
O O10 0.659424 0.513773 0.778106
O O11 0.396949 0.245117 0.350242
O O12 0.500000 0.000000 0.500000
O O13 0.500000 0.000000 0.000000
O O14 0.821710 0.222598 0.371927
O O15 0.561400 0.331379 0.390305
O O16 0.000000 0.000000 0.500000
#
# Coordination Sequence:
#
# PCOD9071116 Si02
#       7
#     2   2   2   2   2   2   2
#     4  12  27  48  80 113 151 206 265 330 394 469
#     4  12  28  50  78 112 160 209 264 327 395 475
#     4  12  27  50  76 115 157 206 263 321 399 470
#     4  12  28  51  78 115 156 204 266 329 394 477
#     4  12  25  50  78 118 154 205 268 327 400 472
#     4  12  26  46  80 115 156 205 262 329 397 472
#     4  12  28  50  78 113 159 209 260 328 394 470
#
# _framework density 23.758956999999999
#
# number of rings (size 3 to 8) (size 9 to 14) (size 15 to 20)
#    0.000    0.000    4.286    4.714    6.000    1.714 
#    0.000    0.000    0.000    0.000    0.000    0.000 
#    0.000    0.000    0.000    0.000    0.000    0.000 
#
# Total GULP energy -78394.659275 kJ/mol
# GULP energy per Si atom -5599.618520 kJ/mol
# Density = 2.370488 g / cm^3
# Si number density = 23.758957 Si / 1000 Ang^3
#
#
#
# Elastic Constant Matrix: (Units=GPa)
#
#
# Indices 1 2 3 4 5 6 
#
# 1 104.4560 28.0842 24.1579 3.3961 14.6715 -29.4515
# 2 28.0842 182.2016 60.7597 -3.3491 13.2125 -6.5511
# 3 24.1579 60.7597 104.8603 -4.2253 3.0275 -13.3745
# 4 3.3961 -3.3491 -4.2253 47.4245 -10.2302 5.9026
# 5 14.6715 13.2125 3.0275 -10.2302 48.0976 4.8519
# 6 -29.4515 -6.5511 -13.3745 5.9026 4.8519 57.6864
#
#
#
# Elastic Compliance Matrix: (Units=1/GPa)
#
#
# Indices 1 2 3 4 5 6 
#
# 1 0.012900 -0.000927 -0.001542 -0.003040 -0.004921 0.006848
# 2 -0.000927 0.007001 -0.003863 -0.000019 -0.001355 -0.000458
# 3 -0.001542 -0.003863 0.012332 0.000927 0.000804 0.001471
# 4 -0.003040 -0.000019 0.000927 0.023262 0.006250 -0.004245
# 5 -0.004921 -0.001355 0.000804 0.006250 0.024465 -0.005177
# 6 0.006848 -0.000458 0.001471 -0.004245 -0.005177 0.021990
#
#
# Mechanical properties :
#
#
# Convention : Reuss Voigt Hill
#
# Bulk Modulus (GPa) = 51.10080 68.61348 59.85714
# Shear Modulus (GPa) = 41.27544 49.20944 45.24244
#
# Velocity S-wave (km/s) = 4.17256 4.55598 4.36848
# Velocity P-wave (km/s) = 6.69092 7.52447 7.11990
#
# Compressibility (1/GPa) = 0.01956916
#
# Stress axis : x y z
#
# Youngs Moduli (GPa) = 77.51847 142.83626 81.09096
#
# Poissons Ratio (x) = 0.13242 0.12502
# Poissons Ratio (y) = 0.07187 0.31326
# Poissons Ratio (z) = 0.11951 0.55179
#
# Static dielectric constant tensor:
#      x y z
#    x 1.908140 0.042070 0.015100 
#    y 0.042070 1.928180 -0.005680 
#    z 0.015100 -0.005680 1.958110 
# 
# From -- ./inp_files/71879.got.cif
#   From: 2010.05.17/outbox.cif.g08.bks.cpg/sg2_36_cif.got.tgz:71879.got - 2010.06.03 11:33:40.
