data_PCOD9071918
_publ_section_title
;
Structure prediction by ZEFSAII (Michael W. Deem and Ramdas Pophale) SiO2 
 PCOD9071918
Probable space group: P -1
;
_chemical_formula_sum "Si O2"
_cell_formula_units_Z 16
_cell_length_a 12.000000
_cell_length_b 9.000000
_cell_length_c 21.000000
_cell_angle_alpha 140.000000
_cell_angle_beta 40.000000
_cell_angle_gamma 140.000000
_cell_volume 844.337131
_symmetry_space_group_name_H-M "P -1"
_symmetry_group_IT_number 2
_symmetry_cell_setting 'triclinic'
loop_
_space_group_symop_operation_xyz
x,y,z
-x,-y,-z
loop_
_atom_site_type_symbol
_atom_site_label
_atom_site_fract_x
_atom_site_fract_y
_atom_site_fract_z
Si Si1 0.163744 0.186919 0.693634
Si Si2 0.886923 0.653852 0.023323
Si Si3 0.445254 0.004164 0.223125
Si Si4 0.274721 0.663709 0.896540
Si Si5 0.064957 0.591114 0.207453
Si Si6 0.551820 0.510871 0.555257
Si Si7 0.323827 0.872391 0.585178
Si Si8 0.260069 0.924185 0.771933
O O1 0.211666 0.399837 0.797717
O O2 0.350480 0.310848 0.607950
O O3 0.993383 0.197245 0.729998
O O4 0.157504 0.933704 0.646691
O O5 0.724503 0.423316 0.059827
O O6 0.853300 0.904047 0.120066
O O7 0.898319 0.558941 0.916736
O O8 0.093053 0.727442 0.989887
O O9 0.546391 0.123560 0.150114
O O10 0.392129 0.213582 0.349061
O O11 0.600815 0.995251 0.201592
O O12 0.259390 0.739570 0.209533
O O13 0.885702 0.376512 0.253644
O O14 0.500000 0.500000 0.500000
O O15 0.705778 0.413948 0.481301
O O16 0.363253 0.979075 0.675652
O O17 0.500000 0.000000 0.500000
#
# Coordination Sequence:
#
# PCOD9071918 Si02
#       8
#     2   2   2   2   2   2   2   2
#     4   9  17  36  57  85 115 149 197 242 290 350
#     4  10  20  36  63  87 118 162 196 241 294 350
#     4  11  23  38  61  87 124 157 196 244 297 357
#     4   9  18  37  60  85 118 158 197 235 298 349
#     4  11  23  39  59  91 122 160 195 241 299 354
#     4  10  17  35  61  86 109 153 196 243 300 346
#     4  10  20  34  68  87 108 157 203 244 298 348
#     4  12  21  40  62  88 123 155 198 245 296 354
#
# _framework density 18.949777000000001
#
# number of rings (size 3 to 8) (size 9 to 14) (size 15 to 20)
#    0.000    1.750    6.250    0.375    0.000    1.000 
#    0.000    4.375    0.000    0.000    0.000    0.000 
#    0.000    0.000    0.000    0.000    0.000    0.000 
#
# Total GULP energy -89075.536418 kJ/mol
# GULP energy per Si atom -5567.221026 kJ/mol
# Density = 1.890665 g / cm^3
# Si number density = 18.949777 Si / 1000 Ang^3
#
#
#
# Elastic Constant Matrix: (Units=GPa)
#
#
# Indices 1 2 3 4 5 6 
#
# 1 63.0812 51.3790 28.9537 2.1017 -10.2907 -16.9276
# 2 51.3790 52.9926 10.5912 -11.2022 3.5995 -5.2464
# 3 28.9537 10.5912 60.3670 -8.1774 -8.1785 -25.1153
# 4 2.1017 -11.2022 -8.1774 23.7660 -21.2626 -3.5803
# 5 -10.2907 3.5995 -8.1785 -21.2626 36.6954 3.1532
# 6 -16.9276 -5.2464 -25.1153 -3.5803 3.1532 33.6856
#
#
#
# Elastic Compliance Matrix: (Units=1/GPa)
#
#
# Indices 1 2 3 4 5 6 
#
# 1 -0.179204 0.197958 0.108913 0.225994 0.082258 0.038302
# 2 0.197958 -0.195453 -0.115830 -0.224799 -0.078475 -0.033872
# 3 0.108913 -0.115830 -0.021766 -0.078084 -0.009311 0.013034
# 4 0.225994 -0.224799 -0.078084 -0.102227 0.008041 0.008718
# 5 0.082258 -0.078475 -0.009311 0.008041 0.059098 0.017495
# 6 0.038302 -0.033872 0.013034 0.008718 0.017495 0.052665
#
#
# Mechanical properties :
#
#
# Convention : Reuss Voigt Hill
#
# Bulk Modulus (GPa) = -69.72637 39.80982 -14.95827
# Shear Modulus (GPa) = -6.46203 24.53054 9.03426
#
# Velocity S-wave (km/s) = -1.84864 3.60182 2.18582
# Velocity P-wave (km/s) = 6.43676 6.19283 1.24111
#
# Compressibility (1/GPa) = -0.01434178
#
# Stress axis : x y z
#
# Youngs Moduli (GPa) = -5.58022 -5.11631 -45.94241
#
# Poissons Ratio (x) = 1.01281 5.00374
# Poissons Ratio (y) = 1.10465 -5.32151
# Poissons Ratio (z) = 0.60776 -0.59262
#
# Static dielectric constant tensor:
#      x y z
#    x 1.827460 -0.028000 0.098840 
#    y -0.028000 1.645320 -0.010870 
#    z 0.098840 -0.010870 1.885080 
# 
# From -- ./inp_files/215872.got.cif
#   From: 2010.05.17/outbox.ucp.g08.bks.cvg/sg2_108_cif.got.tgz:215872.got - 2010.06.11 11:32:03.
