data_PCOD9071025
_publ_section_title
;
Structure prediction by ZEFSAII (Michael W. Deem and Ramdas Pophale) SiO2 
 PCOD9071025
Probable space group: P -1
;
_chemical_formula_sum "Si O2"
_cell_formula_units_Z 15
_cell_length_a 11.282195
_cell_length_b 5.388202
_cell_length_c 19.342935
_cell_angle_alpha 100.486058
_cell_angle_beta 149.044036
_cell_angle_gamma 68.853137
_cell_volume 543.865051
_symmetry_space_group_name_H-M "P -1"
_symmetry_group_IT_number 2
_symmetry_cell_setting 'triclinic'
loop_
_space_group_symop_operation_xyz
x,y,z
-x,-y,-z
loop_
_atom_site_type_symbol
_atom_site_label
_atom_site_fract_x
_atom_site_fract_y
_atom_site_fract_z
Si Si1 0.671083 0.725147 0.954426
Si Si2 0.727907 0.355197 0.156359
Si Si3 0.500000 0.000000 0.500000
Si Si4 0.416182 0.126334 0.734811
Si Si5 0.607083 0.113073 0.423081
Si Si6 0.931205 0.457749 0.581366
Si Si7 0.907104 0.191696 0.766767
Si Si8 0.192479 0.711264 0.114248
O O1 0.414760 0.706991 0.852218
O O2 0.566168 0.016166 0.875438
O O3 0.818018 0.514700 0.956330
O O4 0.873547 0.684896 0.113876
O O5 0.881038 0.531686 0.264808
O O6 0.500000 0.500000 0.000000
O O7 0.918555 0.093352 0.198018
O O8 0.407688 0.168907 0.387396
O O9 0.353521 0.795509 0.396900
O O10 0.481578 0.880433 0.699416
O O11 0.120128 0.278241 0.607497
O O12 0.522117 0.323187 0.760256
O O13 0.779697 0.786443 0.508966
O O14 0.766542 0.295961 0.514089
O O15 0.839998 0.246312 0.817722
O O16 0.000000 0.000000 0.000000
#
# Coordination Sequence:
#
# PCOD9071025 Si02
#       8
#     2   2   1   2   2   2   2   2
#     4  12  27  50  85 116 156 213 284 348 407 482
#     4  12  26  48  79 120 158 208 274 344 410 490
#     4  12  28  50  74 116 164 226 256 328 414 518
#     4  12  26  47  82 112 155 211 279 342 409 476
#     4  12  29  52  78 117 168 216 276 335 410 497
#     4  12  27  51  79 117 162 214 277 339 409 484
#     4  12  26  49  75 111 166 208 267 329 419 489
#     4  12  25  49  73 116 154 198 269 340 412 482
#
# _framework density 27.580371
#
# number of rings (size 3 to 8) (size 9 to 14) (size 15 to 20)
#    0.000    0.000    5.333    4.000    3.733    0.533 
#    0.000    0.000    0.000    0.000    0.000    0.000 
#    0.000    0.000    0.000    0.000    0.000    0.000 
#
# Total GULP energy -83592.584225 kJ/mol
# GULP energy per Si atom -5572.838948 kJ/mol
# Density = 2.751760 g / cm^3
# Si number density = 27.580371 Si / 1000 Ang^3
#
#
#
# Elastic Constant Matrix: (Units=GPa)
#
#
# Indices 1 2 3 4 5 6 
#
# 1 133.6253 34.9860 23.0454 1.7649 14.2212 -11.9659
# 2 34.9860 123.2619 43.7946 23.9743 1.4158 -23.2531
# 3 23.0454 43.7946 126.6698 39.8936 -14.3155 -7.1767
# 4 1.7649 23.9743 39.8936 62.6526 -6.1160 1.8502
# 5 14.2212 1.4158 -14.3155 -6.1160 46.7725 0.4568
# 6 -11.9659 -23.2531 -7.1767 1.8502 0.4568 50.7983
#
#
#
# Elastic Compliance Matrix: (Units=1/GPa)
#
#
# Indices 1 2 3 4 5 6 
#
# 1 0.008628 -0.001919 -0.001549 0.001168 -0.002896 0.000919
# 2 -0.001919 0.010870 -0.002383 -0.002801 -0.000883 0.004297
# 3 -0.001549 -0.002383 0.011238 -0.005896 0.003209 0.000318
# 4 0.001168 -0.002801 -0.005896 0.020898 0.000683 -0.002607
# 5 -0.002896 -0.000883 0.003209 0.000683 0.023367 -0.000868
# 6 0.000919 0.004297 0.000318 -0.002607 -0.000868 0.022017
#
#
# Mechanical properties :
#
#
# Convention : Reuss Voigt Hill
#
# Bulk Modulus (GPa) = 52.54102 65.24544 58.89323
# Shear Modulus (GPa) = 43.45349 50.82674 47.14011
#
# Velocity S-wave (km/s) = 3.97359 4.29751 4.13872
# Velocity P-wave (km/s) = 6.33594 6.95217 6.65119
#
# Compressibility (1/GPa) = 0.01903275
#
# Stress axis : x y z
#
# Youngs Moduli (GPa) = 115.89753 91.99803 88.98384
#
# Poissons Ratio (x) = 0.17656 0.13787
# Poissons Ratio (y) = 0.22243 0.21206
# Poissons Ratio (z) = 0.17956 0.21925
#
# Static dielectric constant tensor:
#      x y z
#    x 2.374930 -0.016110 0.041770 
#    y -0.016110 2.270730 -0.009650 
#    z 0.041770 -0.009650 2.210710 
# 
# From -- ./inp_files/592815.got.cif
#   From: 2010.05.17/outbox.cif.g08.bks.cpg/sg2_297_cif.got.tgz:592815.got - 2010.06.03 11:33:40.
