data_PCOD9071889
_publ_section_title
;
Structure prediction by ZEFSAII (Michael W. Deem and Ramdas Pophale) SiO2 
 PCOD9071889
Probable space group: P -1
;
_chemical_formula_sum "Si O2"
_cell_formula_units_Z 16
_cell_length_a 6.971333
_cell_length_b 15.085958
_cell_length_c 10.296083
_cell_angle_alpha 140.875130
_cell_angle_beta 67.142376
_cell_angle_gamma 96.588391
_cell_volume 596.319277
_symmetry_space_group_name_H-M "P -1"
_symmetry_group_IT_number 2
_symmetry_cell_setting 'triclinic'
loop_
_space_group_symop_operation_xyz
x,y,z
-x,-y,-z
loop_
_atom_site_type_symbol
_atom_site_label
_atom_site_fract_x
_atom_site_fract_y
_atom_site_fract_z
Si Si1 0.583490 0.888272 0.231402
Si Si2 0.714739 0.326919 0.347891
Si Si3 0.550594 0.331128 0.837307
Si Si4 0.769572 0.816309 0.594982
Si Si5 0.301903 0.888370 0.695371
Si Si6 0.201596 0.467719 0.627502
Si Si7 0.820054 0.098650 0.835279
Si Si8 0.014636 0.714553 0.161199
O O1 0.623684 0.725258 0.097819
O O2 0.371875 0.910526 0.220443
O O3 0.500000 0.000000 0.500000
O O4 0.749693 0.947826 0.169201
O O5 0.818556 0.199895 0.282278
O O6 0.459857 0.420804 0.550992
O O7 0.823321 0.447146 0.405436
O O8 0.715812 0.235732 0.112148
O O9 0.615328 0.225100 0.575024
O O10 0.762312 0.302956 0.839824
O O11 0.500000 0.500000 0.000000
O O12 0.506606 0.882887 0.732746
O O13 0.843216 0.687550 0.534222
O O14 0.836504 0.740380 0.349307
O O15 0.882064 0.943661 0.718739
O O16 0.061061 0.574151 0.896766
O O17 0.009134 0.139173 0.752860
#
# Coordination Sequence:
#
# PCOD9071889 Si02
#       8
#     2   2   2   2   2   2   2   2
#     4   8  16  29  44  67  97 120 150 194 237 276
#     4   9  17  31  46  69  98 127 160 193 234 281
#     4  10  18  30  47  69  96 125 159 195 236 280
#     4  10  18  30  49  75  99 121 156 200 244 280
#     4   9  18  31  49  71  96 125 156 195 237 282
#     4   9  18  29  46  70  99 128 156 195 237 281
#     4   9  18  30  49  73  98 126 158 197 236 282
#     4  10  19  32  49  72 100 126 156 196 244 287
#
# _framework density 26.831264999999998
#
# number of rings (size 3 to 8) (size 9 to 14) (size 15 to 20)
#    0.000    2.750    0.000    2.250    0.000    5.500 
#    0.000    0.000    0.000    1.500    0.000   36.750 
#    0.000    0.000    0.000    0.000    0.000    0.000 
#
# Total GULP energy -89457.292533 kJ/mol
# GULP energy per Si atom -5591.080783 kJ/mol
# Density = 2.677020 g / cm^3
# Si number density = 26.831265 Si / 1000 Ang^3
#
#
#
# Elastic Constant Matrix: (Units=GPa)
#
#
# Indices 1 2 3 4 5 6 
#
# 1 86.8531 22.5957 28.2277 4.2724 5.6935 -1.2978
# 2 22.5957 257.2047 33.0222 55.8738 6.0272 14.5401
# 3 28.2277 33.0222 68.8753 14.5969 -5.3685 9.5789
# 4 4.2724 55.8738 14.5969 52.2475 12.2925 8.5944
# 5 5.6935 6.0272 -5.3685 12.2925 20.4430 1.6931
# 6 -1.2978 14.5401 9.5789 8.5944 1.6931 32.6497
#
#
#
# Elastic Compliance Matrix: (Units=1/GPa)
#
#
# Indices 1 2 3 4 5 6 
#
# 1 0.014489 -0.001049 -0.007120 0.003327 -0.007817 0.002661
# 2 -0.001049 0.005312 -0.000613 -0.005787 0.002112 -0.000814
# 3 -0.007120 -0.000613 0.020747 -0.006552 0.011965 -0.004992
# 4 0.003327 -0.005787 -0.006552 0.032043 -0.019980 -0.002767
# 5 -0.007817 0.002112 0.011965 -0.019980 0.065869 -0.002918
# 6 0.002661 -0.000814 -0.004992 -0.002767 -0.002918 0.033441
#
#
# Mechanical properties :
#
#
# Convention : Reuss Voigt Hill
#
# Bulk Modulus (GPa) = 43.50696 64.51378 54.01037
# Shear Modulus (GPa) = 25.36455 43.00719 34.18587
#
# Velocity S-wave (km/s) = 3.07797 4.00794 3.57333
# Velocity P-wave (km/s) = 5.37420 6.74645 6.09904
#
# Compressibility (1/GPa) = 0.02298483
#
# Stress axis : x y z
#
# Youngs Moduli (GPa) = 69.01740 188.23536 48.20089
#
# Poissons Ratio (x) = 0.19743 0.34319
# Poissons Ratio (y) = 0.07239 0.02954
# Poissons Ratio (z) = 0.49140 0.11536
#
# Static dielectric constant tensor:
#      x y z
#    x 2.088970 0.010520 -0.050740 
#    y 0.010520 2.235220 0.038610 
#    z -0.050740 0.038610 2.031930 
# 
# From -- ./inp_files/298778.got.cif
#   From: 2010.05.17/outbox.cif.g08.bks.cpg/sg2_150_cif.got.tgz:298778.got - 2010.06.03 11:33:40.
