data_PCOD9071366
_publ_section_title
;
Structure prediction by ZEFSAII (Michael W. Deem and Ramdas Pophale) SiO2 
 PCOD9071366
Probable space group: P -1
;
_chemical_formula_sum "Si O2"
_cell_formula_units_Z 12
_cell_length_a 14.728257
_cell_length_b 21.068264
_cell_length_c 7.438275
_cell_angle_alpha 44.439627
_cell_angle_beta 36.041182
_cell_angle_gamma 22.815361
_cell_volume 521.590317
_symmetry_space_group_name_H-M "P -1"
_symmetry_group_IT_number 2
_symmetry_cell_setting 'triclinic'
loop_
_space_group_symop_operation_xyz
x,y,z
-x,-y,-z
loop_
_atom_site_type_symbol
_atom_site_label
_atom_site_fract_x
_atom_site_fract_y
_atom_site_fract_z
Si Si1 0.491951 0.612749 0.960498
Si Si2 0.059881 0.736023 0.910677
Si Si3 0.117327 0.075153 0.853032
Si Si4 0.704743 0.201759 0.756559
Si Si5 0.406981 0.137452 0.773859
Si Si6 0.319249 0.353444 0.721770
O O1 0.645907 0.582092 0.606518
O O2 0.100882 0.979699 0.142765
O O3 0.649293 0.445085 0.109407
O O4 0.167877 0.759864 0.127252
O O5 0.123765 0.790844 0.573215
O O6 0.868346 0.866497 0.116413
O O7 0.902670 0.732273 0.069489
O O8 0.380358 0.950922 0.551713
O O9 0.517311 0.272204 0.740621
O O10 0.000000 0.500000 0.000000
O O11 0.514447 0.316204 0.003395
O O12 0.407916 0.219707 0.743310
O O13 0.500000 0.000000 0.000000
#
# Coordination Sequence:
#
# PCOD9071366 Si02
#       6
#     2   2   2   2   2   2
#     4  12  27  48  78 112 151 197 253 309 374 443
#     4  12  27  47  78 112 153 197 251 309 375 446
#     4  12  26  48  79 111 153 197 252 308 376 447
#     4  12  26  49  80 108 149 201 253 303 375 448
#     4  12  28  48  76 114 154 193 253 314 370 442
#     4  12  29  48  77 110 156 198 249 309 381 445
#
# _framework density 23.006561999999999
#
# number of rings (size 3 to 8) (size 9 to 14) (size 15 to 20)
#    0.000    0.000    3.333    5.500    7.000    1.333 
#    0.000    0.000    0.000    0.000    0.000    0.000 
#    0.000    0.000    0.000    0.000    0.000    0.000 
#
# Total GULP energy -67309.871035 kJ/mol
# GULP energy per Si atom -5609.155920 kJ/mol
# Density = 2.295420 g / cm^3
# Si number density = 23.006562 Si / 1000 Ang^3
#
#
#
# Elastic Constant Matrix: (Units=GPa)
#
#
# Indices 1 2 3 4 5 6 
#
# 1 118.9146 -2.8652 25.9432 6.1370 6.3716 1.2649
# 2 -2.8652 70.4911 0.9730 -4.6583 -0.6714 -9.6358
# 3 25.9432 0.9730 82.5472 13.1284 -8.9652 -24.0456
# 4 6.1370 -4.6583 13.1284 38.4031 2.2624 1.1109
# 5 6.3716 -0.6714 -8.9652 2.2624 31.9198 -1.5409
# 6 1.2649 -9.6358 -24.0456 1.1109 -1.5409 34.7654
#
#
#
# Elastic Compliance Matrix: (Units=1/GPa)
#
#
# Indices 1 2 3 4 5 6 
#
# 1 0.009590 -0.000056 -0.004482 0.000296 -0.003370 -0.003623
# 2 -0.000056 0.014933 0.001176 0.001227 0.000808 0.004951
# 3 -0.004482 0.001176 0.019679 -0.006742 0.007632 0.014654
# 4 0.000296 0.001227 -0.006742 0.028853 -0.004235 -0.005443
# 5 -0.003370 0.000808 0.007632 -0.004235 0.034814 0.007303
# 6 -0.003623 0.004951 0.014654 -0.005443 0.007303 0.040901
#
#
# Mechanical properties :
#
#
# Convention : Reuss Voigt Hill
#
# Bulk Modulus (GPa) = 26.68186 35.56165 31.12175
# Shear Modulus (GPa) = 29.76448 37.54447 33.65447
#
# Velocity S-wave (km/s) = 3.60076 4.04406 3.82883
# Velocity P-wave (km/s) = 5.37680 6.10710 5.75355
#
# Compressibility (1/GPa) = 0.03747865
#
# Stress axis : x y z
#
# Youngs Moduli (GPa) = 104.27931 66.96447 50.81684
#
# Poissons Ratio (x) = 0.00376 0.22775
# Poissons Ratio (y) = 0.00585 -0.05978
# Poissons Ratio (z) = 0.46735 -0.07878
#
# Static dielectric constant tensor:
#      x y z
#    x 1.875190 -0.005770 -0.008340 
#    y -0.005770 1.824470 0.005810 
#    z -0.008340 0.005810 1.844240 
# 
# From -- ./inp_files/318842.got.cif
#   From: 2010.05.17/outbox.cif.g08.bks.cpg/sg2_160_cif.got.tgz:318842.got - 2010.06.03 11:33:40.
