data_PCOD9071649
_publ_section_title
;
Structure prediction by ZEFSAII (Michael W. Deem and Ramdas Pophale) SiO2 
 PCOD9071649
Probable space group: P -1
;
_chemical_formula_sum "Si O2"
_cell_formula_units_Z 13
_cell_length_a 9.142162
_cell_length_b 9.013992
_cell_length_c 7.927253
_cell_angle_alpha 115.050740
_cell_angle_beta 63.280926
_cell_angle_gamma 88.593009
_cell_volume 509.633111
_symmetry_space_group_name_H-M "P -1"
_symmetry_group_IT_number 2
_symmetry_cell_setting 'triclinic'
loop_
_space_group_symop_operation_xyz
x,y,z
-x,-y,-z
loop_
_atom_site_type_symbol
_atom_site_label
_atom_site_fract_x
_atom_site_fract_y
_atom_site_fract_z
Si Si1 0.334050 0.866832 0.427262
Si Si2 0.500000 0.500000 0.000000
Si Si3 0.782695 0.468807 0.344650
Si Si4 0.982578 0.277524 0.448706
Si Si5 0.866838 0.334045 0.894472
Si Si6 0.531186 0.217316 0.341465
Si Si7 0.722458 0.017431 0.846253
O O1 0.443736 0.681354 0.219937
O O2 0.145258 0.845006 0.542545
O O3 0.406190 0.900640 0.585864
O O4 0.328292 0.985621 0.325278
O O5 0.318638 0.556260 0.017688
O O6 0.884618 0.425751 0.445914
O O7 0.656677 0.343324 0.343318
O O8 0.654832 0.654825 0.493492
O O9 0.900653 0.406180 0.091400
O O10 0.985630 0.328280 0.667937
O O11 0.165653 0.165642 0.240337
O O12 0.844995 0.145261 0.842807
O O13 0.574229 0.115395 0.095228
#
# Coordination Sequence:
#
# PCOD9071649 Si02
#       7
#     2   1   2   2   2   2   2
#     4   9  15  21  30  32  41  45  55  58  65  67
#     4   8  12  20  28  36  36  42  54  60  62  68
#     4   9  16  21  29  36  39  46  54  60  64  70
#     4   9  17  22  27  35  42  48  51  57  67  73
#     4   9  15  21  30  32  41  45  55  58  65  67
#     4   9  16  21  29  36  39  46  54  60  64  70
#     4   9  17  22  27  35  42  48  51  57  67  73
#
# _framework density 25.508545999999999
#
# number of rings (size 3 to 8) (size 9 to 14) (size 15 to 20)
#    0.000    3.385    1.538    1.846   12.923    6.769 
#    0.000    0.000    0.000    0.000    0.000    0.000 
#    0.000    0.000    0.000    0.000    0.000    0.000 
#
# Total GULP energy -72466.943660 kJ/mol
# GULP energy per Si atom -5574.380282 kJ/mol
# Density = 2.545049 g / cm^3
# Si number density = 25.508546 Si / 1000 Ang^3
#
#
#
# Elastic Constant Matrix: (Units=GPa)
#
#
# Indices 1 2 3 4 5 6 
#
# 1 89.0250 18.0436 36.0576 -2.9910 24.8975 -15.7388
# 2 18.0436 80.2304 51.3110 -19.4869 -7.1396 -8.9363
# 3 36.0576 51.3110 119.2212 -4.2513 17.5967 -33.7704
# 4 -2.9910 -19.4869 -4.2513 54.5856 -16.2285 -5.3499
# 5 24.8975 -7.1396 17.5967 -16.2285 51.3437 -2.6649
# 6 -15.7388 -8.9363 -33.7704 -5.3499 -2.6649 45.7395
#
#
#
# Elastic Compliance Matrix: (Units=1/GPa)
#
#
# Indices 1 2 3 4 5 6 
#
# 1 0.015154 -0.003896 -0.000948 -0.002815 -0.008302 0.002940
# 2 -0.003896 0.024146 -0.011563 0.010911 0.012495 -0.003156
# 3 -0.000948 -0.011563 0.017279 -0.004295 -0.007950 0.009207
# 4 -0.002815 0.010911 -0.004295 0.025624 0.012543 0.001720
# 5 -0.008302 0.012495 -0.007950 0.012543 0.031775 -0.002967
# 6 0.002940 -0.003156 0.009207 0.001720 -0.002967 0.029084
#
#
# Mechanical properties :
#
#
# Convention : Reuss Voigt Hill
#
# Bulk Modulus (GPa) = 42.08127 55.47791 48.77959
# Shear Modulus (GPa) = 27.20391 42.53805 34.87098
#
# Velocity S-wave (km/s) = 3.26922 4.08806 3.70135
# Velocity P-wave (km/s) = 5.54825 6.63919 6.11809
#
# Compressibility (1/GPa) = 0.02376354
#
# Stress axis : x y z
#
# Youngs Moduli (GPa) = 65.99049 41.41504 57.87377
#
# Poissons Ratio (x) = 0.16137 0.05489
# Poissons Ratio (y) = 0.25713 0.66917
# Poissons Ratio (z) = 0.06258 0.47887
#
# Static dielectric constant tensor:
#      x y z
#    x 2.066010 0.125850 0.035410 
#    y 0.125850 2.049830 -0.083620 
#    z 0.035410 -0.083620 1.939550 
# 
# From -- ./inp_files/254839.got.cif
#   From: 2010.05.17/outbox.cif.g08.bks.cpg/sg2_128_cif.got.tgz:254839.got - 2010.06.03 11:33:40.
