data_PCOD9071899
_publ_section_title
;
Structure prediction by ZEFSAII (Michael W. Deem and Ramdas Pophale) SiO2 
 PCOD9071899
Probable space group: P -1
;
_chemical_formula_sum "Si O2"
_cell_formula_units_Z 16
_cell_length_a 12.000000
_cell_length_b 9.000000
_cell_length_c 21.000000
_cell_angle_alpha 140.000000
_cell_angle_beta 140.000000
_cell_angle_gamma 70.000000
_cell_volume 754.890988
_symmetry_space_group_name_H-M "P -1"
_symmetry_group_IT_number 2
_symmetry_cell_setting 'triclinic'
loop_
_space_group_symop_operation_xyz
x,y,z
-x,-y,-z
loop_
_atom_site_type_symbol
_atom_site_label
_atom_site_fract_x
_atom_site_fract_y
_atom_site_fract_z
Si Si1 0.156638 0.658247 0.462922
Si Si2 0.680025 0.615733 0.769052
Si Si3 0.492375 0.744766 0.543495
Si Si4 0.607596 0.236746 0.268383
Si Si5 0.302072 0.594332 0.967752
Si Si6 0.278251 0.693474 0.793058
Si Si7 0.280477 0.271561 0.740734
Si Si8 0.860846 0.159757 0.930627
O O1 0.283711 0.698591 0.468401
O O2 0.287267 0.670549 0.585505
O O3 0.919718 0.368865 0.272315
O O4 0.161433 0.938234 0.566323
O O5 0.550330 0.332491 0.574962
O O6 0.525807 0.633778 0.754285
O O7 0.771175 0.881492 0.845827
O O8 0.888072 0.684122 0.918418
O O9 0.500000 0.500000 0.500000
O O10 0.706021 0.038206 0.761075
O O11 0.765287 0.331427 0.309371
O O12 0.443694 0.891094 0.086772
O O13 0.187309 0.338986 0.782871
O O14 0.478327 0.597002 0.086940
O O15 0.163453 0.631442 0.968394
O O16 0.299964 0.450389 0.747585
O O17 0.500000 0.000000 0.000000
#
# Coordination Sequence:
#
# PCOD9071899 Si02
#       8
#     2   2   2   2   2   2   2   2
#     4  11  22  39  60  86 118 154 198 245 292 350
#     4   9  18  29  56  85 116 148 194 245 295 338
#     4  10  17  33  56  88 114 147 198 252 290 335
#     4  10  19  40  54  85 123 153 189 242 297 355
#     4   9  17  34  60  81 118 150 197 239 297 342
#     4  12  25  36  58  88 122 156 195 240 297 359
#     4  10  20  37  57  85 116 157 197 241 291 352
#     4   9  16  30  54  87 112 147 190 254 288 336
#
# _framework density 21.195112999999999
#
# number of rings (size 3 to 8) (size 9 to 14) (size 15 to 20)
#    0.000    2.000    6.250    0.750    1.750    2.000 
#    0.000    0.000    0.000    1.500    0.000    0.000 
#    0.000    0.000    0.000    0.000    0.000    0.000 
#
# Total GULP energy -89244.082457 kJ/mol
# GULP energy per Si atom -5577.755154 kJ/mol
# Density = 2.114687 g / cm^3
# Si number density = 21.195113 Si / 1000 Ang^3
#
#
#
# Elastic Constant Matrix: (Units=GPa)
#
#
# Indices 1 2 3 4 5 6 
#
# 1 36.9518 23.1160 21.0739 -0.0023 -3.3652 -24.8402
# 2 23.1160 34.4718 9.5986 -0.7553 8.2060 -10.9729
# 3 21.0739 9.5986 84.8326 -3.8519 6.3242 -15.5146
# 4 -0.0023 -0.7553 -3.8519 17.6381 -8.0651 -3.1560
# 5 -3.3652 8.2060 6.3242 -8.0651 25.6601 -0.3731
# 6 -24.8402 -10.9729 -15.5146 -3.1560 -0.3731 26.1498
#
#
#
# Elastic Compliance Matrix: (Units=1/GPa)
#
#
# Indices 1 2 3 4 5 6 
#
# 1 0.246618 -0.125397 -0.018480 0.069288 0.101400 0.180494
# 2 -0.125397 0.100384 0.008749 -0.036557 -0.063315 -0.077118
# 3 -0.018480 0.008749 0.015058 -0.001640 -0.009525 -0.005283
# 4 0.069288 -0.036557 -0.001640 0.088484 0.049878 0.060896
# 5 0.101400 -0.063315 -0.009525 0.049878 0.091580 0.071429
# 6 0.180494 -0.077118 -0.005283 0.060896 0.071429 0.182569
#
#
# Mechanical properties :
#
#
# Convention : Reuss Voigt Hill
#
# Bulk Modulus (GPa) = 10.89260 29.31481 20.10371
# Shear Modulus (GPa) = 4.87543 20.72078 12.79810
#
# Velocity S-wave (km/s) = 1.51831 3.13008 2.45995
# Velocity P-wave (km/s) = 2.86776 5.18885 4.19215
#
# Compressibility (1/GPa) = 0.09180543
#
# Stress axis : x y z
#
# Youngs Moduli (GPa) = 4.05485 9.96172 66.40931
#
# Poissons Ratio (x) = 1.24917 1.22722
# Poissons Ratio (y) = 0.50847 -0.58101
# Poissons Ratio (z) = 0.07493 -0.08715
#
# Static dielectric constant tensor:
#      x y z
#    x 1.808540 -0.058820 0.025220 
#    y -0.058820 1.804410 -0.061920 
#    z 0.025220 -0.061920 1.832090 
# 
# From -- ./inp_files/594266.got.cif
#   From: 2010.05.17/outbox.ucp.g08.bks.cvg/sg2_298_cif.got.tgz:594266.got - 2010.06.11 11:32:03.
