data_PCOD9071023
_publ_section_title
;
Structure prediction by ZEFSAII (Michael W. Deem and Ramdas Pophale) SiO2 
 PCOD9071023
Probable space group: P -1
;
_chemical_formula_sum "Si O2"
_cell_formula_units_Z 12
_cell_length_a 9.082572
_cell_length_b 13.566790
_cell_length_c 13.266941
_cell_angle_alpha 34.830356
_cell_angle_beta 56.451276
_cell_angle_gamma 40.107461
_cell_volume 588.823345
_symmetry_space_group_name_H-M "P -1"
_symmetry_group_IT_number 2
_symmetry_cell_setting 'triclinic'
loop_
_space_group_symop_operation_xyz
x,y,z
-x,-y,-z
loop_
_atom_site_type_symbol
_atom_site_label
_atom_site_fract_x
_atom_site_fract_y
_atom_site_fract_z
Si Si1 0.740309 0.599858 0.990724
Si Si2 0.024926 0.486111 0.620817
Si Si3 0.380637 0.961563 0.989994
Si Si4 0.756041 0.271911 0.628344
Si Si5 0.434861 0.236669 0.309574
Si Si6 0.891829 0.115955 0.335094
O O1 0.641522 0.687390 0.841308
O O2 0.564122 0.796169 0.972285
O O3 0.785042 0.371041 0.179205
O O4 0.000000 0.500000 0.000000
O O5 0.107561 0.630979 0.493261
O O6 0.000000 0.500000 0.500000
O O7 0.789438 0.588439 0.682890
O O8 0.195727 0.218308 0.805018
O O9 0.280174 0.842515 0.170192
O O10 0.500000 0.000000 0.000000
O O11 0.500000 0.500000 0.500000
O O12 0.894118 0.066114 0.667875
O O13 0.667908 0.176360 0.313413
O O14 0.500000 0.000000 0.500000
O O15 0.000000 0.000000 0.500000
#
# Coordination Sequence:
#
# PCOD9071023 Si02
#       6
#     2   2   2   2   2   2
#     4  12  27  47  75 108 147 194 242 304 368 435
#     4  12  28  47  75 109 150 190 241 308 369 435
#     4  12  26  48  75 106 149 192 245 301 364 442
#     4  12  26  47  77 109 145 192 249 298 370 440
#     4  12  25  49  73 107 149 188 248 299 365 437
#     4  12  27  47  75 106 145 195 246 302 365 438
#
# _framework density 20.379626999999999
#
# number of rings (size 3 to 8) (size 9 to 14) (size 15 to 20)
#    0.000    0.000    3.333    6.500    4.667    0.667 
#    0.000    0.000    0.000    0.000    0.000    0.000 
#    0.000    0.000    0.000    0.000    0.000    0.000 
#
# Total GULP energy -66913.774943 kJ/mol
# GULP energy per Si atom -5576.147912 kJ/mol
# Density = 2.033324 g / cm^3
# Si number density = 20.379627 Si / 1000 Ang^3
#
#
#
# Elastic Constant Matrix: (Units=GPa)
#
#
# Indices 1 2 3 4 5 6 
#
# 1 83.6829 34.9133 28.5220 5.7095 36.4863 -3.8253
# 2 34.9133 221.0365 60.7926 -6.8300 36.5738 -2.4143
# 3 28.5220 60.7926 171.6223 -18.2477 44.4295 1.1156
# 4 5.7095 -6.8300 -18.2477 49.8259 7.0474 1.5389
# 5 36.4863 36.5738 44.4295 7.0474 43.7096 -2.1083
# 6 -3.8253 -2.4143 1.1156 1.5389 -2.1083 31.9361
#
#
#
# Elastic Compliance Matrix: (Units=1/GPa)
#
#
# Indices 1 2 3 4 5 6 
#
# 1 0.019121 -0.000579 0.001510 0.000665 -0.017068 0.001035
# 2 -0.000579 0.005436 -0.000863 0.000964 -0.003338 0.000105
# 3 0.001510 -0.000863 0.009121 0.004583 -0.010603 -0.001124
# 4 0.000665 0.000964 0.004583 0.023253 -0.009856 -0.001779
# 5 -0.017068 -0.003338 -0.010603 -0.009856 0.052382 0.002007
# 6 0.001035 0.000105 -0.001124 -0.001779 0.002007 0.031702
#
#
# Mechanical properties :
#
#
# Convention : Reuss Voigt Hill
#
# Bulk Modulus (GPa) = 29.57464 80.53306 55.05385
# Shear Modulus (GPa) = 32.86195 48.56859 40.71527
#
# Velocity S-wave (km/s) = 4.01994 4.88709 4.47457
# Velocity P-wave (km/s) = 6.00749 8.45264 7.33270
#
# Compressibility (1/GPa) = 0.03381275
#
# Stress axis : x y z
#
# Youngs Moduli (GPa) = 52.29916 183.94556 109.63675
#
# Poissons Ratio (x) = 0.10659 -0.16557
# Poissons Ratio (y) = 0.03031 0.09466
# Poissons Ratio (z) = -0.07898 0.15882
#
# Static dielectric constant tensor:
#      x y z
#    x 1.646170 0.023200 -0.080360 
#    y 0.023200 1.574760 0.152000 
#    z -0.080360 0.152000 1.618570 
# 
# From -- ./inp_files/156457.got.cif
#   From: 2010.05.17/outbox.cif.g08.bks.cpg/sg2_79_cif.got.tgz:156457.got - 2010.06.03 11:33:40.
