data_PCOD9071743
_publ_section_title
;
Structure prediction by ZEFSAII (Michael W. Deem and Ramdas Pophale) SiO2 
 PCOD9071743
Probable space group: P -1
;
_chemical_formula_sum "Si O2"
_cell_formula_units_Z 16
_cell_length_a 11.533880
_cell_length_b 7.814205
_cell_length_c 15.270443
_cell_angle_alpha 56.049657
_cell_angle_beta 143.026893
_cell_angle_gamma 103.800505
_cell_volume 624.355404
_symmetry_space_group_name_H-M "P -1"
_symmetry_group_IT_number 2
_symmetry_cell_setting 'triclinic'
loop_
_space_group_symop_operation_xyz
x,y,z
-x,-y,-z
loop_
_atom_site_type_symbol
_atom_site_label
_atom_site_fract_x
_atom_site_fract_y
_atom_site_fract_z
Si Si1 0.715635 0.829831 0.846389
Si Si2 0.371617 0.344134 0.453979
Si Si3 0.455028 0.102440 0.086635
Si Si4 0.745152 0.114946 0.113180
Si Si5 0.618495 0.287924 0.389425
Si Si6 0.798654 0.616584 0.483608
Si Si7 0.932555 0.201297 0.470282
Si Si8 0.893472 0.814980 0.783738
O O1 0.546266 0.091025 0.653283
O O2 0.699398 0.793799 0.951674
O O3 0.093068 0.196994 0.098317
O O4 0.615782 0.681459 0.777039
O O5 0.500000 0.500000 0.500000
O O6 0.196017 0.431353 0.398374
O O7 0.233913 0.322162 0.295870
O O8 0.655790 0.883224 0.307316
O O9 0.565476 0.220858 0.051752
O O10 0.346831 0.984440 0.990709
O O11 0.888014 0.232633 0.122863
O O12 0.923426 0.896411 0.329967
O O13 0.675101 0.487972 0.399707
O O14 0.704425 0.247073 0.353835
O O15 0.738762 0.074991 0.586911
O O16 0.028289 0.584849 0.598681
O O17 0.000000 0.000000 0.500000
#
# Coordination Sequence:
#
# PCOD9071743 Si02
#       8
#     2   2   2   2   2   2   2   2
#     4  10  19  31  50  74  99 133 169 206 253 302
#     4  10  18  30  49  74 103 133 165 206 258 304
#     4   9  19  34  53  71  96 139 174 201 245 300
#     4   9  18  34  53  72  99 131 171 207 245 300
#     4  10  18  30  49  76 106 128 161 211 258 300
#     4  10  18  29  49  74 101 132 167 207 250 303
#     4  10  18  31  52  77 100 128 166 209 257 301
#     4  10  19  31  51  77 103 131 166 212 257 296
#
# _framework density 25.626429000000002
#
# number of rings (size 3 to 8) (size 9 to 14) (size 15 to 20)
#    0.000    2.250    0.000    7.125    0.000    0.500 
#    0.000    0.000    0.000   26.250    0.000    0.000 
#    0.000    0.000    0.000    0.000    0.000    0.000 
#
# Total GULP energy -89183.150998 kJ/mol
# GULP energy per Si atom -5573.946937 kJ/mol
# Density = 2.556810 g / cm^3
# Si number density = 25.626429 Si / 1000 Ang^3
#
#
#
# Elastic Constant Matrix: (Units=GPa)
#
#
# Indices 1 2 3 4 5 6 
#
# 1 240.6361 48.7002 41.4089 21.6252 -43.7115 20.9598
# 2 48.7002 115.9620 37.8478 19.7681 -2.8810 8.9679
# 3 41.4089 37.8478 53.9786 9.1436 -8.1820 11.3677
# 4 21.6252 19.7681 9.1436 40.8026 -9.6123 1.0347
# 5 -43.7115 -2.8810 -8.1820 -9.6123 29.1816 15.3052
# 6 20.9598 8.9679 11.3677 1.0347 15.3052 29.2923
#
#
#
# Elastic Compliance Matrix: (Units=1/GPa)
#
#
# Indices 1 2 3 4 5 6 
#
# 1 0.013376 -0.004357 0.004055 0.003677 0.037424 -0.029495
# 2 -0.004357 0.013421 -0.009849 -0.006019 -0.015899 0.011351
# 3 0.004055 -0.009849 0.032260 0.003167 0.029968 -0.028176
# 4 0.003677 -0.006019 0.003167 0.030878 0.024248 -0.015778
# 5 0.037424 -0.015899 0.029968 0.024248 0.169689 -0.123060
# 6 -0.029495 0.011351 -0.028176 -0.015778 -0.123060 0.127559
#
#
# Mechanical properties :
#
#
# Convention : Reuss Voigt Hill
#
# Bulk Modulus (GPa) = 25.80227 74.05450 49.92839
# Shear Modulus (GPa) = 11.89333 38.69662 25.29498
#
# Velocity S-wave (km/s) = 2.15664 3.89012 3.14517
# Velocity P-wave (km/s) = 4.03633 7.00984 5.71969
#
# Compressibility (1/GPa) = 0.03875628
#
# Stress axis : x y z
#
# Youngs Moduli (GPa) = 74.75855 74.50971 30.99786
#
# Poissons Ratio (x) = 0.32465 -0.12570
# Poissons Ratio (y) = 0.32574 0.30528
# Poissons Ratio (z) = -0.30314 0.73381
#
# Static dielectric constant tensor:
#      x y z
#    x 2.186210 0.023420 0.024080 
#    y 0.023420 2.019840 0.005510 
#    z 0.024080 0.005510 2.031780 
# 
# From -- ./inp_files/513059.got.cif
#   From: 2010.05.17/outbox.cif.g08.bks.cpg/sg2_257_cif.got.tgz:513059.got - 2010.06.03 11:33:40.
