data_PCOD9071443
_publ_section_title
;
Structure prediction by ZEFSAII (Michael W. Deem and Ramdas Pophale) SiO2 
 PCOD9071443
Probable space group: P -1
;
_chemical_formula_sum "Si O2"
_cell_formula_units_Z 11
_cell_length_a 12.703473
_cell_length_b 5.784712
_cell_length_c 10.013267
_cell_angle_alpha 93.393178
_cell_angle_beta 37.625067
_cell_angle_gamma 107.370926
_cell_volume 408.406159
_symmetry_space_group_name_H-M "P -1"
_symmetry_group_IT_number 2
_symmetry_cell_setting 'triclinic'
loop_
_space_group_symop_operation_xyz
x,y,z
-x,-y,-z
loop_
_atom_site_type_symbol
_atom_site_label
_atom_site_fract_x
_atom_site_fract_y
_atom_site_fract_z
Si Si1 0.869230 0.737968 0.558386
Si Si2 0.713252 0.680131 0.246547
Si Si3 0.867080 0.472857 0.867552
Si Si4 0.500000 0.500000 0.000000
Si Si5 0.793685 0.003635 0.430076
Si Si6 0.565519 0.922655 0.173224
O O1 0.986580 0.636451 0.343924
O O2 0.718325 0.795195 0.620024
O O3 0.730921 0.544938 0.796439
O O4 0.000000 0.000000 0.500000
O O5 0.500000 0.500000 0.500000
O O6 0.681631 0.844887 0.163959
O O7 0.814033 0.855660 0.275892
O O8 0.819951 0.519283 0.072563
O O9 0.011013 0.774365 0.712666
O O10 0.674457 0.214259 0.033835
O O11 0.531946 0.736221 0.075951
O O12 0.637393 0.111488 0.566792
#
# Coordination Sequence:
#
# PCOD9071443 Si02
#       6
#     2   2   2   1   2   2
#     4  12  28  49  75 110 146 194 249 302 363 439
#     4  12  27  49  77 109 152 192 246 302 365 439
#     4  12  27  47  78 108 150 192 248 299 367 436
#     4  12  26  50  76 102 154 192 244 302 368 426
#     4  12  28  48  77 111 147 197 241 305 371 429
#     4  12  27  49  76 111 147 196 246 302 363 441
#
# _framework density 26.933969999999999
#
# number of rings (size 3 to 8) (size 9 to 14) (size 15 to 20)
#    0.000    0.000    5.455    3.273    0.000    4.364 
#    0.000    0.000    0.000    0.000    0.000    0.000 
#    0.000    0.000    0.000    0.000    0.000    0.000 
#
# Total GULP energy -61270.158735 kJ/mol
# GULP energy per Si atom -5570.014430 kJ/mol
# Density = 2.687267 g / cm^3
# Si number density = 26.933970 Si / 1000 Ang^3
#
#
#
# Elastic Constant Matrix: (Units=GPa)
#
#
# Indices 1 2 3 4 5 6 
#
# 1 184.7055 68.8075 17.3185 0.7472 1.4732 37.5013
# 2 68.8075 233.3471 57.2910 2.0122 29.3223 57.1046
# 3 17.3185 57.2910 166.1715 24.4582 -15.8494 4.6687
# 4 0.7472 2.0122 24.4582 88.0574 6.2462 6.7360
# 5 1.4732 29.3223 -15.8494 6.2462 38.8471 -3.4475
# 6 37.5013 57.1046 4.6687 6.7360 -3.4475 41.8759
#
#
#
# Elastic Compliance Matrix: (Units=1/GPa)
#
#
# Indices 1 2 3 4 5 6 
#
# 1 0.006757 -0.000371 -0.000584 0.000603 -0.000812 -0.005644
# 2 -0.000371 0.010854 -0.004882 0.003145 -0.012045 -0.015422
# 3 -0.000584 -0.004882 0.008889 -0.003531 0.008564 0.007462
# 4 0.000603 0.003145 -0.003531 0.013272 -0.006603 -0.007114
# 5 -0.000812 -0.012045 0.008564 -0.006603 0.041253 0.020656
# 6 -0.005644 -0.015422 0.007462 -0.007114 0.020656 0.051978
#
#
# Mechanical properties :
#
#
# Convention : Reuss Voigt Hill
#
# Bulk Modulus (GPa) = 67.44996 96.78422 82.11709
# Shear Modulus (GPa) = 33.41836 63.14323 48.28079
#
# Velocity S-wave (km/s) = 3.52625 4.84712 4.23846
# Velocity P-wave (km/s) = 6.45572 8.20598 7.38290
#
# Compressibility (1/GPa) = 0.01482581
#
# Stress axis : x y z
#
# Youngs Moduli (GPa) = 147.99668 92.13173 112.50281
#
# Poissons Ratio (x) = 0.03419 0.06569
# Poissons Ratio (y) = 0.05492 0.54923
# Poissons Ratio (z) = 0.08641 0.44978
#
# Static dielectric constant tensor:
#      x y z
#    x 1.716230 0.348360 -0.719880 
#    y 0.348360 1.477310 0.903270 
#    z -0.719880 0.903270 0.266290 
# 
# From -- ./inp_files/24904.got.cif
#   From: 2010.05.17/outbox.cif.g08.bks.cpg/sg2_13_cif.got.tgz:24904.got - 2010.06.03 11:33:40.
