data_PCOD9071778
_publ_section_title
;
Structure prediction by ZEFSAII (Michael W. Deem and Ramdas Pophale) SiO2 
 PCOD9071778
Probable space group: P -1
;
_chemical_formula_sum "Si O2"
_cell_formula_units_Z 14
_cell_length_a 15.648561
_cell_length_b 12.705528
_cell_length_c 21.277072
_cell_angle_alpha 37.969268
_cell_angle_beta 19.200818
_cell_angle_gamma 35.438777
_cell_volume 802.729901
_symmetry_space_group_name_H-M "P -1"
_symmetry_group_IT_number 2
_symmetry_cell_setting 'triclinic'
loop_
_space_group_symop_operation_xyz
x,y,z
-x,-y,-z
loop_
_atom_site_type_symbol
_atom_site_label
_atom_site_fract_x
_atom_site_fract_y
_atom_site_fract_z
Si Si1 0.674473 0.606833 0.186081
Si Si2 0.308038 0.469713 0.053268
Si Si3 0.416884 0.529199 0.814389
Si Si4 0.775880 0.805181 0.131288
Si Si5 0.335854 0.378630 0.584042
Si Si6 0.314147 0.202810 0.551768
Si Si7 0.711256 0.219422 0.989509
O O1 0.549489 0.608769 0.202509
O O2 0.652600 0.783969 0.158677
O O3 0.540754 0.488318 0.377496
O O4 0.000000 0.500000 0.000000
O O5 0.318228 0.662601 0.981975
O O6 0.986553 0.492225 0.258660
O O7 0.450690 0.434940 0.902724
O O8 0.460290 0.322656 0.068955
O O9 0.612690 0.646408 0.610398
O O10 0.101694 0.677740 0.963315
O O11 0.637330 0.722171 0.320915
O O12 0.742518 0.010633 0.074513
O O13 0.378388 0.239171 0.562157
O O14 0.993828 0.225764 0.759475
O O15 0.500000 0.000000 0.500000
#
# Coordination Sequence:
#
# PCOD9071778 Si02
#       7
#     2   2   2   2   2   2   2
#     4   9  18  33  52  77 100 125 164 210 251 286
#     4   9  20  35  50  71 104 136 164 198 249 301
#     4   9  18  32  52  72 101 134 162 205 252 286
#     4  10  18  31  53  76  97 129 171 207 238 292
#     4   9  19  32  53  73  99 132 163 203 250 292
#     4  10  18  29  50  77 104 124 164 208 245 288
#     4  10  20  33  50  75 103 133 165 203 244 294
#
# _framework density 17.440484999999999
#
# number of rings (size 3 to 8) (size 9 to 14) (size 15 to 20)
#    0.000    2.571    1.429    0.429    2.000    2.286 
#    0.000    1.429    0.000    0.000    0.000    0.000 
#    0.000    0.000    0.000    0.000    0.000    0.000 
#
# Total GULP energy -78000.827530 kJ/mol
# GULP energy per Si atom -5571.487681 kJ/mol
# Density = 1.740079 g / cm^3
# Si number density = 17.440485 Si / 1000 Ang^3
#
#
#
# Elastic Constant Matrix: (Units=GPa)
#
#
# Indices 1 2 3 4 5 6 
#
# 1 45.9283 3.7217 32.7466 -4.5663 10.8390 1.6945
# 2 3.7217 24.9237 2.5310 -0.5410 -4.5614 6.8092
# 3 32.7466 2.5310 89.5846 -9.8307 9.1001 6.7307
# 4 -4.5663 -0.5410 -9.8307 13.6417 4.0963 0.5079
# 5 10.8390 -4.5614 9.1001 4.0963 24.1007 3.5147
# 6 1.6945 6.8092 6.7307 0.5079 3.5147 11.6189
#
#
#
# Elastic Compliance Matrix: (Units=1/GPa)
#
#
# Indices 1 2 3 4 5 6 
#
# 1 0.034401 -0.010076 -0.010626 0.007954 -0.016419 0.011662
# 2 -0.010076 0.055546 0.002487 -0.004073 0.020415 -0.038521
# 3 -0.010626 0.002487 0.016877 0.009461 -0.001317 -0.009700
# 4 0.007954 -0.004073 0.009461 0.089565 -0.022966 -0.001222
# 5 -0.016419 0.020415 -0.001317 -0.022966 0.060969 -0.026246
# 6 0.011662 -0.038521 -0.009700 -0.001222 -0.026246 0.120552
#
#
# Mechanical properties :
#
#
# Convention : Reuss Voigt Hill
#
# Bulk Modulus (GPa) = 14.20547 26.49279 20.34913
# Shear Modulus (GPa) = 11.42059 17.96808 14.69433
#
# Velocity S-wave (km/s) = 2.56174 3.21323 2.90581
# Velocity P-wave (km/s) = 4.11252 5.38422 4.79076
#
# Compressibility (1/GPa) = 0.07039540
#
# Stress axis : x y z
#
# Youngs Moduli (GPa) = 29.06882 18.00295 59.25170
#
# Poissons Ratio (x) = 0.18140 0.62959
# Poissons Ratio (y) = 0.29291 -0.14738
# Poissons Ratio (z) = 0.30888 -0.04478
#
# Static dielectric constant tensor:
#      x y z
#    x 1.620250 0.026230 -0.010000 
#    y 0.026230 1.566320 0.007530 
#    z -0.010000 0.007530 1.597170 
# 
# From -- ./inp_files/154757.got.cif
#   From: 2010.05.17/outbox.cif.g08.bks.cpg/sg2_78_cif.got.tgz:154757.got - 2010.06.03 11:33:40.
