data_PCOD9071180
_publ_section_title
;
Structure prediction by ZEFSAII (Michael W. Deem and Ramdas Pophale) SiO2 
 PCOD9071180
Probable space group: P -1
;
_chemical_formula_sum "Si O2"
_cell_formula_units_Z 12
_cell_length_a 13.810303
_cell_length_b 4.616028
_cell_length_c 9.307272
_cell_angle_alpha 104.358025
_cell_angle_beta 117.166064
_cell_angle_gamma 70.473815
_cell_volume 494.287634
_symmetry_space_group_name_H-M "P -1"
_symmetry_group_IT_number 2
_symmetry_cell_setting 'triclinic'
loop_
_space_group_symop_operation_xyz
x,y,z
-x,-y,-z
loop_
_atom_site_type_symbol
_atom_site_label
_atom_site_fract_x
_atom_site_fract_y
_atom_site_fract_z
Si Si1 0.476534 0.760079 0.834219
Si Si2 0.177524 0.273123 0.318392
Si Si3 0.701956 0.231115 0.884913
Si Si4 0.976530 0.121055 0.834215
Si Si5 0.201949 0.249881 0.884899
Si Si6 0.322480 0.309752 0.681609
O O1 0.387170 0.568053 0.796587
O O2 0.241713 0.256497 0.749260
O O3 0.585594 0.492467 0.830492
O O4 0.500000 0.000000 0.000000
O O5 0.082114 0.128124 0.305543
O O6 0.250007 0.392859 0.500002
O O7 0.258282 0.990673 0.250727
O O8 0.582114 0.013225 0.305543
O O9 0.887161 0.454165 0.796574
O O10 0.793029 0.418856 0.010778
O O11 0.706978 0.994139 0.989237
O O12 0.085588 0.166833 0.830485
O O13 0.000000 0.000000 0.000000
#
# Coordination Sequence:
#
# PCOD9071180 Si02
#       6
#     2   2   2   2   2   2
#     4  12  26  49  78 111 153 205 259 305 374 463
#     4  12  28  48  75 117 159 193 249 328 384 438
#     4  12  26  44  78 115 146 205 261 306 373 456
#     4  12  26  49  78 111 153 205 259 305 374 463
#     4  12  26  44  78 115 146 205 261 306 373 456
#     4  12  28  48  75 117 159 193 249 328 384 438
#
# _framework density 24.277363999999999
#
# number of rings (size 3 to 8) (size 9 to 14) (size 15 to 20)
#    0.000    0.000    3.333    6.000    0.000    2.667 
#    0.000    0.000    0.000    0.000    0.000    0.000 
#    0.000    0.000    0.000    0.000    0.000    0.000 
#
# Total GULP energy -67185.410205 kJ/mol
# GULP energy per Si atom -5598.784184 kJ/mol
# Density = 2.422211 g / cm^3
# Si number density = 24.277364 Si / 1000 Ang^3
#
#
#
# Elastic Constant Matrix: (Units=GPa)
#
#
# Indices 1 2 3 4 5 6 
#
# 1 148.7153 59.6996 67.1270 1.9485 7.2692 -1.7180
# 2 59.6996 168.2575 48.5013 7.5260 2.8518 -2.4022
# 3 67.1270 48.5013 107.0204 -0.0138 9.5453 -0.2068
# 4 1.9485 7.5260 -0.0138 34.2683 3.8989 11.5357
# 5 7.2692 2.8518 9.5453 3.8989 24.2080 6.9932
# 6 -1.7180 -2.4022 -0.2068 11.5357 6.9932 42.6372
#
#
#
# Elastic Compliance Matrix: (Units=1/GPa)
#
#
# Indices 1 2 3 4 5 6 
#
# 1 0.009943 -0.001981 -0.005269 -0.000194 -0.000771 0.000442
# 2 -0.001981 0.007344 -0.002144 -0.001814 0.000663 0.000706
# 3 -0.005269 -0.002144 0.013967 0.001202 -0.003879 0.000046
# 4 -0.000194 -0.001814 0.001202 0.032791 -0.003034 -0.008478
# 5 -0.000771 0.000663 -0.003879 -0.003034 0.045398 -0.006638
# 6 0.000442 0.000706 0.000046 -0.008478 -0.006638 0.026894
#
#
# Mechanical properties :
#
#
# Convention : Reuss Voigt Hill
#
# Bulk Modulus (GPa) = 80.21841 86.07211 83.14526
# Shear Modulus (GPa) = 31.39112 36.80037 34.09575
#
# Velocity S-wave (km/s) = 3.59976 3.89759 3.75163
# Velocity P-wave (km/s) = 7.09873 7.46897 7.28620
#
# Compressibility (1/GPa) = 0.01246597
#
# Stress axis : x y z
#
# Youngs Moduli (GPa) = 100.56960 136.16382 71.59755
#
# Poissons Ratio (x) = 0.26974 0.37728
# Poissons Ratio (y) = 0.19923 0.15349
# Poissons Ratio (z) = 0.52994 0.29191
#
# Static dielectric constant tensor:
#      x y z
#    x 2.041510 -0.028650 0.040600 
#    y -0.028650 1.953790 0.002800 
#    z 0.040600 0.002800 1.903480 
# 
# From -- ./inp_files/135307.got.cif
#   From: 2010.05.17/outbox.cif.g08.bks.cpg/sg2_68_cif.got.tgz:135307.got - 2010.06.03 11:33:40.
