data_PCOD9071867
_publ_section_title
;
Structure prediction by ZEFSAII (Michael W. Deem and Ramdas Pophale) SiO2 
 PCOD9071867
Probable space group: P -1
;
_chemical_formula_sum "Si O2"
_cell_formula_units_Z 15
_cell_length_a 9.803698
_cell_length_b 9.486783
_cell_length_c 14.429782
_cell_angle_alpha 39.710516
_cell_angle_beta 47.894978
_cell_angle_gamma 74.465664
_cell_volume 542.157845
_symmetry_space_group_name_H-M "P -1"
_symmetry_group_IT_number 2
_symmetry_cell_setting 'triclinic'
loop_
_space_group_symop_operation_xyz
x,y,z
-x,-y,-z
loop_
_atom_site_type_symbol
_atom_site_label
_atom_site_fract_x
_atom_site_fract_y
_atom_site_fract_z
Si Si1 0.363669 0.713743 0.753928
Si Si2 0.207738 0.228098 0.460658
Si Si3 0.402164 0.942538 0.288982
Si Si4 0.721616 0.259281 0.747713
Si Si5 0.985558 0.782610 0.937785
Si Si6 0.500000 0.500000 0.000000
Si Si7 0.862747 0.113966 0.938713
Si Si8 0.029215 0.351027 0.304347
O O1 0.558619 0.702446 0.720630
O O2 0.170975 0.713751 0.895930
O O3 0.500000 0.000000 0.500000
O O4 0.238747 0.475331 0.858913
O O5 0.270307 0.480061 0.364905
O O6 0.071404 0.220265 0.440385
O O7 0.076932 0.976148 0.709803
O O8 0.262588 0.772305 0.351585
O O9 0.227184 0.832442 0.508295
O O10 0.488140 0.244649 0.087773
O O11 0.621566 0.935839 0.183464
O O12 0.860789 0.221959 0.780387
O O13 0.500000 0.000000 0.000000
O O14 0.961516 0.937895 0.955632
O O15 0.759051 0.605192 0.866387
O O16 0.958437 0.381296 0.814604
#
# Coordination Sequence:
#
# PCOD9071867 Si02
#       8
#     2   2   2   2   2   1   2   2
#     4   9  19  32  45  67 103 140 167 195 236 292
#     4  10  19  31  50  76 103 132 168 202 242 295
#     4  10  18  30  45  64  96 131 161 195 237 284
#     4   9  16  27  46  72 103 130 155 194 241 292
#     4  10  18  30  48  71 104 137 164 197 240 293
#     4  10  22  34  44  66 100 134 172 202 236 292
#     4   9  18  29  47  77 102 126 159 194 241 300
#     4  10  20  33  50  72 100 133 163 202 248 290
#
# _framework density 27.66722
#
# number of rings (size 3 to 8) (size 9 to 14) (size 15 to 20)
#    0.000    2.400    0.000    4.400    0.000    6.400 
#    0.000    0.000    0.000    0.000    0.000    3.733 
#    0.000   94.933    0.000    4.933    0.000    0.000 
#
# Total GULP energy -83633.592661 kJ/mol
# GULP energy per Si atom -5575.572844 kJ/mol
# Density = 2.760425 g / cm^3
# Si number density = 27.667220 Si / 1000 Ang^3
#
#
#
# Elastic Constant Matrix: (Units=GPa)
#
#
# Indices 1 2 3 4 5 6 
#
# 1 50.8501 33.7938 26.5955 -7.4614 -1.0570 -15.7191
# 2 33.7938 166.0648 58.3901 8.7358 -20.0389 -20.0040
# 3 26.5955 58.3901 179.9978 13.5661 -30.5460 -1.2843
# 4 -7.4614 8.7358 13.5661 67.3644 -8.4448 -13.8631
# 5 -1.0570 -20.0389 -30.5460 -8.4448 34.8734 0.8263
# 6 -15.7191 -20.0040 -1.2843 -13.8631 0.8263 65.5410
#
#
#
# Elastic Compliance Matrix: (Units=1/GPa)
#
#
# Indices 1 2 3 4 5 6 
#
# 1 0.026901 -0.004172 -0.003576 0.005066 -0.003635 0.006226
# 2 -0.004172 0.007900 -0.001379 -0.000577 0.003037 0.001223
# 3 -0.003576 -0.001379 0.007541 -0.001364 0.005410 -0.001487
# 4 0.005066 -0.000577 -0.001364 0.017029 0.002643 0.004581
# 5 -0.003635 0.003037 0.005410 0.002643 0.035682 0.000270
# 6 0.006226 0.001223 -0.001487 0.004581 0.000270 0.018061
#
#
# Mechanical properties :
#
#
# Convention : Reuss Voigt Hill
#
# Bulk Modulus (GPa) = 41.51232 70.49683 56.00457
# Shear Modulus (GPa) = 35.86896 52.09796 43.98346
#
# Velocity S-wave (km/s) = 3.60452 4.34409 3.99147
# Velocity P-wave (km/s) = 5.68860 7.12019 6.44427
#
# Compressibility (1/GPa) = 0.02408924
#
# Stress axis : x y z
#
# Youngs Moduli (GPa) = 37.17352 126.58834 132.60131
#
# Poissons Ratio (x) = 0.52815 0.47412
# Poissons Ratio (y) = 0.15510 0.18281
# Poissons Ratio (z) = 0.13291 0.17452
#
# Static dielectric constant tensor:
#      x y z
#    x 2.162450 0.171010 0.003350 
#    y 0.171010 2.053180 0.177320 
#    z 0.003350 0.177320 2.187090 
# 
# From -- ./inp_files/611854.got.cif
#   From: 2010.05.17/outbox.cif.g08.bks.cpg/sg2_306_cif.got.tgz:611854.got - 2010.06.03 11:33:40.
