data_PCOD9071167
_publ_section_title
;
Structure prediction by ZEFSAII (Michael W. Deem and Ramdas Pophale) SiO2 
 PCOD9071167
Probable space group: P -1
;
_chemical_formula_sum "Si O2"
_cell_formula_units_Z 12
_cell_length_a 11.129014
_cell_length_b 5.218142
_cell_length_c 8.964098
_cell_angle_alpha 69.307219
_cell_angle_beta 86.180618
_cell_angle_gamma 80.204982
_cell_volume 479.876445
_symmetry_space_group_name_H-M "P -1"
_symmetry_group_IT_number 2
_symmetry_cell_setting 'triclinic'
loop_
_space_group_symop_operation_xyz
x,y,z
-x,-y,-z
loop_
_atom_site_type_symbol
_atom_site_label
_atom_site_fract_x
_atom_site_fract_y
_atom_site_fract_z
Si Si1 0.237308 0.011352 0.796413
Si Si2 0.435770 0.355165 0.665984
Si Si3 0.015995 0.313197 0.892302
Si Si4 0.789064 0.230797 0.425493
Si Si5 0.604858 0.366495 0.904574
Si Si6 0.799846 0.599280 0.645164
O O1 0.351662 0.125330 0.685278
O O2 0.150906 0.274466 0.820158
O O3 0.150244 0.878400 0.715447
O O4 0.294770 0.824820 0.966637
O O5 0.500000 0.500000 0.500000
O O6 0.337606 0.617154 0.668884
O O7 0.530417 0.232533 0.810081
O O8 0.917909 0.455779 0.753569
O O9 0.000000 0.500000 0.000000
O O10 0.000000 0.000000 0.000000
O O11 0.809200 0.433530 0.519503
O O12 0.794350 0.928749 0.563451
O O13 0.680591 0.556082 0.759618
O O14 0.500000 0.500000 0.000000
#
# Coordination Sequence:
#
# PCOD9071167 Si02
#       6
#     2   2   2   2   2   2
#     4  12  28  49  80 115 155 207 265 319 389 458
#     4  12  26  48  73 113 160 205 250 320 387 461
#     4  12  29  52  82 114 157 199 262 329 383 456
#     4  12  26  50  74 111 157 197 262 308 392 458
#     4  12  26  43  78 115 156 202 265 316 389 460
#     4  12  28  51  77 114 151 212 251 321 388 459
#
# _framework density 25.006436999999998
#
# number of rings (size 3 to 8) (size 9 to 14) (size 15 to 20)
#    0.000    0.000    6.667    1.500    7.000    2.667 
#    0.000    0.000    0.000    0.000    0.000    0.000 
#    0.000    0.000    0.000    0.000    0.000    0.000 
#
# Total GULP energy -67022.675160 kJ/mol
# GULP energy per Si atom -5585.222930 kJ/mol
# Density = 2.494952 g / cm^3
# Si number density = 25.006437 Si / 1000 Ang^3
#
#
#
# Elastic Constant Matrix: (Units=GPa)
#
#
# Indices 1 2 3 4 5 6 
#
# 1 87.2358 15.9436 47.4966 10.0090 9.6556 -5.7545
# 2 15.9436 130.9510 36.7283 10.7069 14.9146 20.6534
# 3 47.4966 36.7283 150.8827 14.9666 21.6812 13.3723
# 4 10.0090 10.7069 14.9666 52.3109 -5.3408 -0.7548
# 5 9.6556 14.9146 21.6812 -5.3408 62.6088 -0.1562
# 6 -5.7545 20.6534 13.3723 -0.7548 -0.1562 41.1468
#
#
#
# Elastic Compliance Matrix: (Units=1/GPa)
#
#
# Indices 1 2 3 4 5 6 
#
# 1 0.014555 -0.000967 -0.004487 -0.001304 -0.000562 0.003953
# 2 -0.000967 0.009088 -0.001105 -0.001604 -0.001781 -0.004374
# 3 -0.004487 -0.001105 0.009099 -0.001804 -0.002357 -0.003072
# 4 -0.001304 -0.001604 -0.001804 0.020536 0.002963 0.001597
# 5 -0.000562 -0.001781 -0.002357 0.002963 0.017556 0.001702
# 6 0.003953 -0.004374 -0.003072 0.001597 0.001702 0.028085
#
#
# Mechanical properties :
#
#
# Convention : Reuss Voigt Hill
#
# Bulk Modulus (GPa) = 50.95590 63.26737 57.11163
# Shear Modulus (GPa) = 42.16599 49.14004 45.65301
#
# Velocity S-wave (km/s) = 4.11080 4.43775 4.27740
# Velocity P-wave (km/s) = 6.55385 7.18425 6.87628
#
# Compressibility (1/GPa) = 0.01962481
#
# Stress axis : x y z
#
# Youngs Moduli (GPa) = 68.70352 110.03625 109.90200
#
# Poissons Ratio (x) = 0.10635 0.49311
# Poissons Ratio (y) = 0.06640 0.12148
# Poissons Ratio (z) = 0.30826 0.12163
#
# Static dielectric constant tensor:
#      x y z
#    x 2.050010 0.055930 -0.070550 
#    y 0.055930 2.166500 0.103440 
#    z -0.070550 0.103440 2.118520 
# 
# From -- ./inp_files/45955.got.cif
#   From: 2010.05.17/outbox.cif.g08.bks.cpg/sg2_23_cif.got.tgz:45955.got - 2010.06.03 11:33:40.
