data_PCOD9071517
_publ_section_title
;
Structure prediction by ZEFSAII (Michael W. Deem and Ramdas Pophale) SiO2 
 PCOD9071517
Probable space group: P -1
;
_chemical_formula_sum "Si O2"
_cell_formula_units_Z 12
_cell_length_a 11.331097
_cell_length_b 8.456029
_cell_length_c 8.739888
_cell_angle_alpha 116.566110
_cell_angle_beta 100.144989
_cell_angle_gamma 40.522407
_cell_volume 466.926316
_symmetry_space_group_name_H-M "P -1"
_symmetry_group_IT_number 2
_symmetry_cell_setting 'triclinic'
loop_
_space_group_symop_operation_xyz
x,y,z
-x,-y,-z
loop_
_atom_site_type_symbol
_atom_site_label
_atom_site_fract_x
_atom_site_fract_y
_atom_site_fract_z
Si Si1 0.384632 0.151977 0.261527
Si Si2 0.647156 0.175508 0.416284
Si Si3 0.179061 0.478570 0.655626
Si Si4 0.893332 0.055137 0.655913
Si Si5 0.003864 0.602190 0.198180
Si Si6 0.382565 0.452224 0.962401
O O1 0.541444 0.122765 0.310130
O O2 0.300806 0.239636 0.451610
O O3 0.210773 0.408363 0.225890
O O4 0.476197 0.867962 0.096417
O O5 0.500000 0.500000 0.500000
O O6 0.723070 0.124976 0.582637
O O7 0.848736 0.931481 0.271856
O O8 0.297516 0.470619 0.792640
O O9 0.078553 0.440936 0.713592
O O10 0.035133 0.769833 0.659062
O O11 0.790320 0.307841 0.857635
O O12 0.000000 0.000000 0.500000
O O13 0.000000 0.500000 0.000000
O O14 0.500000 0.500000 0.000000
#
# Coordination Sequence:
#
# PCOD9071517 Si02
#       6
#     2   2   2   2   2   2
#     4  12  27  54  84 117 168 220 278 343 423 499
#     4  12  29  51  83 117 166 214 282 338 423 491
#     4  12  26  55  83 117 171 222 274 348 419 497
#     4  12  29  53  83 126 169 221 279 350 421 500
#     4  12  30  51  84 122 166 220 282 345 421 498
#     4  12  28  49  83 127 168 218 286 344 418 505
#
# _framework density 25.699985000000002
#
# number of rings (size 3 to 8) (size 9 to 14) (size 15 to 20)
#    0.000    0.000    3.333    4.500    7.000    0.667 
#    3.000    0.000    0.000    0.000    0.000    0.000 
#    0.000    0.000    0.000    0.000    0.000    0.000 
#
# Total GULP energy -67190.850630 kJ/mol
# GULP energy per Si atom -5599.237552 kJ/mol
# Density = 2.564149 g / cm^3
# Si number density = 25.699985 Si / 1000 Ang^3
#
#
#
# Elastic Constant Matrix: (Units=GPa)
#
#
# Indices 1 2 3 4 5 6 
#
# 1 132.0391 50.5647 30.6131 4.7131 7.9674 -12.1296
# 2 50.5647 199.6439 51.6275 27.0559 -0.6674 -15.4377
# 3 30.6131 51.6275 188.8815 35.5863 -1.7669 -2.5464
# 4 4.7131 27.0559 35.5863 64.8872 -3.3732 17.9688
# 5 7.9674 -0.6674 -1.7669 -3.3732 53.5569 -3.8915
# 6 -12.1296 -15.4377 -2.5464 17.9688 -3.8915 48.6507
#
#
#
# Elastic Compliance Matrix: (Units=1/GPa)
#
#
# Indices 1 2 3 4 5 6 
#
# 1 0.008704 -0.001897 -0.000930 0.000235 -0.001238 0.001334
# 2 -0.001897 0.006269 -0.000866 -0.002671 0.000344 0.002485
# 3 -0.000930 -0.000866 0.006325 -0.003325 0.000204 0.001069
# 4 0.000235 -0.002671 -0.003325 0.020734 0.000504 -0.008581
# 5 -0.001238 0.000344 0.000204 0.000504 0.018982 0.001143
# 6 0.001334 0.002485 0.001069 -0.008581 0.001143 0.024992
#
#
# Mechanical properties :
#
#
# Convention : Reuss Voigt Hill
#
# Bulk Modulus (GPa) = 71.88287 87.35279 79.61783
# Shear Modulus (GPa) = 51.00505 59.26958 55.13731
#
# Velocity S-wave (km/s) = 4.45976 4.80751 4.63689
# Velocity P-wave (km/s) = 7.38579 8.05478 7.72753
#
# Compressibility (1/GPa) = 0.01391152
#
# Stress axis : x y z
#
# Youngs Moduli (GPa) = 114.88426 159.52419 158.11233
#
# Poissons Ratio (x) = 0.30261 0.14707
# Poissons Ratio (y) = 0.21793 0.13692
# Poissons Ratio (z) = 0.10686 0.13814
#
# Static dielectric constant tensor:
#      x y z
#    x 2.260160 0.022970 -0.039020 
#    y 0.022970 2.025060 0.054490 
#    z -0.039020 0.054490 2.050950 
# 
# From -- ./inp_files/245527.got.cif
#   From: 2010.05.17/outbox.cif.g08.bks.cpg/sg2_123_cif.got.tgz:245527.got - 2010.06.03 11:33:40.
