data_PCOD9071319
_publ_section_title
;
Structure prediction by ZEFSAII (Michael W. Deem and Ramdas Pophale) SiO2 
 PCOD9071319
Probable space group: P -1
;
_chemical_formula_sum "Si O2"
_cell_formula_units_Z 12
_cell_length_a 8.955715
_cell_length_b 14.076399
_cell_length_c 8.916350
_cell_angle_alpha 60.276081
_cell_angle_beta 31.312895
_cell_angle_gamma 71.021643
_cell_volume 495.108457
_symmetry_space_group_name_H-M "P -1"
_symmetry_group_IT_number 2
_symmetry_cell_setting 'triclinic'
loop_
_space_group_symop_operation_xyz
x,y,z
-x,-y,-z
loop_
_atom_site_type_symbol
_atom_site_label
_atom_site_fract_x
_atom_site_fract_y
_atom_site_fract_z
Si Si1 0.349371 0.396484 0.811216
Si Si2 0.280807 0.903101 0.863692
Si Si3 0.629372 0.775587 0.489620
Si Si4 0.736392 0.262277 0.453565
Si Si5 0.704228 0.523841 0.667683
Si Si6 0.180253 0.937331 0.278856
O O1 0.500000 0.500000 0.500000
O O2 0.438521 0.286775 0.756880
O O3 0.538238 0.430495 0.769696
O O4 0.998115 0.372311 0.130655
O O5 0.472328 0.806195 0.754152
O O6 0.500000 0.000000 0.500000
O O7 0.205147 0.932206 0.078581
O O8 0.946878 0.858544 0.124179
O O9 0.380339 0.784522 0.572000
O O10 0.698482 0.650922 0.521615
O O11 0.866804 0.186789 0.516632
O O12 0.000000 0.500000 0.500000
O O13 0.500000 0.500000 0.000000
O O14 0.000000 0.000000 0.500000
O O15 0.500000 0.000000 0.000000
#
# Coordination Sequence:
#
# PCOD9071319 Si02
#       6
#     2   2   2   2   2   2
#     4  12  26  48  74 111 152 206 259 313 381 459
#     4  12  28  50  82 116 158 201 261 329 401 469
#     4  12  27  49  77 116 156 207 263 320 396 465
#     4  12  27  47  80 108 154 205 262 315 384 465
#     4  12  28  46  74 111 161 202 259 318 384 465
#     4  12  28  53  78 112 153 202 261 324 391 468
#
# _framework density 24.237116
#
# number of rings (size 3 to 8) (size 9 to 14) (size 15 to 20)
#    0.000    0.000    1.667    7.000    9.333    2.667 
#    0.000    0.000    0.000    0.000    0.000    0.000 
#    0.000    0.000    0.000    0.000    0.000    0.000 
#
# Total GULP energy -66915.001387 kJ/mol
# GULP energy per Si atom -5576.250116 kJ/mol
# Density = 2.418195 g / cm^3
# Si number density = 24.237116 Si / 1000 Ang^3
#
#
#
# Elastic Constant Matrix: (Units=GPa)
#
#
# Indices 1 2 3 4 5 6 
#
# 1 150.0600 26.5017 69.5378 1.9563 -3.1104 24.9207
# 2 26.5017 94.7687 35.7693 19.5071 14.0663 0.6388
# 3 69.5378 35.7693 186.5729 11.2565 -18.5624 2.2132
# 4 1.9563 19.5071 11.2565 64.8268 1.8546 2.4093
# 5 -3.1104 14.0663 -18.5624 1.8546 54.7657 2.3076
# 6 24.9207 0.6388 2.2132 2.4093 2.3076 40.2341
#
#
#
# Elastic Compliance Matrix: (Units=1/GPa)
#
#
# Indices 1 2 3 4 5 6 
#
# 1 0.009334 -0.001587 -0.003158 0.000952 0.000073 -0.005644
# 2 -0.001587 0.013119 -0.002141 -0.003460 -0.004125 0.001336
# 3 -0.003158 -0.002141 0.007247 -0.000653 0.002787 0.001471
# 4 0.000952 -0.003460 -0.000653 0.016601 0.000223 -0.001506
# 5 0.000073 -0.004125 0.002787 0.000223 0.020315 -0.001312
# 6 -0.005644 0.001336 0.001471 -0.001506 -0.001312 0.028413
#
#
# Mechanical properties :
#
#
# Convention : Reuss Voigt Hill
#
# Bulk Modulus (GPa) = 62.78361 77.22433 70.00397
# Shear Modulus (GPa) = 43.81689 51.93816 47.87752
#
# Velocity S-wave (km/s) = 4.25649 4.63419 4.44935
# Velocity P-wave (km/s) = 7.07934 7.78238 7.43917
#
# Compressibility (1/GPa) = 0.01592772
#
# Stress axis : x y z
#
# Youngs Moduli (GPa) = 107.13541 76.22340 137.99716
#
# Poissons Ratio (x) = 0.12097 0.43577
# Poissons Ratio (y) = 0.17003 0.29548
# Poissons Ratio (z) = 0.33832 0.16321
#
# Static dielectric constant tensor:
#      x y z
#    x 1.897910 -0.100000 0.022110 
#    y -0.100000 1.998240 -0.066390 
#    z 0.022110 -0.066390 1.774060 
# 
# From -- ./inp_files/195461.got.cif
#   From: 2010.05.17/outbox.cif.g08.bks.cpg/sg2_98_cif.got.tgz:195461.got - 2010.06.03 11:33:40.
