data_PCOD9071739
_publ_section_title
;
Structure prediction by ZEFSAII (Michael W. Deem and Ramdas Pophale) SiO2 
 PCOD9071739
Probable space group: P -1
;
_chemical_formula_sum "Si O2"
_cell_formula_units_Z 16
_cell_length_a 10.561418
_cell_length_b 11.456469
_cell_length_c 26.293120
_cell_angle_alpha 149.436936
_cell_angle_beta 30.200435
_cell_angle_gamma 128.338659
_cell_volume 711.917412
_symmetry_space_group_name_H-M "P -1"
_symmetry_group_IT_number 2
_symmetry_cell_setting 'triclinic'
loop_
_space_group_symop_operation_xyz
x,y,z
-x,-y,-z
loop_
_atom_site_type_symbol
_atom_site_label
_atom_site_fract_x
_atom_site_fract_y
_atom_site_fract_z
Si Si1 0.375948 0.075536 0.808150
Si Si2 0.525748 0.776732 0.067324
Si Si3 0.966943 0.321900 0.850878
Si Si4 0.701957 0.408246 0.346053
Si Si5 0.325066 0.053709 0.012983
Si Si6 0.177271 0.284625 0.660807
Si Si7 0.297383 0.727245 0.983495
Si Si8 0.300766 0.898043 0.385525
O O1 0.553520 0.113413 0.807049
O O2 0.538119 0.997976 0.669294
O O3 0.289027 0.861876 0.775165
O O4 0.128318 0.372271 0.996716
O O5 0.291973 0.717760 0.099156
O O6 0.579325 0.980244 0.091375
O O7 0.838378 0.513078 0.860127
O O8 0.209397 0.222848 0.686542
O O9 0.979079 0.219465 0.865915
O O10 0.500000 0.500000 0.500000
O O11 0.652148 0.591330 0.382875
O O12 0.022596 0.320805 0.221993
O O13 0.561760 0.110245 0.978421
O O14 0.273679 0.833130 0.974546
O O15 0.244319 0.030428 0.509495
O O16 0.513290 0.416906 0.795209
O O17 0.000000 0.000000 0.500000
#
# Coordination Sequence:
#
# PCOD9071739 Si02
#       8
#     2   2   2   2   2   2   2   2
#     4  10  19  30  51  79 106 136 175 211 268 311
#     4   9  17  32  53  80 104 132 173 227 258 307
#     4   9  17  32  51  79 104 133 176 222 257 307
#     4  11  21  34  51  79 112 139 173 218 261 315
#     4   9  19  36  55  75 107 142 176 216 258 319
#     4  10  18  29  49  73 106 131 165 220 261 292
#     4   9  19  35  58  77 101 140 182 216 265 304
#     4  11  18  29  52  80 103 133 173 220 261 304
#
# _framework density 22.474515
#
# number of rings (size 3 to 8) (size 9 to 14) (size 15 to 20)
#    0.000    2.250    1.250    5.250    0.000    4.500 
#    0.000    2.500    2.750    3.750    0.000    0.000 
#    0.000    0.000    0.000    0.000    0.000    0.000 
#
# Total GULP energy -89167.638250 kJ/mol
# GULP energy per Si atom -5572.977391 kJ/mol
# Density = 2.242336 g / cm^3
# Si number density = 22.474515 Si / 1000 Ang^3
#
#
#
# Elastic Constant Matrix: (Units=GPa)
#
#
# Indices 1 2 3 4 5 6 
#
# 1 39.6788 36.6520 16.2671 -3.7815 10.9091 -7.1386
# 2 36.6520 177.2263 38.7070 -13.1293 20.5106 -42.9295
# 3 16.2671 38.7070 71.2009 -14.3153 17.2501 -16.5616
# 4 -3.7815 -13.1293 -14.3153 31.6478 -3.6932 10.7276
# 5 10.9091 20.5106 17.2501 -3.6932 29.6348 -4.9114
# 6 -7.1386 -42.9295 -16.5616 10.7276 -4.9114 39.4201
#
#
#
# Elastic Compliance Matrix: (Units=1/GPa)
#
#
# Indices 1 2 3 4 5 6 
#
# 1 0.033556 -0.006123 -0.003376 0.000145 -0.006608 -0.002872
# 2 -0.006123 0.009481 -0.001357 -0.000556 -0.002174 0.008526
# 3 -0.003376 -0.001357 0.019420 0.005704 -0.007824 0.003543
# 4 0.000145 -0.000556 0.005704 0.036757 0.000240 -0.008156
# 5 -0.006608 -0.002174 -0.007824 0.000240 0.041986 -0.001686
# 6 -0.002872 0.008526 0.003543 -0.008156 -0.001686 0.037631
#
#
# Mechanical properties :
#
#
# Convention : Reuss Voigt Hill
#
# Bulk Modulus (GPa) = 24.54242 52.37315 38.45779
# Shear Modulus (GPa) = 23.35086 33.23920 28.29503
#
# Velocity S-wave (km/s) = 3.22684 3.84991 3.55206
# Velocity P-wave (km/s) = 4.98268 6.56631 5.82853
#
# Compressibility (1/GPa) = 0.04074577
#
# Stress axis : x y z
#
# Youngs Moduli (GPa) = 29.80112 105.47537 51.49243
#
# Poissons Ratio (x) = 0.64578 0.17384
# Poissons Ratio (y) = 0.18246 0.06988
# Poissons Ratio (z) = 0.10061 0.14313
#
# Static dielectric constant tensor:
#      x y z
#    x 1.933750 -0.048350 -0.032740 
#    y -0.048350 1.887500 -0.031170 
#    z -0.032740 -0.031170 1.824260 
# 
# From -- ./inp_files/257896.got.cif
#   From: 2010.05.17/outbox.cif.g08.bks.cpg/sg2_129_cif.got.tgz:257896.got - 2010.06.03 11:33:40.
