data_PCOD9071340
_publ_section_title
;
Structure prediction by ZEFSAII (Michael W. Deem and Ramdas Pophale) SiO2 
 PCOD9071340
Probable space group: P -1
;
_chemical_formula_sum "Si O2"
_cell_formula_units_Z 14
_cell_length_a 12.858086
_cell_length_b 4.939582
_cell_length_c 11.964690
_cell_angle_alpha 71.141331
_cell_angle_beta 116.100696
_cell_angle_gamma 75.557258
_cell_volume 573.133062
_symmetry_space_group_name_H-M "P -1"
_symmetry_group_IT_number 2
_symmetry_cell_setting 'triclinic'
loop_
_space_group_symop_operation_xyz
x,y,z
-x,-y,-z
loop_
_atom_site_type_symbol
_atom_site_label
_atom_site_fract_x
_atom_site_fract_y
_atom_site_fract_z
Si Si1 0.982969 0.843339 0.401659
Si Si2 0.877904 0.324694 0.859481
Si Si3 0.566620 0.334678 0.437345
Si Si4 0.429435 0.205008 0.789374
Si Si5 0.315435 0.728164 0.856726
Si Si6 0.634224 0.645601 0.849980
Si Si7 0.836381 0.975669 0.689380
O O1 0.000000 0.500000 0.500000
O O2 0.086531 0.871705 0.364038
O O3 0.000000 0.000000 0.500000
O O4 0.839687 0.069397 0.254674
O O5 0.775999 0.520611 0.881882
O O6 0.918387 0.589607 0.794694
O O7 0.806771 0.187016 0.759557
O O8 0.000000 0.000000 0.000000
O O9 0.500000 0.500000 0.500000
O O10 0.621929 0.547774 0.369758
O O11 0.467729 0.302273 0.306284
O O12 0.699294 0.016612 0.569704
O O13 0.382497 0.413291 0.851705
O O14 0.370079 0.960596 0.804210
O O15 0.577898 0.977295 0.849428
O O16 0.354688 0.614276 0.016969
#
# Coordination Sequence:
#
# PCOD9071340 Si02
#       7
#     2   2   2   2   2   2   2
#     4  12  26  49  76 112 153 205 259 313 381 457
#     4  12  28  50  76 111 149 201 256 313 388 455
#     4  12  26  48  76 115 151 200 255 313 387 460
#     4  12  27  48  75 113 151 195 255 315 384 455
#     4  12  27  48  76 114 152 200 257 315 385 453
#     4  12  28  47  80 110 156 200 253 320 384 458
#     4  12  27  48  76 109 154 197 254 318 377 461
#
# _framework density 24.427137999999999
#
# number of rings (size 3 to 8) (size 9 to 14) (size 15 to 20)
#    0.000    0.000    2.857    6.429    4.000    2.286 
#    0.000    0.000    0.000    0.000    0.000    0.000 
#    0.000    0.000    0.000    0.000    0.000    0.000 
#
# Total GULP energy -78355.660436 kJ/mol
# GULP energy per Si atom -5596.832888 kJ/mol
# Density = 2.437154 g / cm^3
# Si number density = 24.427138 Si / 1000 Ang^3
#
#
#
# Elastic Constant Matrix: (Units=GPa)
#
#
# Indices 1 2 3 4 5 6 
#
# 1 122.1136 43.8399 55.1309 -6.3300 11.6762 -23.4441
# 2 43.8399 156.6747 47.2273 -5.8346 2.5195 1.4647
# 3 55.1309 47.2273 125.3809 -2.1328 6.7532 -11.8483
# 4 -6.3300 -5.8346 -2.1328 46.8486 -4.6542 -5.4043
# 5 11.6762 2.5195 6.7532 -4.6542 47.2698 -7.7500
# 6 -23.4441 1.4647 -11.8483 -5.4043 -7.7500 37.4235
#
#
#
# Elastic Compliance Matrix: (Units=1/GPa)
#
#
# Indices 1 2 3 4 5 6 
#
# 1 0.012161 -0.002233 -0.003798 0.001839 -0.001088 0.006544
# 2 -0.002233 0.007681 -0.002130 0.000301 0.000097 -0.002310
# 3 -0.003798 -0.002130 0.010551 -0.000221 -0.000322 0.000946
# 4 0.001839 0.000301 -0.000221 0.022434 0.002564 0.004841
# 5 -0.001088 0.000097 -0.000322 0.002564 0.022410 0.004223
# 6 0.006544 -0.002310 0.000946 0.004841 0.004223 0.032784
#
#
# Mechanical properties :
#
#
# Convention : Reuss Voigt Hill
#
# Bulk Modulus (GPa) = 71.06682 77.39616 74.23149
# Shear Modulus (GPa) = 38.74991 43.50644 41.12817
#
# Velocity S-wave (km/s) = 3.98722 4.22485 4.10775
# Velocity P-wave (km/s) = 7.09604 7.45335 7.27689
#
# Compressibility (1/GPa) = 0.01407126
#
# Stress axis : x y z
#
# Youngs Moduli (GPa) = 82.22905 130.19627 94.77965
#
# Poissons Ratio (x) = 0.29076 0.35996
# Poissons Ratio (y) = 0.18364 0.20184
# Poissons Ratio (z) = 0.31230 0.27726
#
# Static dielectric constant tensor:
#      x y z
#    x 1.909670 0.068780 0.043050 
#    y 0.068780 1.876450 -0.030060 
#    z 0.043050 -0.030060 1.967600 
# 
# From -- ./inp_files/440244.got.cif
#   From: 2010.05.17/outbox.cif.g08.bks.cpg/sg2_221_cif.got.tgz:440244.got - 2010.06.03 11:33:40.
