data_PCOD9071725
_publ_section_title
;
Structure prediction by ZEFSAII (Michael W. Deem and Ramdas Pophale) SiO2 
 PCOD9071725
Probable space group: P -1
;
_chemical_formula_sum "Si O2"
_cell_formula_units_Z 16
_cell_length_a 14.208838
_cell_length_b 8.979750
_cell_length_c 7.479468
_cell_angle_alpha 92.569915
_cell_angle_beta 74.807238
_cell_angle_gamma 130.841752
_cell_volume 686.181190
_symmetry_space_group_name_H-M "P -1"
_symmetry_group_IT_number 2
_symmetry_cell_setting 'triclinic'
loop_
_space_group_symop_operation_xyz
x,y,z
-x,-y,-z
loop_
_atom_site_type_symbol
_atom_site_label
_atom_site_fract_x
_atom_site_fract_y
_atom_site_fract_z
Si Si1 0.049212 0.497265 0.693671
Si Si2 0.181876 0.198130 0.068982
Si Si3 0.679915 0.228901 0.574920
Si Si4 0.835916 0.470286 0.972738
Si Si5 0.961263 0.844192 0.356047
Si Si6 0.302579 0.422823 0.382084
Si Si7 0.434118 0.798210 0.759963
Si Si8 0.446790 0.461802 0.820411
O O1 0.177331 0.690576 0.539421
O O2 0.101495 0.505297 0.864756
O O3 0.011873 0.299902 0.615828
O O4 0.926203 0.478062 0.785097
O O5 0.246526 0.267536 0.239384
O O6 0.157680 0.346033 0.045773
O O7 0.296906 0.253399 0.888814
O O8 0.048129 0.973472 0.149034
O O9 0.697375 0.405767 0.671881
O O10 0.617324 0.216460 0.414711
O O11 0.575336 0.018986 0.713333
O O12 0.683725 0.268276 0.055862
O O13 0.803815 0.695053 0.413655
O O14 0.000000 0.000000 0.500000
O O15 0.449744 0.522967 0.348523
O O16 0.446974 0.635275 0.778067
O O17 0.500000 0.500000 0.000000
#
# Coordination Sequence:
#
# PCOD9071725 Si02
#       8
#     2   2   2   2   2   2   2   2
#     4   9  18  33  52  73  99 130 164 208 251 296
#     4   9  18  33  49  70  99 130 164 205 249 296
#     4   9  18  33  51  73 100 128 165 207 251 298
#     4   9  18  33  51  73 100 128 165 207 251 298
#     4   9  18  33  50  70  98 130 163 201 248 297
#     4   9  18  33  49  70  99 130 164 205 249 296
#     4   9  18  33  52  73  99 130 164 208 251 296
#     4   9  18  33  50  70  98 130 163 201 248 297
#
# _framework density 23.317457999999998
#
# number of rings (size 3 to 8) (size 9 to 14) (size 15 to 20)
#    0.000    3.000    0.000    0.000    0.000    3.000 
#    0.000   15.000    0.000    0.000    0.000    0.000 
#    0.000    0.000    0.000    0.000    0.000    0.000 
#
# Total GULP energy -89321.501374 kJ/mol
# GULP energy per Si atom -5582.593836 kJ/mol
# Density = 2.326439 g / cm^3
# Si number density = 23.317458 Si / 1000 Ang^3
#
#
#
# Elastic Constant Matrix: (Units=GPa)
#
#
# Indices 1 2 3 4 5 6 
#
# 1 118.7583 22.2216 91.2564 -28.0922 -49.7048 -2.9094
# 2 22.2216 95.3964 65.9751 -39.1570 -35.0048 11.1343
# 3 91.2564 65.9751 93.5571 -43.0934 -34.8798 24.9488
# 4 -28.0922 -39.1570 -43.0934 60.1964 22.4873 -3.9253
# 5 -49.7048 -35.0048 -34.8798 22.4873 72.6138 0.0721
# 6 -2.9094 11.1343 24.9488 -3.9253 0.0721 8.5788
#
#
#
# Elastic Compliance Matrix: (Units=1/GPa)
#
#
# Indices 1 2 3 4 5 6 
#
# 1 0.000988 -0.001689 0.013045 0.004784 0.004680 -0.033259
# 2 -0.001689 0.018130 0.003050 0.008946 0.006307 -0.028933
# 3 0.013045 0.003050 -0.014703 -0.001016 0.003609 0.042730
# 4 0.004784 0.008946 -0.001016 0.024375 -0.000454 0.004124
# 5 0.004680 0.006307 0.003609 -0.000454 0.021907 -0.017486
# 6 -0.033259 -0.028933 0.042730 0.004124 -0.017486 0.020605
#
#
# Mechanical properties :
#
#
# Convention : Reuss Voigt Hill
#
# Bulk Modulus (GPa) = 30.09699 74.06868 52.08284
# Shear Modulus (GPa) = 93.34493 36.82839 65.08666
#
# Velocity S-wave (km/s) = 6.33396 3.97852 5.28903
# Velocity P-wave (km/s) = 8.15032 7.27593 7.72550
#
# Compressibility (1/GPa) = 0.03322591
#
# Stress axis : x y z
#
# Youngs Moduli (GPa) = 1011.95892 55.15758 -68.01150
#
# Poissons Ratio (x) = 0.09316 0.88719
# Poissons Ratio (y) = 1.70919 0.20743
# Poissons Ratio (z) = -13.20065 -0.16823
#
# Static dielectric constant tensor:
#      x y z
#    x 2.090730 0.221610 -0.011410 
#    y 0.221610 1.983650 -0.000570 
#    z -0.011410 -0.000570 1.957710 
# 
# From -- ./inp_files/295522.got.cif
#   From: 2010.05.17/outbox.cif.g08.bks.cpg/sg2_148_cif.got.tgz:295522.got - 2010.06.03 11:33:40.
