data_PCOD9071837
_publ_section_title
;
Structure prediction by ZEFSAII (Michael W. Deem and Ramdas Pophale) SiO2 
 PCOD9071837
Probable space group: P -1
;
_chemical_formula_sum "Si O2"
_cell_formula_units_Z 12
_cell_length_a 10.632378
_cell_length_b 8.856037
_cell_length_c 7.396915
_cell_angle_alpha 79.933563
_cell_angle_beta 42.513471
_cell_angle_gamma 91.078057
_cell_volume 451.867696
_symmetry_space_group_name_H-M "P -1"
_symmetry_group_IT_number 2
_symmetry_cell_setting 'triclinic'
loop_
_space_group_symop_operation_xyz
x,y,z
-x,-y,-z
loop_
_atom_site_type_symbol
_atom_site_label
_atom_site_fract_x
_atom_site_fract_y
_atom_site_fract_z
Si Si1 0.401970 0.634377 0.821368
Si Si2 0.953695 0.262934 0.282538
Si Si3 0.156725 0.867940 0.954696
Si Si4 0.299646 0.528471 0.553015
Si Si5 0.778504 0.936751 0.482611
Si Si6 0.657439 0.683837 0.940437
O O1 0.308403 0.783058 0.902309
O O2 0.300543 0.549533 0.762369
O O3 0.621846 0.625587 0.544642
O O4 0.339324 0.499518 0.068325
O O5 0.957936 0.240514 0.064317
O O6 0.881273 0.422587 0.353666
O O7 0.145937 0.253438 0.178554
O O8 0.800217 0.103113 0.527875
O O9 0.261450 0.018311 0.692056
O O10 0.992060 0.903179 0.249375
O O11 0.477243 0.664862 0.265786
O O12 0.645626 0.800029 0.765182
#
# Coordination Sequence:
#
# PCOD9071837 Si02
#       6
#     2   2   2   2   2   2
#     4   8  16  33  47  74  95 126 157 203 236 277
#     4   9  17  32  52  72  97 125 157 203 235 279
#     4   8  17  32  50  65 104 131 154 191 241 289
#     4   8  17  31  46  78  98 118 157 207 239 275
#     4   9  18  31  47  75  98 130 158 190 240 293
#     4  10  18  29  54  78  90 123 165 200 240 271
#
# _framework density 26.556443999999999
#
# number of rings (size 3 to 8) (size 9 to 14) (size 15 to 20)
#    2.000    1.333    0.000    0.500    0.000    4.000 
#    0.000    0.000    0.000   14.000    0.000    0.000 
#    0.000    0.000    0.000    0.000    0.000    0.000 
#
# Total GULP energy -66907.439307 kJ/mol
# GULP energy per Si atom -5575.619942 kJ/mol
# Density = 2.649600 g / cm^3
# Si number density = 26.556444 Si / 1000 Ang^3
#
#
#
# Elastic Constant Matrix: (Units=GPa)
#
#
# Indices 1 2 3 4 5 6 
#
# 1 86.4777 25.7720 6.8422 17.0128 1.8481 -29.0385
# 2 25.7720 167.2893 46.3871 -3.4222 4.1464 -45.2305
# 3 6.8422 46.3871 102.7846 -31.7847 13.4021 -25.3854
# 4 17.0128 -3.4222 -31.7847 46.6003 -17.1091 -1.0064
# 5 1.8481 4.1464 13.4021 -17.1091 25.8212 1.0749
# 6 -29.0385 -45.2305 -25.3854 -1.0064 1.0749 41.4851
#
#
#
# Elastic Compliance Matrix: (Units=1/GPa)
#
#
# Indices 1 2 3 4 5 6 
#
# 1 0.017740 0.000906 -0.000065 -0.009088 -0.007959 0.013352
# 2 0.000906 0.008873 -0.002079 -0.001574 -0.001830 0.009046
# 3 -0.000065 -0.002079 0.016000 0.010451 -0.001365 0.007767
# 4 -0.009088 -0.001574 0.010451 0.039805 0.021907 -0.001284
# 5 -0.007959 -0.001830 -0.001365 0.021907 0.055202 -0.009300
# 6 0.013352 0.009046 0.007767 -0.001284 -0.009300 0.048277
#
#
# Mechanical properties :
#
#
# Convention : Reuss Voigt Hill
#
# Bulk Modulus (GPa) = 24.91369 57.17267 41.04318
# Shear Modulus (GPa) = 24.78295 41.28466 33.03380
#
# Velocity S-wave (km/s) = 3.05818 3.94712 3.53074
# Velocity P-wave (km/s) = 4.67672 6.50757 5.66658
#
# Compressibility (1/GPa) = 0.04013858
#
# Stress axis : x y z
#
# Youngs Moduli (GPa) = 56.36918 112.69542 62.50156
#
# Poissons Ratio (x) = -0.10214 0.00406
# Poissons Ratio (y) = -0.05109 0.12993
# Poissons Ratio (z) = 0.00366 0.23427
#
# Static dielectric constant tensor:
#      x y z
#    x 2.134150 0.054590 -0.035620 
#    y 0.054590 2.118160 -0.103230 
#    z -0.035620 -0.103230 2.118360 
# 
# From -- ./inp_files/219103.got.cif
#   From: 2010.05.17/outbox.cif.g08.bks.cpg/sg2_110_cif.got.tgz:219103.got - 2010.06.03 11:33:40.
