data_PCOD9071561
_publ_section_title
;
Structure prediction by ZEFSAII (Michael W. Deem and Ramdas Pophale) SiO2 
 PCOD9071561
Probable space group: P -1
;
_chemical_formula_sum "Si O2"
_cell_formula_units_Z 12
_cell_length_a 8.046383
_cell_length_b 14.051587
_cell_length_c 4.978058
_cell_angle_alpha 108.368607
_cell_angle_beta 85.199693
_cell_angle_gamma 72.064249
_cell_volume 497.920768
_symmetry_space_group_name_H-M "P -1"
_symmetry_group_IT_number 2
_symmetry_cell_setting 'triclinic'
loop_
_space_group_symop_operation_xyz
x,y,z
-x,-y,-z
loop_
_atom_site_type_symbol
_atom_site_label
_atom_site_fract_x
_atom_site_fract_y
_atom_site_fract_z
Si Si1 0.630222 0.466524 0.198337
Si Si2 0.712292 0.794007 0.972479
Si Si3 0.503112 0.897229 0.579892
Si Si4 0.868603 0.593767 0.423833
Si Si5 0.905483 0.073581 0.328052
Si Si6 0.055015 0.731612 0.193265
O O1 0.500000 0.500000 0.500000
O O2 0.751993 0.539321 0.233722
O O3 0.500000 0.500000 0.000000
O O4 0.764431 0.342802 0.044790
O O5 0.615910 0.878129 0.823885
O O6 0.747929 0.682311 0.722971
O O7 0.974623 0.651203 0.281910
O O8 0.597059 0.805486 0.267080
O O9 0.303126 0.905294 0.662112
O O10 0.500000 0.000000 0.500000
O O11 0.000000 0.500000 0.500000
O O12 0.098544 0.204379 0.942720
O O13 0.920564 0.187155 0.515413
O O14 0.000000 0.000000 0.500000
O O15 0.000000 0.000000 0.000000
#
# Coordination Sequence:
#
# PCOD9071561 Si02
#       6
#     2   2   2   2   2   2
#     4  12  30  48  79 118 163 207 269 328 395 471
#     4  12  27  48  83 116 156 208 267 327 396 475
#     4  12  28  51  83 115 156 207 274 325 403 468
#     4  12  27  52  83 114 164 214 269 316 405 475
#     4  12  31  53  80 117 162 206 267 334 403 474
#     4  12  29  51  83 116 164 217 266 328 405 470
#
# _framework density 24.100221000000001
#
# number of rings (size 3 to 8) (size 9 to 14) (size 15 to 20)
#    0.000    0.000    3.333    4.000   11.667    0.000 
#    0.000    0.000    0.000    0.000    0.000    0.000 
#    0.000    0.000    0.000    0.000    0.000    0.000 
#
# Total GULP energy -67257.750783 kJ/mol
# GULP energy per Si atom -5604.812565 kJ/mol
# Density = 2.404537 g / cm^3
# Si number density = 24.100221 Si / 1000 Ang^3
#
#
#
# Elastic Constant Matrix: (Units=GPa)
#
#
# Indices 1 2 3 4 5 6 
#
# 1 192.4039 83.4684 96.2347 1.4730 17.1566 -26.2133
# 2 83.4684 136.8221 62.0121 -9.9083 10.3494 -18.1569
# 3 96.2347 62.0121 241.6698 3.3550 -15.4037 -15.7345
# 4 1.4730 -9.9083 3.3550 55.8673 -7.7929 12.4128
# 5 17.1566 10.3494 -15.4037 -7.7929 58.5022 5.1452
# 6 -26.2133 -18.1569 -15.7345 12.4128 5.1452 52.5292
#
#
#
# Elastic Compliance Matrix: (Units=1/GPa)
#
#
# Indices 1 2 3 4 5 6 
#
# 1 0.008772 -0.003702 -0.002514 -0.001855 -0.003098 0.003086
# 2 -0.003702 0.010460 -0.001222 0.001645 -0.000965 0.001108
# 3 -0.002514 -0.001222 0.005595 -0.000099 0.002432 -0.000216
# 4 -0.001855 0.001645 -0.000099 0.019919 0.003357 -0.005422
# 5 -0.003098 -0.000965 0.002432 0.003357 0.019600 -0.003864
# 6 0.003086 0.001108 -0.000216 -0.005422 -0.003864 0.022555
#
#
# Mechanical properties :
#
#
# Convention : Reuss Voigt Hill
#
# Bulk Modulus (GPa) = 100.49505 117.14736 108.82120
# Shear Modulus (GPa) = 47.57625 55.32512 51.45069
#
# Velocity S-wave (km/s) = 4.44790 4.79647 4.62547
# Velocity P-wave (km/s) = 8.25638 8.91004 8.58943
#
# Compressibility (1/GPa) = 0.00995074
#
# Stress axis : x y z
#
# Youngs Moduli (GPa) = 114.00230 95.59889 178.73775
#
# Poissons Ratio (x) = 0.35394 0.44930
# Poissons Ratio (y) = 0.42207 0.21842
# Poissons Ratio (z) = 0.28657 0.11682
#
# Static dielectric constant tensor:
#      x y z
#    x 1.871270 0.077530 0.020330 
#    y 0.077530 1.709270 -0.173570 
#    z 0.020330 -0.173570 1.743520 
# 
# From -- ./inp_files/36512.got.cif
#   From: 2010.05.17/outbox.cif.g08.bks.cpg/sg2_19_cif.got.tgz:36512.got - 2010.06.03 11:33:40.
