data_PCOD9071435
_publ_section_title
;
Structure prediction by ZEFSAII (Michael W. Deem and Ramdas Pophale) SiO2 
 PCOD9071435
Probable space group: P -1
;
_chemical_formula_sum "Si O2"
_cell_formula_units_Z 14
_cell_length_a 9.047518
_cell_length_b 9.288853
_cell_length_c 8.718426
_cell_angle_alpha 109.982262
_cell_angle_beta 89.835805
_cell_angle_gamma 127.205101
_cell_volume 527.737126
_symmetry_space_group_name_H-M "P -1"
_symmetry_group_IT_number 2
_symmetry_cell_setting 'triclinic'
loop_
_space_group_symop_operation_xyz
x,y,z
-x,-y,-z
loop_
_atom_site_type_symbol
_atom_site_label
_atom_site_fract_x
_atom_site_fract_y
_atom_site_fract_z
Si Si1 0.287324 0.623951 0.803962
Si Si2 0.720083 0.158564 0.602215
Si Si3 0.615816 0.821848 0.665995
Si Si4 0.212171 0.216799 0.627383
Si Si5 0.411901 0.644103 0.143993
Si Si6 0.832849 0.773321 0.871520
Si Si7 0.069235 0.699660 0.654120
O O1 0.401363 0.721603 0.677320
O O2 0.194680 0.390281 0.713526
O O3 0.156961 0.689286 0.808878
O O4 0.397132 0.702716 0.994562
O O5 0.711237 0.322026 0.732883
O O6 0.816823 0.165861 0.447230
O O7 0.500000 0.000000 0.500000
O O8 0.743535 0.052038 0.700427
O O9 0.648306 0.723621 0.495832
O O10 0.676989 0.780714 0.803790
O O11 0.366343 0.248207 0.765858
O O12 0.000000 0.000000 0.500000
O O13 0.279508 0.404824 0.071696
O O14 0.919597 0.725893 0.718973
O O15 0.000000 0.000000 0.000000
O O16 0.000000 0.500000 0.500000
#
# Coordination Sequence:
#
# PCOD9071435 Si02
#       7
#     2   2   2   2   2   2   2
#     4  12  28  50  85 117 168 220 270 347 421 485
#     4  12  26  49  82 116 161 218 278 338 407 501
#     4  12  28  49  81 115 162 215 281 328 418 490
#     4  12  28  48  83 121 162 220 280 341 416 504
#     4  12  28  53  82 121 174 215 276 350 424 486
#     4  12  31  50  82 125 174 213 278 346 420 495
#     4  12  27  51  83 121 164 220 283 341 409 498
#
# _framework density 26.528358000000001
#
# number of rings (size 3 to 8) (size 9 to 14) (size 15 to 20)
#    0.000    0.000    5.714    1.714    8.000    2.286 
#    0.000    0.000    0.000    0.000    0.000    0.000 
#    0.000    0.000    0.000    0.000    0.000    0.000 
#
# Total GULP energy -78096.090934 kJ/mol
# GULP energy per Si atom -5578.292210 kJ/mol
# Density = 2.646798 g / cm^3
# Si number density = 26.528358 Si / 1000 Ang^3
#
#
#
# Elastic Constant Matrix: (Units=GPa)
#
#
# Indices 1 2 3 4 5 6 
#
# 1 111.1093 31.9944 35.7640 -17.2570 -1.1504 -5.9103
# 2 31.9944 129.1653 37.6946 -8.5466 -6.6686 -5.2532
# 3 35.7640 37.6946 118.3183 -18.2730 3.1504 4.3793
# 4 -17.2570 -8.5466 -18.2730 45.1532 -11.1805 0.4193
# 5 -1.1504 -6.6686 3.1504 -11.1805 47.8635 -9.5584
# 6 -5.9103 -5.2532 4.3793 0.4193 -9.5584 53.1857
#
#
#
# Elastic Compliance Matrix: (Units=1/GPa)
#
#
# Indices 1 2 3 4 5 6 
#
# 1 0.010810 -0.001668 -0.002333 0.003156 0.001202 0.001420
# 2 -0.001668 0.009024 -0.002380 0.000526 0.001738 0.001210
# 3 -0.002333 -0.002380 0.010408 0.002700 -0.000743 -0.001506
# 4 0.003156 0.000526 0.002700 0.026091 0.006287 0.001105
# 5 0.001202 0.001738 -0.000743 0.006287 0.023591 0.004557
# 6 0.001420 0.001210 -0.001506 0.001105 0.004557 0.020014
#
#
# Mechanical properties :
#
#
# Convention : Reuss Voigt Hill
#
# Bulk Modulus (GPa) = 57.21534 63.27767 60.24651
# Shear Modulus (GPa) = 42.18462 46.11647 44.15054
#
# Velocity S-wave (km/s) = 3.99202 4.17392 4.08398
# Velocity P-wave (km/s) = 6.54696 6.86538 6.70806
#
# Compressibility (1/GPa) = 0.01747783
#
# Stress axis : x y z
#
# Youngs Moduli (GPa) = 92.51069 110.81945 96.08134
#
# Poissons Ratio (x) = 0.18486 0.22417
# Poissons Ratio (y) = 0.15431 0.22871
# Poissons Ratio (z) = 0.21584 0.26380
#
# Static dielectric constant tensor:
#      x y z
#    x 1.986910 -0.245130 -0.000310 
#    y -0.245130 2.467990 -0.262050 
#    z -0.000310 -0.262050 2.115720 
# 
# From -- ./inp_files/159256.got.cif
#   From: 2010.05.17/outbox.cif.g08.bks.cpg/sg2_80_cif.got.tgz:159256.got - 2010.06.03 11:33:40.
