data_PCOD9071006
_publ_section_title
;
Structure prediction by ZEFSAII (Michael W. Deem and Ramdas Pophale) SiO2 
 PCOD9071006
Probable space group: P -1
;
_chemical_formula_sum "Si O2"
_cell_formula_units_Z 14
_cell_length_a 11.629594
_cell_length_b 8.870152
_cell_length_c 23.785734
_cell_angle_alpha 27.434193
_cell_angle_beta 30.035096
_cell_angle_gamma 37.118611
_cell_volume 561.333157
_symmetry_space_group_name_H-M "P -1"
_symmetry_group_IT_number 2
_symmetry_cell_setting 'triclinic'
loop_
_space_group_symop_operation_xyz
x,y,z
-x,-y,-z
loop_
_atom_site_type_symbol
_atom_site_label
_atom_site_fract_x
_atom_site_fract_y
_atom_site_fract_z
Si Si1 0.997373 0.326606 0.213249
Si Si2 0.687370 0.279429 0.259774
Si Si3 0.457749 0.623801 0.138120
Si Si4 0.067447 0.451829 0.616840
Si Si5 0.652321 0.191415 0.101950
Si Si6 0.735319 0.544859 0.353237
Si Si7 0.332404 0.781969 0.303346
O O1 0.894962 0.383845 0.175719
O O2 0.796031 0.320686 0.346906
O O3 0.167614 0.991568 0.259431
O O4 0.134982 0.632724 0.068566
O O5 0.638175 0.432836 0.168704
O O6 0.460491 0.441926 0.336311
O O7 0.764257 0.891714 0.349022
O O8 0.502287 0.481192 0.104010
O O9 0.195118 0.573539 0.280147
O O10 0.500000 0.000000 0.000000
O O11 0.074687 0.529753 0.654165
O O12 0.179883 0.708169 0.445822
O O13 0.715378 0.909608 0.215315
O O14 0.519170 0.013829 0.169277
O O15 0.500000 0.500000 0.500000
#
# Coordination Sequence:
#
# PCOD9071006 Si02
#       7
#     2   2   2   2   2   2   2
#     4  12  28  47  78 108 150 196 243 308 372 429
#     4  12  26  48  72 107 152 191 247 300 368 437
#     4  12  29  48  74 108 149 195 250 299 368 446
#     4  12  27  47  76 107 149 201 240 311 368 433
#     4  12  25  50  76 108 150 192 246 309 364 442
#     4  12  25  48  79 111 144 194 249 304 373 435
#     4  12  27  47  76 111 147 193 255 300 370 438
#
# _framework density 24.940626000000002
#
# number of rings (size 3 to 8) (size 9 to 14) (size 15 to 20)
#    0.000    0.000    4.286    4.714    4.000    5.714 
#    0.000    0.000    0.000    0.000    0.000    0.000 
#    0.000    0.000    0.000    0.000    0.000    0.000 
#
# Total GULP energy -78456.981912 kJ/mol
# GULP energy per Si atom -5604.070137 kJ/mol
# Density = 2.488386 g / cm^3
# Si number density = 24.940626 Si / 1000 Ang^3
#
#
#
# Elastic Constant Matrix: (Units=GPa)
#
#
# Indices 1 2 3 4 5 6 
#
# 1 141.6320 30.1056 24.4604 5.2548 -3.0373 -13.3007
# 2 30.1056 115.1482 22.3747 -1.9448 3.6819 0.0825
# 3 24.4604 22.3747 82.4775 15.7918 -1.0976 -18.4163
# 4 5.2548 -1.9448 15.7918 31.3429 -1.2022 8.5210
# 5 -3.0373 3.6819 -1.0976 -1.2022 30.8723 -3.9476
# 6 -13.3007 0.0825 -18.4163 8.5210 -3.9476 47.8252
#
#
#
# Elastic Compliance Matrix: (Units=1/GPa)
#
#
# Indices 1 2 3 4 5 6 
#
# 1 0.007937 -0.001936 -0.001048 -0.001466 0.001194 0.002167
# 2 -0.001936 0.009952 -0.003345 0.003259 -0.001697 -0.002564
# 3 -0.001048 -0.003345 0.017375 -0.011037 0.001571 0.008501
# 4 -0.001466 0.003259 -0.011037 0.041162 -0.000866 -0.012069
# 5 0.001194 -0.001697 0.001571 -0.000866 0.033224 0.003837
# 6 0.002167 -0.002564 0.008501 -0.012069 0.003837 0.027257
#
#
# Mechanical properties :
#
#
# Convention : Reuss Voigt Hill
#
# Bulk Modulus (GPa) = 44.23706 54.79324 49.51515
# Shear Modulus (GPa) = 31.82697 39.49584 35.66141
#
# Velocity S-wave (km/s) = 3.57614 3.98376 3.78544
# Velocity P-wave (km/s) = 5.90146 6.57097 6.24519
#
# Compressibility (1/GPa) = 0.02260548
#
# Stress axis : x y z
#
# Youngs Moduli (GPa) = 125.99940 100.48539 57.55351
#
# Poissons Ratio (x) = 0.19452 0.06033
# Poissons Ratio (y) = 0.24391 0.19251
# Poissons Ratio (z) = 0.13208 0.33611
#
# Static dielectric constant tensor:
#      x y z
#    x 1.965060 0.006180 -0.020110 
#    y 0.006180 2.008580 0.025880 
#    z -0.020110 0.025880 1.932250 
# 
# From -- ./inp_files/609976.got.cif
#   From: 2010.05.17/outbox.cif.g08.bks.cpg/sg2_305_cif.got.tgz:609976.got - 2010.06.03 11:33:40.
