data_PCOD9071505
_publ_section_title
;
Structure prediction by ZEFSAII (Michael W. Deem and Ramdas Pophale) SiO2 
 PCOD9071505
Probable space group: P -1
;
_chemical_formula_sum "Si O2"
_cell_formula_units_Z 13
_cell_length_a 15.408471
_cell_length_b 10.888278
_cell_length_c 16.108441
_cell_angle_alpha 142.334656
_cell_angle_beta 18.566001
_cell_angle_gamma 141.328097
_cell_volume 519.362412
_symmetry_space_group_name_H-M "P -1"
_symmetry_group_IT_number 2
_symmetry_cell_setting 'triclinic'
loop_
_space_group_symop_operation_xyz
x,y,z
-x,-y,-z
loop_
_atom_site_type_symbol
_atom_site_label
_atom_site_fract_x
_atom_site_fract_y
_atom_site_fract_z
Si Si1 0.284210 0.424051 0.920346
Si Si2 0.722466 0.360058 0.202421
Si Si3 0.264224 0.846762 0.085710
Si Si4 0.565876 0.634373 0.930462
Si Si5 0.000000 0.000000 0.000000
Si Si6 0.465182 0.851892 0.586383
Si Si7 0.873068 0.090298 0.475962
O O1 0.505978 0.500445 0.830934
O O2 0.423080 0.316497 0.661310
O O3 0.053461 0.250551 0.074882
O O4 0.183954 0.632369 0.091534
O O5 0.500000 0.500000 0.500000
O O6 0.750402 0.234648 0.192748
O O7 0.624915 0.216614 0.137580
O O8 0.000000 0.500000 0.000000
O O9 0.990367 0.042505 0.651391
O O10 0.500000 0.000000 0.000000
O O11 0.873525 0.755287 0.710392
O O12 0.500000 0.500000 0.000000
O O13 0.347107 0.790341 0.217616
O O14 0.319142 0.005833 0.747134
O O15 0.721013 0.961924 0.468754
#
# Coordination Sequence:
#
# PCOD9071505 Si02
#       7
#     2   2   2   2   1   2   2
#     4  12  29  53  85 126 171 232 294 363 431 526
#     4  12  26  52  84 123 168 223 283 353 434 516
#     4  12  27  54  83 126 171 223 285 357 440 516
#     4  12  29  56  88 125 177 234 292 357 439 513
#     4  12  30  50  84 122 172 224 302 350 430 508
#     4  12  29  53  87 122 173 229 296 358 438 513
#     4  12  29  54  87 128 174 227 290 363 436 522
#
# _framework density 25.030691000000001
#
# number of rings (size 3 to 8) (size 9 to 14) (size 15 to 20)
#    0.000    0.000    3.077    4.615    8.615    0.615 
#    5.538    0.000    0.000    0.000    0.000    0.000 
#    0.000    0.000    0.000    0.000    0.000    0.000 
#
# Total GULP energy -72710.014759 kJ/mol
# GULP energy per Si atom -5593.078058 kJ/mol
# Density = 2.497372 g / cm^3
# Si number density = 25.030691 Si / 1000 Ang^3
#
#
#
# Elastic Constant Matrix: (Units=GPa)
#
#
# Indices 1 2 3 4 5 6 
#
# 1 159.6330 80.5686 37.1898 6.4892 -11.6642 35.2900
# 2 80.5686 199.6677 60.2292 -12.8682 -5.8171 14.2867
# 3 37.1898 60.2292 120.3737 -7.6590 0.8378 33.2833
# 4 6.4892 -12.8682 -7.6590 53.2983 -0.3355 7.0636
# 5 -11.6642 -5.8171 0.8378 -0.3355 49.2059 8.0590
# 6 35.2900 14.2867 33.2833 7.0636 8.0590 57.0486
#
#
#
# Elastic Compliance Matrix: (Units=1/GPa)
#
#
# Indices 1 2 3 4 5 6 
#
# 1 0.009380 -0.003470 0.000199 -0.001236 0.002665 -0.005273
# 2 -0.003470 0.007265 -0.002998 0.001489 -0.000217 0.001922
# 3 0.000199 -0.002998 0.011644 0.001786 0.000566 -0.006466
# 4 -0.001236 0.001489 0.001786 0.019955 0.000512 -0.003194
# 5 0.002665 -0.000217 0.000566 0.000512 0.021752 -0.005060
# 6 -0.005273 0.001922 -0.006466 -0.003194 -0.005060 0.025192
#
#
# Mechanical properties :
#
#
# Convention : Reuss Voigt Hill
#
# Bulk Modulus (GPa) = 63.48980 92.84994 78.16987
# Shear Modulus (GPa) = 44.25717 52.02300 48.14009
#
# Velocity S-wave (km/s) = 4.20946 4.56386 4.39024
# Velocity P-wave (km/s) = 7.00328 8.05895 7.54959
#
# Compressibility (1/GPa) = 0.01575056
#
# Stress axis : x y z
#
# Youngs Moduli (GPa) = 106.61185 137.64848 85.88190
#
# Poissons Ratio (x) = 0.47758 -0.01708
# Poissons Ratio (y) = 0.36990 0.25750
# Poissons Ratio (z) = -0.02120 0.41272
#
# Static dielectric constant tensor:
#      x y z
#    x 2.022750 -0.031590 -0.018020 
#    y -0.031590 1.992950 -0.013000 
#    z -0.018020 -0.013000 1.967990 
# 
# From -- ./inp_files/531998.got.cif
#   From: 2010.05.17/outbox.cif.g08.bks.cpg/sg2_266_cif.got.tgz:531998.got - 2010.06.03 11:33:40.
