data_PCOD9071423
_publ_section_title
;
Structure prediction by ZEFSAII (Michael W. Deem and Ramdas Pophale) SiO2 
 PCOD9071423
Probable space group: P -1
;
_chemical_formula_sum "Si O2"
_cell_formula_units_Z 8
_cell_length_a 7.836209
_cell_length_b 9.393172
_cell_length_c 8.813375
_cell_angle_alpha 29.272753
_cell_angle_beta 72.724206
_cell_angle_gamma 79.576073
_cell_volume 298.625632
_symmetry_space_group_name_H-M "P -1"
_symmetry_group_IT_number 2
_symmetry_cell_setting 'triclinic'
loop_
_space_group_symop_operation_xyz
x,y,z
-x,-y,-z
loop_
_atom_site_type_symbol
_atom_site_label
_atom_site_fract_x
_atom_site_fract_y
_atom_site_fract_z
Si Si1 0.427561 0.710008 0.681212
Si Si2 0.100663 0.913426 0.907445
Si Si3 0.500140 0.114430 0.064510
Si Si4 0.910544 0.618518 0.765757
O O1 0.500000 0.000000 0.500000
O O2 0.342294 0.896761 0.398550
O O3 0.494071 0.453717 0.793224
O O4 0.300432 0.497584 0.029095
O O5 0.073331 0.065880 0.610801
O O6 0.313585 0.966151 0.840518
O O7 0.036486 0.570807 0.212743
O O8 0.000000 0.000000 0.000000
O O9 0.500000 0.000000 0.000000
O O10 0.000000 0.500000 0.000000
#
# Coordination Sequence:
#
# PCOD9071423 Si02
#       4
#     2   2   2   2
#     4  12  26  49  80 109 155 200 264 322 378 450
#     4  12  28  49  76 111 158 200 256 319 388 458
#     4  12  28  47  80 113 153 206 258 315 389 457
#     4  12  28  48  79 111 151 207 260 314 387 457
#
# _framework density 26.789397999999998
#
# number of rings (size 3 to 8) (size 9 to 14) (size 15 to 20)
#    0.000    0.000    2.500    6.000    7.000    0.000 
#    0.000    0.000    0.000    0.000    0.000    0.000 
#    0.000    0.000    0.000    0.000    0.000    0.000 
#
# Total GULP energy -44580.711808 kJ/mol
# GULP energy per Si atom -5572.588976 kJ/mol
# Density = 2.672842 g / cm^3
# Si number density = 26.789398 Si / 1000 Ang^3
#
#
#
# Elastic Constant Matrix: (Units=GPa)
#
#
# Indices 1 2 3 4 5 6 
#
# 1 80.5222 41.5529 8.3431 -6.7333 26.4284 3.0042
# 2 41.5529 275.3583 60.9929 -20.7973 10.3635 -1.6866
# 3 8.3431 60.9929 167.3136 -27.7108 24.1354 -1.6755
# 4 -6.7333 -20.7973 -27.7108 66.4846 -0.0957 11.3897
# 5 26.4284 10.3635 24.1354 -0.0957 25.1297 13.0622
# 6 3.0042 -1.6866 -1.6755 11.3897 13.0622 38.7163
#
#
#
# Elastic Compliance Matrix: (Units=1/GPa)
#
#
# Indices 1 2 3 4 5 6 
#
# 1 0.024894 -0.003444 0.005480 0.002084 -0.034848 0.009300
# 2 -0.003444 0.004460 -0.002027 0.000417 0.004367 -0.001222
# 3 0.005480 -0.002027 0.009323 0.003018 -0.016189 0.004464
# 4 0.002084 0.000417 0.003018 0.017334 -0.003080 -0.004073
# 5 -0.034848 0.004367 -0.016189 -0.003080 0.107403 -0.033136
# 6 0.009300 -0.001222 0.004464 -0.004073 -0.033136 0.037625
#
#
# Mechanical properties :
#
#
# Convention : Reuss Voigt Hill
#
# Bulk Modulus (GPa) = 25.84491 82.77464 54.30977
# Shear Modulus (GPa) = 23.37317 53.55313 38.46315
#
# Velocity S-wave (km/s) = 2.95698 4.47592 3.79325
# Velocity P-wave (km/s) = 4.61808 7.59455 6.28505
#
# Compressibility (1/GPa) = 0.03869234
#
# Stress axis : x y z
#
# Youngs Moduli (GPa) = 40.17086 224.20997 107.26664
#
# Poissons Ratio (x) = 0.77226 -0.58778
# Poissons Ratio (y) = 0.13836 0.21746
# Poissons Ratio (z) = -0.22012 0.45453
#
# Static dielectric constant tensor:
#      x y z
#    x 2.651500 -0.148040 -0.256880 
#    y -0.148040 2.157940 0.317930 
#    z -0.256880 0.317930 2.656260 
# 
# From -- ./inp_files/152602.got.cif
#   From: 2010.05.17/outbox.cif.g08.bks.cpg/sg2_77_cif.got.tgz:152602.got - 2010.06.03 11:33:40.
