data_PCOD9071071
_publ_section_title
;
Structure prediction by ZEFSAII (Michael W. Deem and Ramdas Pophale) SiO2 
 PCOD9071071
Probable space group: P -1
;
_chemical_formula_sum "Si O2"
_cell_formula_units_Z 10
_cell_length_a 10.578917
_cell_length_b 7.477906
_cell_length_c 10.032571
_cell_angle_alpha 68.825277
_cell_angle_beta 149.660007
_cell_angle_gamma 112.470897
_cell_volume 369.625508
_symmetry_space_group_name_H-M "P -1"
_symmetry_group_IT_number 2
_symmetry_cell_setting 'triclinic'
loop_
_space_group_symop_operation_xyz
x,y,z
-x,-y,-z
loop_
_atom_site_type_symbol
_atom_site_label
_atom_site_fract_x
_atom_site_fract_y
_atom_site_fract_z
Si Si1 0.110858 0.846477 0.491787
Si Si2 0.077180 0.209040 0.936547
Si Si3 0.545053 0.689325 0.083332
Si Si4 0.345383 0.571854 0.218604
Si Si5 0.533754 0.028208 0.681321
O O1 0.269869 0.036450 0.515637
O O2 0.081482 0.733073 0.351021
O O3 0.827704 0.813582 0.299317
O O4 0.307732 0.795382 0.794716
O O5 0.710408 0.220222 0.837943
O O6 0.135043 0.393806 0.033095
O O7 0.334592 0.157693 0.114978
O O8 0.501422 0.616183 0.213448
O O9 0.500000 0.500000 0.000000
O O10 0.500000 0.500000 0.500000
O O11 0.500000 0.000000 0.500000
O O12 0.000000 0.000000 0.000000
#
# Coordination Sequence:
#
# PCOD9071071 Si02
#       5
#     2   2   2   2   2
#     4  12  25  51  80 112 168 210 259 336 400 467
#     4  12  25  49  79 117 162 210 264 334 392 479
#     4  12  27  49  82 118 161 211 266 333 401 479
#     4  12  27  51  81 120 155 218 269 325 409 479
#     4  12  25  49  79 116 164 209 265 333 394 476
#
# _framework density 27.054411000000002
#
# number of rings (size 3 to 8) (size 9 to 14) (size 15 to 20)
#    0.000    0.000    8.000    0.600    0.000    2.400 
#    7.200    0.000    0.000    0.000    0.000    0.000 
#    0.000    0.000    0.000    0.000    0.000    0.000 
#
# Total GULP energy -55812.953296 kJ/mol
# GULP energy per Si atom -5581.295330 kJ/mol
# Density = 2.699283 g / cm^3
# Si number density = 27.054411 Si / 1000 Ang^3
#
#
#
# Elastic Constant Matrix: (Units=GPa)
#
#
# Indices 1 2 3 4 5 6 
#
# 1 189.3585 71.3784 78.8459 21.6370 -7.8550 31.5932
# 2 71.3784 168.0335 33.9112 37.9883 11.0573 -25.1800
# 3 78.8459 33.9112 174.3450 12.1681 9.4332 25.1785
# 4 21.6370 37.9883 12.1681 48.2013 12.6608 -1.8043
# 5 -7.8550 11.0573 9.4332 12.6608 55.3013 10.1019
# 6 31.5932 -25.1800 25.1785 -1.8043 10.1019 61.8474
#
#
#
# Elastic Compliance Matrix: (Units=1/GPa)
#
#
# Indices 1 2 3 4 5 6 
#
# 1 0.009372 -0.004322 -0.002625 -0.001448 0.004105 -0.006191
# 2 -0.004322 0.010241 -0.000536 -0.005036 -0.002675 0.006885
# 3 -0.002625 -0.000536 0.007332 0.000006 -0.001214 -0.001664
# 4 -0.001448 -0.005036 0.000006 0.026795 -0.005398 0.000351
# 5 0.004105 -0.002675 -0.001214 -0.005398 0.021815 -0.006413
# 6 -0.006191 0.006885 -0.001664 0.000351 -0.006413 0.023870
#
#
# Mechanical properties :
#
#
# Convention : Reuss Voigt Hill
#
# Bulk Modulus (GPa) = 83.46219 100.00090 91.73155
# Shear Modulus (GPa) = 42.23570 56.24343 49.23956
#
# Velocity S-wave (km/s) = 3.95541 4.56444 4.27080
# Velocity P-wave (km/s) = 7.19563 8.05121 7.63541
#
# Compressibility (1/GPa) = 0.01198147
#
# Stress axis : x y z
#
# Youngs Moduli (GPa) = 106.70496 97.64278 136.37947
#
# Poissons Ratio (x) = 0.42199 0.35794
# Poissons Ratio (y) = 0.46115 0.07306
# Poissons Ratio (z) = 0.28006 0.05231
#
# Static dielectric constant tensor:
#      x y z
#    x 2.244100 0.227420 0.045280 
#    y 0.227420 1.888510 0.270810 
#    z 0.045280 0.270810 2.144460 
# 
# From -- ./inp_files/130534.got.cif
#   From: 2010.05.17/outbox.cif.g08.bks.cpg/sg2_66_cif.got.tgz:130534.got - 2010.06.03 11:33:40.
