data_PCOD9071064
_publ_section_title
;
Structure prediction by ZEFSAII (Michael W. Deem and Ramdas Pophale) SiO2 
 PCOD9071064
Probable space group: P -1
;
_chemical_formula_sum "Si O2"
_cell_formula_units_Z 15
_cell_length_a 8.596333
_cell_length_b 9.515867
_cell_length_c 8.986755
_cell_angle_alpha 73.089909
_cell_angle_beta 106.927830
_cell_angle_gamma 111.675900
_cell_volume 639.502437
_symmetry_space_group_name_H-M "P -1"
_symmetry_group_IT_number 2
_symmetry_cell_setting 'triclinic'
loop_
_space_group_symop_operation_xyz
x,y,z
-x,-y,-z
loop_
_atom_site_type_symbol
_atom_site_label
_atom_site_fract_x
_atom_site_fract_y
_atom_site_fract_z
Si Si1 0.047326 0.942172 0.877326
Si Si2 0.950590 0.643336 0.504746
Si Si3 0.923133 0.363656 0.135324
Si Si4 0.147567 0.983982 0.441063
Si Si5 0.438272 0.426983 0.665686
Si Si6 0.500000 0.000000 0.500000
Si Si7 0.419937 0.141691 0.913215
Si Si8 0.550400 0.296248 0.202708
O O1 0.092092 0.785708 0.922632
O O2 0.223011 0.066514 0.835292
O O3 0.880712 0.927230 0.738057
O O4 0.000000 0.000000 0.000000
O O5 0.767220 0.634235 0.392309
O O6 0.000000 0.500000 0.500000
O O7 0.956554 0.636136 0.688246
O O8 0.092776 0.801721 0.445954
O O9 0.741449 0.352078 0.164708
O O10 0.000000 0.500000 0.000000
O O11 0.339981 0.037322 0.528760
O O12 0.000000 0.000000 0.500000
O O13 0.500000 0.500000 0.500000
O O14 0.502316 0.283259 0.778834
O O15 0.481058 0.560520 0.762826
O O16 0.466995 0.842728 0.643349
O O17 0.430550 0.224413 0.051110
O O18 0.500000 0.000000 0.000000
#
# Coordination Sequence:
#
# PCOD9071064 Si02
#       8
#     2   2   2   2   2   1   2   2
#     4  12  27  48  75 113 145 209 263 325 401 481
#     4  12  25  50  77 113 155 206 265 335 406 493
#     4  12  28  49  78 114 163 210 264 333 417 493
#     4  12  25  49  79 108 157 202 270 332 403 483
#     4  12  30  48  81 118 161 215 275 339 419 496
#     4  12  26  48  84 114 154 214 274 334 426 482
#     4  12  28  51  78 110 165 209 274 338 408 492
#     4  12  27  52  76 116 162 212 273 343 411 496
#
# _framework density 23.455736000000002
#
# number of rings (size 3 to 8) (size 9 to 14) (size 15 to 20)
#    0.000    0.000    6.667    1.200    9.333    1.067 
#    0.000    0.000    0.000    0.000    0.000    0.000 
#    0.000    0.000    0.000    0.000    0.000    0.000 
#
# Total GULP energy -83619.009621 kJ/mol
# GULP energy per Si atom -5574.600641 kJ/mol
# Density = 2.340235 g / cm^3
# Si number density = 23.455736 Si / 1000 Ang^3
#
#
#
# Elastic Constant Matrix: (Units=GPa)
#
#
# Indices 1 2 3 4 5 6 
#
# 1 103.0399 33.0183 24.8132 -8.6054 -12.7862 -20.5479
# 2 33.0183 137.7572 52.3442 -20.1083 -17.7162 -21.0673
# 3 24.8132 52.3442 72.4133 -21.4052 -11.5295 -9.8418
# 4 -8.6054 -20.1083 -21.4052 57.1259 4.4071 -5.7435
# 5 -12.7862 -17.7162 -11.5295 4.4071 43.2854 2.9332
# 6 -20.5479 -21.0673 -9.8418 -5.7435 2.9332 37.0038
#
#
#
# Elastic Compliance Matrix: (Units=1/GPa)
#
#
# Indices 1 2 3 4 5 6 
#
# 1 0.011943 -0.000757 -0.002093 0.001150 0.002160 0.005651
# 2 -0.000757 0.010996 -0.006275 0.001668 0.002147 0.004259
# 3 -0.002093 -0.006275 0.021170 0.005431 0.001791 0.001597
# 4 0.001150 0.001668 0.005431 0.020940 -0.000089 0.006290
# 5 0.002160 0.002147 0.001791 -0.000089 0.025045 0.000899
# 6 0.005651 0.004259 0.001597 0.006290 0.000899 0.033917
#
#
# Mechanical properties :
#
#
# Convention : Reuss Voigt Hill
#
# Bulk Modulus (GPa) = 38.67287 59.28465 48.97876
# Shear Modulus (GPa) = 33.13873 41.01867 37.07870
#
# Velocity S-wave (km/s) = 3.76283 4.18637 3.98023
# Velocity P-wave (km/s) = 5.94995 6.97836 6.48457
#
# Compressibility (1/GPa) = 0.02585792
#
# Stress axis : x y z
#
# Youngs Moduli (GPa) = 83.73323 90.94144 47.23565
#
# Poissons Ratio (x) = 0.06887 0.09886
# Poissons Ratio (y) = 0.06341 0.29642
# Poissons Ratio (z) = 0.17525 0.57069
#
# Static dielectric constant tensor:
#      x y z
#    x 1.979980 -0.004340 0.033070 
#    y -0.004340 1.946220 -0.011280 
#    z 0.033070 -0.011280 1.913670 
# 
# From -- ./inp_files/157728.got.cif
#   From: 2010.05.17/outbox.cif.g08.bks.cpg/sg2_79_cif.got.tgz:157728.got - 2010.06.03 11:33:40.
