data_PCOD9071794
_publ_section_title
;
Structure prediction by ZEFSAII (Michael W. Deem and Ramdas Pophale) SiO2 
 PCOD9071794
Probable space group: P -1
;
_chemical_formula_sum "Si O2"
_cell_formula_units_Z 16
_cell_length_a 15.432277
_cell_length_b 9.572347
_cell_length_c 7.963702
_cell_angle_alpha 60.123285
_cell_angle_beta 38.053279
_cell_angle_gamma 70.444216
_cell_volume 625.115719
_symmetry_space_group_name_H-M "P -1"
_symmetry_group_IT_number 2
_symmetry_cell_setting 'triclinic'
loop_
_space_group_symop_operation_xyz
x,y,z
-x,-y,-z
loop_
_atom_site_type_symbol
_atom_site_label
_atom_site_fract_x
_atom_site_fract_y
_atom_site_fract_z
Si Si1 0.638716 0.825234 0.990766
Si Si2 0.345383 0.458145 0.683194
Si Si3 0.932802 0.156947 0.705022
Si Si4 0.964858 0.187346 0.238682
Si Si5 0.665815 0.150716 0.616279
Si Si6 0.246185 0.371300 0.552015
Si Si7 0.163406 0.409611 0.300449
Si Si8 0.645176 0.979520 0.387663
O O1 0.667907 0.739855 0.170927
O O2 0.481020 0.774204 0.195930
O O3 0.751928 0.751596 0.746535
O O4 0.660584 0.015369 0.848982
O O5 0.500000 0.500000 0.500000
O O6 0.321766 0.488483 0.507470
O O7 0.233316 0.500608 0.973114
O O8 0.957770 0.189940 0.449633
O O9 0.001458 0.325881 0.584972
O O10 0.011841 0.999043 0.729495
O O11 0.773114 0.089891 0.032738
O O12 0.821987 0.235118 0.345416
O O13 0.094322 0.304411 0.900113
O O14 0.648006 0.059445 0.520288
O O15 0.215888 0.466242 0.370138
O O16 0.326302 0.208219 0.513863
O O17 0.500000 0.000000 0.500000
#
# Coordination Sequence:
#
# PCOD9071794 Si02
#       8
#     2   2   2   2   2   2   2   2
#     4   9  20  33  52  77 111 143 174 215 264 315
#     4  10  21  38  56  78 105 137 184 233 265 300
#     4  10  19  30  47  75 112 140 179 211 254 324
#     4  10  18  29  51  74 104 149 171 211 265 313
#     4  11  19  32  51  78 116 144 168 212 267 328
#     4  11  20  34  55  77 107 138 184 218 263 322
#     4  10  19  37  52  79 106 137 182 219 260 314
#     4  11  22  29  47  80 113 148 174 208 263 327
#
# _framework density 25.595258999999999
#
# number of rings (size 3 to 8) (size 9 to 14) (size 15 to 20)
#    0.750    1.000    3.750    1.500    7.000    2.500 
#    0.000    0.000    0.000    0.750    0.000    4.375 
#    0.000    0.000    0.000    0.000    0.000    0.000 
#
# Total GULP energy -89319.648058 kJ/mol
# GULP energy per Si atom -5582.478004 kJ/mol
# Density = 2.553700 g / cm^3
# Si number density = 25.595259 Si / 1000 Ang^3
#
#
#
# Elastic Constant Matrix: (Units=GPa)
#
#
# Indices 1 2 3 4 5 6 
#
# 1 112.5845 4.9107 19.7529 -16.7173 3.9934 14.4376
# 2 4.9107 26.7485 9.2108 -28.0176 8.2929 -3.8390
# 3 19.7529 9.2108 80.7181 9.2749 -26.2754 10.9848
# 4 -16.7173 -28.0176 9.2749 10.8233 3.7031 -8.0293
# 5 3.9934 8.2929 -26.2754 3.7031 48.9341 0.8386
# 6 14.4376 -3.8390 10.9848 -8.0293 0.8386 41.5547
#
#
#
# Elastic Compliance Matrix: (Units=1/GPa)
#
#
# Indices 1 2 3 4 5 6 
#
# 1 0.009264 -0.005769 -0.000553 -0.003406 0.000255 -0.004268
# 2 -0.005769 -0.002974 0.009324 -0.032935 0.008598 -0.007272
# 3 -0.000553 0.009324 0.010921 0.013284 0.003313 0.000667
# 4 -0.003406 -0.032935 0.013284 -0.021928 0.014822 -0.009907
# 5 0.000255 0.008598 0.003313 0.014822 0.019575 0.002299
# 6 -0.004268 -0.007272 0.000667 -0.009907 0.002299 0.022739
#
#
# Mechanical properties :
#
#
# Convention : Reuss Voigt Hill
#
# Bulk Modulus (GPa) = 43.07556 31.97778 37.52667
# Shear Modulus (GPa) = 127.12339 32.67419 79.89879
#
# Velocity S-wave (km/s) = 7.05511 3.57679 5.59321
# Velocity P-wave (km/s) = 9.12317 5.43863 7.51035
#
# Compressibility (1/GPa) = 0.02321502
#
# Stress axis : x y z
#
# Youngs Moduli (GPa) = 107.94994 -336.30083 91.56374
#
# Poissons Ratio (x) = -1.94013 0.05066
# Poissons Ratio (y) = 0.62277 -0.85375
# Poissons Ratio (z) = 0.05972 3.13571
#
# Static dielectric constant tensor:
#      x y z
#    x 2.026430 -0.048250 -0.022820 
#    y -0.048250 2.120270 -0.036950 
#    z -0.022820 -0.036950 2.182600 
# 
# From -- ./inp_files/309555.got.cif
#   From: 2010.05.17/outbox.cif.g08.bks.cpg/sg2_155_cif.got.tgz:309555.got - 2010.06.03 11:33:40.
