data_PCOD9071477
_publ_section_title
;
Structure prediction by ZEFSAII (Michael W. Deem and Ramdas Pophale) SiO2 
 PCOD9071477
Probable space group: P -1
;
_chemical_formula_sum "Si O2"
_cell_formula_units_Z 10
_cell_length_a 7.930659
_cell_length_b 8.080784
_cell_length_c 11.251799
_cell_angle_alpha 138.896658
_cell_angle_beta 54.309394
_cell_angle_gamma 108.629707
_cell_volume 375.139740
_symmetry_space_group_name_H-M "P -1"
_symmetry_group_IT_number 2
_symmetry_cell_setting 'triclinic'
loop_
_space_group_symop_operation_xyz
x,y,z
-x,-y,-z
loop_
_atom_site_type_symbol
_atom_site_label
_atom_site_fract_x
_atom_site_fract_y
_atom_site_fract_z
Si Si1 0.646297 0.688058 0.948524
Si Si2 0.314975 0.201967 0.444499
Si Si3 0.076771 0.666013 0.158865
Si Si4 0.905516 0.848788 0.717256
Si Si5 0.586350 0.255091 0.562368
O O1 0.781890 0.520941 0.905892
O O2 0.482242 0.933197 0.203152
O O3 0.169440 0.868111 0.153638
O O4 0.797446 0.802670 0.858863
O O5 0.191517 0.308008 0.430931
O O6 0.450971 0.354207 0.553028
O O7 0.122351 0.175715 0.596801
O O8 0.557458 0.478505 0.793921
O O9 0.000000 0.500000 0.000000
O O10 0.159456 0.812001 0.600227
O O11 0.500000 0.000000 0.500000
#
# Coordination Sequence:
#
# PCOD9071477 Si02
#       5
#     2   2   2   2   2
#     4  12  30  55  85 120 174 217 275 357 409 495
#     4  12  28  52  82 127 163 217 285 333 422 501
#     4  12  28  52  87 119 169 223 272 346 420 490
#     4  12  27  57  80 125 170 213 285 344 414 503
#     4  12  26  50  85 123 161 222 280 331 422 502
#
# _framework density 26.656732000000002
#
# number of rings (size 3 to 8) (size 9 to 14) (size 15 to 20)
#    0.000    0.000    4.000    4.200    2.800    5.600 
#    0.000    0.000    0.000    0.000    0.000    0.000 
#    0.000    0.000    0.000    0.000    0.000    0.000 
#
# Total GULP energy -56055.118752 kJ/mol
# GULP energy per Si atom -5605.511875 kJ/mol
# Density = 2.659606 g / cm^3
# Si number density = 26.656732 Si / 1000 Ang^3
#
#
#
# Elastic Constant Matrix: (Units=GPa)
#
#
# Indices 1 2 3 4 5 6 
#
# 1 227.8887 47.0103 59.8116 -16.5502 -1.8522 3.3776
# 2 47.0103 187.6227 93.1100 -39.9354 -9.2895 -11.9636
# 3 59.8116 93.1100 213.8019 -9.1145 -7.1553 10.3069
# 4 -16.5502 -39.9354 -9.1145 36.7447 -2.8354 3.2185
# 5 -1.8522 -9.2895 -7.1553 -2.8354 48.2779 5.8586
# 6 3.3776 -11.9636 10.3069 3.2185 5.8586 24.1834
#
#
#
# Elastic Compliance Matrix: (Units=1/GPa)
#
#
# Indices 1 2 3 4 5 6 
#
# 1 0.004879 -0.000375 -0.001100 0.001583 0.000123 -0.000639
# 2 -0.000375 0.009670 -0.003924 0.009019 0.001185 0.005021
# 3 -0.001100 -0.003924 0.006818 -0.002629 0.000604 -0.004490
# 4 0.001583 0.009019 -0.002629 0.037405 0.003665 -0.000505
# 5 0.000123 0.001185 0.000604 0.003665 0.021917 -0.005485
# 6 -0.000639 0.005021 -0.004490 -0.000505 -0.005485 0.047234
#
#
# Mechanical properties :
#
#
# Convention : Reuss Voigt Hill
#
# Bulk Modulus (GPa) = 94.60004 114.35299 104.47651
# Shear Modulus (GPa) = 35.15125 50.46662 42.80894
#
# Velocity S-wave (km/s) = 3.63528 4.35582 4.01176
# Velocity P-wave (km/s) = 7.29285 8.26372 7.79341
#
# Compressibility (1/GPa) = 0.01057082
#
# Stress axis : x y z
#
# Youngs Moduli (GPa) = 204.94320 103.41667 146.66223
#
# Poissons Ratio (x) = 0.03874 0.16126
# Poissons Ratio (y) = 0.07676 0.57553
# Poissons Ratio (z) = 0.22534 0.40583
#
# Static dielectric constant tensor:
#      x y z
#    x 2.206820 0.071170 -0.006100 
#    y 0.071170 2.115590 0.028010 
#    z -0.006100 0.028010 2.099440 
# 
# From -- ./inp_files/159036.got.cif
#   From: 2010.05.17/outbox.cif.g08.bks.cpg/sg2_80_cif.got.tgz:159036.got - 2010.06.03 11:33:40.
