data_PCOD9071937
_publ_section_title
;
Structure prediction by ZEFSAII (Michael W. Deem and Ramdas Pophale) SiO2 
 PCOD9071937
Probable space group: P -1
;
_chemical_formula_sum "Si O2"
_cell_formula_units_Z 16
_cell_length_a 9.410411
_cell_length_b 21.705224
_cell_length_c 24.255607
_cell_angle_alpha 10.779195
_cell_angle_beta 75.336990
_cell_angle_gamma 76.038510
_cell_volume 895.654873
_symmetry_space_group_name_H-M "P -1"
_symmetry_group_IT_number 2
_symmetry_cell_setting 'triclinic'
loop_
_space_group_symop_operation_xyz
x,y,z
-x,-y,-z
loop_
_atom_site_type_symbol
_atom_site_label
_atom_site_fract_x
_atom_site_fract_y
_atom_site_fract_z
Si Si1 0.002887 0.139987 0.656541
Si Si2 0.078693 0.747350 0.175527
Si Si3 0.441955 0.804052 0.772199
Si Si4 0.957426 0.399654 0.310942
Si Si5 0.758819 0.844369 0.296756
Si Si6 0.516946 0.261695 0.988372
Si Si7 0.279692 0.413336 0.225843
Si Si8 0.643481 0.128175 0.558143
O O1 0.966167 0.454930 0.421019
O O2 0.994010 0.248453 0.499525
O O3 0.167893 0.092832 0.704966
O O4 0.923097 0.785570 0.982989
O O5 0.203879 0.538501 0.377549
O O6 0.000000 0.000000 0.000000
O O7 0.150697 0.937833 0.948637
O O8 0.357289 0.067558 0.512746
O O9 0.575681 0.981981 0.636706
O O10 0.500000 0.500000 0.000000
O O11 0.329681 0.665454 0.951766
O O12 0.816171 0.205617 0.471139
O O13 0.105109 0.383667 0.274781
O O14 0.595798 0.971741 0.203497
O O15 0.645796 0.460022 0.835461
O O16 0.437585 0.529906 0.724384
O O17 0.403573 0.114864 0.173930
#
# Coordination Sequence:
#
# PCOD9071937 Si02
#       8
#     2   2   2   2   2   2   2   2
#     4  10  19  30  53  76 112 134 163 221 264 313
#     4  10  18  30  48  83 111 134 173 222 260 294
#     4  10  21  38  54  76 103 143 179 209 252 313
#     4  12  20  35  51  85 106 134 171 219 278 306
#     4  10  18  30  52  79 105 135 175 218 257 310
#     4  10  18  35  51  78 103 137 172 215 268 306
#     4  10  19  32  58  74 101 138 173 215 259 310
#     4  10  23  33  54  78 111 132 171 222 261 318
#
# _framework density 17.864021999999999
#
# number of rings (size 3 to 8) (size 9 to 14) (size 15 to 20)
#    0.750    1.000    2.500    3.000    3.500    0.000 
#    0.000    1.250    0.000    0.000    0.000   17.500 
#    0.000    0.000    0.000    0.000    0.000    0.000 
#
# Total GULP energy -89121.914162 kJ/mol
# GULP energy per Si atom -5570.119635 kJ/mol
# Density = 1.782336 g / cm^3
# Si number density = 17.864022 Si / 1000 Ang^3
#
#
#
# Elastic Constant Matrix: (Units=GPa)
#
#
# Indices 1 2 3 4 5 6 
#
# 1 83.9404 29.3837 28.5184 -5.3565 -20.5112 -16.2558
# 2 29.3837 38.8191 19.0949 -6.0014 -4.3290 -5.6060
# 3 28.5184 19.0949 98.7582 -1.4904 6.4271 -1.8340
# 4 -5.3565 -6.0014 -1.4904 35.9615 -2.4298 7.6838
# 5 -20.5112 -4.3290 6.4271 -2.4298 22.4875 3.7883
# 6 -16.2558 -5.6060 -1.8340 7.6838 3.7883 15.5540
#
#
#
# Elastic Compliance Matrix: (Units=1/GPa)
#
#
# Indices 1 2 3 4 5 6 
#
# 1 0.027103 -0.012477 -0.006451 -0.000818 0.020981 0.018363
# 2 -0.012477 0.037006 -0.003350 0.004353 -0.002555 -0.001626
# 3 -0.006451 -0.003350 0.013194 -0.000870 -0.009791 -0.003579
# 4 -0.000818 0.004353 -0.000870 0.032478 0.006725 -0.017071
# 5 0.020981 -0.002555 -0.009791 0.006725 0.066587 0.000312
# 6 0.018363 -0.001626 -0.003579 -0.017071 0.000312 0.090833
#
#
# Mechanical properties :
#
#
# Convention : Reuss Voigt Hill
#
# Bulk Modulus (GPa) = 30.53756 41.72350 36.13053
# Shear Modulus (GPa) = 15.49549 24.43530 19.96539
#
# Velocity S-wave (km/s) = 2.94838 3.70246 3.34673
# Velocity P-wave (km/s) = 5.35931 6.45635 5.93324
#
# Compressibility (1/GPa) = 0.03274656
#
# Stress axis : x y z
#
# Youngs Moduli (GPa) = 36.89570 27.02230 75.79226
#
# Poissons Ratio (x) = 0.33717 0.48893
# Poissons Ratio (y) = 0.46036 0.25393
# Poissons Ratio (z) = 0.23801 0.09053
#
# Static dielectric constant tensor:
#      x y z
#    x 1.611240 -0.008140 0.015600 
#    y -0.008140 1.603050 -0.021470 
#    z 0.015600 -0.021470 1.665290 
# 
# From -- ./inp_files/143154.got.cif
#   From: 2010.05.17/outbox.cif.g08.bks.cpg/sg2_72_cif.got.tgz:143154.got - 2010.06.03 11:33:40.
