data_PCOD9071498
_publ_section_title
;
Structure prediction by ZEFSAII (Michael W. Deem and Ramdas Pophale) SiO2 
 PCOD9071498
Probable space group: P -1
;
_chemical_formula_sum "Si O2"
_cell_formula_units_Z 14
_cell_length_a 4.783988
_cell_length_b 12.912397
_cell_length_c 9.296742
_cell_angle_alpha 109.684767
_cell_angle_beta 102.868685
_cell_angle_gamma 86.301830
_cell_volume 527.108222
_symmetry_space_group_name_H-M "P -1"
_symmetry_group_IT_number 2
_symmetry_cell_setting 'triclinic'
loop_
_space_group_symop_operation_xyz
x,y,z
-x,-y,-z
loop_
_atom_site_type_symbol
_atom_site_label
_atom_site_fract_x
_atom_site_fract_y
_atom_site_fract_z
Si Si1 0.391951 0.084588 0.795852
Si Si2 0.738633 0.502337 0.856011
Si Si3 0.854389 0.164280 0.663658
Si Si4 0.843992 0.624144 0.299298
Si Si5 0.098964 0.912777 0.852025
Si Si6 0.503731 0.738947 0.880740
Si Si7 0.638350 0.785369 0.591155
O O1 0.670287 0.123765 0.759952
O O2 0.133139 0.089403 0.655191
O O3 0.363833 0.970609 0.825130
O O4 0.334887 0.174606 0.956111
O O5 0.583071 0.618712 0.884779
O O6 0.917910 0.470798 0.717494
O O7 0.997939 0.714518 0.256757
O O8 0.530937 0.581359 0.193249
O O9 0.631566 0.173010 0.511760
O O10 0.785734 0.690140 0.469491
O O11 0.000000 0.500000 0.000000
O O12 0.191067 0.796479 0.877058
O O13 0.863255 0.882610 0.693359
O O14 0.000000 0.000000 0.000000
O O15 0.558677 0.740931 0.717799
#
# Coordination Sequence:
#
# PCOD9071498 Si02
#       7
#     2   2   2   2   2   2   2
#     4  12  27  50  88 117 172 224 291 351 429 498
#     4  12  29  52  92 129 171 228 290 354 443 512
#     4  12  26  52  81 124 170 224 280 359 421 511
#     4  12  26  55  81 126 177 219 282 361 430 511
#     4  12  28  55  84 129 175 232 292 359 430 517
#     4  12  30  51  85 129 169 225 292 354 434 524
#     4  12  28  52  85 121 187 218 293 351 444 508
#
# _framework density 26.560006999999999
#
# number of rings (size 3 to 8) (size 9 to 14) (size 15 to 20)
#    0.000    0.000    4.286    3.429    4.000    3.429 
#    0.000    0.000    0.000    0.000    0.000    0.000 
#    0.000    0.000    0.000    0.000    0.000    0.000 
#
# Total GULP energy -78392.009301 kJ/mol
# GULP energy per Si atom -5599.429236 kJ/mol
# Density = 2.649956 g / cm^3
# Si number density = 26.560007 Si / 1000 Ang^3
#
#
#
# Elastic Constant Matrix: (Units=GPa)
#
#
# Indices 1 2 3 4 5 6 
#
# 1 200.3501 58.4537 73.0708 6.7669 14.7448 3.0221
# 2 58.4537 141.6027 64.7926 13.3719 14.9896 -16.8089
# 3 73.0708 64.7926 163.8493 7.7902 13.6335 2.1985
# 4 6.7669 13.3719 7.7902 44.3682 -7.9708 -3.2009
# 5 14.7448 14.9896 13.6335 -7.9708 60.5507 5.4582
# 6 3.0221 -16.8089 2.1985 -3.2009 5.4582 49.3480
#
#
#
# Elastic Compliance Matrix: (Units=1/GPa)
#
#
# Indices 1 2 3 4 5 6 
#
# 1 0.006299 -0.001653 -0.002080 -0.000266 -0.000619 -0.000805
# 2 -0.001653 0.009985 -0.002980 -0.002333 -0.002040 0.003709
# 3 -0.002080 -0.002980 0.008294 -0.000431 -0.000570 -0.001222
# 4 -0.000266 -0.002333 -0.000431 0.024081 0.003876 0.000374
# 5 -0.000619 -0.002040 -0.000570 0.003876 0.018023 -0.002374
# 6 -0.000805 0.003709 -0.001222 0.000374 -0.002374 0.021918
#
#
# Mechanical properties :
#
#
# Convention : Reuss Voigt Hill
#
# Bulk Modulus (GPa) = 89.68874 99.82628 94.75751
# Shear Modulus (GPa) = 47.28388 51.48570 49.38479
#
# Velocity S-wave (km/s) = 4.22390 4.40758 4.31672
# Velocity P-wave (km/s) = 7.59145 7.97302 7.78457
#
# Compressibility (1/GPa) = 0.01114967
#
# Stress axis : x y z
#
# Youngs Moduli (GPa) = 158.75415 100.15447 120.57255
#
# Poissons Ratio (x) = 0.16558 0.25084
# Poissons Ratio (y) = 0.26246 0.35933
# Poissons Ratio (z) = 0.33028 0.29848
#
# Static dielectric constant tensor:
#      x y z
#    x 2.123770 -0.042790 -0.009030 
#    y -0.042790 2.139740 0.020950 
#    z -0.009030 0.020950 2.105000 
# 
# From -- ./inp_files/135871.got.cif
#   From: 2010.05.17/outbox.cif.g08.bks.cpg/sg2_68_cif.got.tgz:135871.got - 2010.06.03 11:33:40.
