data_PCOD9071601
_publ_section_title
;
Structure prediction by ZEFSAII (Michael W. Deem and Ramdas Pophale) SiO2 
 PCOD9071601
Probable space group: P -1
;
_chemical_formula_sum "Si O2"
_cell_formula_units_Z 12
_cell_length_a 14.092943
_cell_length_b 4.974895
_cell_length_c 8.520161
_cell_angle_alpha 103.088570
_cell_angle_beta 55.882799
_cell_angle_gamma 87.087477
_cell_volume 469.839896
_symmetry_space_group_name_H-M "P -1"
_symmetry_group_IT_number 2
_symmetry_cell_setting 'triclinic'
loop_
_space_group_symop_operation_xyz
x,y,z
-x,-y,-z
loop_
_atom_site_type_symbol
_atom_site_label
_atom_site_fract_x
_atom_site_fract_y
_atom_site_fract_z
Si Si1 0.941480 0.847415 0.900173
Si Si2 0.571774 0.510299 0.093935
Si Si3 0.169656 0.825091 0.253870
Si Si4 0.319468 0.086737 0.769209
Si Si5 0.363042 0.475175 0.508601
Si Si6 0.854690 0.574148 0.504831
O O1 0.038349 0.576817 0.721835
O O2 0.905454 0.056815 0.812951
O O3 0.819006 0.780311 0.061995
O O4 0.000000 0.000000 0.000000
O O5 0.695145 0.285729 0.936187
O O6 0.500000 0.500000 0.000000
O O7 0.610838 0.803180 0.138974
O O8 0.483939 0.462532 0.305514
O O9 0.133499 0.580217 0.357400
O O10 0.157179 0.095309 0.414948
O O11 0.364481 0.214851 0.587909
O O12 0.330100 0.759145 0.680048
O O13 0.263206 0.478350 0.472230
#
# Coordination Sequence:
#
# PCOD9071601 Si02
#       6
#     2   2   2   2   2   2
#     4  12  28  53  84 119 161 212 268 333 396 478
#     4  12  28  53  84 119 161 212 268 333 396 478
#     4  12  28  53  77 119 160 207 268 323 401 471
#     4  12  28  53  77 119 160 207 268 323 401 471
#     4  12  27  52  81 115 160 213 260 329 401 469
#     4  12  27  52  81 115 160 213 260 329 401 469
#
# _framework density 25.540617999999998
#
# number of rings (size 3 to 8) (size 9 to 14) (size 15 to 20)
#    0.000    0.000    3.333    5.000    0.000    6.667 
#    0.000    0.000    0.000    0.000    0.000    0.000 
#    0.000    0.000    0.000    0.000    0.000    0.000 
#
# Total GULP energy -67461.574593 kJ/mol
# GULP energy per Si atom -5621.797883 kJ/mol
# Density = 2.548249 g / cm^3
# Si number density = 25.540618 Si / 1000 Ang^3
#
#
#
# Elastic Constant Matrix: (Units=GPa)
#
#
# Indices 1 2 3 4 5 6 
#
# 1 170.3043 9.6049 51.9201 22.4724 15.8922 17.0176
# 2 9.6049 70.8829 2.4339 15.8897 0.1018 6.5491
# 3 51.9201 2.4339 132.0133 22.4906 -21.4231 5.1925
# 4 22.4724 15.8897 22.4906 41.1898 0.9518 -13.5499
# 5 15.8922 0.1018 -21.4231 0.9518 74.1276 -0.9800
# 6 17.0176 6.5491 5.1925 -13.5499 -0.9800 34.9382
#
#
#
# Elastic Compliance Matrix: (Units=1/GPa)
#
#
# Indices 1 2 3 4 5 6 
#
# 1 0.008075 0.000681 -0.002484 -0.005149 -0.002460 -0.005758
# 2 0.000681 0.016989 0.001529 -0.010311 0.000303 -0.007734
# 3 -0.002484 0.001529 0.010185 -0.005776 0.003512 -0.002732
# 4 -0.005149 -0.010311 -0.005776 0.041233 -0.000799 0.021268
# 5 -0.002460 0.000303 0.003512 -0.000799 0.015052 0.000732
# 6 -0.005758 -0.007734 -0.002732 0.021268 0.000732 0.041551
#
#
# Mechanical properties :
#
#
# Convention : Reuss Voigt Hill
#
# Bulk Modulus (GPa) = 28.81799 55.67981 42.24890
# Shear Modulus (GPa) = 34.43525 50.66724 42.55124
#
# Velocity S-wave (km/s) = 3.67584 4.45881 4.08612
# Velocity P-wave (km/s) = 5.41511 6.95383 6.23214
#
# Compressibility (1/GPa) = 0.03470055
#
# Stress axis : x y z
#
# Youngs Moduli (GPa) = 123.83819 58.86316 98.18262
#
# Poissons Ratio (x) = -0.04008 0.24388
# Poissons Ratio (y) = -0.08432 -0.15012
# Poissons Ratio (z) = 0.30761 -0.09000
#
# Static dielectric constant tensor:
#      x y z
#    x 1.987770 -0.009280 -0.004710 
#    y -0.009280 1.987540 -0.016360 
#    z -0.004710 -0.016360 1.973600 
# 
# From -- ./inp_files/134638.got.cif
#   From: 2010.05.17/outbox.cif.g08.bks.cpg/sg2_68_cif.got.tgz:134638.got - 2010.06.03 11:33:40.
