data_PCOD9071081
_publ_section_title
;
Structure prediction by ZEFSAII (Michael W. Deem and Ramdas Pophale) SiO2 
 PCOD9071081
Probable space group: P -1
;
_chemical_formula_sum "Si O2"
_cell_formula_units_Z 13
_cell_length_a 6.149441
_cell_length_b 14.284890
_cell_length_c 9.370816
_cell_angle_alpha 45.518288
_cell_angle_beta 115.487954
_cell_angle_gamma 101.605422
_cell_volume 523.676704
_symmetry_space_group_name_H-M "P -1"
_symmetry_group_IT_number 2
_symmetry_cell_setting 'triclinic'
loop_
_space_group_symop_operation_xyz
x,y,z
-x,-y,-z
loop_
_atom_site_type_symbol
_atom_site_label
_atom_site_fract_x
_atom_site_fract_y
_atom_site_fract_z
Si Si1 0.705380 0.219548 0.818521
Si Si2 0.000000 0.000000 0.500000
Si Si3 0.820315 0.440605 0.403439
Si Si4 0.776594 0.923915 0.800218
Si Si5 0.605393 0.876951 0.371597
Si Si6 0.010220 0.360802 0.232667
Si Si7 0.440990 0.699219 0.993826
O O1 0.716418 0.329466 0.582917
O O2 0.483473 0.144837 0.790788
O O3 0.650975 0.287566 0.883783
O O4 0.970839 0.132488 0.991595
O O5 0.178107 0.053629 0.376648
O O6 0.189386 0.029674 0.651990
O O7 0.960070 0.385686 0.358837
O O8 0.605374 0.557257 0.171154
O O9 0.000000 0.500000 0.500000
O O10 0.637678 0.058150 0.685891
O O11 0.602754 0.811972 0.887331
O O12 0.736100 0.734036 0.616569
O O13 0.800225 0.284059 0.189792
O O14 0.000000 0.500000 0.000000
#
# Coordination Sequence:
#
# PCOD9071081 Si02
#       7
#     2   1   2   2   2   2   2
#     4  12  27  49  81 119 156 205 260 328 388 470
#     4  12  30  50  78 112 162 204 260 326 384 476
#     4  12  25  49  81 117 160 202 259 323 390 462
#     4  12  28  51  79 113 159 208 258 328 388 468
#     4  12  28  49  79 112 156 207 262 318 396 459
#     4  12  28  50  81 119 157 210 261 324 393 469
#     4  12  27  51  82 114 161 209 261 324 393 465
#
# _framework density 24.824476000000001
#
# number of rings (size 3 to 8) (size 9 to 14) (size 15 to 20)
#    0.000    0.000    1.538    7.385    6.462    2.462 
#    0.000    0.000    0.000    0.000    0.000    0.000 
#    0.000    0.000    0.000    0.000    0.000    0.000 
#
# Total GULP energy -72765.390249 kJ/mol
# GULP energy per Si atom -5597.337711 kJ/mol
# Density = 2.476797 g / cm^3
# Si number density = 24.824476 Si / 1000 Ang^3
#
#
#
# Elastic Constant Matrix: (Units=GPa)
#
#
# Indices 1 2 3 4 5 6 
#
# 1 100.9492 49.0602 50.8247 -10.5986 5.1537 -4.9504
# 2 49.0602 120.5471 35.2498 28.4125 5.4576 2.1286
# 3 50.8247 35.2498 105.0980 -16.9781 -0.1224 -6.0160
# 4 -10.5986 28.4125 -16.9781 56.1856 -2.4325 19.1390
# 5 5.1537 5.4576 -0.1224 -2.4325 70.5662 7.4609
# 6 -4.9504 2.1286 -6.0160 19.1390 7.4609 62.4140
#
#
#
# Elastic Compliance Matrix: (Units=1/GPa)
#
#
# Indices 1 2 3 4 5 6 
#
# 1 0.015819 -0.006095 -0.004868 0.004707 -0.000489 -0.000392
# 2 -0.006095 0.014113 -0.003291 -0.009988 -0.001200 0.001924
# 3 -0.004868 -0.003291 0.013771 0.005161 0.000879 -0.000634
# 4 0.004707 -0.009988 0.005161 0.027994 0.002210 -0.007637
# 5 -0.000489 -0.001200 0.000879 0.002210 0.014625 -0.002339
# 6 -0.000392 0.001924 -0.000634 -0.007637 -0.002339 0.018486
#
#
# Mechanical properties :
#
#
# Convention : Reuss Voigt Hill
#
# Bulk Modulus (GPa) = 65.80973 66.31818 66.06396
# Shear Modulus (GPa) = 36.13227 50.59714 43.36471
#
# Velocity S-wave (km/s) = 3.81925 4.51954 4.18407
# Velocity P-wave (km/s) = 6.78355 7.34900 7.07193
#
# Compressibility (1/GPa) = 0.01519532
#
# Stress axis : x y z
#
# Youngs Moduli (GPa) = 63.21504 70.85746 72.61407
#
# Poissons Ratio (x) = 0.43187 0.35351
# Poissons Ratio (y) = 0.38529 0.23896
# Poissons Ratio (z) = 0.30775 0.23318
#
# Static dielectric constant tensor:
#      x y z
#    x 2.062380 -0.286170 0.268030 
#    y -0.286170 2.574190 -0.459670 
#    z 0.268030 -0.459670 2.295420 
# 
# From -- ./inp_files/133896.got.cif
#   From: 2010.05.17/outbox.cif.g08.bks.cpg/sg2_67_cif.got.tgz:133896.got - 2010.06.03 11:33:40.
