data_PCOD9071613
_publ_section_title
;
Structure prediction by ZEFSAII (Michael W. Deem and Ramdas Pophale) SiO2 
 PCOD9071613
Probable space group: P -1
;
_chemical_formula_sum "Si O2"
_cell_formula_units_Z 8
_cell_length_a 11.265184
_cell_length_b 5.087260
_cell_length_c 7.761352
_cell_angle_alpha 103.428005
_cell_angle_beta 62.551869
_cell_angle_gamma 123.424153
_cell_volume 329.301264
_symmetry_space_group_name_H-M "P -1"
_symmetry_group_IT_number 2
_symmetry_cell_setting 'triclinic'
loop_
_space_group_symop_operation_xyz
x,y,z
-x,-y,-z
loop_
_atom_site_type_symbol
_atom_site_label
_atom_site_fract_x
_atom_site_fract_y
_atom_site_fract_z
Si Si1 0.591189 0.814359 0.875467
Si Si2 0.140838 0.262859 0.334128
Si Si3 0.040618 0.751590 0.862860
Si Si4 0.346191 0.924286 0.491043
O O1 0.766113 0.902899 0.823073
O O2 0.603580 0.827507 0.661292
O O3 0.500000 0.500000 0.000000
O O4 0.500000 0.000000 0.000000
O O5 0.068487 0.376031 0.252387
O O6 0.000000 0.000000 0.500000
O O7 0.741749 0.424383 0.589564
O O8 0.217893 0.915369 0.703169
O O9 0.000000 0.500000 0.000000
O O10 0.000000 0.000000 0.000000
O O11 0.500000 0.000000 0.500000
#
# Coordination Sequence:
#
# PCOD9071613 Si02
#       4
#     2   2   2   2
#     4  12  28  50  83 118 163 212 271 330 412 472
#     4  12  27  56  84 114 165 218 270 338 402 479
#     4  12  30  50  82 119 160 210 272 329 404 479
#     4  12  30  53  80 122 167 211 270 338 404 483
#
# _framework density 24.293865
#
# number of rings (size 3 to 8) (size 9 to 14) (size 15 to 20)
#    0.000    0.000    5.000    2.250   10.500    1.000 
#    0.000    0.000    0.000    0.000    0.000    0.000 
#    0.000    0.000    0.000    0.000    0.000    0.000 
#
# Total GULP energy -44792.464638 kJ/mol
# GULP energy per Si atom -5599.058080 kJ/mol
# Density = 2.423857 g / cm^3
# Si number density = 24.293865 Si / 1000 Ang^3
#
#
#
# Elastic Constant Matrix: (Units=GPa)
#
#
# Indices 1 2 3 4 5 6 
#
# 1 235.8395 82.6169 109.1843 -28.7787 -10.7934 -18.8618
# 2 82.6169 163.7334 88.1067 -24.2107 5.8951 -28.1769
# 3 109.1843 88.1067 247.3385 -38.2822 -27.0793 -33.3215
# 4 -28.7787 -24.2107 -38.2822 50.4759 -20.9842 11.3536
# 5 -10.7934 5.8951 -27.0793 -20.9842 69.2761 -0.4077
# 6 -18.8618 -28.1769 -33.3215 11.3536 -0.4077 63.3322
#
#
#
# Elastic Compliance Matrix: (Units=1/GPa)
#
#
# Indices 1 2 3 4 5 6 
#
# 1 0.005880 -0.001952 -0.001563 0.001693 0.000983 -0.000236
# 2 -0.001952 0.008691 -0.002106 0.000240 -0.001782 0.002123
# 3 -0.001563 -0.002106 0.006827 0.004635 0.004016 0.001384
# 4 0.001693 0.000240 0.004635 0.029450 0.010963 -0.002159
# 5 0.000983 -0.001782 0.004016 0.010963 0.019629 -0.000226
# 6 -0.000236 0.002123 0.001384 -0.002159 -0.000226 0.017778
#
#
# Mechanical properties :
#
#
# Convention : Reuss Voigt Hill
#
# Bulk Modulus (GPa) = 98.46238 134.08081 116.27159
# Shear Modulus (GPa) = 48.60006 61.08372 54.84189
#
# Velocity S-wave (km/s) = 4.47756 5.01979 4.75640
# Velocity P-wave (km/s) = 8.20665 9.42914 8.83905
#
# Compressibility (1/GPa) = 0.01015616
#
# Stress axis : x y z
#
# Youngs Moduli (GPa) = 170.06846 115.06709 146.48604
#
# Poissons Ratio (x) = 0.22459 0.22890
# Poissons Ratio (y) = 0.33195 0.30851
# Poissons Ratio (z) = 0.26575 0.24234
#
# Static dielectric constant tensor:
#      x y z
#    x 1.967520 0.064410 -0.013110 
#    y 0.064410 2.017630 0.031950 
#    z -0.013110 0.031950 1.924220 
# 
# From -- ./inp_files/2087.got.cif
#   From: 2010.05.17/outbox.cif.g08.bks.cpg/sg2_2_cif.got.tgz:2087.got - 2010.06.03 11:33:40.
