data_PCOD9071471
_publ_section_title
;
Structure prediction by ZEFSAII (Michael W. Deem and Ramdas Pophale) SiO2 
 PCOD9071471
Probable space group: P -1
;
_chemical_formula_sum "Si O2"
_cell_formula_units_Z 12
_cell_length_a 7.793747
_cell_length_b 13.902015
_cell_length_c 11.958610
_cell_angle_alpha 148.831426
_cell_angle_beta 54.868106
_cell_angle_gamma 136.189521
_cell_volume 461.038541
_symmetry_space_group_name_H-M "P -1"
_symmetry_group_IT_number 2
_symmetry_cell_setting 'triclinic'
loop_
_space_group_symop_operation_xyz
x,y,z
-x,-y,-z
loop_
_atom_site_type_symbol
_atom_site_label
_atom_site_fract_x
_atom_site_fract_y
_atom_site_fract_z
Si Si1 0.220251 0.888188 0.536942
Si Si2 0.782862 0.702645 0.105339
Si Si3 0.225052 0.257483 0.188269
Si Si4 0.454279 0.187855 0.248178
Si Si5 0.981314 0.526353 0.679277
Si Si6 0.751916 0.675228 0.349483
O O1 0.185650 0.736743 0.504281
O O2 0.001733 0.728467 0.372444
O O3 0.500000 0.000000 0.500000
O O4 0.190068 0.092574 0.767483
O O5 0.820782 0.746378 0.266328
O O6 0.500000 0.500000 0.000000
O O7 0.947273 0.631111 0.909242
O O8 0.303015 0.234821 0.262079
O O9 0.101614 0.376887 0.291466
O O10 0.513378 0.419436 0.190907
O O11 0.000000 0.000000 0.000000
O O12 0.734503 0.396020 0.356111
O O13 0.335263 0.181107 0.406423
O O14 0.500000 0.000000 0.000000
#
# Coordination Sequence:
#
# PCOD9071471 Si02
#       6
#     2   2   2   2   2   2
#     4  12  26  50  82 117 164 222 272 340 416 485
#     4  12  26  54  79 123 164 215 282 341 406 508
#     4  12  26  50  81 119 166 216 272 337 406 501
#     4  12  27  55  82 119 166 220 274 345 416 486
#     4  12  27  52  82 118 165 214 276 329 425 474
#     4  12  28  52  81 123 168 210 285 342 405 505
#
# _framework density 26.028195
#
# number of rings (size 3 to 8) (size 9 to 14) (size 15 to 20)
#    0.000    0.000    6.667    2.000    0.000    1.333 
#   15.000    0.000    0.000    0.000    0.000    0.000 
#    0.000    0.000    0.000    0.000    0.000    0.000 
#
# Total GULP energy -67156.161354 kJ/mol
# GULP energy per Si atom -5596.346780 kJ/mol
# Density = 2.596895 g / cm^3
# Si number density = 26.028195 Si / 1000 Ang^3
#
#
#
# Elastic Constant Matrix: (Units=GPa)
#
#
# Indices 1 2 3 4 5 6 
#
# 1 198.0914 87.0925 75.9979 10.1763 2.8748 2.1335
# 2 87.0925 204.3251 72.6107 11.8772 1.5459 -3.8084
# 3 75.9979 72.6107 155.1068 -3.5325 -11.0192 -26.3917
# 4 10.1763 11.8772 -3.5325 74.9359 -5.8976 0.5680
# 5 2.8748 1.5459 -11.0192 -5.8976 53.2505 13.3638
# 6 2.1335 -3.8084 -26.3917 0.5680 13.3638 70.9129
#
#
#
# Elastic Compliance Matrix: (Units=1/GPa)
#
#
# Indices 1 2 3 4 5 6 
#
# 1 0.007063 -0.001982 -0.002809 -0.000822 -0.000688 -0.001228
# 2 -0.001982 0.006581 -0.002222 -0.000921 -0.000571 -0.000299
# 3 -0.002809 -0.002222 0.009550 0.001279 0.001526 0.003222
# 4 -0.000822 -0.000921 0.001279 0.013810 0.001868 -0.000011
# 5 -0.000688 -0.000571 0.001526 0.001868 0.020173 -0.003259
# 6 -0.001228 -0.000299 0.003222 -0.000011 -0.003259 0.015936
#
#
# Mechanical properties :
#
#
# Convention : Reuss Voigt Hill
#
# Bulk Modulus (GPa) = 109.09243 114.32504 111.70874
# Shear Modulus (GPa) = 55.43564 61.27467 58.35515
#
# Velocity S-wave (km/s) = 4.62002 4.85724 4.74011
# Velocity P-wave (km/s) = 8.39426 8.68769 8.54223
#
# Compressibility (1/GPa) = 0.00916654
#
# Stress axis : x y z
#
# Youngs Moduli (GPa) = 141.58590 151.95412 104.71735
#
# Poissons Ratio (x) = 0.30118 0.29418
# Poissons Ratio (y) = 0.28063 0.23268
# Poissons Ratio (z) = 0.39776 0.33764
#
# Static dielectric constant tensor:
#      x y z
#    x 1.961390 -0.002770 0.027170 
#    y -0.002770 2.075470 -0.001810 
#    z 0.027170 -0.001810 2.234330 
# 
# From -- ./inp_files/399900.got.cif
#   From: 2010.05.17/outbox.cif.g08.bks.cpg/sg2_200_cif.got.tgz:399900.got - 2010.06.03 11:33:40.
