data_PCOD9071946
_publ_section_title
;
Structure prediction by ZEFSAII (Michael W. Deem and Ramdas Pophale) SiO2 
 PCOD9071946
Probable space group: P -1
;
_chemical_formula_sum "Si O2"
_cell_formula_units_Z 16
_cell_length_a 17.529945
_cell_length_b 7.873264
_cell_length_c 9.190227
_cell_angle_alpha 82.982768
_cell_angle_beta 134.730319
_cell_angle_gamma 63.867473
_cell_volume 595.005339
_symmetry_space_group_name_H-M "P -1"
_symmetry_group_IT_number 2
_symmetry_cell_setting 'triclinic'
loop_
_space_group_symop_operation_xyz
x,y,z
-x,-y,-z
loop_
_atom_site_type_symbol
_atom_site_label
_atom_site_fract_x
_atom_site_fract_y
_atom_site_fract_z
Si Si1 0.626354 0.315443 0.992413
Si Si2 0.932585 0.470376 0.205042
Si Si3 0.290368 0.143097 0.694948
Si Si4 0.623617 0.832115 0.909872
Si Si5 0.091062 0.942011 0.422939
Si Si6 0.704586 0.090600 0.522941
Si Si7 0.660610 0.635771 0.677770
Si Si8 0.785691 0.119717 0.918341
O O1 0.452367 0.604881 0.739075
O O2 0.685274 0.217871 0.918687
O O3 0.648112 0.107782 0.122810
O O4 0.754277 0.285232 0.250270
O O5 0.804977 0.687116 0.129566
O O6 0.819732 0.565704 0.903654
O O7 0.094936 0.382551 0.412555
O O8 0.991950 0.205732 0.351453
O O9 0.324672 0.054789 0.582141
O O10 0.365814 0.195009 0.897886
O O11 0.610864 0.702234 0.777819
O O12 0.486518 0.125554 0.640346
O O13 0.154033 0.973085 0.363965
O O14 0.972004 0.932645 0.223080
O O15 0.751511 0.022089 0.760766
O O16 0.719133 0.379618 0.739363
#
# Coordination Sequence:
#
# PCOD9071946 Si02
#       8
#     2   2   2   2   2   2   2   2
#     4  10  20  32  49  75 105 132 159 197 249 301
#     4   7  14  27  45  71  92 116 160 208 237 268
#     4  10  18  30  49  73  97 128 163 199 243 286
#     4   9  15  29  47  70  97 120 165 212 234 274
#     4   9  18  33  51  75  99 128 168 202 242 288
#     4  10  20  32  47  74 106 131 161 200 243 293
#     4   8  17  27  46  72  94 122 161 204 244 270
#     4  11  19  33  51  75 105 129 160 200 249 301
#
# _framework density 26.890514
#
# number of rings (size 3 to 8) (size 9 to 14) (size 15 to 20)
#    0.750    2.250    0.000    3.750    0.000    0.000 
#    0.000    0.000    0.000    0.750    0.000   31.500 
#    0.000    0.000    0.000    0.000    0.000    0.000 
#
# Total GULP energy -89504.868894 kJ/mol
# GULP energy per Si atom -5594.054306 kJ/mol
# Density = 2.682931 g / cm^3
# Si number density = 26.890514 Si / 1000 Ang^3
#
#
#
# Elastic Constant Matrix: (Units=GPa)
#
#
# Indices 1 2 3 4 5 6 
#
# 1 72.6189 40.8479 30.4799 0.2619 4.0760 -7.6926
# 2 40.8479 128.4837 73.6289 29.2560 5.6250 -3.9696
# 3 30.4799 73.6289 164.6513 21.6065 21.1775 -4.8501
# 4 0.2619 29.2560 21.6065 54.3719 -1.7002 -7.2870
# 5 4.0760 5.6250 21.1775 -1.7002 33.7736 7.8534
# 6 -7.6926 -3.9696 -4.8501 -7.2870 7.8534 40.0344
#
#
#
# Elastic Compliance Matrix: (Units=1/GPa)
#
#
# Indices 1 2 3 4 5 6 
#
# 1 0.017920 -0.005886 -0.000925 0.003906 -0.001267 0.003707
# 2 -0.005886 0.013308 -0.004345 -0.005580 0.001312 -0.001611
# 3 -0.000925 -0.004345 0.009059 -0.001248 -0.005206 0.001283
# 4 0.003906 -0.005580 -0.001248 0.022432 0.001477 0.003839
# 5 -0.001267 0.001312 -0.005206 0.001477 0.034570 -0.007257
# 6 0.003707 -0.001611 0.001283 0.003839 -0.007257 0.027809
#
#
# Mechanical properties :
#
#
# Convention : Reuss Voigt Hill
#
# Bulk Modulus (GPa) = 55.63920 72.85191 64.24556
# Shear Modulus (GPa) = 32.59400 40.35579 36.47489
#
# Velocity S-wave (km/s) = 3.48530 3.87815 3.68696
# Velocity P-wave (km/s) = 6.07720 6.87053 6.48601
#
# Compressibility (1/GPa) = 0.01797294
#
# Stress axis : x y z
#
# Youngs Moduli (GPa) = 55.80489 75.14255 110.38543
#
# Poissons Ratio (x) = 0.44229 0.10215
# Poissons Ratio (y) = 0.32847 0.47967
# Poissons Ratio (z) = 0.05164 0.32653
#
# Static dielectric constant tensor:
#      x y z
#    x 2.128000 -0.027660 0.032950 
#    y -0.027660 2.099930 0.025300 
#    z 0.032950 0.025300 2.072390 
# 
# From -- ./inp_files/353543.got.cif
#   From: 2010.05.17/outbox.cif.g08.bks.cpg/sg2_177_cif.got.tgz:353543.got - 2010.06.03 11:33:40.
