data_PCOD9071785
_publ_section_title
;
Structure prediction by ZEFSAII (Michael W. Deem and Ramdas Pophale) SiO2 
 PCOD9071785
Probable space group: P -1
;
_chemical_formula_sum "Si O2"
_cell_formula_units_Z 14
_cell_length_a 7.218882
_cell_length_b 14.345433
_cell_length_c 10.698053
_cell_angle_alpha 52.083589
_cell_angle_beta 139.345809
_cell_angle_gamma 105.945742
_cell_volume 528.419350
_symmetry_space_group_name_H-M "P -1"
_symmetry_group_IT_number 2
_symmetry_cell_setting 'triclinic'
loop_
_space_group_symop_operation_xyz
x,y,z
-x,-y,-z
loop_
_atom_site_type_symbol
_atom_site_label
_atom_site_fract_x
_atom_site_fract_y
_atom_site_fract_z
Si Si1 0.204450 0.812450 0.715568
Si Si2 0.855411 0.924695 0.897927
Si Si3 0.202548 0.975747 0.818383
Si Si4 0.575415 0.464119 0.892820
Si Si5 0.987963 0.408618 0.898245
Si Si6 0.625614 0.811680 0.563532
Si Si7 0.169058 0.673293 0.368367
O O1 0.262236 0.900252 0.780831
O O2 0.891532 0.797424 0.613875
O O3 0.438670 0.667343 0.958317
O O4 0.087751 0.891556 0.463378
O O5 0.085045 0.896542 0.921267
O O6 0.535422 0.038703 0.615250
O O7 0.871786 0.800781 0.084740
O O8 0.000000 0.000000 0.000000
O O9 0.500000 0.000000 0.000000
O O10 0.249211 0.577134 0.605621
O O11 0.748361 0.443765 0.862488
O O12 0.805486 0.505497 0.061519
O O13 0.824839 0.405692 0.688207
O O14 0.227522 0.267613 0.172707
O O15 0.420323 0.738896 0.459987
#
# Coordination Sequence:
#
# PCOD9071785 Si02
#       7
#     2   2   2   2   2   2   2
#     4  10  22  38  57  83 113 146 181 224 278 328
#     4  10  20  35  58  84 112 144 182 229 275 322
#     4  11  23  38  56  82 114 147 184 225 273 328
#     4   9  18  31  48  77 111 137 177 223 266 326
#     4   9  17  28  49  79 108 140 175 222 275 316
#     4   9  19  35  53  82 113 137 181 228 269 325
#     4  10  18  29  50  79 110 141 175 221 273 320
#
# _framework density 26.494107
#
# number of rings (size 3 to 8) (size 9 to 14) (size 15 to 20)
#    0.000    2.286    0.000    4.714    0.000    3.429 
#    0.000    1.429    0.000    7.714    0.000   32.000 
#    0.000    0.000    0.000    0.000    0.000    0.000 
#
# Total GULP energy -78319.231915 kJ/mol
# GULP energy per Si atom -5594.230851 kJ/mol
# Density = 2.643380 g / cm^3
# Si number density = 26.494107 Si / 1000 Ang^3
#
#
#
# Elastic Constant Matrix: (Units=GPa)
#
#
# Indices 1 2 3 4 5 6 
#
# 1 74.2380 24.7980 30.3149 5.7695 2.3799 12.4566
# 2 24.7980 170.6214 77.1570 15.7526 -4.7733 19.7706
# 3 30.3149 77.1570 189.7535 -28.4339 -17.4242 0.7480
# 4 5.7695 15.7526 -28.4339 64.0906 -9.9104 -6.7004
# 5 2.3799 -4.7733 -17.4242 -9.9104 23.6472 -7.0692
# 6 12.4566 19.7706 0.7480 -6.7004 -7.0692 36.5426
#
#
#
# Elastic Compliance Matrix: (Units=1/GPa)
#
#
# Indices 1 2 3 4 5 6 
#
# 1 0.018006 0.001520 -0.005668 -0.007458 -0.011954 -0.010524
# 2 0.001520 0.009878 -0.006122 -0.007497 -0.008425 -0.008742
# 3 -0.005668 -0.006122 0.011612 0.010564 0.015277 0.009899
# 4 -0.007458 -0.007497 0.010564 0.028143 0.023633 0.016114
# 5 -0.011954 -0.008425 0.015277 0.023633 0.070831 0.026356
# 6 -0.010524 -0.008742 0.009899 0.016114 0.026356 0.043533
#
#
# Mechanical properties :
#
#
# Convention : Reuss Voigt Hill
#
# Bulk Modulus (GPa) = 52.75799 77.68361 65.22080
# Shear Modulus (GPa) = 23.93940 45.01227 34.47583
#
# Velocity S-wave (km/s) = 3.00921 4.12631 3.61122
# Velocity P-wave (km/s) = 5.65952 7.21711 6.48524
#
# Compressibility (1/GPa) = 0.01895448
#
# Stress axis : x y z
#
# Youngs Moduli (GPa) = 55.53764 101.23627 86.12071
#
# Poissons Ratio (x) = -0.15387 0.48816
# Poissons Ratio (y) = -0.08441 0.52723
# Poissons Ratio (z) = 0.31481 0.61977
#
# Static dielectric constant tensor:
#      x y z
#    x 2.069230 -0.049220 0.053680 
#    y -0.049220 2.068480 -0.031990 
#    z 0.053680 -0.031990 2.194360 
# 
# From -- ./inp_files/398677.got.cif
#   From: 2010.05.17/outbox.cif.g08.bks.cpg/sg2_200_cif.got.tgz:398677.got - 2010.06.03 11:33:40.
