data_PCOD9071954
_publ_section_title
;
Structure prediction by ZEFSAII (Michael W. Deem and Ramdas Pophale) SiO2 
 PCOD9071954
Probable space group: P -1
;
_chemical_formula_sum "Si O2"
_cell_formula_units_Z 16
_cell_length_a 12.188150
_cell_length_b 14.435328
_cell_length_c 12.141773
_cell_angle_alpha 30.561094
_cell_angle_beta 73.075388
_cell_angle_gamma 50.908410
_cell_volume 649.018090
_symmetry_space_group_name_H-M "P -1"
_symmetry_group_IT_number 2
_symmetry_cell_setting 'triclinic'
loop_
_space_group_symop_operation_xyz
x,y,z
-x,-y,-z
loop_
_atom_site_type_symbol
_atom_site_label
_atom_site_fract_x
_atom_site_fract_y
_atom_site_fract_z
Si Si1 0.812348 0.730693 0.748987
Si Si2 0.745304 0.149009 0.454672
Si Si3 0.852929 0.310121 0.090321
Si Si4 0.622873 0.035623 0.920484
Si Si5 0.450882 0.484243 0.669369
Si Si6 0.968132 0.610762 0.585318
Si Si7 0.143148 0.612743 0.238934
Si Si8 0.852720 0.261166 0.663817
O O1 0.872219 0.718177 0.622112
O O2 0.688910 0.021250 0.557393
O O3 0.749626 0.601698 0.885575
O O4 0.000000 0.500000 0.000000
O O5 0.807671 0.180476 0.296331
O O6 0.586953 0.446883 0.262110
O O7 0.928029 0.922751 0.712394
O O8 0.803208 0.384080 0.901206
O O9 0.614762 0.150940 0.923139
O O10 0.565173 0.288709 0.606142
O O11 0.500000 0.000000 0.000000
O O12 0.820008 0.725267 0.134978
O O13 0.283873 0.583779 0.556593
O O14 0.988843 0.790840 0.356821
O O15 0.867734 0.589782 0.558744
O O16 0.234008 0.565584 0.373087
O O17 0.944114 0.952118 0.964725
#
# Coordination Sequence:
#
# PCOD9071954 Si02
#       8
#     2   2   2   2   2   2   2   2
#     4   9  18  27  47  72 104 139 157 208 263 311
#     4  10  18  30  49  74 108 133 164 214 262 316
#     4   9  17  29  48  72 103 135 165 204 264 312
#     4  11  22  35  54  71 109 146 176 219 258 303
#     4  11  22  35  51  82 109 138 178 213 260 319
#     4  11  20  35  51  78 112 137 181 212 259 319
#     4  10  20  34  50  80 110 140 172 211 264 321
#     4  11  20  32  54  73 111 145 168 216 262 313
#
# _framework density 24.652626999999999
#
# number of rings (size 3 to 8) (size 9 to 14) (size 15 to 20)
#    0.000    1.750    3.750    2.625    3.500    1.000 
#    0.000    0.000    0.000    0.000    0.000    4.375 
#    3.750    4.125    0.000    0.000    0.000    0.000 
#
# Total GULP energy -89285.462178 kJ/mol
# GULP energy per Si atom -5580.341386 kJ/mol
# Density = 2.459652 g / cm^3
# Si number density = 24.652627 Si / 1000 Ang^3
#
#
#
# Elastic Constant Matrix: (Units=GPa)
#
#
# Indices 1 2 3 4 5 6 
#
# 1 53.4451 30.0699 22.4677 -12.1364 -14.1421 21.7006
# 2 30.0699 104.5358 12.0887 -13.5236 -9.2485 36.6936
# 3 22.4677 12.0887 65.6377 1.0000 -19.5678 5.9521
# 4 -12.1364 -13.5236 1.0000 30.6859 8.3230 -8.8462
# 5 -14.1421 -9.2485 -19.5678 8.3230 24.8618 -5.8189
# 6 21.7006 36.6936 5.9521 -8.8462 -5.8189 35.1756
#
#
#
# Elastic Compliance Matrix: (Units=1/GPa)
#
#
# Indices 1 2 3 4 5 6 
#
# 1 0.031506 -0.002176 -0.007481 0.006274 0.006004 -0.013330
# 2 -0.002176 0.015535 -0.000900 0.001950 -0.000154 -0.014246
# 3 -0.007481 -0.000900 0.022798 -0.007884 0.016567 0.002454
# 4 0.006274 0.001950 -0.007884 0.041191 -0.014924 0.003319
# 5 0.006004 -0.000154 0.016567 -0.014924 0.061638 0.000097
# 6 -0.013330 -0.014246 0.002454 0.003319 0.000097 0.051949
#
#
# Mechanical properties :
#
#
# Convention : Reuss Voigt Hill
#
# Bulk Modulus (GPa) = 20.52298 39.20792 29.86545
# Shear Modulus (GPa) = 19.08599 28.74416 23.91507
#
# Velocity S-wave (km/s) = 2.78546 3.41833 3.11799
# Velocity P-wave (km/s) = 4.32296 5.61415 5.01032
#
# Compressibility (1/GPa) = 0.04872587
#
# Stress axis : x y z
#
# Youngs Moduli (GPa) = 31.74048 64.36937 43.86317
#
# Poissons Ratio (x) = 0.14005 0.32812
# Poissons Ratio (y) = 0.06906 0.03949
# Poissons Ratio (z) = 0.23744 0.05796
#
# Static dielectric constant tensor:
#      x y z
#    x 4.229830 -2.161750 0.731170 
#    y -2.161750 4.004550 -0.684310 
#    z 0.731170 -0.684310 2.225360 
# 
# From -- ./inp_files/454359.got.cif
#   From: 2010.05.17/outbox.cif.g08.bks.cpg/sg2_228_cif.got.tgz:454359.got - 2010.06.03 11:33:40.
