data_PCOD9071669
_publ_section_title
;
Structure prediction by ZEFSAII (Michael W. Deem and Ramdas Pophale) SiO2 
 PCOD9071669
Probable space group: P -1
;
_chemical_formula_sum "Si O2"
_cell_formula_units_Z 16
_cell_length_a 22.567717
_cell_length_b 26.615338
_cell_length_c 12.932872
_cell_angle_alpha 20.948083
_cell_angle_beta 150.002787
_cell_angle_gamma 164.213943
_cell_volume 711.751135
_symmetry_space_group_name_H-M "P -1"
_symmetry_group_IT_number 2
_symmetry_cell_setting 'triclinic'
loop_
_space_group_symop_operation_xyz
x,y,z
-x,-y,-z
loop_
_atom_site_type_symbol
_atom_site_label
_atom_site_fract_x
_atom_site_fract_y
_atom_site_fract_z
Si Si1 0.692714 0.013992 0.303057
Si Si2 0.459607 0.013993 0.069950
Si Si3 0.717818 0.616099 0.034253
Si Si4 0.032077 0.791461 0.464991
Si Si5 0.767744 0.341125 0.320126
Si Si6 0.275219 0.791461 0.708133
Si Si7 0.691987 0.658875 0.139605
Si Si8 0.053085 0.383901 0.736650
O O1 0.636577 0.111573 0.075012
O O2 0.482825 0.699169 0.628790
O O3 0.906739 0.185374 0.369011
O O4 0.665362 1.000000 0.165363
O O5 0.260648 0.699169 0.406613
O O6 0.611655 0.185375 0.073926
O O7 0.789635 0.756102 0.982050
O O8 0.910109 0.724531 0.056734
O O9 0.579250 0.585740 0.812969
O O10 0.110865 0.741865 0.607000
O O11 0.782085 0.604503 0.426021
O O12 0.198025 0.095472 0.108552
O O13 0.824640 0.395498 0.180702
O O14 0.911688 0.585739 0.145407
O O15 0.828914 0.243898 0.636499
O O16 0.498917 0.095472 0.409444
#
# Coordination Sequence:
#
# PCOD9071669 Si02
#       8
#     2   2   2   2   2   2   2   2
#     4   8  14  25  39  54  77 109 133 151 187 234
#     4   8  14  25  39  54  77 109 133 151 187 234
#     4   9  16  26  40  59  84 105 126 161 193 228
#     4   9  16  26  40  59  84 105 126 161 193 228
#     4   9  16  25  39  58  82 106 131 156 194 233
#     4   9  16  26  40  59  84 105 126 161 193 228
#     4   9  16  25  39  58  82 106 131 156 194 233
#     4   9  16  26  40  59  84 105 126 161 193 228
#
# _framework density 22.479766000000001
#
# number of rings (size 3 to 8) (size 9 to 14) (size 15 to 20)
#    0.000    3.250    0.000    3.000    0.000    0.000 
#    0.000    1.250    0.000    6.000    0.000    0.000 
#    0.000  472.000    0.000    0.000    0.000    0.000 
#
# Total GULP energy -89156.081237 kJ/mol
# GULP energy per Si atom -5572.255077 kJ/mol
# Density = 2.242860 g / cm^3
# Si number density = 22.479766 Si / 1000 Ang^3
#
#
#
# Elastic Constant Matrix: (Units=GPa)
#
#
# Indices 1 2 3 4 5 6 
#
# 1 115.5411 22.2340 44.2264 5.8114 11.0411 -14.3491
# 2 22.2340 78.4353 32.6772 23.8488 -4.3257 -13.2266
# 3 44.2264 32.6772 79.2464 26.9296 -4.8375 5.6923
# 4 5.8114 23.8488 26.9296 35.0829 -3.9427 -3.8760
# 5 11.0411 -4.3257 -4.8375 -3.9427 30.6202 17.8667
# 6 -14.3491 -13.2266 5.6923 -3.8760 17.8667 31.1188
#
#
#
# Elastic Compliance Matrix: (Units=1/GPa)
#
#
# Indices 1 2 3 4 5 6 
#
# 1 0.023889 0.003807 -0.023540 0.012015 -0.031588 0.036572
# 2 0.003807 0.020192 -0.010589 -0.005513 -0.011526 0.018206
# 3 -0.023540 -0.010589 0.044139 -0.023763 0.039555 -0.049099
# 4 0.012015 -0.005513 -0.023763 0.049239 -0.015798 0.022747
# 5 -0.031588 -0.011526 0.039555 -0.015798 0.095283 -0.083374
# 6 0.036572 0.018206 -0.049099 0.022747 -0.083374 0.116420
#
#
# Mechanical properties :
#
#
# Convention : Reuss Voigt Hill
#
# Bulk Modulus (GPa) = 36.26246 52.38866 44.32556
# Shear Modulus (GPa) = 11.93324 30.97008 21.45166
#
# Velocity S-wave (km/s) = 2.30650 3.71575 3.09247
# Velocity P-wave (km/s) = 4.82281 6.46254 5.70192
#
# Compressibility (1/GPa) = 0.02757673
#
# Stress axis : x y z
#
# Youngs Moduli (GPa) = 41.86041 49.52388 22.65567
#
# Poissons Ratio (x) = -0.18855 0.53331
# Poissons Ratio (y) = -0.15938 0.23990
# Poissons Ratio (z) = 0.98539 0.52441
#
# Static dielectric constant tensor:
#      x y z
#    x 1.858940 -0.015810 -0.014070 
#    y -0.015810 1.926580 0.002940 
#    z -0.014070 0.002940 1.873890 
# 
# From -- ./inp_files/248468.got.cif
#   From: 2010.05.17/outbox.cif.g08.bks.cpg/sg2_125_cif.got.tgz:248468.got - 2010.06.03 11:33:40.
