data_PCOD9071405
_publ_section_title
;
Structure prediction by ZEFSAII (Michael W. Deem and Ramdas Pophale) SiO2 
 PCOD9071405
Probable space group: P -1
;
_chemical_formula_sum "Si O2"
_cell_formula_units_Z 11
_cell_length_a 11.885585
_cell_length_b 11.273585
_cell_length_c 5.085863
_cell_angle_alpha 98.497178
_cell_angle_beta 104.034228
_cell_angle_gamma 38.319256
_cell_volume 408.904290
_symmetry_space_group_name_H-M "P -1"
_symmetry_group_IT_number 2
_symmetry_cell_setting 'triclinic'
loop_
_space_group_symop_operation_xyz
x,y,z
-x,-y,-z
loop_
_atom_site_type_symbol
_atom_site_label
_atom_site_fract_x
_atom_site_fract_y
_atom_site_fract_z
Si Si1 0.037687 0.208509 0.161706
Si Si2 0.228271 0.948891 0.687790
Si Si3 0.375080 0.328914 0.427862
Si Si4 0.000000 0.500000 0.000000
Si Si5 0.674097 0.780708 0.113498
Si Si6 0.306030 0.623746 0.791365
O O1 0.031079 0.355287 0.177882
O O2 0.832715 0.317100 0.048871
O O3 0.097241 0.105423 0.440350
O O4 0.176676 0.040564 0.972690
O O5 0.433545 0.821187 0.670586
O O6 0.231326 0.803250 0.670322
O O7 0.381723 0.245969 0.669664
O O8 0.329042 0.497957 0.554519
O O9 0.249466 0.358779 0.151362
O O10 0.872731 0.679521 0.217429
O O11 0.500000 0.000000 0.000000
O O12 0.500000 0.500000 0.000000
#
# Coordination Sequence:
#
# PCOD9071405 Si02
#       6
#     2   2   2   1   2   2
#     4  12  29  50  78 119 159 211 274 332 414 482
#     4  12  27  49  81 117 159 212 267 342 404 485
#     4  12  26  49  77 116 157 204 274 321 418 475
#     4  12  28  52  84 112 170 206 278 336 414 486
#     4  12  27  49  79 116 161 216 266 338 400 496
#     4  12  27  52  83 117 166 216 270 340 409 494
#
# _framework density 26.901157999999999
#
# number of rings (size 3 to 8) (size 9 to 14) (size 15 to 20)
#    0.000    0.000    1.818    7.636    2.545    5.818 
#    0.000    0.000    0.000    0.000    0.000    0.000 
#    0.000    0.000    0.000    0.000    0.000    0.000 
#
# Total GULP energy -61567.612825 kJ/mol
# GULP energy per Si atom -5597.055711 kJ/mol
# Density = 2.683993 g / cm^3
# Si number density = 26.901158 Si / 1000 Ang^3
#
#
#
# Elastic Constant Matrix: (Units=GPa)
#
#
# Indices 1 2 3 4 5 6 
#
# 1 165.0324 66.3200 77.8538 2.3736 -31.9242 3.7594
# 2 66.3200 167.1911 71.1658 2.0147 0.3226 9.0627
# 3 77.8538 71.1658 177.2031 -8.3012 0.3943 23.6939
# 4 2.3736 2.0147 -8.3012 59.2441 -2.3771 -24.2107
# 5 -31.9242 0.3226 0.3943 -2.3771 50.1350 12.1447
# 6 3.7594 9.0627 23.6939 -24.2107 12.1447 64.5854
#
#
#
# Elastic Compliance Matrix: (Units=1/GPa)
#
#
# Indices 1 2 3 4 5 6 
#
# 1 0.009894 -0.002484 -0.003333 -0.000718 0.006425 -0.000482
# 2 -0.002484 0.007866 -0.002077 -0.000567 -0.001617 -0.000106
# 3 -0.003333 -0.002077 0.008242 0.000452 -0.001654 -0.002058
# 4 -0.000718 -0.000567 0.000452 0.020103 -0.001382 0.007751
# 5 0.006425 -0.001617 -0.001654 -0.001382 0.025155 -0.004789
# 6 -0.000482 -0.000106 -0.002058 0.007751 -0.004789 0.020087
#
#
# Mechanical properties :
#
#
# Convention : Reuss Voigt Hill
#
# Bulk Modulus (GPa) = 97.89447 104.45621 101.17534
# Shear Modulus (GPa) = 45.23312 54.39870 49.81591
#
# Velocity S-wave (km/s) = 4.10501 4.50173 4.30794
# Velocity P-wave (km/s) = 7.67708 8.12002 7.90165
#
# Compressibility (1/GPa) = 0.01021508
#
# Stress axis : x y z
#
# Youngs Moduli (GPa) = 101.07168 127.12956 121.33620
#
# Poissons Ratio (x) = 0.31574 0.40441
# Poissons Ratio (y) = 0.25102 0.25198
# Poissons Ratio (z) = 0.33687 0.26401
#
# Static dielectric constant tensor:
#      x y z
#    x 2.507400 -0.157830 0.172360 
#    y -0.157830 2.186340 -0.011440 
#    z 0.172360 -0.011440 2.107090 
# 
# From -- ./inp_files/61581.got.cif
#   From: 2010.05.17/outbox.cif.g08.bks.cpg/sg2_31_cif.got.tgz:61581.got - 2010.06.03 11:33:40.
