data_PCOD9071855
_publ_section_title
;
Structure prediction by ZEFSAII (Michael W. Deem and Ramdas Pophale) SiO2 
 PCOD9071855
Probable space group: P -1
;
_chemical_formula_sum "Si O2"
_cell_formula_units_Z 15
_cell_length_a 6.812483
_cell_length_b 12.223799
_cell_length_c 13.918838
_cell_angle_alpha 138.870883
_cell_angle_beta 57.433685
_cell_angle_gamma 105.358229
_cell_volume 621.515922
_symmetry_space_group_name_H-M "P -1"
_symmetry_group_IT_number 2
_symmetry_cell_setting 'triclinic'
loop_
_space_group_symop_operation_xyz
x,y,z
-x,-y,-z
loop_
_atom_site_type_symbol
_atom_site_label
_atom_site_fract_x
_atom_site_fract_y
_atom_site_fract_z
Si Si1 0.967373 0.737485 0.473290
Si Si2 0.222697 0.340544 0.160449
Si Si3 0.000000 0.000000 0.500000
Si Si4 0.551412 0.148702 0.514459
Si Si5 0.737804 0.643118 0.125347
Si Si6 0.684677 0.293397 0.883181
Si Si7 0.741607 0.873828 0.812239
Si Si8 0.858587 0.915721 0.144094
O O1 0.059565 0.530814 0.307075
O O2 0.200448 0.805152 0.489935
O O3 0.919641 0.827721 0.442720
O O4 0.764708 0.803658 0.650928
O O5 0.206039 0.293010 0.243714
O O6 0.495648 0.322893 0.040219
O O7 0.151630 0.188744 0.018842
O O8 0.145060 0.893083 0.299488
O O9 0.354197 0.311865 0.712951
O O10 0.500000 0.000000 0.500000
O O11 0.616471 0.058494 0.335020
O O12 0.489994 0.684900 0.151190
O O13 0.882579 0.767949 0.121696
O O14 0.824858 0.441499 0.951573
O O15 0.936062 0.985199 0.846544
O O16 0.500000 0.000000 0.000000
#
# Coordination Sequence:
#
# PCOD9071855 Si02
#       8
#     2   2   1   2   2   2   2   2
#     4  11  22  38  64  90 122 167 206 255 308 371
#     4  11  21  41  66  91 122 167 219 247 299 373
#     4  12  20  32  56  96 132 148 202 248 324 364
#     4   9  16  32  56  87 120 152 200 246 298 365
#     4   9  15  33  55  87 121 155 203 249 297 369
#     4  10  18  29  57  90 122 158 192 253 309 362
#     4  11  24  43  62  89 127 167 211 257 311 366
#     4   9  20  33  64  92 118 163 207 261 301 365
#
# _framework density 24.134540000000001
#
# number of rings (size 3 to 8) (size 9 to 14) (size 15 to 20)
#    0.000    1.867    2.667    3.200    0.000    0.000 
#    0.000    0.667    5.867   11.200    0.000    0.000 
#    0.000    0.000    0.000    0.000    0.000    0.000 
#
# Total GULP energy -83588.934946 kJ/mol
# GULP energy per Si atom -5572.595663 kJ/mol
# Density = 2.407961 g / cm^3
# Si number density = 24.134540 Si / 1000 Ang^3
#
#
#
# Elastic Constant Matrix: (Units=GPa)
#
#
# Indices 1 2 3 4 5 6 
#
# 1 49.0230 23.9985 29.4156 -3.7178 6.0949 13.5794
# 2 23.9985 130.2407 64.2751 -8.5982 -7.2227 4.9482
# 3 29.4156 64.2751 188.7306 -4.4607 0.8938 7.6652
# 4 -3.7178 -8.5982 -4.4607 51.0160 4.7252 4.4000
# 5 6.0949 -7.2227 0.8938 4.7252 32.7272 2.0049
# 6 13.5794 4.9482 7.6652 4.4000 2.0049 33.9996
#
#
#
# Elastic Compliance Matrix: (Units=1/GPa)
#
#
# Indices 1 2 3 4 5 6 
#
# 1 0.027258 -0.003526 -0.002564 0.002527 -0.005549 -0.009795
# 2 -0.003526 0.009928 -0.002837 0.000883 0.002778 0.000325
# 3 -0.002564 -0.002837 0.006666 -0.000049 -0.000321 -0.000041
# 4 0.002527 0.000883 -0.000049 0.020521 -0.003016 -0.003604
# 5 -0.005549 0.002778 -0.000321 -0.003016 0.032625 0.000351
# 6 -0.009795 0.000325 -0.000041 -0.003604 0.000351 0.033732
#
#
# Mechanical properties :
#
#
# Convention : Reuss Voigt Hill
#
# Bulk Modulus (GPa) = 38.46382 67.04142 52.75262
# Shear Modulus (GPa) = 31.79654 40.23556 36.01605
#
# Velocity S-wave (km/s) = 3.63363 4.08749 3.86722
# Velocity P-wave (km/s) = 5.79450 7.07921 6.46883
#
# Compressibility (1/GPa) = 0.02599845
#
# Stress axis : x y z
#
# Youngs Moduli (GPa) = 36.68649 100.72608 150.00719
#
# Poissons Ratio (x) = 0.35518 0.38457
# Poissons Ratio (y) = 0.12936 0.42557
# Poissons Ratio (z) = 0.09405 0.28576
#
# Static dielectric constant tensor:
#      x y z
#    x 7.859040 -6.891230 0.537860 
#    y -6.891230 10.187670 -0.675640 
#    z 0.537860 -0.675640 1.986730 
# 
# From -- ./inp_files/500932.got.cif
#   From: 2010.05.17/outbox.cif.g08.bks.cpg/sg2_251_cif.got.tgz:500932.got - 2010.06.03 11:33:40.
