data_PCOD9071329
_publ_section_title
;
Structure prediction by ZEFSAII (Michael W. Deem and Ramdas Pophale) SiO2 
 PCOD9071329
Probable space group: P -1
;
_chemical_formula_sum "Si O2"
_cell_formula_units_Z 16
_cell_length_a 9.559056
_cell_length_b 9.418588
_cell_length_c 11.790850
_cell_angle_alpha 92.625013
_cell_angle_beta 53.459295
_cell_angle_gamma 78.341482
_cell_volume 816.474307
_symmetry_space_group_name_H-M "P -1"
_symmetry_group_IT_number 2
_symmetry_cell_setting 'triclinic'
loop_
_space_group_symop_operation_xyz
x,y,z
-x,-y,-z
loop_
_atom_site_type_symbol
_atom_site_label
_atom_site_fract_x
_atom_site_fract_y
_atom_site_fract_z
Si Si1 0.684350 0.038954 0.390780
Si Si2 0.120730 0.610499 0.437344
Si Si3 0.850022 0.920905 0.543201
Si Si4 0.035940 0.398357 0.092022
Si Si5 0.303977 0.625156 0.594044
Si Si6 0.659206 0.561309 0.876923
Si Si7 0.830263 0.934629 0.081287
Si Si8 0.467821 0.098034 0.132630
O O1 0.671235 0.212358 0.383391
O O2 0.500000 0.000000 0.500000
O O3 0.781686 0.988912 0.459031
O O4 0.779674 0.937139 0.237354
O O5 0.216342 0.631232 0.510292
O O6 0.265790 0.545423 0.268716
O O7 0.000000 0.500000 0.500000
O O8 0.969741 0.753811 0.473533
O O9 0.690261 0.932783 0.712631
O O10 0.000000 0.000000 0.500000
O O11 0.180695 0.440037 0.109087
O O12 0.846876 0.408299 0.249868
O O13 0.120488 0.226904 0.005900
O O14 0.000000 0.500000 0.000000
O O15 0.500000 0.500000 0.500000
O O16 0.587696 0.729850 0.870612
O O17 0.500000 0.500000 0.000000
O O18 0.656099 0.045100 0.108376
O O19 0.000000 0.000000 0.000000
O O20 0.500000 0.000000 0.000000
#
# Coordination Sequence:
#
# PCOD9071329 Si02
#       8
#     2   2   2   2   2   2   2   2
#     4  12  28  47  73 110 144 192 243 290 361 430
#     4  12  26  48  76 105 146 192 242 297 359 427
#     4  12  27  47  76 106 144 190 244 301 356 423
#     4  12  29  51  71 109 148 190 242 300 359 431
#     4  12  29  49  75 106 150 189 240 302 358 429
#     4  12  30  48  76 108 145 193 243 295 366 427
#     4  12  28  47  77 104 148 194 238 295 362 427
#     4  12  27  49  74 104 149 188 242 304 355 424
#
# _framework density 19.596451999999999
#
# number of rings (size 3 to 8) (size 9 to 14) (size 15 to 20)
#    0.000    0.000    7.500    0.000   14.000    0.000 
#    0.000    0.000    0.000    0.000    0.000    0.000 
#    0.000    0.000    0.000    0.000    0.000    0.000 
#
# Total GULP energy -89384.492158 kJ/mol
# GULP energy per Si atom -5586.530760 kJ/mol
# Density = 1.955185 g / cm^3
# Si number density = 19.596452 Si / 1000 Ang^3
#
#
#
# Elastic Constant Matrix: (Units=GPa)
#
#
# Indices 1 2 3 4 5 6 
#
# 1 140.3902 37.2207 59.3436 -15.0959 -11.4264 -5.5044
# 2 37.2207 103.3118 42.8530 -3.4606 -12.8094 -11.0265
# 3 59.3436 42.8530 198.2799 -6.8045 -9.5651 -0.6181
# 4 -15.0959 -3.4606 -6.8045 38.0990 5.0499 -0.5597
# 5 -11.4264 -12.8094 -9.5651 5.0499 40.7820 -1.0790
# 6 -5.5044 -11.0265 -0.6181 -0.5597 -1.0790 41.5294
#
#
#
# Elastic Compliance Matrix: (Units=1/GPa)
#
#
# Indices 1 2 3 4 5 6 
#
# 1 0.008974 -0.002070 -0.002088 0.002867 0.001037 0.000674
# 2 -0.002070 0.011822 -0.001803 -0.000402 0.002837 0.002906
# 3 -0.002088 -0.001803 0.006070 0.000050 0.000249 -0.000658
# 4 0.002867 -0.000402 0.000050 0.027726 -0.002729 0.000577
# 5 0.001037 0.002837 0.000249 -0.002729 0.026139 0.001537
# 6 0.000674 0.002906 -0.000658 0.000577 0.001537 0.024978
#
#
# Mechanical properties :
#
#
# Convention : Reuss Voigt Hill
#
# Bulk Modulus (GPa) = 66.92446 80.09074 73.50760
# Shear Modulus (GPa) = 40.77920 44.25305 42.51612
#
# Velocity S-wave (km/s) = 4.56669 4.75723 4.66293
# Velocity P-wave (km/s) = 7.87602 8.43408 8.15982
#
# Compressibility (1/GPa) = 0.01494222
#
# Stress axis : x y z
#
# Youngs Moduli (GPa) = 111.43878 84.59024 164.75556
#
# Poissons Ratio (x) = 0.17514 0.34396
# Poissons Ratio (y) = 0.23072 0.29709
# Poissons Ratio (z) = 0.23265 0.15253
#
# Static dielectric constant tensor:
#      x y z
#    x 1.642940 -0.012190 0.019280 
#    y -0.012190 1.616470 0.029990 
#    z 0.019280 0.029990 1.668210 
# 
# From -- ./inp_files/187807.got.cif
#   From: 2010.05.17/outbox.cif.g08.bks.cpg/sg2_94_cif.got.tgz:187807.got - 2010.06.03 11:33:40.
