data_PCOD9071365
_publ_section_title
;
Structure prediction by ZEFSAII (Michael W. Deem and Ramdas Pophale) SiO2 
 PCOD9071365
Probable space group: P -1
;
_chemical_formula_sum "Si O2"
_cell_formula_units_Z 14
_cell_length_a 9.974523
_cell_length_b 10.309894
_cell_length_c 8.968789
_cell_angle_alpha 92.156644
_cell_angle_beta 134.831953
_cell_angle_gamma 66.079929
_cell_volume 552.338045
_symmetry_space_group_name_H-M "P -1"
_symmetry_group_IT_number 2
_symmetry_cell_setting 'triclinic'
loop_
_space_group_symop_operation_xyz
x,y,z
-x,-y,-z
loop_
_atom_site_type_symbol
_atom_site_label
_atom_site_fract_x
_atom_site_fract_y
_atom_site_fract_z
Si Si1 0.134447 0.281067 0.215803
Si Si2 0.097332 0.018403 0.338687
Si Si3 0.490415 0.815736 0.297953
Si Si4 0.641633 0.288797 0.064945
Si Si5 0.083995 0.154303 0.896973
Si Si6 0.277428 0.094930 0.737149
Si Si7 0.160153 0.500847 0.754517
O O1 0.391529 0.225083 0.451411
O O2 0.104151 0.144370 0.249368
O O3 0.975238 0.430858 0.195391
O O4 0.070171 0.284635 0.994474
O O5 0.849241 0.113594 0.224017
O O6 0.255606 0.984520 0.599768
O O7 0.112771 0.881029 0.252614
O O8 0.689044 0.799661 0.346890
O O9 0.422846 0.705110 0.162479
O O10 0.296591 0.993277 0.123204
O O11 0.748758 0.385204 0.203969
O O12 0.406354 0.345080 0.962137
O O13 0.101201 0.180133 0.735502
O O14 0.500000 0.000000 0.000000
O O15 0.000000 0.500000 0.500000
#
# Coordination Sequence:
#
# PCOD9071365 Si02
#       7
#     2   2   2   2   2   2   2
#     4  10  18  29  48  75 102 132 157 209 259 284
#     4   9  18  31  49  73 101 132 166 202 246 304
#     4   9  17  31  48  73 100 131 166 196 246 303
#     4   9  18  31  52  76  95 131 169 208 243 288
#     4  10  18  29  47  74 106 129 163 204 249 297
#     4   9  18  31  49  71 100 139 169 196 241 301
#     4  10  18  31  51  76 103 125 170 211 246 292
#
# _framework density 25.346796000000001
#
# number of rings (size 3 to 8) (size 9 to 14) (size 15 to 20)
#    0.000    2.571    1.429    1.286    0.000    0.000 
#    0.000    0.000    0.000    1.714    0.000    0.000 
#    0.000    0.000    0.000    0.000    0.000    0.000 
#
# Total GULP energy -78029.365716 kJ/mol
# GULP energy per Si atom -5573.526123 kJ/mol
# Density = 2.528911 g / cm^3
# Si number density = 25.346796 Si / 1000 Ang^3
#
#
#
# Elastic Constant Matrix: (Units=GPa)
#
#
# Indices 1 2 3 4 5 6 
#
# 1 55.2628 15.8127 32.8937 10.0094 5.5059 1.7555
# 2 15.8127 89.7687 57.2277 24.1641 3.1030 -16.1738
# 3 32.8937 57.2277 198.6038 50.1553 26.7693 -4.8064
# 4 10.0094 24.1641 50.1553 48.9701 -2.9722 0.9938
# 5 5.5059 3.1030 26.7693 -2.9722 40.1536 1.8855
# 6 1.7555 -16.1738 -4.8064 0.9938 1.8855 27.6935
#
#
#
# Elastic Compliance Matrix: (Units=1/GPa)
#
#
# Indices 1 2 3 4 5 6 
#
# 1 0.020567 -0.002406 -0.002596 -0.000343 -0.000784 -0.003094
# 2 -0.002406 0.016395 -0.002919 -0.004786 0.000214 0.009378
# 3 -0.002596 -0.002919 0.009097 -0.007731 -0.006090 0.000731
# 4 -0.000343 -0.004786 -0.007731 0.031383 0.008166 -0.005797
# 5 -0.000784 0.000214 -0.006090 0.008166 0.029810 -0.003205
# 6 -0.003094 0.009378 0.000731 -0.005797 -0.003205 0.042336
#
#
# Mechanical properties :
#
#
# Convention : Reuss Voigt Hill
#
# Bulk Modulus (GPa) = 33.09345 61.72261 47.40803
# Shear Modulus (GPa) = 28.48955 39.21020 33.84987
#
# Velocity S-wave (km/s) = 3.35623 3.93739 3.65837
# Velocity P-wave (km/s) = 5.30129 6.71378 6.04891
#
# Compressibility (1/GPa) = 0.03021746
#
# Stress axis : x y z
#
# Youngs Moduli (GPa) = 48.62062 60.99417 109.92668
#
# Poissons Ratio (x) = 0.14676 0.28534
# Poissons Ratio (y) = 0.11699 0.32088
# Poissons Ratio (z) = 0.12621 0.17804
#
# Static dielectric constant tensor:
#      x y z
#    x 2.136470 -0.037910 0.013160 
#    y -0.037910 2.179030 0.052900 
#    z 0.013160 0.052900 2.047160 
# 
# From -- ./inp_files/163218.got.cif
#   From: 2010.05.17/outbox.cif.g08.bks.cpg/sg2_82_cif.got.tgz:163218.got - 2010.06.03 11:33:40.
