data_PCOD9071652
_publ_section_title
;
Structure prediction by ZEFSAII (Michael W. Deem and Ramdas Pophale) SiO2 
 PCOD9071652
Probable space group: P -1
;
_chemical_formula_sum "Si O2"
_cell_formula_units_Z 8
_cell_length_a 9.357982
_cell_length_b 7.610593
_cell_length_c 9.357986
_cell_angle_alpha 50.253476
_cell_angle_beta 46.740954
_cell_angle_gamma 75.378387
_cell_volume 352.060647
_symmetry_space_group_name_H-M "P -1"
_symmetry_group_IT_number 2
_symmetry_cell_setting 'triclinic'
loop_
_space_group_symop_operation_xyz
x,y,z
-x,-y,-z
loop_
_atom_site_type_symbol
_atom_site_label
_atom_site_fract_x
_atom_site_fract_y
_atom_site_fract_z
Si Si1 0.373843 0.596884 0.276959
Si Si2 0.665382 0.304008 0.277622
Si Si3 0.081630 0.304007 0.861375
Si Si4 0.373039 0.008452 0.864587
O O1 0.516296 0.430508 0.237690
O O2 0.168198 0.430508 0.585788
O O3 0.500060 0.798867 0.201192
O O4 0.336769 0.745612 0.091157
O O5 0.792283 0.500000 0.207716
O O6 0.523733 0.080926 0.586176
O O7 0.842321 0.258218 0.084104
O O8 0.167102 0.080925 0.942808
#
# Coordination Sequence:
#
# PCOD9071652 Si02
#       4
#     2   2   2   2
#     4   8  13  19  24  29  35  40  45  51  56  61
#     4   8  13  19  24  29  35  40  45  51  56  61
#     4   8  13  19  24  29  35  40  45  51  56  61
#     4   8  13  19  24  29  35  40  45  51  56  61
#
# _framework density 22.723357
#
# number of rings (size 3 to 8) (size 9 to 14) (size 15 to 20)
#    0.000    4.000    0.000    3.000    0.000    2.000 
#    0.000   10.000    0.000    0.000    0.000    0.000 
#    0.000    0.000    0.000    0.000    0.000    0.000 
#
# Total GULP energy -44729.345308 kJ/mol
# GULP energy per Si atom -5591.168163 kJ/mol
# Density = 2.267164 g / cm^3
# Si number density = 22.723357 Si / 1000 Ang^3
#
#
#
# Elastic Constant Matrix: (Units=GPa)
#
#
# Indices 1 2 3 4 5 6 
#
# 1 97.8155 68.9334 85.6091 7.2535 20.9440 -29.7522
# 2 68.9334 193.5719 144.7082 26.2647 39.9440 -35.8137
# 3 85.6091 144.7082 214.8646 21.4271 25.9126 -62.4965
# 4 7.2535 26.2647 21.4271 47.7623 -4.8530 -1.6073
# 5 20.9440 39.9440 25.9126 -4.8530 47.1651 -15.1828
# 6 -29.7522 -35.8137 -62.4965 -1.6073 -15.1828 48.0920
#
#
#
# Elastic Compliance Matrix: (Units=1/GPa)
#
#
# Indices 1 2 3 4 5 6 
#
# 1 0.016602 -0.001446 -0.004659 0.000150 -0.002850 0.002244
# 2 -0.001446 0.013240 -0.008226 -0.004320 -0.007900 -0.004364
# 3 -0.004659 -0.008226 0.015045 -0.000653 0.004552 0.011958
# 4 0.000150 -0.004320 -0.000653 0.024153 0.006030 -0.001262
# 5 -0.002850 -0.007900 0.004552 0.006030 0.029816 0.007884
# 6 0.002244 -0.004364 0.011958 -0.001262 0.007884 0.036919
#
#
# Mechanical properties :
#
#
# Convention : Reuss Voigt Hill
#
# Bulk Modulus (GPa) = 61.63885 122.75036 92.19460
# Shear Modulus (GPa) = 29.43837 42.40397 35.92117
#
# Velocity S-wave (km/s) = 3.60323 4.32452 3.98025
# Velocity P-wave (km/s) = 6.67051 8.89225 7.86027
#
# Compressibility (1/GPa) = 0.01622353
#
# Stress axis : x y z
#
# Youngs Moduli (GPa) = 60.23344 75.52985 66.46600
#
# Poissons Ratio (x) = 0.10922 0.30969
# Poissons Ratio (y) = 0.08710 0.54677
# Poissons Ratio (z) = 0.28065 0.62134
#
# Static dielectric constant tensor:
#      x y z
#    x 1.880780 0.070520 -0.052510 
#    y 0.070520 1.821380 -0.030530 
#    z -0.052510 -0.030530 1.799610 
# 
# From -- ./inp_files/66023.got.cif
#   From: 2010.05.17/outbox.cif.g08.bks.cpg/sg2_34_cif.got.tgz:66023.got - 2010.06.03 11:33:40.
