data_PCOD9071518
_publ_section_title
;
Structure prediction by ZEFSAII (Michael W. Deem and Ramdas Pophale) SiO2 
 PCOD9071518
Probable space group: P -1
;
_chemical_formula_sum "Si O2"
_cell_formula_units_Z 16
_cell_length_a 22.631960
_cell_length_b 15.625748
_cell_length_c 5.594416
_cell_angle_alpha 111.158292
_cell_angle_beta 70.811593
_cell_angle_gamma 156.975401
_cell_volume 721.612152
_symmetry_space_group_name_H-M "P -1"
_symmetry_group_IT_number 2
_symmetry_cell_setting 'triclinic'
loop_
_space_group_symop_operation_xyz
x,y,z
-x,-y,-z
loop_
_atom_site_type_symbol
_atom_site_label
_atom_site_fract_x
_atom_site_fract_y
_atom_site_fract_z
Si Si1 0.308725 0.594892 0.175657
Si Si2 0.600197 0.781352 0.970073
Si Si3 0.358255 0.974626 0.622122
Si Si4 0.528508 0.251143 0.280141
Si Si5 0.039806 0.503027 0.701331
Si Si6 0.299332 0.396402 0.208128
Si Si7 0.128045 0.993403 0.163851
Si Si8 0.993215 0.745111 0.580090
O O1 0.476896 0.829575 0.295686
O O2 0.251325 0.412635 0.105792
O O3 0.184230 0.488964 0.356662
O O4 0.349443 0.653933 0.904009
O O5 0.666653 0.949076 0.225720
O O6 0.441738 0.533785 0.038497
O O7 0.549627 0.778243 0.815532
O O8 0.720700 0.864557 0.845701
O O9 0.391168 0.010724 0.334846
O O10 0.221482 0.740324 0.684117
O O11 0.625671 0.443065 0.522539
O O12 0.000000 0.500000 0.500000
O O13 0.965046 0.303462 0.587922
O O14 0.000000 0.500000 0.000000
O O15 0.175246 0.161352 0.226276
O O16 0.031141 0.852010 0.394287
O O17 0.064768 0.873700 0.868973
#
# Coordination Sequence:
#
# PCOD9071518 Si02
#       8
#     2   2   2   2   2   2   2   2
#     4   9  22  43  66  93 133 168 234 260 322 376
#     4   9  19  37  63  96 129 165 221 272 322 394
#     4   9  20  39  70  94 123 176 210 276 326 381
#     4   8  18  37  67  92 125 170 226 268 316 377
#     4  12  27  47  72 100 136 164 214 266 343 400
#     4   9  21  39  65  96 126 182 217 273 313 396
#     4  12  27  41  63  97 141 175 220 262 339 371
#     4  12  29  45  63  99 133 177 215 280 311 398
#
# _framework density 22.172577
#
# number of rings (size 3 to 8) (size 9 to 14) (size 15 to 20)
#    0.000    2.500    0.000    2.625   15.750    2.000 
#    0.000    0.625    0.000    0.000    0.000    0.000 
#    0.000    0.000    0.000    0.000    0.000    0.000 
#
# Total GULP energy -89119.769764 kJ/mol
# GULP energy per Si atom -5569.985610 kJ/mol
# Density = 2.212211 g / cm^3
# Si number density = 22.172577 Si / 1000 Ang^3
#
#
#
# Elastic Constant Matrix: (Units=GPa)
#
#
# Indices 1 2 3 4 5 6 
#
# 1 15.8403 14.8853 17.1334 -1.9752 -3.9853 0.6416
# 2 14.8853 96.9548 49.7639 -14.4328 9.1928 -15.3343
# 3 17.1334 49.7639 123.1469 -25.1973 11.2564 -2.9398
# 4 -1.9752 -14.4328 -25.1973 32.0517 -0.1779 -0.0216
# 5 -3.9853 9.1928 11.2564 -0.1779 26.7326 -6.0246
# 6 0.6416 -15.3343 -2.9398 -0.0216 -6.0246 30.8114
#
#
#
# Elastic Compliance Matrix: (Units=1/GPa)
#
#
# Indices 1 2 3 4 5 6 
#
# 1 0.091911 -0.012232 -0.011786 -0.008992 0.021710 -0.004887
# 2 -0.012232 0.016048 -0.003461 0.003733 -0.004264 0.007080
# 3 -0.011786 -0.003461 0.013396 0.008210 -0.006482 -0.001460
# 4 -0.008992 0.003733 0.008210 0.038752 -0.005418 0.001796
# 5 0.021710 -0.004264 -0.006482 -0.005418 0.046116 0.005820
# 6 -0.004887 0.007080 -0.001460 0.001796 0.005820 0.037081
#
#
# Mechanical properties :
#
#
# Convention : Reuss Voigt Hill
#
# Bulk Modulus (GPa) = 15.06042 44.38970 29.72506
# Shear Modulus (GPa) = 15.60587 28.19640 21.90114
#
# Velocity S-wave (km/s) = 2.65587 3.56993 3.14627
# Velocity P-wave (km/s) = 4.02641 6.08737 5.16082
#
# Compressibility (1/GPa) = 0.06639923
#
# Stress axis : x y z
#
# Youngs Moduli (GPa) = 10.88009 62.31283 74.64917
#
# Poissons Ratio (x) = 0.76219 0.87979
# Poissons Ratio (y) = 0.13308 0.25833
# Poissons Ratio (z) = 0.12823 0.21564
#
# Static dielectric constant tensor:
#      x y z
#    x 1.851770 0.007340 0.064950 
#    y 0.007340 1.838240 -0.039480 
#    z 0.064950 -0.039480 1.988770 
# 
# From -- ./inp_files/127520.got.cif
#   From: 2010.05.17/outbox.cif.g08.bks.cpg/sg2_64_cif.got.tgz:127520.got - 2010.06.03 11:33:40.
