data_PCOD9071086
_publ_section_title
;
Structure prediction by ZEFSAII (Michael W. Deem and Ramdas Pophale) SiO2 
 PCOD9071086
Probable space group: P -1
;
_chemical_formula_sum "Si O2"
_cell_formula_units_Z 12
_cell_length_a 5.062841
_cell_length_b 11.855847
_cell_length_c 7.782192
_cell_angle_alpha 97.165624
_cell_angle_beta 91.323782
_cell_angle_gamma 92.935666
_cell_volume 462.658770
_symmetry_space_group_name_H-M "P -1"
_symmetry_group_IT_number 2
_symmetry_cell_setting 'triclinic'
loop_
_space_group_symop_operation_xyz
x,y,z
-x,-y,-z
loop_
_atom_site_type_symbol
_atom_site_label
_atom_site_fract_x
_atom_site_fract_y
_atom_site_fract_z
Si Si1 0.989009 0.161287 0.776354
Si Si2 0.993652 0.734293 0.865215
Si Si3 0.588297 0.672002 0.302619
Si Si4 0.674135 0.949611 0.842552
Si Si5 0.058973 0.516752 0.299129
Si Si6 0.353821 0.815235 0.570848
O O1 0.288828 0.213124 0.767143
O O2 0.926839 0.032962 0.814842
O O3 0.832837 0.172527 0.596295
O O4 0.874224 0.236218 0.943273
O O5 0.185279 0.765619 0.716533
O O6 0.769161 0.825815 0.868750
O O7 0.911443 0.602948 0.815686
O O8 0.314464 0.598110 0.276863
O O9 0.567042 0.724139 0.504045
O O10 0.806802 0.583128 0.250183
O O11 0.500395 0.929558 0.664516
O O12 0.500000 0.000000 0.000000
O O13 0.000000 0.500000 0.500000
#
# Coordination Sequence:
#
# PCOD9071086 Si02
#       6
#     2   2   2   2   2   2
#     4  12  28  51  78 120 163 208 271 339 393 489
#     4  12  29  50  81 117 161 215 269 331 405 478
#     4  12  27  49  81 121 158 215 266 327 412 469
#     4  12  28  50  82 117 160 215 271 331 407 478
#     4  12  25  49  84 116 163 211 271 330 398 487
#     4  12  26  51  79 121 158 211 268 326 417 469
#
# _framework density 25.937042000000002
#
# number of rings (size 3 to 8) (size 9 to 14) (size 15 to 20)
#    0.000    0.000    5.000    3.500    4.667    4.000 
#    0.000    0.000    0.000    0.000    0.000    0.000 
#    0.000    0.000    0.000    0.000    0.000    0.000 
#
# Total GULP energy -67195.772941 kJ/mol
# GULP energy per Si atom -5599.647745 kJ/mol
# Density = 2.587801 g / cm^3
# Si number density = 25.937042 Si / 1000 Ang^3
#
#
#
# Elastic Constant Matrix: (Units=GPa)
#
#
# Indices 1 2 3 4 5 6 
#
# 1 149.6744 87.9280 64.0685 -1.4040 -19.9345 32.0983
# 2 87.9280 150.5770 84.7851 22.8260 -6.1317 25.7665
# 3 64.0685 84.7851 192.8850 10.5270 6.9198 13.3830
# 4 -1.4040 22.8260 10.5270 57.8326 -1.7767 -3.5342
# 5 -19.9345 -6.1317 6.9198 -1.7767 52.7994 4.8256
# 6 32.0983 25.7665 13.3830 -3.5342 4.8256 38.9372
#
#
#
# Elastic Compliance Matrix: (Units=1/GPa)
#
#
# Indices 1 2 3 4 5 6 
#
# 1 0.012810 -0.005580 -0.001661 0.002563 0.005104 -0.006697
# 2 -0.005580 0.013150 -0.003425 -0.004908 0.000012 -0.003371
# 3 -0.001661 -0.003425 0.007218 0.000020 -0.002099 0.001417
# 4 0.002563 -0.004908 0.000020 0.019482 0.000795 0.002798
# 5 0.005104 0.000012 -0.002099 0.000795 0.021729 -0.006115
# 6 -0.006697 -0.003371 0.001417 0.002798 -0.006115 0.033959
#
#
# Mechanical properties :
#
#
# Convention : Reuss Voigt Hill
#
# Bulk Modulus (GPa) = 84.42117 107.41109 95.91613
# Shear Modulus (GPa) = 37.41747 47.00416 42.21082
#
# Velocity S-wave (km/s) = 3.80231 4.26166 4.03852
# Velocity P-wave (km/s) = 7.20388 8.10665 7.66856
#
# Compressibility (1/GPa) = 0.01184537
#
# Stress axis : x y z
#
# Youngs Moduli (GPa) = 78.06350 76.04812 138.55111
#
# Poissons Ratio (x) = 0.42436 0.23007
# Poissons Ratio (y) = 0.43560 0.47457
# Poissons Ratio (z) = 0.12963 0.26048
#
# Static dielectric constant tensor:
#      x y z
#    x 2.146510 -0.060560 0.074790 
#    y -0.060560 2.043580 -0.015960 
#    z 0.074790 -0.015960 2.042200 
# 
# From -- ./inp_files/49550.got.cif
#   From: 2010.05.17/outbox.cif.g08.bks.cpg/sg2_25_cif.got.tgz:49550.got - 2010.06.03 11:33:40.
