data_PCOD9071802
_publ_section_title
;
Structure prediction by ZEFSAII (Michael W. Deem and Ramdas Pophale) SiO2 
 PCOD9071802
Probable space group: P -1
;
_chemical_formula_sum "Si O2"
_cell_formula_units_Z 14
_cell_length_a 12.000000
_cell_length_b 18.000000
_cell_length_c 12.000000
_cell_angle_alpha 40.000000
_cell_angle_beta 40.000000
_cell_angle_gamma 30.000000
_cell_volume 789.437246
_symmetry_space_group_name_H-M "P -1"
_symmetry_group_IT_number 2
_symmetry_cell_setting 'triclinic'
loop_
_space_group_symop_operation_xyz
x,y,z
-x,-y,-z
loop_
_atom_site_type_symbol
_atom_site_label
_atom_site_fract_x
_atom_site_fract_y
_atom_site_fract_z
Si Si1 0.928655 0.808259 0.691435
Si Si2 0.066327 0.607797 0.608259
Si Si3 0.342099 0.499578 0.035548
Si Si4 0.193479 0.345474 0.453177
Si Si5 0.533852 0.165448 0.587202
Si Si6 0.448359 0.580073 0.647854
Si Si7 0.846042 0.703498 0.092402
O O1 0.925508 0.739748 0.657582
O O2 0.202513 0.698756 0.636498
O O3 0.785033 0.991955 0.586606
O O4 0.826838 0.778165 0.905573
O O5 0.332626 0.529882 0.475778
O O6 0.085181 0.462247 0.788708
O O7 0.945702 0.671095 0.507120
O O8 0.329940 0.376791 0.235815
O O9 0.064752 0.656689 0.050744
O O10 0.500000 0.500000 0.000000
O O11 0.441901 0.480529 0.857959
O O12 0.375048 0.203941 0.558875
O O13 0.000000 0.500000 0.500000
O O14 0.532037 0.305825 0.433541
O O15 0.391098 0.189058 0.778336
#
# Coordination Sequence:
#
# PCOD9071802 Si02
#       7
#     2   2   2   2   2   2   2
#     4  11  22  34  52  83 111 139 175 216 269 310
#     4  10  20  36  57  77 107 141 179 218 257 315
#     4  10  16  29  56  83  95 127 185 223 246 301
#     4  11  18  35  59  80 101 138 180 220 260 309
#     4  11  20  35  55  80 111 138 174 222 262 312
#     4  10  20  34  55  78 105 143 176 215 257 316
#     4   9  20  34  55  78 103 143 178 213 258 315
#
# _framework density 17.734152000000002
#
# number of rings (size 3 to 8) (size 9 to 14) (size 15 to 20)
#    0.000    1.714    5.714    1.714    0.000    0.571 
#    0.000    0.000    0.000    0.857    0.000    0.000 
#    0.000    0.000    0.000    0.000    0.000    0.000 
#
# Total GULP energy -78021.765993 kJ/mol
# GULP energy per Si atom -5572.983285 kJ/mol
# Density = 1.769379 g / cm^3
# Si number density = 17.734152 Si / 1000 Ang^3
#
#
#
# Elastic Constant Matrix: (Units=GPa)
#
#
# Indices 1 2 3 4 5 6 
#
# 1 67.8545 17.5652 9.1293 15.1358 13.9935 3.7546
# 2 17.5652 47.1099 25.7563 11.3945 9.7365 13.9458
# 3 9.1293 25.7563 76.7766 13.7265 7.0123 -1.4267
# 4 15.1358 11.3945 13.7265 12.9508 -5.8007 -4.5231
# 5 13.9935 9.7365 7.0123 -5.8007 25.2983 1.9267
# 6 3.7546 13.9458 -1.4267 -4.5231 1.9267 13.9914
#
#
#
# Elastic Compliance Matrix: (Units=1/GPa)
#
#
# Indices 1 2 3 4 5 6 
#
# 1 -0.002684 -0.046286 -0.000978 0.084155 0.033585 0.069336
# 2 -0.046286 -0.032553 -0.018459 0.165918 0.074716 0.086334
# 3 -0.000978 -0.018459 0.018285 0.006939 0.002460 0.022431
# 4 0.084155 0.165918 0.006939 -0.347458 -0.170976 -0.276033
# 5 0.033585 0.074716 0.002460 -0.170976 -0.037535 -0.133338
# 6 0.069336 0.086334 0.022431 -0.276033 -0.133338 -0.101772
#
#
# Mechanical properties :
#
#
# Convention : Reuss Voigt Hill
#
# Bulk Modulus (GPa) = -6.73865 32.96029 13.11082
# Shear Modulus (GPa) = -11.85572 19.73411 3.93919
#
# Velocity S-wave (km/s) = -2.58839 3.33945 1.49200
# Velocity P-wave (km/s) = 3.56947 5.78751 3.22135
#
# Compressibility (1/GPa) = -0.14839760
#
# Stress axis : x y z
#
# Youngs Moduli (GPa) = -372.60419 -30.71912 54.68933
#
# Poissons Ratio (x) = -1.42185 0.05349
# Poissons Ratio (y) = -17.24622 1.00952
# Poissons Ratio (z) = -0.36443 -0.56705
#
# Static dielectric constant tensor:
#      x y z
#    x 1.650270 -0.022090 -0.008480 
#    y -0.022090 1.573100 0.009210 
#    z -0.008480 0.009210 1.623170 
# 
# From -- ./inp_files/164866.got.cif
#   From: 2010.05.17/outbox.ucp.g08.bks.cvg/sg2_83_cif.got.tgz:164866.got - 2010.06.11 11:32:03.
