data_PCOD9071586
_publ_section_title
;
Structure prediction by ZEFSAII (Michael W. Deem and Ramdas Pophale) SiO2 
 PCOD9071586
Probable space group: P -1
;
_chemical_formula_sum "Si O2"
_cell_formula_units_Z 13
_cell_length_a 9.529837
_cell_length_b 5.197118
_cell_length_c 11.449850
_cell_angle_alpha 96.974962
_cell_angle_beta 116.822757
_cell_angle_gamma 74.092300
_cell_volume 486.688195
_symmetry_space_group_name_H-M "P -1"
_symmetry_group_IT_number 2
_symmetry_cell_setting 'triclinic'
loop_
_space_group_symop_operation_xyz
x,y,z
-x,-y,-z
loop_
_atom_site_type_symbol
_atom_site_label
_atom_site_fract_x
_atom_site_fract_y
_atom_site_fract_z
Si Si1 0.160335 0.215574 0.793399
Si Si2 0.000000 0.000000 0.500000
Si Si3 0.230355 0.428519 0.599639
Si Si4 0.321699 0.687977 0.954712
Si Si5 0.897395 0.540358 0.845556
Si Si6 0.605469 0.329115 0.762322
Si Si7 0.204996 0.069199 0.364437
O O1 0.161061 0.226049 0.652080
O O2 0.275251 0.943738 0.868088
O O3 0.987075 0.275731 0.793831
O O4 0.220296 0.472648 0.873471
O O5 0.126477 0.941325 0.432300
O O6 0.896431 0.291708 0.415128
O O7 0.412189 0.427500 0.707159
O O8 0.246855 0.310980 0.469212
O O9 0.291433 0.450266 0.205132
O O10 0.316155 0.795252 0.091779
O O11 0.500000 0.500000 0.000000
O O12 0.900804 0.785175 0.776368
O O13 0.000000 0.500000 0.000000
O O14 0.647741 0.133721 0.656714
#
# Coordination Sequence:
#
# PCOD9071586 Si02
#       7
#     2   1   2   2   2   2   2
#     4  12  28  49  87 120 173 228 294 347 440 517
#     4  12  28  54  80 118 170 226 296 350 420 528
#     4  12  29  52  85 122 168 234 286 363 430 534
#     4  12  27  51  83 131 170 229 291 365 428 526
#     4  12  27  50  81 122 166 221 282 361 433 515
#     4  12  29  50  83 122 177 218 289 366 437 514
#     4  12  29  49  81 122 170 225 289 353 441 521
#
# _framework density 26.71115
#
# number of rings (size 3 to 8) (size 9 to 14) (size 15 to 20)
#    0.000    0.000    4.615    3.231    6.462    4.923 
#    0.000    0.000    0.000    0.000    0.000    0.000 
#    0.000    0.000    0.000    0.000    0.000    0.000 
#
# Total GULP energy -72661.548226 kJ/mol
# GULP energy per Si atom -5589.349864 kJ/mol
# Density = 2.665035 g / cm^3
# Si number density = 26.711150 Si / 1000 Ang^3
#
#
#
# Elastic Constant Matrix: (Units=GPa)
#
#
# Indices 1 2 3 4 5 6 
#
# 1 112.6616 35.5725 34.0501 -18.4999 -5.7539 -11.7239
# 2 35.5725 152.9911 37.0166 -23.8882 -11.3688 4.5295
# 3 34.0501 37.0166 187.9804 8.9342 -24.2142 1.6937
# 4 -18.4999 -23.8882 8.9342 60.5634 4.3150 -14.4131
# 5 -5.7539 -11.3688 -24.2142 4.3150 48.0117 3.1683
# 6 -11.7239 4.5295 1.6937 -14.4131 3.1683 42.8371
#
#
#
# Elastic Compliance Matrix: (Units=1/GPa)
#
#
# Indices 1 2 3 4 5 6 
#
# 1 0.011173 -0.001636 -0.002049 0.004269 -0.000783 0.004806
# 2 -0.001636 0.007686 -0.001232 0.002559 0.000800 -0.000410
# 3 -0.002049 -0.001232 0.006478 -0.002724 0.003096 -0.001832
# 4 0.004269 0.002559 -0.002724 0.021425 -0.002737 0.008417
# 5 -0.000783 0.000800 0.003096 -0.002737 0.022932 -0.003038
# 6 0.004806 -0.000410 -0.001832 0.008417 -0.003038 0.027832
#
#
# Mechanical properties :
#
#
# Convention : Reuss Voigt Hill
#
# Bulk Modulus (GPa) = 64.50117 74.10128 69.30123
# Shear Modulus (GPa) = 44.43356 53.41538 48.92447
#
# Velocity S-wave (km/s) = 4.08301 4.47670 4.28438
# Velocity P-wave (km/s) = 6.81381 7.38397 7.10461
#
# Compressibility (1/GPa) = 0.01550359
#
# Stress axis : x y z
#
# Youngs Moduli (GPa) = 89.50007 130.10729 154.36508
#
# Poissons Ratio (x) = 0.21286 0.31625
# Poissons Ratio (y) = 0.14642 0.19019
# Poissons Ratio (z) = 0.18336 0.16031
#
# Static dielectric constant tensor:
#      x y z
#    x 2.166340 0.037850 0.015910 
#    y 0.037850 1.937560 -0.018300 
#    z 0.015910 -0.018300 2.064400 
# 
# From -- ./inp_files/372670.got.cif
#   From: 2010.05.17/outbox.cif.g08.bks.cpg/sg2_187_cif.got.tgz:372670.got - 2010.06.03 11:33:40.
