data_PCOD9071233
_publ_section_title
;
Structure prediction by ZEFSAII (Michael W. Deem and Ramdas Pophale) SiO2 
 PCOD9071233
Probable space group: P -1
;
_chemical_formula_sum "Si O2"
_cell_formula_units_Z 14
_cell_length_a 20.122974
_cell_length_b 8.395767
_cell_length_c 8.656385
_cell_angle_alpha 129.769640
_cell_angle_beta 33.060911
_cell_angle_gamma 127.959140
_cell_volume 602.252979
_symmetry_space_group_name_H-M "P -1"
_symmetry_group_IT_number 2
_symmetry_cell_setting 'triclinic'
loop_
_space_group_symop_operation_xyz
x,y,z
-x,-y,-z
loop_
_atom_site_type_symbol
_atom_site_label
_atom_site_fract_x
_atom_site_fract_y
_atom_site_fract_z
Si Si1 0.469728 0.761207 0.971453
Si Si2 0.735387 0.611251 0.880639
Si Si3 0.098048 0.003237 0.676014
Si Si4 0.420194 0.113966 0.841703
Si Si5 0.710633 0.674931 0.319150
Si Si6 0.810851 0.250321 0.883568
Si Si7 0.020671 0.294858 0.740132
O O1 0.566043 0.640116 0.621261
O O2 0.332569 0.633036 0.126733
O O3 0.498735 0.776919 0.106657
O O4 0.500000 0.000000 0.000000
O O5 0.868390 0.644387 0.561443
O O6 0.645793 0.719761 0.014941
O O7 0.736400 0.712537 0.111149
O O8 0.224080 0.131903 0.583318
O O9 0.057802 0.132510 0.690184
O O10 0.112812 0.778982 0.438451
O O11 0.000000 0.000000 0.000000
O O12 0.500000 0.000000 0.500000
O O13 0.310620 0.929942 0.000223
O O14 0.771139 0.473874 0.116810
O O15 0.894692 0.210199 0.840340
O O16 0.000000 0.500000 0.000000
#
# Coordination Sequence:
#
# PCOD9071233 Si02
#       7
#     2   2   2   2   2   2   2
#     4  12  26  50  77 109 150 196 251 307 378 443
#     4  12  27  46  75 108 153 192 251 307 367 446
#     4  12  27  47  75 106 152 197 248 305 371 446
#     4  12  26  46  76 109 144 198 249 312 374 437
#     4  12  26  48  72 113 146 196 249 307 376 437
#     4  12  26  49  75 107 159 189 254 306 370 449
#     4  12  27  47  73 112 147 200 247 305 371 440
#
# _framework density 23.246046
#
# number of rings (size 3 to 8) (size 9 to 14) (size 15 to 20)
#    0.000    0.000    4.286    4.714    6.000    1.143 
#    0.000    0.000    0.000    0.000    0.000    0.000 
#    0.000    0.000    0.000    0.000    0.000    0.000 
#
# Total GULP energy -78512.072724 kJ/mol
# GULP energy per Si atom -5608.005195 kJ/mol
# Density = 2.319314 g / cm^3
# Si number density = 23.246046 Si / 1000 Ang^3
#
#
#
# Elastic Constant Matrix: (Units=GPa)
#
#
# Indices 1 2 3 4 5 6 
#
# 1 118.8130 5.7020 28.0751 12.6931 15.3777 3.4301
# 2 5.7020 56.0480 18.0760 9.8257 1.4342 2.0722
# 3 28.0751 18.0760 154.1708 2.5164 25.0038 4.6923
# 4 12.6931 9.8257 2.5164 38.7539 4.0816 4.3153
# 5 15.3777 1.4342 25.0038 4.0816 40.5915 4.3266
# 6 3.4301 2.0722 4.6923 4.3153 4.3266 38.2304
#
#
#
# Elastic Compliance Matrix: (Units=1/GPa)
#
#
# Indices 1 2 3 4 5 6 
#
# 1 0.009324 -0.000006 -0.001248 -0.002699 -0.002482 -0.000098
# 2 -0.000006 0.019451 -0.002404 -0.004873 0.001324 -0.000358
# 3 -0.001248 -0.002404 0.007676 0.001003 -0.004236 -0.000334
# 4 -0.002699 -0.004873 0.001003 0.028357 -0.001998 -0.002592
# 5 -0.002482 0.001324 -0.004236 -0.001998 0.028589 -0.002339
# 6 -0.000098 -0.000358 -0.000334 -0.002592 -0.002339 0.026784
#
#
# Mechanical properties :
#
#
# Convention : Reuss Voigt Hill
#
# Bulk Modulus (GPa) = 34.32083 48.08199 41.20141
# Shear Modulus (GPa) = 36.44091 41.99374 39.21732
#
# Velocity S-wave (km/s) = 3.96361 4.25489 4.11183
# Velocity P-wave (km/s) = 5.97856 6.69833 6.34865
#
# Compressibility (1/GPa) = 0.02913682
#
# Stress axis : x y z
#
# Youngs Moduli (GPa) = 107.24908 51.41022 130.27332
#
# Poissons Ratio (x) = 0.00030 0.16255
# Poissons Ratio (y) = 0.00063 0.31315
# Poissons Ratio (z) = 0.13382 0.12358
#
# Static dielectric constant tensor:
#      x y z
#    x 1.843780 -0.007650 -0.025520 
#    y -0.007650 1.888810 -0.026280 
#    z -0.025520 -0.026280 1.886710 
# 
# From -- ./inp_files/203529.got.cif
#   From: 2010.05.17/outbox.cif.g08.bks.cpg/sg2_102_cif.got.tgz:203529.got - 2010.06.03 11:33:40.
