data_PCOD9071849
_publ_section_title
;
Structure prediction by ZEFSAII (Michael W. Deem and Ramdas Pophale) SiO2 
 PCOD9071849
Probable space group: P -1
;
_chemical_formula_sum "Si O2"
_cell_formula_units_Z 12
_cell_length_a 13.541828
_cell_length_b 16.694133
_cell_length_c 22.550686
_cell_angle_alpha 160.947459
_cell_angle_beta 16.056790
_cell_angle_gamma 157.377222
_cell_volume 454.140622
_symmetry_space_group_name_H-M "P -1"
_symmetry_group_IT_number 2
_symmetry_cell_setting 'triclinic'
loop_
_space_group_symop_operation_xyz
x,y,z
-x,-y,-z
loop_
_atom_site_type_symbol
_atom_site_label
_atom_site_fract_x
_atom_site_fract_y
_atom_site_fract_z
Si Si1 0.728686 0.513504 0.045707
Si Si2 0.609083 0.100924 0.072574
Si Si3 0.660448 0.136029 0.311507
Si Si4 0.766198 0.578884 0.636771
Si Si5 0.511044 0.928336 0.756066
Si Si6 0.649198 0.725991 0.116907
O O1 0.627017 0.525240 0.181688
O O2 0.561210 0.658664 0.189619
O O3 0.143526 0.634588 0.888872
O O4 0.587643 0.225958 0.912595
O O5 0.822146 0.874414 0.809162
O O6 0.346847 0.119792 0.293630
O O7 0.500000 0.000000 0.000000
O O8 0.801342 0.417612 0.446229
O O9 0.391881 0.143805 0.416745
O O10 0.518960 0.968579 0.333142
O O11 0.000000 0.000000 0.000000
O O12 0.000000 0.500000 0.500000
O O13 0.090328 0.791412 0.907380
O O14 0.500000 0.500000 0.000000
#
# Coordination Sequence:
#
# PCOD9071849 Si02
#       6
#     2   2   2   2   2   2
#     4  10  20  38  58  89 120 158 203 251 296 361
#     4  10  23  43  65  86 115 164 210 247 301 366
#     4  10  19  35  53  84 127 159 189 244 302 356
#     4  11  23  37  59  93 129 154 197 255 302 358
#     4   9  19  34  56  84 113 152 200 244 291 354
#     4  10  18  29  55  84 117 157 193 231 297 357
#
# _framework density 26.423532999999999
#
# number of rings (size 3 to 8) (size 9 to 14) (size 15 to 20)
#    0.000    2.000    1.667    5.000    2.333    5.333 
#    0.000    0.833    0.000    2.000    0.000    0.000 
#    0.000    0.000    0.000    0.000    0.000    0.000 
#
# Total GULP energy -66877.531862 kJ/mol
# GULP energy per Si atom -5573.127655 kJ/mol
# Density = 2.636339 g / cm^3
# Si number density = 26.423533 Si / 1000 Ang^3
#
#
#
# Elastic Constant Matrix: (Units=GPa)
#
#
# Indices 1 2 3 4 5 6 
#
# 1 148.4446 28.5441 5.8364 2.8651 19.0407 10.8711
# 2 28.5441 153.7128 32.7465 12.1482 5.3827 2.4479
# 3 5.8364 32.7465 57.0704 19.9903 7.0747 9.4980
# 4 2.8651 12.1482 19.9903 37.3303 1.0002 10.1389
# 5 19.0407 5.3827 7.0747 1.0002 34.3590 17.0170
# 6 10.8711 2.4479 9.4980 10.1389 17.0170 30.8807
#
#
#
# Elastic Compliance Matrix: (Units=1/GPa)
#
#
# Indices 1 2 3 4 5 6 
#
# 1 0.007508 -0.001376 0.000668 -0.000228 -0.003791 -0.000575
# 2 -0.001376 0.007708 -0.004327 -0.000493 -0.000297 0.001530
# 3 0.000668 -0.004327 0.024613 -0.011231 -0.003526 -0.001832
# 4 -0.000228 -0.000493 -0.011231 0.036178 0.007669 -0.012531
# 5 -0.003791 -0.000297 -0.003526 0.007669 0.043726 -0.024171
# 6 -0.000575 0.001530 -0.001832 -0.012531 -0.024171 0.050461
#
#
# Mechanical properties :
#
#
# Convention : Reuss Voigt Hill
#
# Bulk Modulus (GPa) = 33.60616 54.83131 44.21874
# Shear Modulus (GPa) = 26.29035 39.98738 33.13887
#
# Velocity S-wave (km/s) = 3.15772 3.89437 3.54523
# Velocity P-wave (km/s) = 5.10302 6.40449 5.79043
#
# Compressibility (1/GPa) = 0.02975645
#
# Stress axis : x y z
#
# Youngs Moduli (GPa) = 133.19627 129.73362 40.62936
#
# Poissons Ratio (x) = 0.17857 -0.02712
# Poissons Ratio (y) = 0.18334 0.17581
# Poissons Ratio (z) = -0.08891 0.56137
#
# Static dielectric constant tensor:
#      x y z
#    x 2.282110 -0.154260 0.127400 
#    y -0.154260 2.224630 -0.322380 
#    z 0.127400 -0.322380 2.478340 
# 
# From -- ./inp_files/19097.got.cif
#   From: 2010.05.17/outbox.cif.g08.bks.cpg/sg2_10_cif.got.tgz:19097.got - 2010.06.03 11:33:40.
