data_PCOD9071401
_publ_section_title
;
Structure prediction by ZEFSAII (Michael W. Deem and Ramdas Pophale) SiO2 
 PCOD9071401
Probable space group: P -1
;
_chemical_formula_sum "Si O2"
_cell_formula_units_Z 15
_cell_length_a 18.659059
_cell_length_b 9.302316
_cell_length_c 5.473543
_cell_angle_alpha 111.496557
_cell_angle_beta 86.227971
_cell_angle_gamma 137.773616
_cell_volume 561.063900
_symmetry_space_group_name_H-M "P -1"
_symmetry_group_IT_number 2
_symmetry_cell_setting 'triclinic'
loop_
_space_group_symop_operation_xyz
x,y,z
-x,-y,-z
loop_
_atom_site_type_symbol
_atom_site_label
_atom_site_fract_x
_atom_site_fract_y
_atom_site_fract_z
Si Si1 0.559228 0.153292 0.826416
Si Si2 0.500000 0.500000 0.500000
Si Si3 0.791732 0.346377 0.429422
Si Si4 0.791515 0.592228 0.221126
Si Si5 0.697418 0.763231 0.420517
Si Si6 0.121484 0.761208 0.048637
Si Si7 0.018705 0.199187 0.007980
Si Si8 0.425585 0.207082 0.878985
O O1 0.541650 0.308283 0.902661
O O2 0.500000 0.000000 0.500000
O O3 0.692661 0.346295 0.933492
O O4 0.500000 0.000000 0.000000
O O5 0.609326 0.557247 0.514797
O O6 0.580460 0.748800 0.813218
O O7 0.771312 0.485988 0.422976
O O8 0.892761 0.542144 0.714562
O O9 0.671441 0.074068 0.342649
O O10 0.834809 0.292788 0.184512
O O11 0.770096 0.738943 0.298485
O O12 0.915151 0.736413 0.213675
O O13 0.595269 0.693758 0.258939
O O14 0.788042 0.045318 0.643838
O O15 0.000000 0.500000 0.000000
O O16 0.094716 0.888861 0.029976
O O17 0.000000 0.000000 0.000000
#
# Coordination Sequence:
#
# PCOD9071401 Si02
#       8
#     2   1   2   2   2   2   2   2
#     4  12  28  47  80 118 159 209 265 333 405 483
#     4  12  26  50  70 112 158 196 262 318 414 466
#     4  12  26  49  77 108 152 200 259 323 399 477
#     4  12  28  48  72 113 154 203 260 331 397 475
#     4  12  29  48  77 112 152 202 257 327 405 479
#     4  12  26  49  79 107 148 200 258 322 391 479
#     4  12  29  49  75 112 153 204 260 332 401 476
#     4  12  27  47  79 111 153 204 262 328 395 491
#
# _framework density 26.734919000000001
#
# number of rings (size 3 to 8) (size 9 to 14) (size 15 to 20)
#    0.000    0.000    5.333    3.200    7.467    2.133 
#    0.000    0.000    0.000    0.000    0.000    0.000 
#    0.000    0.000    0.000    0.000    0.000    0.000 
#
# Total GULP energy -83604.974478 kJ/mol
# GULP energy per Si atom -5573.664965 kJ/mol
# Density = 2.667407 g / cm^3
# Si number density = 26.734919 Si / 1000 Ang^3
#
#
#
# Elastic Constant Matrix: (Units=GPa)
#
#
# Indices 1 2 3 4 5 6 
#
# 1 139.8033 4.3247 15.7996 -2.4759 -7.8958 -16.0993
# 2 4.3247 91.8555 -5.7732 10.6869 -0.1773 -15.5005
# 3 15.7996 -5.7732 121.1799 30.7456 6.8960 -4.4003
# 4 -2.4759 10.6869 30.7456 34.6263 0.7836 3.0022
# 5 -7.8958 -0.1773 6.8960 0.7836 53.4689 3.1962
# 6 -16.0993 -15.5005 -4.4003 3.0022 3.1962 41.6749
#
#
#
# Elastic Compliance Matrix: (Units=1/GPa)
#
#
# Indices 1 2 3 4 5 6 
#
# 1 0.007703 -0.000204 -0.001393 0.001604 0.001141 0.002550
# 2 -0.000204 0.012755 0.002560 -0.006685 -0.000546 0.005459
# 3 -0.001393 0.002560 0.011642 -0.011414 -0.001687 0.002595
# 4 0.001604 -0.006685 -0.011414 0.041696 0.001446 -0.006186
# 5 0.001141 -0.000546 -0.001687 0.001446 0.019156 -0.001514
# 6 0.002550 0.005459 0.002595 -0.006186 -0.001514 0.027846
#
#
# Mechanical properties :
#
#
# Convention : Reuss Voigt Hill
#
# Bulk Modulus (GPa) = 29.39119 42.39342 35.89230
# Shear Modulus (GPa) = 38.39781 48.51986 43.45884
#
# Velocity S-wave (km/s) = 3.79389 4.26473 4.03618
# Velocity P-wave (km/s) = 5.49626 6.33576 5.93088
#
# Compressibility (1/GPa) = 0.03402380
#
# Stress axis : x y z
#
# Youngs Moduli (GPa) = 129.81718 78.40007 85.89679
#
# Poissons Ratio (x) = 0.01603 0.11970
# Poissons Ratio (y) = 0.02655 -0.21988
# Poissons Ratio (z) = 0.18090 -0.20069
#
# Static dielectric constant tensor:
#      x y z
#    x 2.179570 -0.071960 -0.003680 
#    y -0.071960 2.263590 -0.106880 
#    z -0.003680 -0.106880 2.308520 
# 
# From -- ./inp_files/40176.got.cif
#   From: 2010.05.17/outbox.cif.g08.bks.cpg/sg2_21_cif.got.tgz:40176.got - 2010.06.03 11:33:40.
