data_PCOD9071027
_publ_section_title
;
Structure prediction by ZEFSAII (Michael W. Deem and Ramdas Pophale) SiO2 
 PCOD9071027
Probable space group: P -1
;
_chemical_formula_sum "Si O2"
_cell_formula_units_Z 16
_cell_length_a 9.299193
_cell_length_b 15.208733
_cell_length_c 9.242553
_cell_angle_alpha 39.157280
_cell_angle_beta 110.629945
_cell_angle_gamma 108.836899
_cell_volume 769.748072
_symmetry_space_group_name_H-M "P -1"
_symmetry_group_IT_number 2
_symmetry_cell_setting 'triclinic'
loop_
_space_group_symop_operation_xyz
x,y,z
-x,-y,-z
loop_
_atom_site_type_symbol
_atom_site_label
_atom_site_fract_x
_atom_site_fract_y
_atom_site_fract_z
Si Si1 0.059240 0.933736 0.964626
Si Si2 0.910869 0.372758 0.720142
Si Si3 0.623134 0.937252 0.021134
Si Si4 0.081739 0.916066 0.508928
Si Si5 0.065071 0.373015 0.094956
Si Si6 0.567002 0.636810 0.766758
Si Si7 0.538796 0.361996 0.607110
Si Si8 0.604933 0.103922 0.501923
O O1 0.071251 0.770376 0.177595
O O2 0.932169 0.966400 0.764334
O O3 0.220187 0.025874 0.879301
O O4 0.000000 0.000000 0.000000
O O5 0.725139 0.368204 0.673225
O O6 0.000000 0.500000 0.500000
O O7 0.985197 0.367604 0.913956
O O8 0.641539 0.024667 0.766541
O O9 0.556914 0.776201 0.183094
O O10 0.500000 0.000000 0.000000
O O11 0.981995 0.769627 0.654668
O O12 0.250026 0.865076 0.595293
O O13 0.000000 0.000000 0.500000
O O14 0.249015 0.371575 0.147596
O O15 0.000000 0.500000 0.000000
O O16 0.514099 0.636199 0.581295
O O17 0.491402 0.767043 0.649205
O O18 0.500000 0.500000 0.000000
O O19 0.500000 0.500000 0.500000
O O20 0.500000 0.000000 0.500000
#
# Coordination Sequence:
#
# PCOD9071027 Si02
#       8
#     2   2   2   2   2   2   2   2
#     4  12  26  46  76 105 143 194 242 304 366 435
#     4  12  28  47  72 108 148 189 247 302 367 435
#     4  12  25  49  74 106 148 191 250 299 367 440
#     4  12  26  47  72 105 143 185 248 297 368 433
#     4  12  27  46  74 105 148 196 239 303 366 438
#     4  12  26  49  72 107 151 192 245 300 368 441
#     4  12  28  47  76 107 148 196 242 305 366 438
#     4  12  28  43  74 107 143 193 238 304 362 436
#
# _framework density 20.786020000000001
#
# number of rings (size 3 to 8) (size 9 to 14) (size 15 to 20)
#    0.000    0.000    5.000    3.750    8.750    0.000 
#    0.000    0.000    0.000    0.000    0.000    0.000 
#    0.000    0.000    0.000    0.000    0.000    0.000 
#
# Total GULP energy -89192.214202 kJ/mol
# GULP energy per Si atom -5574.513388 kJ/mol
# Density = 2.073871 g / cm^3
# Si number density = 20.786020 Si / 1000 Ang^3
#
#
#
# Elastic Constant Matrix: (Units=GPa)
#
#
# Indices 1 2 3 4 5 6 
#
# 1 190.9948 73.6939 38.7085 -27.3120 3.6214 -8.5614
# 2 73.6939 140.7314 38.5186 -26.3135 15.3083 -32.0639
# 3 38.7085 38.5186 87.9833 -32.7404 6.3371 -7.6806
# 4 -27.3120 -26.3135 -32.7404 62.7271 2.0609 4.3649
# 5 3.6214 15.3083 6.3371 2.0609 37.0431 -7.2893
# 6 -8.5614 -32.0639 -7.6806 4.3649 -7.2893 59.8801
#
#
#
# Elastic Compliance Matrix: (Units=1/GPa)
#
#
# Indices 1 2 3 4 5 6 
#
# 1 0.006880 -0.003358 -0.001347 0.000929 0.000703 -0.000969
# 2 -0.003358 0.011212 -0.002074 0.001932 -0.003126 0.004736
# 3 -0.001347 -0.002074 0.015505 0.006708 -0.002047 -0.000052
# 4 0.000929 0.001932 0.006708 0.020753 -0.003166 0.000130
# 5 0.000703 -0.003126 -0.002047 -0.003166 0.029127 0.001941
# 6 -0.000969 0.004736 -0.000052 0.000130 0.001941 0.019318
#
#
# Mechanical properties :
#
#
# Convention : Reuss Voigt Hill
#
# Bulk Modulus (GPa) = 49.89808 80.17241 65.03524
# Shear Modulus (GPa) = 40.63994 49.84926 45.24460
#
# Velocity S-wave (km/s) = 4.42651 4.90247 4.67056
# Velocity P-wave (km/s) = 7.08400 8.40831 7.77440
#
# Compressibility (1/GPa) = 0.02004085
#
# Stress axis : x y z
#
# Youngs Moduli (GPa) = 145.34198 89.18945 64.49538
#
# Poissons Ratio (x) = 0.29950 0.08685
# Poissons Ratio (y) = 0.48806 0.13374
# Poissons Ratio (z) = 0.19572 0.18495
#
# Static dielectric constant tensor:
#      x y z
#    x 2.107660 0.574670 0.230040 
#    y 0.574670 2.119250 0.119370 
#    z 0.230040 0.119370 1.706850 
# 
# From -- ./inp_files/205334.got.cif
#   From: 2010.05.17/outbox.cif.g08.bks.cpg/sg2_103_cif.got.tgz:205334.got - 2010.06.03 11:33:40.
