data_PCOD9071046
_publ_section_title
;
Structure prediction by ZEFSAII (Michael W. Deem and Ramdas Pophale) SiO2 
 PCOD9071046
Probable space group: P -1
;
_chemical_formula_sum "Si O2"
_cell_formula_units_Z 14
_cell_length_a 18.732364
_cell_length_b 12.330501
_cell_length_c 9.660742
_cell_angle_alpha 46.491699
_cell_angle_beta 143.007173
_cell_angle_gamma 152.983072
_cell_volume 607.740281
_symmetry_space_group_name_H-M "P -1"
_symmetry_group_IT_number 2
_symmetry_cell_setting 'triclinic'
loop_
_space_group_symop_operation_xyz
x,y,z
-x,-y,-z
loop_
_atom_site_type_symbol
_atom_site_label
_atom_site_fract_x
_atom_site_fract_y
_atom_site_fract_z
Si Si1 0.723769 0.570366 0.068589
Si Si2 0.191601 0.080288 0.907609
Si Si3 0.310904 0.853536 0.252521
Si Si4 0.300783 0.166241 0.710118
Si Si5 0.226109 0.341094 0.243033
Si Si6 0.667626 0.223048 0.965959
Si Si7 0.986591 0.617156 0.614808
O O1 0.715548 0.709644 0.029213
O O2 0.850901 0.567632 0.339411
O O3 0.508036 0.305185 0.943199
O O4 0.806186 0.699550 0.934827
O O5 0.228410 0.178840 0.724253
O O6 0.974409 0.853260 0.817250
O O7 0.267348 0.984925 0.100439
O O8 0.142994 0.584297 0.290472
O O9 0.500000 0.000000 0.500000
O O10 0.332651 0.839306 0.136399
O O11 0.329181 0.302674 0.504970
O O12 0.133764 0.887334 0.659098
O O13 0.336621 0.603488 0.206898
O O14 0.868043 0.370227 0.217447
O O15 0.500000 0.000000 0.000000
#
# Coordination Sequence:
#
# PCOD9071046 Si02
#       7
#     2   2   2   2   2   2   2
#     4  12  29  48  76 117 152 200 253 314 385 451
#     4  12  25  49  76 111 153 199 255 309 385 455
#     4  12  28  50  79 116 153 204 260 314 380 457
#     4  12  26  49  77 112 151 201 253 313 379 456
#     4  12  27  49  75 111 157 198 252 316 386 448
#     4  12  28  50  78 111 156 208 253 315 387 446
#     4  12  26  50  82 109 158 196 261 315 373 461
#
# _framework density 23.036155999999998
#
# number of rings (size 3 to 8) (size 9 to 14) (size 15 to 20)
#    0.000    0.000    4.286    4.714    6.000    1.714 
#    0.000    0.000    0.000    0.000    0.000    0.000 
#    0.000    0.000    0.000    0.000    0.000    0.000 
#
# Total GULP energy -78401.831728 kJ/mol
# GULP energy per Si atom -5600.130838 kJ/mol
# Density = 2.298372 g / cm^3
# Si number density = 23.036156 Si / 1000 Ang^3
#
#
#
# Elastic Constant Matrix: (Units=GPa)
#
#
# Indices 1 2 3 4 5 6 
#
# 1 105.3546 38.2227 58.8327 -13.3689 -17.0393 17.9585
# 2 38.2227 156.3885 65.7172 -16.5041 5.6319 24.6016
# 3 58.8327 65.7172 175.5376 -0.9503 -7.9317 9.2197
# 4 -13.3689 -16.5041 -0.9503 42.6774 14.6304 11.2919
# 5 -17.0393 5.6319 -7.9317 14.6304 29.8709 -9.7859
# 6 17.9585 24.6016 9.2197 11.2919 -9.7859 56.1840
#
#
#
# Elastic Compliance Matrix: (Units=1/GPa)
#
#
# Indices 1 2 3 4 5 6 
#
# 1 0.013638 -0.001100 -0.003778 0.003044 0.004481 -0.003089
# 2 -0.001100 0.010781 -0.003706 0.009403 -0.010712 -0.007517
# 3 -0.003778 -0.003706 0.008345 -0.004637 0.004046 0.003097
# 4 0.003044 0.009403 -0.004637 0.042042 -0.027622 -0.017590
# 5 0.004481 -0.010712 0.004046 -0.027622 0.058673 0.018365
# 6 -0.003089 -0.007517 0.003097 -0.017590 0.018365 0.028303
#
#
# Mechanical properties :
#
#
# Convention : Reuss Voigt Hill
#
# Bulk Modulus (GPa) = 64.11481 84.75845 74.43663
# Shear Modulus (GPa) = 27.15199 44.04701 35.59950
#
# Velocity S-wave (km/s) = 3.43690 4.37748 3.93539
# Velocity P-wave (km/s) = 6.60624 7.90084 7.28236
#
# Compressibility (1/GPa) = 0.01559702
#
# Stress axis : x y z
#
# Youngs Moduli (GPa) = 73.32472 92.75553 119.82694
#
# Poissons Ratio (x) = 0.10202 0.45269
# Poissons Ratio (y) = 0.08065 0.44406
# Poissons Ratio (z) = 0.27701 0.34374
#
# Static dielectric constant tensor:
#      x y z
#    x 1.887710 -0.025550 0.038630 
#    y -0.025550 1.856610 -0.023060 
#    z 0.038630 -0.023060 1.904890 
# 
# From -- ./inp_files/332975.got.cif
#   From: 2010.05.17/outbox.cif.g08.bks.cpg/sg2_167_cif.got.tgz:332975.got - 2010.06.03 11:33:40.
