data_PCOD9071984
_publ_section_title
;
Structure prediction by ZEFSAII (Michael W. Deem and Ramdas Pophale) SiO2 
 PCOD9071984
Probable space group: P -1
;
_chemical_formula_sum "Si O2"
_cell_formula_units_Z 16
_cell_length_a 13.747645
_cell_length_b 5.425537
_cell_length_c 12.026013
_cell_angle_alpha 97.776555
_cell_angle_beta 41.674124
_cell_angle_gamma 87.715721
_cell_volume 577.245228
_symmetry_space_group_name_H-M "P -1"
_symmetry_group_IT_number 2
_symmetry_cell_setting 'triclinic'
loop_
_space_group_symop_operation_xyz
x,y,z
-x,-y,-z
loop_
_atom_site_type_symbol
_atom_site_label
_atom_site_fract_x
_atom_site_fract_y
_atom_site_fract_z
Si Si1 0.358238 0.232494 0.262141
Si Si2 0.351668 0.414044 0.773945
Si Si3 0.947673 0.964033 0.903582
Si Si4 0.708791 0.058317 0.905620
Si Si5 0.645131 0.235389 0.611866
Si Si6 0.934762 0.292648 0.613506
Si Si7 0.310064 0.892267 0.691943
Si Si8 0.017872 0.568879 0.172640
O O1 0.459456 0.834905 0.901447
O O2 0.299577 0.522756 0.370060
O O3 0.302917 0.169906 0.183066
O O4 0.312480 0.025737 0.372137
O O5 0.465007 0.325633 0.772294
O O6 0.388713 0.649728 0.687551
O O7 0.361908 0.160774 0.676116
O O8 0.186572 0.495446 0.973606
O O9 0.832298 0.979676 0.895041
O O10 0.048356 0.168533 0.812536
O O11 0.041331 0.679663 0.813547
O O12 0.843976 0.039888 0.101833
O O13 0.766270 0.266155 0.792002
O O14 0.676057 0.196076 0.452285
O O15 0.990530 0.360578 0.689547
O O16 0.000000 0.500000 0.500000
O O17 0.000000 0.000000 0.500000
#
# Coordination Sequence:
#
# PCOD9071984 Si02
#       8
#     2   2   2   2   2   2   2   2
#     4  11  25  37  58  76 115 169 186 220 255 340
#     4  10  18  30  50  72 108 149 177 229 276 325
#     4   9  17  31  53  73 106 147 177 228 268 320
#     4  10  23  42  56  81 115 151 200 218 271 345
#     4  12  21  34  50  82 111 148 198 221 275 326
#     4  11  22  35  58  83 109 140 180 247 294 320
#     4  10  19  30  50  77 109 144 184 234 279 318
#     4   9  17  30  47  73 104 132 169 210 276 338
#
# _framework density 27.717856000000001
#
# number of rings (size 3 to 8) (size 9 to 14) (size 15 to 20)
#    0.000    1.750    0.000    7.500    0.000    6.000 
#    0.000    0.000    0.000    0.000    0.000    0.000 
#    0.000  126.000    0.000    0.000    0.000    0.000 
#
# Total GULP energy -89580.265258 kJ/mol
# GULP energy per Si atom -5598.766579 kJ/mol
# Density = 2.765477 g / cm^3
# Si number density = 27.717856 Si / 1000 Ang^3
#
#
#
# Elastic Constant Matrix: (Units=GPa)
#
#
# Indices 1 2 3 4 5 6 
#
# 1 106.6079 41.5961 46.3831 -2.4274 17.9255 17.9198
# 2 41.5961 275.2899 81.6456 -7.4674 34.0954 37.9819
# 3 46.3831 81.6456 145.1747 -1.2771 30.1369 7.8672
# 4 -2.4274 -7.4674 -1.2771 53.2146 6.5128 16.3927
# 5 17.9255 34.0954 30.1369 6.5128 73.7616 4.1113
# 6 17.9198 37.9819 7.8672 16.3927 4.1113 41.0985
#
#
#
# Elastic Compliance Matrix: (Units=1/GPa)
#
#
# Indices 1 2 3 4 5 6 
#
# 1 0.011992 0.000193 -0.003293 0.002405 -0.001560 -0.005580
# 2 0.000193 0.005318 -0.002441 0.002535 -0.001431 -0.005400
# 3 -0.003293 -0.002441 0.009607 -0.000734 -0.002063 0.002351
# 4 0.002405 0.002535 -0.000734 0.023372 -0.002835 -0.012290
# 5 -0.001560 -0.001431 -0.002063 -0.002835 0.015581 0.001969
# 6 -0.005580 -0.005400 0.002351 -0.012290 0.001969 0.036010
#
#
# Mechanical properties :
#
#
# Convention : Reuss Voigt Hill
#
# Bulk Modulus (GPa) = 63.14356 96.25801 79.70078
# Shear Modulus (GPa) = 42.28634 57.44478 49.86556
#
# Velocity S-wave (km/s) = 3.91013 4.55739 4.24611
# Velocity P-wave (km/s) = 6.57387 7.90546 7.27021
#
# Compressibility (1/GPa) = 0.01583693
#
# Stress axis : x y z
#
# Youngs Moduli (GPa) = 83.38557 188.03258 104.08800
#
# Poissons Ratio (x) = -0.03624 0.34273
# Poissons Ratio (y) = -0.01607 0.25404
# Poissons Ratio (z) = 0.27456 0.45891
#
# Static dielectric constant tensor:
#      x y z
#    x 2.251040 -0.045850 -0.044680 
#    y -0.045850 2.317100 -0.032250 
#    z -0.044680 -0.032250 2.098590 
# 
# From -- ./inp_files/458845.got.cif
#   From: 2010.05.17/outbox.cif.g08.bks.cpg/sg2_230_cif.got.tgz:458845.got - 2010.06.03 11:33:40.
