data_PCOD9071957
_publ_section_title
;
Structure prediction by ZEFSAII (Michael W. Deem and Ramdas Pophale) SiO2 
 PCOD9071957
Probable space group: P -1
;
_chemical_formula_sum "Si O2"
_cell_formula_units_Z 16
_cell_length_a 7.680471
_cell_length_b 8.809120
_cell_length_c 12.896015
_cell_angle_alpha 51.407962
_cell_angle_beta 119.120859
_cell_angle_gamma 105.999388
_cell_volume 595.265781
_symmetry_space_group_name_H-M "P -1"
_symmetry_group_IT_number 2
_symmetry_cell_setting 'triclinic'
loop_
_space_group_symop_operation_xyz
x,y,z
-x,-y,-z
loop_
_atom_site_type_symbol
_atom_site_label
_atom_site_fract_x
_atom_site_fract_y
_atom_site_fract_z
Si Si1 0.986709 0.350289 0.963383
Si Si2 0.462653 0.689204 0.767017
Si Si3 0.995046 0.224672 0.377085
Si Si4 0.977426 0.971637 0.731929
Si Si5 0.215600 0.276967 0.740585
Si Si6 0.395041 0.287278 0.993960
Si Si7 0.798243 0.410544 0.674343
Si Si8 0.636996 0.304914 0.476072
O O1 0.181380 0.368771 0.940119
O O2 0.011031 0.133216 0.109495
O O3 0.000000 0.500000 0.000000
O O4 0.809605 0.359824 0.821758
O O5 0.223807 0.699292 0.686382
O O6 0.516874 0.809609 0.834118
O O7 0.522320 0.730680 0.648063
O O8 0.521793 0.469545 0.913728
O O9 0.162020 0.359922 0.411166
O O10 0.000000 0.000000 0.500000
O O11 0.012022 0.207386 0.266872
O O12 0.786959 0.114754 0.594144
O O13 0.167167 0.106559 0.720476
O O14 0.289134 0.477374 0.627217
O O15 0.996863 0.326371 0.707253
O O16 0.349145 0.193755 0.910124
O O17 0.622750 0.332173 0.585148
#
# Coordination Sequence:
#
# PCOD9071957 Si02
#       8
#     2   2   2   2   2   2   2   2
#     4  11  20  35  51  77 107 138 176 217 257 315
#     4  10  18  33  54  77 103 140 175 214 263 307
#     4  12  18  30  53  83 105 129 171 223 265 301
#     4  11  20  29  54  79 105 137 171 218 270 297
#     4   9  17  33  50  79 105 129 175 223 257 307
#     4   9  19  34  54  74 105 142 176 208 258 321
#     4  10  18  30  49  75 106 131 169 219 257 299
#     4  10  18  32  51  79 106 131 175 224 257 306
#
# _framework density 26.878748000000002
#
# number of rings (size 3 to 8) (size 9 to 14) (size 15 to 20)
#    0.000    1.750    6.250    2.250    0.000    4.500 
#    0.000    1.250    0.000    2.250    0.000    0.000 
#    0.000    1.000    0.000    0.000    0.000    0.000 
#
# Total GULP energy -89151.414627 kJ/mol
# GULP energy per Si atom -5571.963414 kJ/mol
# Density = 2.681757 g / cm^3
# Si number density = 26.878748 Si / 1000 Ang^3
#
#
#
# Elastic Constant Matrix: (Units=GPa)
#
#
# Indices 1 2 3 4 5 6 
#
# 1 47.1367 13.0965 8.5742 0.9686 6.1002 -4.8957
# 2 13.0965 120.4728 58.4284 28.0324 0.9332 0.0824
# 3 8.5742 58.4284 212.4643 29.1879 -18.2448 7.3901
# 4 0.9686 28.0324 29.1879 55.2499 9.3213 -5.8293
# 5 6.1002 0.9332 -18.2448 9.3213 21.0950 0.7814
# 6 -4.8957 0.0824 7.3901 -5.8293 0.7814 28.3564
#
#
#
# Elastic Compliance Matrix: (Units=1/GPa)
#
#
# Indices 1 2 3 4 5 6 
#
# 1 0.024220 -0.002609 -0.001994 0.004394 -0.010774 0.005909
# 2 -0.002609 0.010646 -0.002162 -0.004363 0.000372 -0.000825
# 3 -0.001994 -0.002162 0.006814 -0.004252 0.008564 -0.003224
# 4 0.004394 -0.004363 -0.004252 0.026091 -0.016569 0.007700
# 5 -0.010774 0.000372 0.008564 -0.016569 0.065577 -0.009306
# 6 0.005909 -0.000825 -0.003224 0.007700 -0.009306 0.038967
#
#
# Mechanical properties :
#
#
# Convention : Reuss Voigt Hill
#
# Bulk Modulus (GPa) = 35.52539 60.03021 47.77780
# Shear Modulus (GPa) = 25.61113 40.93857 33.27485
#
# Velocity S-wave (km/s) = 3.09016 3.90690 3.52228
# Velocity P-wave (km/s) = 5.09683 6.53713 5.86139
#
# Compressibility (1/GPa) = 0.02814889
#
# Stress axis : x y z
#
# Youngs Moduli (GPa) = 41.28791 93.93321 146.76718
#
# Poissons Ratio (x) = 0.24504 0.29270
# Poissons Ratio (y) = 0.10771 0.31736
# Poissons Ratio (z) = 0.08234 0.20312
#
# Static dielectric constant tensor:
#      x y z
#    x 2.186920 -0.011390 -0.035840 
#    y -0.011390 2.138270 0.099660 
#    z -0.035840 0.099660 2.316950 
# 
# From -- ./inp_files/391041.got.cif
#   From: 2010.05.17/outbox.cif.g08.bks.cpg/sg2_196_cif.got.tgz:391041.got - 2010.06.03 11:33:40.
