data_PCOD9071633
_publ_section_title
;
Structure prediction by ZEFSAII (Michael W. Deem and Ramdas Pophale) SiO2 
 PCOD9071633
Probable space group: P -1
;
_chemical_formula_sum "Si O2"
_cell_formula_units_Z 14
_cell_length_a 13.037261
_cell_length_b 7.012133
_cell_length_c 8.007119
_cell_angle_alpha 69.394212
_cell_angle_beta 128.212202
_cell_angle_gamma 120.689458
_cell_volume 493.889396
_symmetry_space_group_name_H-M "P -1"
_symmetry_group_IT_number 2
_symmetry_cell_setting 'triclinic'
loop_
_space_group_symop_operation_xyz
x,y,z
-x,-y,-z
loop_
_atom_site_type_symbol
_atom_site_label
_atom_site_fract_x
_atom_site_fract_y
_atom_site_fract_z
Si Si1 0.648135 0.387442 0.160820
Si Si2 0.144710 0.812312 0.204676
Si Si3 0.987987 0.338563 0.228917
Si Si4 0.590027 0.940913 0.799115
Si Si5 0.931341 0.642240 0.281807
Si Si6 0.764392 0.020854 0.296055
Si Si7 0.525842 0.692626 0.335647
O O1 0.786038 0.620478 0.225980
O O2 0.537180 0.299575 0.227836
O O3 0.714381 0.201128 0.277615
O O4 0.565102 0.369773 0.909324
O O5 0.296740 0.997404 0.255637
O O6 0.135781 0.558563 0.306713
O O7 0.057178 0.849496 0.261341
O O8 0.053848 0.775668 0.954930
O O9 0.887356 0.476823 0.124141
O O10 0.929715 0.144063 0.368830
O O11 0.526411 0.128287 0.686675
O O12 0.680129 0.972985 0.050558
O O13 0.000000 0.500000 0.500000
O O14 0.690162 0.807861 0.402740
O O15 0.500000 0.500000 0.500000
#
# Coordination Sequence:
#
# PCOD9071633 Si02
#       7
#     2   2   2   2   2   2   2
#     4   8  14  24  37  55  78 104 127 154 194 239
#     4   8  13  22  39  59  76 100 131 156 194 236
#     4   7  12  21  37  54  75 102 125 146 194 234
#     4   8  13  23  38  56  73 102 132 155 189 240
#     4   9  15  23  37  61  83  99 125 166 200 221
#     4   7  11  22  36  54  73 101 126 153 190 239
#     4   9  15  21  36  60  83 100 128 166 195 221
#
# _framework density 28.346428
#
# number of rings (size 3 to 8) (size 9 to 14) (size 15 to 20)
#    0.857    3.143    0.000    2.571    0.000    0.000 
#    0.000    0.714    0.000    0.857    0.000   10.000 
#    0.000    0.000    0.000    0.000    0.000    0.000 
#
# Total GULP energy -78051.571897 kJ/mol
# GULP energy per Si atom -5575.112278 kJ/mol
# Density = 2.828191 g / cm^3
# Si number density = 28.346428 Si / 1000 Ang^3
#
#
#
# Elastic Constant Matrix: (Units=GPa)
#
#
# Indices 1 2 3 4 5 6 
#
# 1 119.1413 84.2135 47.3994 -32.1208 -18.1221 48.9209
# 2 84.2135 189.4583 76.1714 -13.7143 -5.7935 85.2596
# 3 47.3994 76.1714 79.2838 -21.4392 -18.8445 1.0371
# 4 -32.1208 -13.7143 -21.4392 48.7638 10.0049 -8.6170
# 5 -18.1221 -5.7935 -18.8445 10.0049 42.3452 -34.6935
# 6 48.9209 85.2596 1.0371 -8.6170 -34.6935 72.0958
#
#
#
# Elastic Compliance Matrix: (Units=1/GPa)
#
#
# Indices 1 2 3 4 5 6 
#
# 1 0.015366 -0.006965 0.000781 0.007663 0.005130 0.001183
# 2 -0.006965 -0.005442 0.013426 -0.000532 0.018670 0.019889
# 3 0.000781 0.013426 -0.005328 0.001845 -0.022839 -0.027101
# 4 0.007663 -0.000532 0.001845 0.026646 -0.005655 -0.004134
# 5 0.005130 0.018670 -0.022839 -0.005655 -0.002788 -0.027249
# 6 0.001183 0.019889 -0.027101 -0.004134 -0.027249 -0.023670
#
#
# Mechanical properties :
#
#
# Convention : Reuss Voigt Hill
#
# Bulk Modulus (GPa) = 52.41090 89.27243 70.84166
# Shear Modulus (GPa) = -1497.93585 44.64757 -726.64414
#
# Velocity S-wave (km/s) = -23.01274 3.97302 -16.02812
# Velocity P-wave (km/s) = 26.22185 7.25315 17.81821
#
# Compressibility (1/GPa) = 0.01908000
#
# Stress axis : x y z
#
# Youngs Moduli (GPa) = 65.07765 -183.77043 -187.69107
#
# Poissons Ratio (x) = -1.28000 0.14660
# Poissons Ratio (y) = 0.45328 2.51989
# Poissons Ratio (z) = -0.05083 2.46726
#
# Static dielectric constant tensor:
#      x y z
#    x 2.297320 0.026890 -0.102800 
#    y 0.026890 2.358980 0.094570 
#    z -0.102800 0.094570 2.297930 
# 
# From -- ./inp_files/251914.got.cif
#   From: 2010.05.17/outbox.cif.g08.bks.cpg/sg2_126_cif.got.tgz:251914.got - 2010.06.03 11:33:40.
