data_PCOD9071959
_publ_section_title
;
Structure prediction by ZEFSAII (Michael W. Deem and Ramdas Pophale) SiO2 
 PCOD9071959
Probable space group: P -1
;
_chemical_formula_sum "Si O2"
_cell_formula_units_Z 14
_cell_length_a 11.356737
_cell_length_b 8.514157
_cell_length_c 10.671646
_cell_angle_alpha 132.549859
_cell_angle_beta 50.000712
_cell_angle_gamma 133.250128
_cell_volume 521.809271
_symmetry_space_group_name_H-M "P -1"
_symmetry_group_IT_number 2
_symmetry_cell_setting 'triclinic'
loop_
_space_group_symop_operation_xyz
x,y,z
-x,-y,-z
loop_
_atom_site_type_symbol
_atom_site_label
_atom_site_fract_x
_atom_site_fract_y
_atom_site_fract_z
Si Si1 0.489019 0.803764 0.591915
Si Si2 0.216714 0.745135 0.468901
Si Si3 0.172086 0.975976 0.390293
Si Si4 0.939275 0.722711 0.812699
Si Si5 0.528865 0.511903 0.199818
Si Si6 0.320012 0.108482 0.929555
Si Si7 0.841017 0.431268 0.979751
O O1 0.402608 0.949300 0.425566
O O2 0.434120 0.600456 0.415534
O O3 0.642916 0.812487 0.581089
O O4 0.349576 0.872291 0.786599
O O5 0.118178 0.806695 0.457829
O O6 0.182401 0.481948 0.314369
O O7 0.129966 0.781573 0.671224
O O8 0.210646 0.835840 0.176496
O O9 0.000000 0.000000 0.500000
O O10 0.899019 0.589070 0.899096
O O11 0.874792 0.924230 0.949450
O O12 0.610087 0.716986 0.147052
O O13 0.425669 0.272507 0.062562
O O14 0.680285 0.479978 0.153701
O O15 0.000000 0.500000 0.000000
#
# Coordination Sequence:
#
# PCOD9071959 Si02
#       7
#     2   2   2   2   2   2   2
#     4  10  18  31  52  79 105 133 178 217 257 309
#     4   8  17  31  52  78 104 141 169 214 271 306
#     4   9  17  31  51  77 104 133 177 216 254 309
#     4   9  17  33  52  77 113 135 169 215 270 314
#     4  10  18  30  49  76 104 134 174 219 257 301
#     4  10  18  31  50  78 108 135 173 217 259 311
#     4  10  18  30  49  76 106 137 175 216 259 305
#
# _framework density 26.829726000000001
#
# number of rings (size 3 to 8) (size 9 to 14) (size 15 to 20)
#    0.857    1.714    1.429    3.000    0.000    0.000 
#    0.000    2.857    0.000    4.286    0.000   26.000 
#    0.000    0.143    0.000    0.000    0.000    0.000 
#
# Total GULP energy -78244.441815 kJ/mol
# GULP energy per Si atom -5588.888701 kJ/mol
# Density = 2.676866 g / cm^3
# Si number density = 26.829726 Si / 1000 Ang^3
#
#
#
# Elastic Constant Matrix: (Units=GPa)
#
#
# Indices 1 2 3 4 5 6 
#
# 1 193.1294 -1.6657 66.4400 21.8977 -13.1633 19.5464
# 2 -1.6657 49.2794 -0.2157 1.5079 6.1250 -5.6957
# 3 66.4400 -0.2157 154.8144 20.5747 -15.1254 -3.8487
# 4 21.8977 1.5079 20.5747 25.5455 15.0352 2.2984
# 5 -13.1633 6.1250 -15.1254 15.0352 49.9254 10.3197
# 6 19.5464 -5.6957 -3.8487 2.2984 10.3197 26.4400
#
#
#
# Elastic Compliance Matrix: (Units=1/GPa)
#
#
# Indices 1 2 3 4 5 6 
#
# 1 0.007906 -0.001105 -0.002039 -0.007611 0.005522 -0.007873
# 2 -0.001105 0.021668 -0.000093 0.002099 -0.005116 0.007286
# 3 -0.002039 -0.000093 0.008853 -0.008007 0.004187 0.001838
# 4 -0.007611 0.002099 -0.008007 0.066920 -0.026820 0.009564
# 5 0.005522 -0.005116 0.004187 -0.026820 0.034724 -0.015796
# 6 -0.007873 0.007286 0.001838 0.009564 -0.015796 0.050813
#
#
# Mechanical properties :
#
#
# Convention : Reuss Voigt Hill
#
# Bulk Modulus (GPa) = 31.29636 58.48227 44.88932
# Shear Modulus (GPa) = 24.03728 42.55982 33.29855
#
# Velocity S-wave (km/s) = 2.99644 3.98715 3.52676
# Velocity P-wave (km/s) = 4.86433 6.56059 5.77508
#
# Compressibility (1/GPa) = 0.03195260
#
# Stress axis : x y z
#
# Youngs Moduli (GPa) = 126.48577 46.15013 112.95254
#
# Poissons Ratio (x) = 0.05100 0.23034
# Poissons Ratio (y) = 0.13978 0.01053
# Poissons Ratio (z) = 0.25794 0.00430
#
# Static dielectric constant tensor:
#      x y z
#    x 2.157120 0.031760 0.010670 
#    y 0.031760 2.102970 0.023050 
#    z 0.010670 0.023050 2.220740 
# 
# From -- ./inp_files/256215.got.cif
#   From: 2010.05.17/outbox.cif.g08.bks.cpg/sg2_129_cif.got.tgz:256215.got - 2010.06.03 11:33:40.
