data_PCOD9071258
_publ_section_title
;
Structure prediction by ZEFSAII (Michael W. Deem and Ramdas Pophale) SiO2 
 PCOD9071258
Probable space group: P -1
;
_chemical_formula_sum "Si O2"
_cell_formula_units_Z 12
_cell_length_a 14.970153
_cell_length_b 8.365941
_cell_length_c 15.121721
_cell_angle_alpha 75.496568
_cell_angle_beta 161.295025
_cell_angle_gamma 94.957384
_cell_volume 513.979094
_symmetry_space_group_name_H-M "P -1"
_symmetry_group_IT_number 2
_symmetry_cell_setting 'triclinic'
loop_
_space_group_symop_operation_xyz
x,y,z
-x,-y,-z
loop_
_atom_site_type_symbol
_atom_site_label
_atom_site_fract_x
_atom_site_fract_y
_atom_site_fract_z
Si Si1 0.841892 0.767890 0.148261
Si Si2 0.817348 0.878748 0.756301
Si Si3 0.950469 0.126827 0.210161
Si Si4 0.462886 0.417990 0.234133
Si Si5 0.319308 0.964892 0.755292
Si Si6 0.468478 0.685316 0.484785
O O1 0.224599 0.642464 0.524879
O O2 0.805427 0.981602 0.087546
O O3 0.740841 0.673331 0.987021
O O4 0.609267 0.777148 0.008503
O O5 0.777887 0.694689 0.742910
O O6 0.818684 0.934751 0.649502
O O7 0.500000 0.000000 0.500000
O O8 0.145170 0.839687 0.112786
O O9 0.154816 0.088463 0.495984
O O10 0.717110 0.353290 0.955224
O O11 0.565735 0.324157 0.440829
O O12 0.000000 0.000000 0.500000
O O13 0.500000 0.000000 0.000000
O O14 0.500000 0.500000 0.500000
#
# Coordination Sequence:
#
# PCOD9071258 Si02
#       6
#     2   2   2   2   2   2
#     4  12  27  51  79 115 151 201 256 323 382 464
#     4  12  28  46  73 111 150 207 259 305 375 458
#     4  12  29  50  84 111 160 206 258 317 396 453
#     4  12  28  47  80 114 157 209 256 311 386 460
#     4  12  26  52  83 112 154 199 251 331 395 455
#     4  12  26  47  67 106 163 195 253 314 367 439
#
# _framework density 23.347252000000001
#
# number of rings (size 3 to 8) (size 9 to 14) (size 15 to 20)
#    0.000    0.000    5.000    3.000    9.333    0.000 
#    0.000    5.000    0.000    0.000    0.000    0.000 
#    0.000    0.000    0.000    0.000    0.000    0.000 
#
# Total GULP energy -66867.798058 kJ/mol
# GULP energy per Si atom -5572.316505 kJ/mol
# Density = 2.329411 g / cm^3
# Si number density = 23.347252 Si / 1000 Ang^3
#
#
#
# Elastic Constant Matrix: (Units=GPa)
#
#
# Indices 1 2 3 4 5 6 
#
# 1 144.1169 37.7390 77.4787 -7.8447 4.2333 -32.8858
# 2 37.7390 118.1861 15.6926 25.6316 -2.8316 -3.9593
# 3 77.4787 15.6926 110.0383 39.7999 -1.1377 19.5289
# 4 -7.8447 25.6316 39.7999 41.8023 0.5905 -7.9368
# 5 4.2333 -2.8316 -1.1377 0.5905 53.2649 16.2280
# 6 -32.8858 -3.9593 19.5289 -7.9368 16.2280 16.3224
#
#
#
# Elastic Compliance Matrix: (Units=1/GPa)
#
#
# Indices 1 2 3 4 5 6 
#
# 1 0.000206 0.000621 0.005206 -0.008027 0.004492 -0.014033
# 2 0.000621 0.009164 -0.002493 -0.001674 -0.001888 0.007521
# 3 0.005206 -0.002493 0.000325 0.005803 -0.006250 0.018532
# 4 -0.008027 -0.001674 0.005803 0.012967 0.008284 -0.025453
# 5 0.004492 -0.001888 -0.006250 0.008284 0.017169 0.003029
# 6 -0.014033 0.007521 0.018532 -0.025453 0.003029 -0.002742
#
#
# Mechanical properties :
#
#
# Convention : Reuss Voigt Hill
#
# Bulk Modulus (GPa) = 61.11073 70.46242 65.78657
# Shear Modulus (GPa) = 139.37913 38.37331 88.87622
#
# Velocity S-wave (km/s) = 7.73485 4.05852 6.17655
# Velocity P-wave (km/s) = 10.29573 7.22550 8.89410
#
# Compressibility (1/GPa) = 0.01636374
#
# Stress axis : x y z
#
# Youngs Moduli (GPa) = 4852.00808 109.12729 3078.42095
#
# Poissons Ratio (x) = -0.06780 -16.02770
# Poissons Ratio (y) = -3.01444 7.67498
# Poissons Ratio (z) = -25.26183 0.27207
#
# Static dielectric constant tensor:
#      x y z
#    x 1.892640 -0.013620 0.031350 
#    y -0.013620 2.217230 -0.066110 
#    z 0.031350 -0.066110 1.896500 
# 
# From -- ./inp_files/528535.got.cif
#   From: 2010.05.17/outbox.cif.g08.bks.cpg/sg2_265_cif.got.tgz:528535.got - 2010.06.03 11:33:40.
