data_PCOD9071644
_publ_section_title
;
Structure prediction by ZEFSAII (Michael W. Deem and Ramdas Pophale) SiO2 
 PCOD9071644
Probable space group: P -1
;
_chemical_formula_sum "Si O2"
_cell_formula_units_Z 8
_cell_length_a 6.956796
_cell_length_b 6.956795
_cell_length_c 5.744861
_cell_angle_alpha 78.085740
_cell_angle_beta 78.085803
_cell_angle_gamma 80.285054
_cell_volume 263.864113
_symmetry_space_group_name_H-M "P -1"
_symmetry_group_IT_number 2
_symmetry_cell_setting 'triclinic'
loop_
_space_group_symop_operation_xyz
x,y,z
-x,-y,-z
loop_
_atom_site_type_symbol
_atom_site_label
_atom_site_fract_x
_atom_site_fract_y
_atom_site_fract_z
Si Si1 0.482807 0.267193 0.312498
Si Si2 0.017195 0.232807 0.437498
Si Si3 0.982805 0.767193 0.062502
Si Si4 0.482808 0.267192 0.812498
O O1 0.250001 0.249999 0.374998
O O2 0.565573 0.184428 0.562498
O O3 0.499999 0.500000 0.250000
O O4 0.565572 0.184428 0.062499
O O5 0.934430 0.315572 0.187498
O O6 0.000000 0.000000 0.500000
O O7 0.065570 0.684428 0.312502
O O8 0.749999 0.750000 0.125003
O O9 0.000000 0.000000 0.000000
#
# Coordination Sequence:
#
# PCOD9071644 Si02
#       4
#     2   2   2   2
#     4   8  12  16  20  24  28  32  36  40  44  48
#     4   8  12  16  20  24  28  32  36  40  44  48
#     4   8  12  16  20  24  28  32  36  40  44  48
#     4   8  12  16  20  24  28  32  36  40  44  48
#
# _framework density 30.318638
#
# number of rings (size 3 to 8) (size 9 to 14) (size 15 to 20)
#    0.000    4.000    0.000    0.000    0.000    0.000 
#    0.000    0.000    0.000    0.000    0.000    0.000 
#    0.000    0.000    0.000    0.000    0.000    0.000 
#
# Total GULP energy -44891.804921 kJ/mol
# GULP energy per Si atom -5611.475615 kJ/mol
# Density = 3.024963 g / cm^3
# Si number density = 30.318638 Si / 1000 Ang^3
#
#
#
# Elastic Constant Matrix: (Units=GPa)
#
#
# Indices 1 2 3 4 5 6 
#
# 1 134.8053 90.5347 44.3796 -4.9283 -3.6769 10.6697
# 2 90.5347 171.2666 31.2321 -12.8999 -11.7252 36.3329
# 3 44.3796 31.2321 447.7970 50.2660 52.6096 -9.3685
# 4 -4.9283 -12.8999 50.2660 61.9960 24.7865 -7.0586
# 5 -3.6769 -11.7252 52.6096 24.7865 50.3316 -4.5565
# 6 10.6697 36.3329 -9.3685 -7.0586 -4.5565 60.0827
#
#
#
# Elastic Compliance Matrix: (Units=1/GPa)
#
#
# Indices 1 2 3 4 5 6 
#
# 1 0.011900 -0.006491 -0.000743 0.000349 0.000121 0.001746
# 2 -0.006491 0.010623 -0.000493 0.000859 0.001628 -0.005124
# 3 -0.000743 -0.000493 0.002786 -0.001430 -0.002330 0.000520
# 4 0.000349 0.000859 -0.001430 0.021027 -0.008543 0.001018
# 5 0.000121 0.001628 -0.002330 -0.008543 0.026869 -0.000335
# 6 0.001746 -0.005124 0.000520 0.001018 -0.000335 0.019607
#
#
# Mechanical properties :
#
#
# Convention : Reuss Voigt Hill
#
# Bulk Modulus (GPa) = 101.46604 120.68463 111.07533
# Shear Modulus (GPa) = 44.82240 73.66357 59.24298
#
# Velocity S-wave (km/s) = 3.84914 4.93449 4.42522
# Velocity P-wave (km/s) = 7.30025 8.50632 7.92626
#
# Compressibility (1/GPa) = 0.00985551
#
# Stress axis : x y z
#
# Youngs Moduli (GPa) = 84.03430 94.13553 358.89243
#
# Poissons Ratio (x) = 0.61102 0.26681
# Poissons Ratio (y) = 0.54545 0.17679
# Poissons Ratio (z) = 0.06247 0.04637
#
# Static dielectric constant tensor:
#      x y z
#    x 2.167980 0.150600 0.032210 
#    y 0.150600 2.275950 0.013250 
#    z 0.032210 0.013250 2.505450 
# 
# From -- ./inp_files/1478.got.cif
#   From: 2010.05.17/outbox.cif.g08.bks.cpg/sg2_1_cif.got.tgz:1478.got - 2010.06.03 11:33:40.
