data_PCOD9071527
_publ_section_title
;
Structure prediction by ZEFSAII (Michael W. Deem and Ramdas Pophale) SiO2 
 PCOD9071527
Probable space group: P -1
;
_chemical_formula_sum "Si O2"
_cell_formula_units_Z 12
_cell_length_a 10.503650
_cell_length_b 16.085559
_cell_length_c 5.410939
_cell_angle_alpha 93.359129
_cell_angle_beta 122.494192
_cell_angle_gamma 49.354827
_cell_volume 520.933975
_symmetry_space_group_name_H-M "P -1"
_symmetry_group_IT_number 2
_symmetry_cell_setting 'triclinic'
loop_
_space_group_symop_operation_xyz
x,y,z
-x,-y,-z
loop_
_atom_site_type_symbol
_atom_site_label
_atom_site_fract_x
_atom_site_fract_y
_atom_site_fract_z
Si Si1 0.495915 0.185764 0.102156
Si Si2 0.827233 0.196010 0.398010
Si Si3 0.989410 0.559662 0.248005
Si Si4 0.185592 0.078842 0.418015
Si Si5 0.716402 0.975374 0.989853
Si Si6 0.646069 0.443089 0.392904
O O1 0.611610 0.227606 0.189438
O O2 0.264175 0.089575 0.756330
O O3 0.665353 0.065872 0.437405
O O4 0.248598 0.297074 0.958864
O O5 0.783730 0.301800 0.495495
O O6 0.926627 0.168683 0.219568
O O7 0.047067 0.070140 0.744170
O O8 0.000000 0.500000 0.500000
O O9 0.190564 0.544163 0.444111
O O10 0.000000 0.500000 0.000000
O O11 0.258661 0.086935 0.240513
O O12 0.528044 0.119698 0.870618
O O13 0.500000 0.500000 0.500000
O O14 0.500000 0.500000 0.000000
#
# Coordination Sequence:
#
# PCOD9071527 Si02
#       6
#     2   2   2   2   2   2
#     4   9  20  36  62  92 127 167 215 264 317 385
#     4   9  20  36  62  92 127 167 215 264 317 385
#     4  12  27  47  69  97 133 176 225 276 334 394
#     4   8  18  33  56  91 126 165 208 255 316 389
#     4   8  18  33  56  91 126 165 208 255 316 389
#     4  12  27  47  69  97 133 176 225 276 334 394
#
# _framework density 23.035547000000001
#
# number of rings (size 3 to 8) (size 9 to 14) (size 15 to 20)
#    2.000    0.000    0.000    5.000    4.667    2.667 
#    0.000    3.333    0.000    2.000    0.000    0.000 
#    0.000    0.000    0.000    0.000    0.000    0.000 
#
# Total GULP energy -66826.128672 kJ/mol
# GULP energy per Si atom -5568.844056 kJ/mol
# Density = 2.298312 g / cm^3
# Si number density = 23.035547 Si / 1000 Ang^3
#
#
#
# Elastic Constant Matrix: (Units=GPa)
#
#
# Indices 1 2 3 4 5 6 
#
# 1 167.6733 85.1011 82.2448 33.4001 30.0569 -13.3509
# 2 85.1011 154.8811 55.7953 6.4473 -5.8742 -38.5568
# 3 82.2448 55.7953 78.9140 15.0870 10.4979 -22.9394
# 4 33.4001 6.4473 15.0870 36.4744 -15.2566 -6.9936
# 5 30.0569 -5.8742 10.4979 -15.2566 50.2869 4.5408
# 6 -13.3509 -38.5568 -22.9394 -6.9936 4.5408 42.1964
#
#
#
# Elastic Compliance Matrix: (Units=1/GPa)
#
#
# Indices 1 2 3 4 5 6 
#
# 1 0.032560 -0.014941 -0.018066 -0.033730 -0.026229 -0.015940
# 2 -0.014941 0.017167 0.001727 0.018805 0.015071 0.013393
# 3 -0.018066 0.001727 0.032132 0.007911 0.005423 0.014058
# 4 -0.033730 0.018805 0.007911 0.072386 0.041006 0.018396
# 5 -0.026229 0.015071 0.005423 0.041006 0.047722 0.010081
# 6 -0.015940 0.013393 0.014058 0.018396 0.010081 0.040499
#
#
# Mechanical properties :
#
#
# Convention : Reuss Voigt Hill
#
# Bulk Modulus (GPa) = 51.81657 94.19454 73.00555
# Shear Modulus (GPa) = 16.05337 37.68001 26.86669
#
# Velocity S-wave (km/s) = 2.64274 4.04881 3.41884
# Velocity P-wave (km/s) = 5.64403 7.92697 6.88084
#
# Compressibility (1/GPa) = 0.01929884
#
# Stress axis : x y z
#
# Youngs Moduli (GPa) = 30.71209 58.25229 31.12130
#
# Poissons Ratio (x) = 0.87036 0.56225
# Poissons Ratio (y) = 0.45887 -0.05376
# Poissons Ratio (z) = 0.55486 -0.10062
#
# Static dielectric constant tensor:
#      x y z
#    x 1.955910 -0.054800 -0.087770 
#    y -0.054800 1.861670 -0.006930 
#    z -0.087770 -0.006930 2.067110 
# 
# From -- ./inp_files/40841.got.cif
#   From: 2010.05.17/outbox.cif.g08.bks.cpg/sg2_21_cif.got.tgz:40841.got - 2010.06.03 11:33:40.
