data_PCOD9071193
_publ_section_title
;
Structure prediction by ZEFSAII (Michael W. Deem and Ramdas Pophale) SiO2 
 PCOD9071193
Probable space group: P -1
;
_chemical_formula_sum "Si O2"
_cell_formula_units_Z 12
_cell_length_a 9.644823
_cell_length_b 9.612734
_cell_length_c 7.239315
_cell_angle_alpha 62.161279
_cell_angle_beta 63.216223
_cell_angle_gamma 65.599171
_cell_volume 512.064339
_symmetry_space_group_name_H-M "P -1"
_symmetry_group_IT_number 2
_symmetry_cell_setting 'triclinic'
loop_
_space_group_symop_operation_xyz
x,y,z
-x,-y,-z
loop_
_atom_site_type_symbol
_atom_site_label
_atom_site_fract_x
_atom_site_fract_y
_atom_site_fract_z
Si Si1 0.307719 0.128858 0.255917
Si Si2 0.128665 0.333070 0.572490
Si Si3 0.658549 0.457889 0.553098
Si Si4 0.222780 0.811529 0.626936
Si Si5 0.356979 0.776788 0.963103
Si Si6 0.884540 0.895982 0.955097
O O1 0.190070 0.231643 0.416019
O O2 0.479291 0.166030 0.153108
O O3 0.957174 0.099845 0.256333
O O4 0.232576 0.166930 0.075065
O O5 0.278109 0.386236 0.539497
O O6 0.310164 0.940958 0.408586
O O7 0.781751 0.324728 0.436484
O O8 0.500000 0.500000 0.500000
O O9 0.000000 0.500000 0.500000
O O10 0.067601 0.225544 0.826543
O O11 0.319367 0.739460 0.798502
O O12 0.635875 0.371948 0.811831
O O13 0.214630 0.930400 0.018101
#
# Coordination Sequence:
#
# PCOD9071193 Si02
#       6
#     2   2   2   2   2   2
#     4  12  26  45  76 104 138 186 238 283 345 419
#     4  12  28  46  70 106 146 178 230 296 350 404
#     4  12  28  46  70 106 146 178 230 296 350 404
#     4  12  26  45  76 104 138 186 238 283 345 419
#     4  12  26  45  76 104 138 186 238 283 345 419
#     4  12  26  45  76 104 138 186 238 283 345 419
#
# _framework density 23.434553999999999
#
# number of rings (size 3 to 8) (size 9 to 14) (size 15 to 20)
#    0.000    0.000    3.333    6.000    4.667    8.000 
#    0.000    0.000    0.000    0.000    0.000    0.000 
#    0.000    0.000    0.000    0.000    0.000    0.000 
#
# Total GULP energy -67339.702587 kJ/mol
# GULP energy per Si atom -5611.641882 kJ/mol
# Density = 2.338122 g / cm^3
# Si number density = 23.434554 Si / 1000 Ang^3
#
#
#
# Elastic Constant Matrix: (Units=GPa)
#
#
# Indices 1 2 3 4 5 6 
#
# 1 92.5934 0.4457 16.6394 -4.9204 11.0129 -0.7581
# 2 0.4457 61.2526 19.6500 6.2573 11.7950 8.9416
# 3 16.6394 19.6500 109.3493 -8.9571 12.0173 -9.7915
# 4 -4.9204 6.2573 -8.9571 34.7230 1.6095 7.7554
# 5 11.0129 11.7950 12.0173 1.6095 51.0393 2.5101
# 6 -0.7581 8.9416 -9.7915 7.7554 2.5101 43.9373
#
#
#
# Elastic Compliance Matrix: (Units=1/GPa)
#
#
# Indices 1 2 3 4 5 6 
#
# 1 0.011414 0.000789 -0.001558 0.001270 -0.002298 -0.000404
# 2 0.000789 0.019104 -0.003802 -0.003272 -0.003392 -0.003950
# 3 -0.001558 -0.003802 0.010698 0.002682 -0.001524 0.002745
# 4 0.001270 -0.003272 0.002682 0.031236 -0.000929 -0.004175
# 5 -0.002298 -0.003392 -0.001524 -0.000929 0.021297 -0.000742
# 6 -0.000404 -0.003950 0.002745 -0.004175 -0.000742 0.024948
#
#
# Mechanical properties :
#
#
# Convention : Reuss Voigt Hill
#
# Bulk Modulus (GPa) = 31.17890 37.40728 34.29309
# Shear Modulus (GPa) = 36.09319 41.03729 38.56524
#
# Velocity S-wave (km/s) = 3.92876 4.18921 4.06107
# Velocity P-wave (km/s) = 5.82355 6.27665 6.05434
#
# Compressibility (1/GPa) = 0.03207297
#
# Stress axis : x y z
#
# Youngs Moduli (GPa) = 87.61448 52.34536 93.47415
#
# Poissons Ratio (x) = -0.04127 0.14563
# Poissons Ratio (y) = -0.06908 0.35538
# Poissons Ratio (z) = 0.13650 0.19901
#
# Static dielectric constant tensor:
#      x y z
#    x 1.892760 -0.023890 -0.009910 
#    y -0.023890 1.857170 0.017900 
#    z -0.009910 0.017900 1.839910 
# 
# From -- ./inp_files/360152.got.cif
#   From: 2010.05.17/outbox.cif.g08.bks.cpg/sg2_181_cif.got.tgz:360152.got - 2010.06.03 11:33:40.
