data_PCOD9071209
_publ_section_title
;
Structure prediction by ZEFSAII (Michael W. Deem and Ramdas Pophale) SiO2 
 PCOD9071209
Probable space group: P -1
;
_chemical_formula_sum "Si O2"
_cell_formula_units_Z 16
_cell_length_a 9.004386
_cell_length_b 8.183380
_cell_length_c 13.892581
_cell_angle_alpha 43.264824
_cell_angle_beta 93.259481
_cell_angle_gamma 76.436069
_cell_volume 640.995309
_symmetry_space_group_name_H-M "P -1"
_symmetry_group_IT_number 2
_symmetry_cell_setting 'triclinic'
loop_
_space_group_symop_operation_xyz
x,y,z
-x,-y,-z
loop_
_atom_site_type_symbol
_atom_site_label
_atom_site_fract_x
_atom_site_fract_y
_atom_site_fract_z
Si Si1 0.802531 0.613367 0.345602
Si Si2 0.908842 0.481081 0.908427
Si Si3 0.402919 0.615897 0.086383
Si Si4 0.065586 0.222190 0.395951
Si Si5 0.481941 0.020963 0.184615
Si Si6 0.193023 0.954153 0.107560
Si Si7 0.051456 0.724146 0.356034
Si Si8 0.588644 0.047147 0.390122
O O1 0.814871 0.353989 0.520933
O O2 0.923451 0.482204 0.319044
O O3 0.858390 0.864893 0.265537
O O4 0.615853 0.764512 0.249293
O O5 0.734236 0.475428 0.921669
O O6 0.892403 0.715043 0.735517
O O7 0.000000 0.500000 0.000000
O O8 0.026637 0.208830 0.979575
O O9 0.301564 0.819367 0.078058
O O10 0.541905 0.355139 0.248163
O O11 0.485307 0.741962 0.961248
O O12 0.222286 0.133237 0.508744
O O13 0.000000 0.000000 0.500000
O O14 0.529374 0.975598 0.318010
O O15 0.305647 0.041023 0.143846
O O16 0.142642 0.754004 0.253366
O O17 0.000000 0.500000 0.500000
O O18 0.500000 0.000000 0.500000
#
# Coordination Sequence:
#
# PCOD9071209 Si02
#       8
#     2   2   2   2   2   2   2   2
#     4   9  21  43  70 104 143 188 248 297 381 422
#     4  12  28  48  75 109 150 200 257 306 381 451
#     4  12  27  50  76 105 159 198 250 314 379 447
#     4  12  28  45  77 105 150 197 256 313 377 451
#     4  12  27  46  80 111 154 198 252 313 377 450
#     4  12  26  45  80 111 149 200 258 309 375 453
#     4   8  20  39  70 100 145 182 242 298 370 429
#     4  12  28  50  73 110 154 198 248 311 386 446
#
# _framework density 24.961182999999998
#
# number of rings (size 3 to 8) (size 9 to 14) (size 15 to 20)
#    0.750    0.000    1.250    5.625    8.750    0.500 
#    0.000    0.000    0.000    0.000    0.000    0.000 
#    0.000    0.000    0.000    0.000    0.000    0.000 
#
# Total GULP energy -89159.950645 kJ/mol
# GULP energy per Si atom -5572.496915 kJ/mol
# Density = 2.490437 g / cm^3
# Si number density = 24.961183 Si / 1000 Ang^3
#
#
#
# Elastic Constant Matrix: (Units=GPa)
#
#
# Indices 1 2 3 4 5 6 
#
# 1 118.9706 25.0654 49.7569 5.9182 -4.2754 -7.2683
# 2 25.0654 82.4712 41.5288 6.6048 -9.2556 -7.0574
# 3 49.7569 41.5288 143.6552 17.0278 -17.9232 3.2272
# 4 5.9182 6.6048 17.0278 46.8545 -14.1545 8.4512
# 5 -4.2754 -9.2556 -17.9232 -14.1545 48.2164 -6.8270
# 6 -7.2683 -7.0574 3.2272 8.4512 -6.8270 40.2105
#
#
#
# Elastic Compliance Matrix: (Units=1/GPa)
#
#
# Indices 1 2 3 4 5 6 
#
# 1 0.010131 -0.001337 -0.003166 -0.000394 -0.000386 0.001868
# 2 -0.001337 0.014852 -0.003617 -0.000674 0.001625 0.003073
# 3 -0.003166 -0.003617 0.009577 -0.001770 0.001884 -0.001284
# 4 -0.000394 -0.000674 -0.001770 0.024652 0.005814 -0.004242
# 5 -0.000386 0.001625 0.001884 0.005814 0.023834 0.002889
# 6 0.001868 0.003073 -0.001284 -0.004242 0.002889 0.027231
#
#
# Mechanical properties :
#
#
# Convention : Reuss Voigt Hill
#
# Bulk Modulus (GPa) = 54.58277 64.19990 59.39134
# Shear Modulus (GPa) = 37.70060 42.30600 40.00330
#
# Velocity S-wave (km/s) = 3.89056 4.12135 4.00762
# Velocity P-wave (km/s) = 6.48818 6.95867 6.72754
#
# Compressibility (1/GPa) = 0.01832080
#
# Stress axis : x y z
#
# Youngs Moduli (GPa) = 98.70644 67.32906 104.41689
#
# Poissons Ratio (x) = 0.09000 0.33059
# Poissons Ratio (y) = 0.13195 0.37768
# Poissons Ratio (z) = 0.31251 0.24353
#
# Static dielectric constant tensor:
#      x y z
#    x 1.802330 -0.004710 -0.144590 
#    y -0.004710 2.175820 -0.148530 
#    z -0.144590 -0.148530 1.715500 
# 
# From -- ./inp_files/494269.got.cif
#   From: 2010.05.17/outbox.cif.g08.bks.cpg/sg2_248_cif.got.tgz:494269.got - 2010.06.03 11:33:40.
