data_PCOD9071826
_publ_section_title
;
Structure prediction by ZEFSAII (Michael W. Deem and Ramdas Pophale) SiO2 
 PCOD9071826
Probable space group: P -1
;
_chemical_formula_sum "Si O2"
_cell_formula_units_Z 16
_cell_length_a 10.102664
_cell_length_b 9.688904
_cell_length_c 12.121349
_cell_angle_alpha 121.971776
_cell_angle_beta 128.993800
_cell_angle_gamma 51.137028
_cell_volume 700.024995
_symmetry_space_group_name_H-M "P -1"
_symmetry_group_IT_number 2
_symmetry_cell_setting 'triclinic'
loop_
_space_group_symop_operation_xyz
x,y,z
-x,-y,-z
loop_
_atom_site_type_symbol
_atom_site_label
_atom_site_fract_x
_atom_site_fract_y
_atom_site_fract_z
Si Si1 0.606234 0.121791 0.514911
Si Si2 0.219412 0.386027 0.335901
Si Si3 0.233541 0.749044 0.555345
Si Si4 0.007067 0.015743 0.735500
Si Si5 0.564562 0.745569 0.830576
Si Si6 0.234955 0.273522 0.623675
Si Si7 0.264290 0.171895 0.850791
Si Si8 0.917384 0.339943 0.297253
O O1 0.390563 0.271221 0.462362
O O2 0.687325 0.174564 0.469157
O O3 0.611844 0.924148 0.420007
O O4 0.781708 0.098305 0.675976
O O5 0.189257 0.591335 0.419369
O O6 0.287922 0.319462 0.220310
O O7 0.043281 0.353428 0.268349
O O8 0.069782 0.911678 0.605163
O O9 0.415269 0.664192 0.697006
O O10 0.109574 0.842229 0.796790
O O11 0.096310 0.155052 0.825941
O O12 0.432110 0.964236 0.844864
O O13 0.661641 0.712883 0.986141
O O14 0.215824 0.241448 0.730328
O O15 0.051473 0.313799 0.465690
O O16 0.255479 0.459054 0.702075
#
# Coordination Sequence:
#
# PCOD9071826 Si02
#       8
#     2   2   2   2   2   2   2   2
#     4  10  18  29  53  83 103 139 184 223 275 309
#     4  11  20  35  52  84 120 140 169 236 284 323
#     4  10  18  32  57  82 111 132 181 238 276 304
#     4  10  20  34  55  84 105 146 183 227 266 322
#     4   9  19  35  56  87 102 148 181 233 269 317
#     4  10  18  36  53  85 105 146 184 227 263 324
#     4  10  19  36  62  79 107 141 199 222 257 331
#     4  10  23  32  53  82 121 142 176 224 284 321
#
# _framework density 22.856328000000001
#
# number of rings (size 3 to 8) (size 9 to 14) (size 15 to 20)
#    0.000    2.000    3.750    4.125    3.500    2.000 
#    0.000    1.250    0.000   12.000    0.000    0.000 
#    0.000    0.000    0.000    0.000    0.000    0.000 
#
# Total GULP energy -89176.935428 kJ/mol
# GULP energy per Si atom -5573.558464 kJ/mol
# Density = 2.280431 g / cm^3
# Si number density = 22.856328 Si / 1000 Ang^3
#
#
#
# Elastic Constant Matrix: (Units=GPa)
#
#
# Indices 1 2 3 4 5 6 
#
# 1 50.0964 -5.4436 7.2261 2.6890 -12.8263 -6.3320
# 2 -5.4436 63.3014 8.0621 -11.8408 5.2614 -1.0236
# 3 7.2261 8.0621 76.9702 1.5198 -7.9550 -0.0602
# 4 2.6890 -11.8408 1.5198 15.2234 1.3833 -1.9983
# 5 -12.8263 5.2614 -7.9550 1.3833 18.5479 0.3782
# 6 -6.3320 -1.0236 -0.0602 -1.9983 0.3782 33.7371
#
#
#
# Elastic Compliance Matrix: (Units=1/GPa)
#
#
# Indices 1 2 3 4 5 6 
#
# 1 0.025387 -0.000241 -0.000404 -0.005694 0.017790 0.004220
# 2 -0.000241 0.020124 -0.003309 0.017025 -0.008598 0.001664
# 3 -0.000404 -0.003309 0.014202 -0.004632 0.007106 -0.000505
# 4 -0.005694 0.017025 -0.004632 0.082537 -0.017001 0.004519
# 5 0.017790 -0.008598 0.007106 -0.017001 0.072945 0.001266
# 6 0.004220 0.001664 -0.000505 0.004519 0.001266 0.030736
#
#
# Mechanical properties :
#
#
# Convention : Reuss Voigt Hill
#
# Bulk Modulus (GPa) = 19.30246 23.33969 21.32108
# Shear Modulus (GPa) = 18.44283 25.53657 21.98970
#
# Velocity S-wave (km/s) = 2.84369 3.34618 3.10511
# Velocity P-wave (km/s) = 4.38697 5.01626 4.71213
#
# Compressibility (1/GPa) = 0.05180687
#
# Stress axis : x y z
#
# Youngs Moduli (GPa) = 39.38959 49.69112 70.41246
#
# Poissons Ratio (x) = 0.01197 0.02844
# Poissons Ratio (y) = 0.00948 0.23298
# Poissons Ratio (z) = 0.01591 0.16442
#
# Static dielectric constant tensor:
#      x y z
#    x 1.963890 -0.014110 0.030290 
#    y -0.014110 1.930420 -0.029700 
#    z 0.030290 -0.029700 1.888600 
# 
# From -- ./inp_files/419602.got.cif
#   From: 2010.05.17/outbox.cif.g08.bks.cpg/sg2_210_cif.got.tgz:419602.got - 2010.06.03 11:33:40.
