data_PCOD9071596
_publ_section_title
;
Structure prediction by ZEFSAII (Michael W. Deem and Ramdas Pophale) SiO2 
 PCOD9071596
Probable space group: P -1
;
_chemical_formula_sum "Si O2"
_cell_formula_units_Z 12
_cell_length_a 8.844143
_cell_length_b 5.123211
_cell_length_c 15.825075
_cell_angle_alpha 83.328862
_cell_angle_beta 133.754795
_cell_angle_gamma 86.768649
_cell_volume 504.990078
_symmetry_space_group_name_H-M "P -1"
_symmetry_group_IT_number 2
_symmetry_cell_setting 'triclinic'
loop_
_space_group_symop_operation_xyz
x,y,z
-x,-y,-z
loop_
_atom_site_type_symbol
_atom_site_label
_atom_site_fract_x
_atom_site_fract_y
_atom_site_fract_z
Si Si1 0.540070 0.657748 0.256074
Si Si2 0.969601 0.952409 0.746792
Si Si3 0.021244 0.759316 0.586550
Si Si4 0.725522 0.392547 0.549379
Si Si5 0.601239 0.240793 0.994462
Si Si6 0.543201 0.841180 0.668856
O O1 0.778832 0.480802 0.346769
O O2 0.508308 0.930448 0.288118
O O3 0.415204 0.450367 0.261378
O O4 0.454075 0.719204 0.126454
O O5 0.898783 0.269928 0.690680
O O6 0.745619 0.877460 0.690312
O O7 0.059775 0.857386 0.692626
O O8 0.147128 0.844492 0.887309
O O9 0.000000 0.000000 0.500000
O O10 0.500000 0.500000 0.500000
O O11 0.658207 0.168934 0.470169
O O12 0.822105 0.609207 0.527157
O O13 0.500000 0.500000 0.000000
O O14 0.500000 0.000000 0.000000
#
# Coordination Sequence:
#
# PCOD9071596 Si02
#       6
#     2   2   2   2   2   2
#     4  12  29  51  77 123 159 209 271 338 394 470
#     4  12  28  50  83 118 157 223 264 326 415 480
#     4  12  29  49  82 121 159 212 272 330 405 484
#     4  12  27  51  82 119 166 212 270 327 409 484
#     4  12  27  52  84 114 159 209 273 335 393 477
#     4  12  29  49  82 117 171 205 263 337 407 475
#
# _framework density 23.762841999999999
#
# number of rings (size 3 to 8) (size 9 to 14) (size 15 to 20)
#    0.000    0.000    3.333    4.500    9.333    3.333 
#    0.000    0.000    0.000    0.000    0.000    0.000 
#    0.000    0.000    0.000    0.000    0.000    0.000 
#
# Total GULP energy -67230.733068 kJ/mol
# GULP energy per Si atom -5602.561089 kJ/mol
# Density = 2.370876 g / cm^3
# Si number density = 23.762842 Si / 1000 Ang^3
#
#
#
# Elastic Constant Matrix: (Units=GPa)
#
#
# Indices 1 2 3 4 5 6 
#
# 1 150.9615 55.3899 52.5920 -3.1357 -10.2880 3.2212
# 2 55.3899 164.0428 60.1723 -12.8861 -9.9961 -10.6771
# 3 52.5920 60.1723 190.9730 -6.1127 -13.3395 -2.4725
# 4 -3.1357 -12.8861 -6.1127 29.6953 0.2196 -10.8126
# 5 -10.2880 -9.9961 -13.3395 0.2196 46.3349 -2.1170
# 6 3.2212 -10.6771 -2.4725 -10.8126 -2.1170 60.2774
#
#
#
# Elastic Compliance Matrix: (Units=1/GPa)
#
#
# Indices 1 2 3 4 5 6 
#
# 1 0.008025 -0.002243 -0.001484 -0.000802 0.000829 -0.001002
# 2 -0.002243 0.007946 -0.001685 0.003637 0.000812 0.002139
# 3 -0.001484 -0.001685 0.006271 0.000452 0.001117 0.000158
# 4 -0.000802 0.003637 0.000452 0.038006 0.000902 0.007555
# 5 0.000829 0.000812 0.001117 0.000902 0.022308 0.001091
# 6 -0.001002 0.002139 0.000158 0.007555 0.001091 0.018422
#
#
# Mechanical properties :
#
#
# Convention : Reuss Voigt Hill
#
# Bulk Modulus (GPa) = 87.58717 93.58731 90.58724
# Shear Modulus (GPa) = 43.24900 49.78306 46.51603
#
# Velocity S-wave (km/s) = 4.27081 4.58208 4.42918
# Velocity P-wave (km/s) = 7.82679 8.21360 8.02253
#
# Compressibility (1/GPa) = 0.01141720
#
# Stress axis : x y z
#
# Youngs Moduli (GPa) = 124.60290 125.85112 159.47561
#
# Poissons Ratio (x) = 0.28231 0.23668
# Poissons Ratio (y) = 0.27951 0.26872
# Poissons Ratio (z) = 0.18492 0.21207
#
# Static dielectric constant tensor:
#      x y z
#    x 1.930010 -0.042100 0.032510 
#    y -0.042100 1.983700 0.000400 
#    z 0.032510 0.000400 1.946380 
# 
# From -- ./inp_files/551900.got.cif
#   From: 2010.05.17/outbox.cif.g08.bks.cpg/sg2_276_cif.got.tgz:551900.got - 2010.06.03 11:33:40.
