data_PCOD9071455
_publ_section_title
;
Structure prediction by ZEFSAII (Michael W. Deem and Ramdas Pophale) SiO2 
 PCOD9071455
Probable space group: P -1
;
_chemical_formula_sum "Si O2"
_cell_formula_units_Z 16
_cell_length_a 15.119130
_cell_length_b 23.829814
_cell_length_c 15.002322
_cell_angle_alpha 27.105410
_cell_angle_beta 149.495118
_cell_angle_gamma 161.341634
_cell_volume 781.722834
_symmetry_space_group_name_H-M "P -1"
_symmetry_group_IT_number 2
_symmetry_cell_setting 'triclinic'
loop_
_space_group_symop_operation_xyz
x,y,z
-x,-y,-z
loop_
_atom_site_type_symbol
_atom_site_label
_atom_site_fract_x
_atom_site_fract_y
_atom_site_fract_z
Si Si1 0.463439 0.085152 0.212124
Si Si2 0.743884 0.402395 0.357534
Si Si3 0.520592 0.966989 0.263070
Si Si4 0.301862 0.108514 0.623737
Si Si5 0.502707 0.445059 0.219317
Si Si6 0.898941 0.888714 0.934457
Si Si7 0.071048 0.879464 0.911796
Si Si8 0.402346 0.787390 0.669791
O O1 0.659236 0.249025 0.227066
O O2 0.596994 0.115296 0.191302
O O3 0.362488 0.901807 0.431834
O O4 0.196900 0.025186 0.045679
O O5 0.510466 0.172754 0.507098
O O6 0.641811 0.473044 0.209076
O O7 0.771222 0.399173 0.280922
O O8 0.000000 0.500000 0.500000
O O9 0.677655 0.002299 0.263117
O O10 0.224077 0.849828 0.133006
O O11 0.506674 0.329653 0.453254
O O12 0.305369 0.074136 0.778678
O O13 0.000000 0.000000 0.500000
O O14 0.685399 0.661992 0.099459
O O15 0.183020 0.293515 0.129807
O O16 0.724732 0.917060 0.759416
O O17 0.959608 0.903340 0.861170
#
# Coordination Sequence:
#
# PCOD9071455 Si02
#       8
#     2   2   2   2   2   2   2   2
#     4   9  20  34  48  78 104 139 183 216 254 304
#     4  10  18  29  47  75 111 136 160 212 274 312
#     4   9  18  30  49  70 102 130 175 221 248 304
#     4   9  19  32  48  71 108 136 172 206 268 322
#     4  10  19  31  45  76 109 132 162 214 268 316
#     4  11  20  32  54  79 110 134 175 218 262 308
#     4  10  18  30  48  75 106 136 171 206 266 319
#     4  10  19  32  51  72 111 142 174 211 265 305
#
# _framework density 20.467611999999999
#
# number of rings (size 3 to 8) (size 9 to 14) (size 15 to 20)
#    0.000    2.250    1.250    3.375    3.500    0.000 
#    0.000    0.000    0.000    0.000    0.000   11.375 
#   11.250    0.500    0.000    0.000    0.000    0.000 
#
# Total GULP energy -89079.040001 kJ/mol
# GULP energy per Si atom -5567.440000 kJ/mol
# Density = 2.042103 g / cm^3
# Si number density = 20.467612 Si / 1000 Ang^3
#
#
#
# Elastic Constant Matrix: (Units=GPa)
#
#
# Indices 1 2 3 4 5 6 
#
# 1 90.3695 17.2518 21.6129 5.8790 -5.1555 8.3825
# 2 17.2518 28.2907 9.4556 8.7401 -7.0289 -5.1830
# 3 21.6129 9.4556 95.8143 11.4888 -2.0122 2.6867
# 4 5.8790 8.7401 11.4888 31.1874 11.4875 -1.8212
# 5 -5.1555 -7.0289 -2.0122 11.4875 39.4122 7.1222
# 6 8.3825 -5.1830 2.6867 -1.8212 7.1222 21.1527
#
#
#
# Elastic Compliance Matrix: (Units=1/GPa)
#
#
# Indices 1 2 3 4 5 6 
#
# 1 0.014121 -0.008801 -0.001975 -0.000621 0.001835 -0.008173
# 2 -0.008801 0.050375 -0.001286 -0.015050 0.010113 0.011293
# 3 -0.001975 -0.001286 0.011614 -0.004289 0.001708 -0.001952
# 4 -0.000621 -0.015050 -0.004289 0.044725 -0.017242 0.006759
# 5 0.001835 0.010113 0.001708 -0.017242 0.034627 -0.011610
# 6 -0.008173 0.011293 -0.001952 0.006759 -0.011610 0.058020
#
#
# Mechanical properties :
#
#
# Convention : Reuss Voigt Hill
#
# Bulk Modulus (GPa) = 19.23522 34.56833 26.90178
# Shear Modulus (GPa) = 19.61291 29.42738 24.52015
#
# Velocity S-wave (km/s) = 3.09891 3.79589 3.46496
# Velocity P-wave (km/s) = 4.71408 6.01146 5.40186
#
# Compressibility (1/GPa) = 0.05198797
#
# Stress axis : x y z
#
# Youngs Moduli (GPa) = 70.81534 19.85112 86.10241
#
# Poissons Ratio (x) = 0.17470 0.17002
# Poissons Ratio (y) = 0.62323 0.11071
# Poissons Ratio (z) = 0.13983 0.02552
#
# Static dielectric constant tensor:
#      x y z
#    x 1.812840 -0.022350 -0.011270 
#    y -0.022350 1.793760 -0.043490 
#    z -0.011270 -0.043490 1.816570 
# 
# From -- ./inp_files/249539.got.cif
#   From: 2010.05.17/outbox.cif.g08.bks.cpg/sg2_125_cif.got.tgz:249539.got - 2010.06.03 11:33:40.
