data_PCOD9071400
_publ_section_title
;
Structure prediction by ZEFSAII (Michael W. Deem and Ramdas Pophale) SiO2 
 PCOD9071400
Probable space group: P -1
;
_chemical_formula_sum "Si O2"
_cell_formula_units_Z 10
_cell_length_a 8.938497
_cell_length_b 12.155441
_cell_length_c 9.123525
_cell_angle_alpha 129.832622
_cell_angle_beta 149.441050
_cell_angle_gamma 58.998956
_cell_volume 385.328363
_symmetry_space_group_name_H-M "P -1"
_symmetry_group_IT_number 2
_symmetry_cell_setting 'triclinic'
loop_
_space_group_symop_operation_xyz
x,y,z
-x,-y,-z
loop_
_atom_site_type_symbol
_atom_site_label
_atom_site_fract_x
_atom_site_fract_y
_atom_site_fract_z
Si Si1 0.786962 0.925745 0.377458
Si Si2 0.550962 0.371421 0.155426
Si Si3 0.985304 0.191602 0.227757
Si Si4 0.624165 0.166580 0.635168
Si Si5 0.975176 0.462067 0.117333
O O1 0.963442 0.873457 0.623993
O O2 0.597331 0.049180 0.384939
O O3 0.590304 0.783581 0.035442
O O4 0.000000 0.000000 0.500000
O O5 0.792407 0.326914 0.205314
O O6 0.716685 0.479795 0.501913
O O7 0.269585 0.448682 0.934383
O O8 0.312719 0.221376 0.463581
O O9 0.780482 0.104785 0.858832
O O10 0.859982 0.296483 0.895811
O O11 0.000000 0.500000 0.000000
#
# Coordination Sequence:
#
# PCOD9071400 Si02
#       5
#     2   2   2   2   2
#     4  12  28  51  79 111 151 199 253 310 370 443
#     4  12  26  49  77 107 153 192 254 303 369 445
#     4  12  26  51  75 115 149 197 253 306 373 444
#     4  12  28  47  81 108 154 198 248 308 373 442
#     4  12  27  51  74 114 153 197 245 309 379 444
#
# _framework density 25.951892999999998
#
# number of rings (size 3 to 8) (size 9 to 14) (size 15 to 20)
#    0.000    0.000    4.000    4.200    2.800    7.200 
#    0.000    0.000    0.000    0.000    0.000    0.000 
#    0.000    0.000    0.000    0.000    0.000    0.000 
#
# Total GULP energy -56067.735843 kJ/mol
# GULP energy per Si atom -5606.773584 kJ/mol
# Density = 2.589282 g / cm^3
# Si number density = 25.951893 Si / 1000 Ang^3
#
#
#
# Elastic Constant Matrix: (Units=GPa)
#
#
# Indices 1 2 3 4 5 6 
#
# 1 135.4666 48.9263 25.1388 -0.9896 26.9056 19.6971
# 2 48.9263 99.9041 20.7966 22.0403 21.4629 7.3186
# 3 25.1388 20.7966 132.6343 11.8454 34.0001 17.5698
# 4 -0.9896 22.0403 11.8454 59.9050 -0.0990 14.6098
# 5 26.9056 21.4629 34.0001 -0.0990 35.1782 1.6439
# 6 19.6971 7.3186 17.5698 14.6098 1.6439 41.8617
#
#
#
# Elastic Compliance Matrix: (Units=1/GPa)
#
#
# Indices 1 2 3 4 5 6 
#
# 1 0.010854 -0.004436 0.000602 0.002999 -0.005917 -0.005399
# 2 -0.004436 0.014568 0.000395 -0.005931 -0.005972 0.001679
# 3 0.000602 0.000395 0.010827 -0.001317 -0.010982 -0.004006
# 4 0.002999 -0.005931 -0.001317 0.020959 0.002996 -0.007254
# 5 -0.005917 -0.005972 -0.010982 0.002996 0.046960 0.005548
# 6 -0.005399 0.001679 -0.004006 -0.007254 0.005548 0.030130
#
#
# Mechanical properties :
#
#
# Convention : Reuss Voigt Hill
#
# Bulk Modulus (GPa) = 34.04666 61.96984 48.00825
# Shear Modulus (GPa) = 33.11971 45.59853 39.35912
#
# Velocity S-wave (km/s) = 3.57626 4.19625 3.89860
# Velocity P-wave (km/s) = 5.49550 6.88539 6.22933
#
# Compressibility (1/GPa) = 0.02937146
#
# Stress axis : x y z
#
# Youngs Moduli (GPa) = 92.12848 68.64164 92.36126
#
# Poissons Ratio (x) = 0.30451 -0.05563
# Poissons Ratio (y) = 0.40870 -0.03645
# Poissons Ratio (z) = -0.05549 -0.02709
#
# Static dielectric constant tensor:
#      x y z
#    x 2.000190 -0.012750 -0.012430 
#    y -0.012750 2.106390 0.041370 
#    z -0.012430 0.041370 2.027570 
# 
# From -- ./inp_files/91172.got.cif
#   From: 2010.05.17/outbox.cif.g08.bks.cpg/sg2_46_cif.got.tgz:91172.got - 2010.06.03 11:33:40.
