data_PCOD9071144
_publ_section_title
;
Structure prediction by ZEFSAII (Michael W. Deem and Ramdas Pophale) SiO2 
 PCOD9071144
Probable space group: P -1
;
_chemical_formula_sum "Si O2"
_cell_formula_units_Z 12
_cell_length_a 4.948535
_cell_length_b 17.108950
_cell_length_c 13.764406
_cell_angle_alpha 156.255133
_cell_angle_beta 75.883737
_cell_angle_gamma 112.269959
_cell_volume 417.325970
_symmetry_space_group_name_H-M "P -1"
_symmetry_group_IT_number 2
_symmetry_cell_setting 'triclinic'
loop_
_space_group_symop_operation_xyz
x,y,z
-x,-y,-z
loop_
_atom_site_type_symbol
_atom_site_label
_atom_site_fract_x
_atom_site_fract_y
_atom_site_fract_z
Si Si1 0.348203 0.354540 0.776858
Si Si2 0.213695 0.920180 0.826337
Si Si3 0.958602 0.400078 0.689099
Si Si4 0.754677 0.904611 0.351051
Si Si5 0.335301 0.570018 0.508782
Si Si6 0.474250 0.248217 0.012283
O O1 0.604796 0.322628 0.653327
O O2 0.100565 0.384282 0.762608
O O3 0.576780 0.635916 0.096118
O O4 0.112091 0.101232 0.545537
O O5 0.008915 0.740288 0.562359
O O6 0.601363 0.193607 0.261616
O O7 0.423026 0.105355 0.948769
O O8 0.000000 0.000000 0.000000
O O9 0.169813 0.641893 0.919687
O O10 0.500000 0.000000 0.500000
O O11 0.716037 0.868586 0.196376
O O12 0.500000 0.500000 0.500000
O O13 0.364825 0.434185 0.261119
O O14 0.000000 0.500000 0.500000
#
# Coordination Sequence:
#
# PCOD9071144 Si02
#       6
#     2   2   2   2   2   2
#     4  12  25  51  80 116 169 218 274 345 420 501
#     4  12  28  56  89 129 172 227 291 364 432 514
#     4  12  28  52  84 126 168 225 286 345 429 513
#     4  12  28  48  80 123 165 218 286 346 419 510
#     4  12  28  56  84 123 166 224 285 352 435 508
#     4  12  28  53  87 124 174 227 287 356 426 517
#
# _framework density 28.754498999999999
#
# number of rings (size 3 to 8) (size 9 to 14) (size 15 to 20)
#    0.000    0.000    3.333    5.500    2.333    2.000 
#    6.000    0.000    0.000    0.000    0.000    0.000 
#    0.000    0.000    0.000    0.000    0.000    0.000 
#
# Total GULP energy -67333.833277 kJ/mol
# GULP energy per Si atom -5611.152773 kJ/mol
# Density = 2.868905 g / cm^3
# Si number density = 28.754499 Si / 1000 Ang^3
#
#
#
# Elastic Constant Matrix: (Units=GPa)
#
#
# Indices 1 2 3 4 5 6 
#
# 1 209.8446 103.9227 73.6023 11.5925 -7.7212 -9.1789
# 2 103.9227 253.1936 77.7943 35.9998 -13.2339 -27.3703
# 3 73.6023 77.7943 213.0748 -10.7287 1.6627 -0.5424
# 4 11.5925 35.9998 -10.7287 87.3328 -1.6810 -10.0849
# 5 -7.7212 -13.2339 1.6627 -1.6810 62.0627 14.9380
# 6 -9.1789 -27.3703 -0.5424 -10.0849 14.9380 68.8019
#
#
#
# Elastic Compliance Matrix: (Units=1/GPa)
#
#
# Indices 1 2 3 4 5 6 
#
# 1 0.006339 -0.002138 -0.001420 -0.000141 0.000396 -0.000123
# 2 -0.002138 0.005777 -0.001476 -0.002086 0.000571 0.001572
# 3 -0.001420 -0.001476 0.005799 0.001452 -0.000509 -0.000407
# 4 -0.000141 -0.002086 0.001452 0.012627 -0.000426 0.001106
# 5 0.000396 0.000571 -0.000509 -0.000426 0.017130 -0.003506
# 6 -0.000123 0.001572 -0.000407 0.001106 -0.003506 0.016063
#
#
# Mechanical properties :
#
#
# Convention : Reuss Voigt Hill
#
# Bulk Modulus (GPa) = 127.43765 131.86129 129.64947
# Shear Modulus (GPa) = 65.42896 71.69240 68.56068
#
# Velocity S-wave (km/s) = 4.77533 4.99867 4.88827
# Velocity P-wave (km/s) = 8.64988 8.90353 8.77762
#
# Compressibility (1/GPa) = 0.00784697
#
# Stress axis : x y z
#
# Youngs Moduli (GPa) = 157.74574 173.09660 172.45658
#
# Poissons Ratio (x) = 0.37013 0.24482
# Poissons Ratio (y) = 0.33731 0.25457
# Poissons Ratio (z) = 0.22393 0.25551
#
# Static dielectric constant tensor:
#      x y z
#    x 2.153740 -0.029670 0.001290 
#    y -0.029670 2.161200 0.112000 
#    z 0.001290 0.112000 2.434430 
# 
# From -- ./inp_files/551256.got.cif
#   From: 2010.05.17/outbox.cif.g08.bks.cpg/sg2_276_cif.got.tgz:551256.got - 2010.06.03 11:33:40.
