data_PCOD9071103
_publ_section_title
;
Structure prediction by ZEFSAII (Michael W. Deem and Ramdas Pophale) SiO2 
 PCOD9071103
Probable space group: P -1
;
_chemical_formula_sum "Si O2"
_cell_formula_units_Z 12
_cell_length_a 10.327077
_cell_length_b 8.440482
_cell_length_c 8.213494
_cell_angle_alpha 128.879663
_cell_angle_beta 103.276560
_cell_angle_gamma 67.647840
_cell_volume 515.413411
_symmetry_space_group_name_H-M "P -1"
_symmetry_group_IT_number 2
_symmetry_cell_setting 'triclinic'
loop_
_space_group_symop_operation_xyz
x,y,z
-x,-y,-z
loop_
_atom_site_type_symbol
_atom_site_label
_atom_site_fract_x
_atom_site_fract_y
_atom_site_fract_z
Si Si1 0.371303 0.690422 0.526264
Si Si2 0.191302 0.427216 0.227549
Si Si3 0.408437 0.738657 0.181651
Si Si4 0.127503 0.052056 0.161162
Si Si5 0.940767 0.806683 0.408554
Si Si6 0.349072 0.135601 0.817523
O O1 0.500000 0.500000 0.500000
O O2 0.243631 0.597098 0.454520
O O3 0.383569 0.738164 0.368308
O O4 0.367270 0.906091 0.757141
O O5 0.178368 0.219806 0.179403
O O6 0.041619 0.581406 0.228367
O O7 0.303188 0.331372 0.056342
O O8 0.511409 0.872435 0.243618
O O9 0.258640 0.844776 0.117674
O O10 0.500000 0.500000 0.000000
O O11 0.070370 0.177995 0.391655
O O12 0.000000 0.000000 0.000000
O O13 0.787056 0.834482 0.313951
O O14 0.000000 0.000000 0.500000
#
# Coordination Sequence:
#
# PCOD9071103 Si02
#       6
#     2   2   2   2   2   2
#     4  12  27  47  77 109 151 197 252 316 380 454
#     4  12  27  47  73 114 150 201 255 310 382 450
#     4  12  27  49  76 114 151 201 253 311 385 442
#     4  12  29  49  77 112 157 201 254 312 378 460
#     4  12  25  50  77 108 150 205 255 309 382 454
#     4  12  26  48  80 108 158 192 256 315 379 451
#
# _framework density 23.28228
#
# number of rings (size 3 to 8) (size 9 to 14) (size 15 to 20)
#    0.000    0.000    5.000    3.500    7.000    1.333 
#    0.000    0.000    0.000    0.000    0.000    0.000 
#    0.000    0.000    0.000    0.000    0.000    0.000 
#
# Total GULP energy -67149.904945 kJ/mol
# GULP energy per Si atom -5595.825412 kJ/mol
# Density = 2.322929 g / cm^3
# Si number density = 23.282280 Si / 1000 Ang^3
#
#
#
# Elastic Constant Matrix: (Units=GPa)
#
#
# Indices 1 2 3 4 5 6 
#
# 1 132.8246 53.5659 17.4703 -2.2944 12.0698 -9.5231
# 2 53.5659 140.1904 35.3704 19.9475 -1.0309 -25.3024
# 3 17.4703 35.3704 56.1945 30.8145 -5.6295 -2.3363
# 4 -2.2944 19.9475 30.8145 39.5815 -3.4271 -5.9586
# 5 12.0698 -1.0309 -5.6295 -3.4271 41.6760 5.5126
# 6 -9.5231 -25.3024 -2.3363 -5.9586 5.5126 56.7971
#
#
#
# Elastic Compliance Matrix: (Units=1/GPa)
#
#
# Indices 1 2 3 4 5 6 
#
# 1 0.009875 -0.003347 -0.004197 0.005381 -0.003181 0.000865
# 2 -0.003347 0.010457 -0.004712 -0.001228 -0.000009 0.003775
# 3 -0.004197 -0.004712 0.037202 -0.027127 0.004496 -0.004555
# 4 0.005381 -0.001228 -0.027127 0.047817 -0.001908 0.004441
# 5 -0.003181 -0.000009 0.004496 -0.001908 0.025770 -0.003054
# 6 0.000865 0.003775 -0.004555 0.004441 -0.003054 0.020009
#
#
# Mechanical properties :
#
#
# Convention : Reuss Voigt Hill
#
# Bulk Modulus (GPa) = 30.28226 60.22473 45.25349
# Shear Modulus (GPa) = 26.78836 42.46444 34.62640
#
# Velocity S-wave (km/s) = 3.39571 4.27534 3.86066
# Velocity P-wave (km/s) = 5.33004 7.09188 6.27312
#
# Compressibility (1/GPa) = 0.03302263
#
# Stress axis : x y z
#
# Youngs Moduli (GPa) = 101.26968 95.63009 26.88018
#
# Poissons Ratio (x) = 0.32008 0.11281
# Poissons Ratio (y) = 0.33896 0.12665
# Poissons Ratio (z) = 0.42499 0.45059
#
# Static dielectric constant tensor:
#      x y z
#    x 2.399930 -0.131980 0.165280 
#    y -0.131980 1.983820 -0.023470 
#    z 0.165280 -0.023470 1.981340 
# 
# From -- ./inp_files/157023.got.cif
#   From: 2010.05.17/outbox.cif.g08.bks.cpg/sg2_79_cif.got.tgz:157023.got - 2010.06.03 11:33:40.
