data_PCOD9071603
_publ_section_title
;
Structure prediction by ZEFSAII (Michael W. Deem and Ramdas Pophale) SiO2 
 PCOD9071603
Probable space group: P -1
;
_chemical_formula_sum "Si O2"
_cell_formula_units_Z 8
_cell_length_a 5.036314
_cell_length_b 9.794885
_cell_length_c 7.985334
_cell_angle_alpha 65.960700
_cell_angle_beta 66.326203
_cell_angle_gamma 93.632056
_cell_volume 317.120174
_symmetry_space_group_name_H-M "P -1"
_symmetry_group_IT_number 2
_symmetry_cell_setting 'triclinic'
loop_
_space_group_symop_operation_xyz
x,y,z
-x,-y,-z
loop_
_atom_site_type_symbol
_atom_site_label
_atom_site_fract_x
_atom_site_fract_y
_atom_site_fract_z
Si Si1 0.757796 0.881343 0.001823
Si Si2 0.853002 0.323964 0.176379
Si Si3 0.291375 0.611924 0.454447
Si Si4 0.650348 0.930412 0.651411
O O1 0.497808 0.751872 0.225020
O O2 0.380328 0.041898 0.156365
O O3 0.960710 0.782222 0.905357
O O4 0.000000 0.000000 0.000000
O O5 0.823443 0.319269 0.385779
O O6 0.509714 0.253137 0.235643
O O7 0.000000 0.500000 0.000000
O O8 0.500000 0.500000 0.500000
O O9 0.000000 0.500000 0.500000
O O10 0.500000 0.000000 0.500000
O O11 0.000000 0.000000 0.500000
#
# Coordination Sequence:
#
# PCOD9071603 Si02
#       4
#     2   2   2   2
#     4  12  29  53  86 124 167 222 280 343 419 500
#     4  12  27  53  82 120 172 216 274 350 417 492
#     4  12  29  50  81 124 165 217 278 340 417 499
#     4  12  27  52  81 119 166 220 273 339 416 487
#
# _framework density 25.227031
#
# number of rings (size 3 to 8) (size 9 to 14) (size 15 to 20)
#    0.000    0.000    5.000    3.000    3.500    5.000 
#    0.000    0.000    0.000    0.000    0.000    0.000 
#    0.000    0.000    0.000    0.000    0.000    0.000 
#
# Total GULP energy -44818.108399 kJ/mol
# GULP energy per Si atom -5602.263550 kJ/mol
# Density = 2.516961 g / cm^3
# Si number density = 25.227031 Si / 1000 Ang^3
#
#
#
# Elastic Constant Matrix: (Units=GPa)
#
#
# Indices 1 2 3 4 5 6 
#
# 1 203.4060 95.4311 86.8810 -22.5559 -0.8839 42.0863
# 2 95.4311 224.2602 114.2115 -8.1800 -5.0598 40.9686
# 3 86.8810 114.2115 292.7324 -22.8675 10.9674 37.8810
# 4 -22.5559 -8.1800 -22.8675 71.4073 11.7206 -1.8982
# 5 -0.8839 -5.0598 10.9674 11.7206 55.9235 -6.0864
# 6 42.0863 40.9686 37.8810 -1.8982 -6.0864 73.5952
#
#
#
# Elastic Compliance Matrix: (Units=1/GPa)
#
#
# Indices 1 2 3 4 5 6 
#
# 1 0.006896 -0.002047 -0.000783 0.001719 -0.000544 -0.002402
# 2 -0.002047 0.006528 -0.001837 -0.000674 0.000901 -0.001461
# 3 -0.000783 -0.001837 0.004648 0.001244 -0.001461 -0.001011
# 4 0.001719 -0.000674 0.001244 0.015435 -0.003638 -0.001151
# 5 -0.000544 0.000901 -0.001461 -0.003638 0.019227 0.002058
# 6 -0.002402 -0.001461 -0.001011 -0.001151 0.002058 0.016436
#
#
# Mechanical properties :
#
#
# Convention : Reuss Voigt Hill
#
# Bulk Modulus (GPa) = 114.42294 145.93841 130.18068
# Shear Modulus (GPa) = 61.41349 68.44351 64.92850
#
# Velocity S-wave (km/s) = 4.93935 5.21440 5.07873
# Velocity P-wave (km/s) = 8.83093 9.70715 9.27939
#
# Compressibility (1/GPa) = 0.00873951
#
# Stress axis : x y z
#
# Youngs Moduli (GPa) = 145.01052 153.18158 215.15833
#
# Poissons Ratio (x) = 0.31352 0.16840
# Poissons Ratio (y) = 0.29679 0.39522
# Poissons Ratio (z) = 0.11350 0.28137
#
# Static dielectric constant tensor:
#      x y z
#    x 2.099830 -0.120680 -0.005020 
#    y -0.120680 2.057710 0.065830 
#    z -0.005020 0.065830 2.008440 
# 
# From -- ./inp_files/16664.got.cif
#   From: 2010.05.17/outbox.cif.g08.bks.cpg/sg2_9_cif.got.tgz:16664.got - 2010.06.03 11:33:40.
