data_PCOD9071260
_publ_section_title
;
Structure prediction by ZEFSAII (Michael W. Deem and Ramdas Pophale) SiO2 
 PCOD9071260
Probable space group: P -1
;
_chemical_formula_sum "Si O2"
_cell_formula_units_Z 15
_cell_length_a 17.459088
_cell_length_b 8.931614
_cell_length_c 9.521156
_cell_angle_alpha 30.870527
_cell_angle_beta 112.812218
_cell_angle_gamma 100.266338
_cell_volume 663.661897
_symmetry_space_group_name_H-M "P -1"
_symmetry_group_IT_number 2
_symmetry_cell_setting 'triclinic'
loop_
_space_group_symop_operation_xyz
x,y,z
-x,-y,-z
loop_
_atom_site_type_symbol
_atom_site_label
_atom_site_fract_x
_atom_site_fract_y
_atom_site_fract_z
Si Si1 0.941714 0.273384 0.643323
Si Si2 0.224539 0.618974 0.364058
Si Si3 0.408554 0.278424 0.193903
Si Si4 0.500000 0.000000 0.000000
Si Si5 0.912883 0.080684 0.464915
Si Si6 0.652554 0.963471 0.937276
Si Si7 0.628736 0.026250 0.324888
Si Si8 0.818830 0.598318 0.777760
O O1 0.846208 0.359468 0.580949
O O2 0.929383 0.180150 0.551722
O O3 0.000000 0.500000 0.500000
O O4 0.000000 0.000000 0.000000
O O5 0.279571 0.855557 0.197027
O O6 0.177302 0.602659 0.197202
O O7 0.300767 0.303423 0.705502
O O8 0.500000 0.000000 0.500000
O O9 0.365491 0.191443 0.094640
O O10 0.367384 0.236515 0.346388
O O11 0.402215 0.635701 0.896778
O O12 0.439291 0.872824 0.179426
O O13 0.562058 0.044345 0.136554
O O14 0.890480 0.766595 0.705200
O O15 0.836798 0.362438 0.110468
O O16 0.000000 0.000000 0.500000
O O17 0.730097 0.892736 0.461000
#
# Coordination Sequence:
#
# PCOD9071260 Si02
#       8
#     2   2   2   1   2   2   2   2
#     4  12  26  49  77 109 149 199 247 303 381 464
#     4  12  27  48  73 110 149 194 246 319 371 448
#     4  12  27  47  71 102 145 194 250 311 368 447
#     4  12  28  50  76 108 148 210 256 306 394 444
#     4  12  26  47  78 111 150 200 247 306 382 464
#     4  12  28  47  73 106 148 196 255 309 379 445
#     4  12  28  46  74 106 149 196 255 314 378 448
#     4  12  26  47  72 112 150 192 250 316 373 445
#
# _framework density 22.601870999999999
#
# number of rings (size 3 to 8) (size 9 to 14) (size 15 to 20)
#    0.000    0.000    2.667    6.400    9.333    1.067 
#    0.000    0.000    0.000    0.000    0.000    0.000 
#    0.000    0.000    0.000    0.000    0.000    0.000 
#
# Total GULP energy -83529.691877 kJ/mol
# GULP energy per Si atom -5568.646125 kJ/mol
# Density = 2.255043 g / cm^3
# Si number density = 22.601871 Si / 1000 Ang^3
#
#
#
# Elastic Constant Matrix: (Units=GPa)
#
#
# Indices 1 2 3 4 5 6 
#
# 1 190.9424 14.6950 10.7429 -23.6626 -6.7413 4.7842
# 2 14.6950 214.0171 54.1682 48.7500 -13.2428 19.0904
# 3 10.7429 54.1682 122.3005 1.0459 -8.0274 11.4690
# 4 -23.6626 48.7500 1.0459 49.2853 -5.4177 -9.0053
# 5 -6.7413 -13.2428 -8.0274 -5.4177 40.3657 -10.8535
# 6 4.7842 19.0904 11.4690 -9.0053 -10.8535 32.5299
#
#
#
# Elastic Compliance Matrix: (Units=1/GPa)
#
#
# Indices 1 2 3 4 5 6 
#
# 1 0.006001 -0.001672 0.000090 0.005095 0.001706 0.002047
# 2 -0.001672 0.008494 -0.002951 -0.010595 -0.001411 -0.007102
# 3 0.000090 -0.002951 0.009576 0.002803 0.001198 -0.000482
# 4 0.005095 -0.010595 0.002803 0.037147 0.007567 0.017288
# 5 0.001706 -0.001411 0.001198 0.007567 0.029061 0.011946
# 6 0.002047 -0.007102 -0.000482 0.017288 0.011946 0.043549
#
#
# Mechanical properties :
#
#
# Convention : Reuss Voigt Hill
#
# Bulk Modulus (GPa) = 66.65104 76.27468 71.46286
# Shear Modulus (GPa) = 33.80751 54.27977 44.04364
#
# Velocity S-wave (km/s) = 3.87173 4.90589 4.41917
# Velocity P-wave (km/s) = 7.03848 8.11854 7.59773
#
# Compressibility (1/GPa) = 0.01500352
#
# Stress axis : x y z
#
# Youngs Moduli (GPa) = 166.63384 117.73318 104.43236
#
# Poissons Ratio (x) = 0.19691 -0.00940
# Poissons Ratio (y) = 0.27869 0.30819
# Poissons Ratio (z) = -0.01501 0.34744
#
# Static dielectric constant tensor:
#      x y z
#    x 2.353350 0.001620 0.089670 
#    y 0.001620 1.763840 -0.027870 
#    z 0.089670 -0.027870 1.807990 
# 
# From -- ./inp_files/224153.got.cif
#   From: 2010.05.17/outbox.cif.g08.bks.cpg/sg2_113_cif.got.tgz:224153.got - 2010.06.03 11:33:40.
