data_PCOD9071288
_publ_section_title
;
Structure prediction by ZEFSAII (Michael W. Deem and Ramdas Pophale) SiO2 
 PCOD9071288
Probable space group: P -1
;
_chemical_formula_sum "Si O2"
_cell_formula_units_Z 16
_cell_length_a 13.161908
_cell_length_b 8.663549
_cell_length_c 8.344561
_cell_angle_alpha 131.433906
_cell_angle_beta 79.722717
_cell_angle_gamma 101.415501
_cell_volume 697.803169
_symmetry_space_group_name_H-M "P -1"
_symmetry_group_IT_number 2
_symmetry_cell_setting 'triclinic'
loop_
_space_group_symop_operation_xyz
x,y,z
-x,-y,-z
loop_
_atom_site_type_symbol
_atom_site_label
_atom_site_fract_x
_atom_site_fract_y
_atom_site_fract_z
Si Si1 0.955371 0.200507 0.581433
Si Si2 0.892115 0.061800 0.145298
Si Si3 0.459139 0.208022 0.219337
Si Si4 0.250347 0.330960 0.200567
Si Si5 0.845998 0.501363 0.340724
Si Si6 0.592378 0.882392 0.458083
Si Si7 0.639664 0.464554 0.176046
Si Si8 0.736646 0.259708 0.734648
O O1 0.914423 0.142969 0.374729
O O2 0.855899 0.254990 0.745967
O O3 0.045353 0.388979 0.678187
O O4 0.000000 0.000000 0.500000
O O5 0.852758 0.257931 0.199305
O O6 0.809718 0.859261 0.010744
O O7 0.000000 0.000000 0.000000
O O8 0.358172 0.265282 0.192385
O O9 0.429446 0.174449 0.389369
O O10 0.555535 0.378853 0.271376
O O11 0.500000 0.000000 0.000000
O O12 0.178906 0.387163 0.408945
O O13 0.269023 0.542847 0.240966
O O14 0.749737 0.533761 0.275576
O O15 0.602707 0.659618 0.226189
O O16 0.500000 0.000000 0.500000
O O17 0.694766 0.041523 0.518831
O O18 0.662225 0.288152 0.924458
#
# Coordination Sequence:
#
# PCOD9071288 Si02
#       8
#     2   2   2   2   2   2   2   2
#     4  12  28  48  74 109 152 186 241 307 361 431
#     4  12  26  47  78 105 142 195 244 295 363 429
#     4  12  26  49  75 107 146 192 242 301 362 433
#     4  12  27  48  77 104 149 191 246 300 360 435
#     4  12  26  50  75 106 145 194 246 295 359 440
#     4  12  28  47  75 107 150 190 246 304 363 429
#     4  12  28  48  77 106 147 198 241 296 370 434
#     4  12  29  48  70 111 150 189 245 302 361 433
#
# _framework density 22.929103999999999
#
# number of rings (size 3 to 8) (size 9 to 14) (size 15 to 20)
#    0.000    0.000    5.000    3.750    8.750    1.500 
#    0.000    0.000    0.000    0.000    0.000    0.000 
#    0.000    0.000    0.000    0.000    0.000    0.000 
#
# Total GULP energy -89672.709480 kJ/mol
# GULP energy per Si atom -5604.544343 kJ/mol
# Density = 2.287692 g / cm^3
# Si number density = 22.929104 Si / 1000 Ang^3
#
#
#
# Elastic Constant Matrix: (Units=GPa)
#
#
# Indices 1 2 3 4 5 6 
#
# 1 140.3426 53.8833 9.8435 9.0245 -14.1693 4.6745
# 2 53.8833 124.5432 7.8972 31.0528 -4.8641 -0.2742
# 3 9.8435 7.8972 48.3012 26.1124 -13.4830 2.8054
# 4 9.0245 31.0528 26.1124 35.1569 -1.5628 0.3656
# 5 -14.1693 -4.8641 -13.4830 -1.5628 43.4464 9.0855
# 6 4.6745 -0.2742 2.8054 0.3656 9.0855 52.8060
#
#
#
# Elastic Compliance Matrix: (Units=1/GPa)
#
#
# Indices 1 2 3 4 5 6 
#
# 1 0.009071 -0.004602 -0.002435 0.003647 0.002043 -0.001074
# 2 -0.004602 0.013918 0.008760 -0.017518 0.002197 -0.000242
# 3 -0.002435 0.008760 0.045717 -0.040410 0.013813 -0.004264
# 4 0.003647 -0.017518 -0.040410 0.072457 -0.011373 0.003188
# 5 0.002043 0.002197 0.013813 -0.011373 0.029023 -0.005818
# 6 -0.001074 -0.000242 -0.004264 0.003188 -0.005818 0.020237
#
#
# Mechanical properties :
#
#
# Convention : Reuss Voigt Hill
#
# Bulk Modulus (GPa) = 13.85945 50.71498 32.28722
# Shear Modulus (GPa) = 23.69375 42.38606 33.03991
#
# Velocity S-wave (km/s) = 3.21806 4.30416 3.80012
# Velocity P-wave (km/s) = 4.45707 6.84597 5.77637
#
# Compressibility (1/GPa) = 0.07215292
#
# Stress axis : x y z
#
# Youngs Moduli (GPa) = 110.24641 71.84935 21.87362
#
# Poissons Ratio (x) = 0.33064 0.05326
# Poissons Ratio (y) = 0.50733 -0.19162
# Poissons Ratio (z) = 0.26844 -0.62942
#
# Static dielectric constant tensor:
#      x y z
#    x 1.839130 0.011630 0.001850 
#    y 0.011630 1.822510 0.006170 
#    z 0.001850 0.006170 1.907320 
# 
# From -- ./inp_files/245883.got.cif
#   From: 2010.05.17/outbox.cif.g08.bks.cpg/sg2_123_cif.got.tgz:245883.got - 2010.06.03 11:33:40.
