data_PCOD9071616
_publ_section_title
;
Structure prediction by ZEFSAII (Michael W. Deem and Ramdas Pophale) SiO2 
 PCOD9071616
Probable space group: P -1
;
_chemical_formula_sum "Si O2"
_cell_formula_units_Z 15
_cell_length_a 12.611232
_cell_length_b 6.966680
_cell_length_c 6.649317
_cell_angle_alpha 79.637251
_cell_angle_beta 114.495368
_cell_angle_gamma 88.277463
_cell_volume 519.360823
_symmetry_space_group_name_H-M "P -1"
_symmetry_group_IT_number 2
_symmetry_cell_setting 'triclinic'
loop_
_space_group_symop_operation_xyz
x,y,z
-x,-y,-z
loop_
_atom_site_type_symbol
_atom_site_label
_atom_site_fract_x
_atom_site_fract_y
_atom_site_fract_z
Si Si1 0.219403 0.099240 0.565882
Si Si2 0.505610 0.933467 0.252196
Si Si3 0.113268 0.855207 0.219848
Si Si4 0.500000 0.500000 0.000000
Si Si5 0.370296 0.630460 0.443566
Si Si6 0.087533 0.839569 0.729871
Si Si7 0.102635 0.371012 0.762807
Si Si8 0.337429 0.306095 0.165140
O O1 0.141748 0.051053 0.323445
O O2 0.354013 0.095301 0.611524
O O3 0.160043 0.286109 0.611653
O O4 0.210619 0.910609 0.740583
O O5 0.560839 0.407512 0.285171
O O6 0.440250 0.749498 0.308727
O O7 0.424159 0.105821 0.268208
O O8 0.500000 0.000000 0.000000
O O9 0.203275 0.289973 0.013339
O O10 0.242212 0.737836 0.361121
O O11 0.983508 0.276830 0.741927
O O12 0.378615 0.424530 0.983359
O O13 0.345853 0.437925 0.340888
O O14 0.084156 0.608489 0.728063
O O15 0.085451 0.879329 0.958130
O O16 0.000000 0.000000 0.500000
#
# Coordination Sequence:
#
# PCOD9071616 Si02
#       8
#     2   2   2   1   2   2   2   2
#     4  12  30  56  90 138 191 245 319 400 480 577
#     4  12  27  57  97 140 190 255 323 401 488 575
#     4  12  29  59  95 136 194 248 322 399 480 587
#     4  12  30  58  84 136 194 242 310 406 474 568
#     4  12  30  60  93 139 195 252 323 405 486 580
#     4  12  30  60  91 136 190 247 319 398 481 575
#     4  12  29  59  96 138 189 255 315 390 494 575
#     4  12  28  54  94 136 189 250 326 390 488 583
#
# _framework density 28.881658000000002
#
# number of rings (size 3 to 8) (size 9 to 14) (size 15 to 20)
#    0.000    0.000    2.667    4.400    3.733    6.400 
#    4.800    2.667    0.000    1.600    0.000    0.000 
#    0.000    0.000    0.000    0.000    0.000    0.000 
#
# Total GULP energy -83834.290178 kJ/mol
# GULP energy per Si atom -5588.952679 kJ/mol
# Density = 2.881592 g / cm^3
# Si number density = 28.881658 Si / 1000 Ang^3
#
#
#
# Elastic Constant Matrix: (Units=GPa)
#
#
# Indices 1 2 3 4 5 6 
#
# 1 246.8165 81.7689 123.1997 8.5214 3.4958 27.2989
# 2 81.7689 244.7614 109.2355 21.2911 2.7514 -10.5315
# 3 123.1997 109.2355 234.4327 14.2432 -4.1083 7.8719
# 4 8.5214 21.2911 14.2432 40.3623 9.8760 -3.3939
# 5 3.4958 2.7514 -4.1083 9.8760 76.1241 -2.8569
# 6 27.2989 -10.5315 7.8719 -3.3939 -2.8569 51.4630
#
#
#
# Elastic Compliance Matrix: (Units=1/GPa)
#
#
# Indices 1 2 3 4 5 6 
#
# 1 0.006021 -0.000968 -0.002623 0.000034 -0.000501 -0.003016
# 2 -0.000968 0.005555 -0.002027 -0.001867 0.000046 0.001840
# 3 -0.002623 -0.002027 0.006657 -0.000894 0.000667 -0.000064
# 4 0.000034 -0.001867 -0.000894 0.027022 -0.003438 0.001328
# 5 -0.000501 0.000046 0.000667 -0.003438 0.013666 0.000705
# 6 -0.003016 0.001840 -0.000064 0.001328 0.000705 0.021544
#
#
# Mechanical properties :
#
#
# Convention : Reuss Voigt Hill
#
# Bulk Modulus (GPa) = 142.92445 150.49098 146.70772
# Shear Modulus (GPa) = 53.17308 61.04364 57.10836
#
# Velocity S-wave (km/s) = 4.29542 4.60235 4.45153
# Velocity P-wave (km/s) = 8.61362 8.97003 8.79363
#
# Compressibility (1/GPa) = 0.00699670
#
# Stress axis : x y z
#
# Youngs Moduli (GPa) = 166.08688 180.02650 150.22826
#
# Poissons Ratio (x) = 0.17429 0.39399
# Poissons Ratio (y) = 0.16079 0.30452
# Poissons Ratio (z) = 0.43558 0.36492
#
# Static dielectric constant tensor:
#      x y z
#    x 2.542780 -0.074590 -0.036250 
#    y -0.074590 2.423000 0.072330 
#    z -0.036250 0.072330 2.354060 
# 
# From -- ./inp_files/322360.got.cif
#   From: 2010.05.17/outbox.cif.g08.bks.cpg/sg2_162_cif.got.tgz:322360.got - 2010.06.03 11:33:40.
