data_PCOD9071550
_publ_section_title
;
Structure prediction by ZEFSAII (Michael W. Deem and Ramdas Pophale) SiO2 
 PCOD9071550
Probable space group: P -1
;
_chemical_formula_sum "Si O2"
_cell_formula_units_Z 14
_cell_length_a 12.835391
_cell_length_b 8.563815
_cell_length_c 9.887747
_cell_angle_alpha 91.897251
_cell_angle_beta 42.250718
_cell_angle_gamma 65.258307
_cell_volume 549.176030
_symmetry_space_group_name_H-M "P -1"
_symmetry_group_IT_number 2
_symmetry_cell_setting 'triclinic'
loop_
_space_group_symop_operation_xyz
x,y,z
-x,-y,-z
loop_
_atom_site_type_symbol
_atom_site_label
_atom_site_fract_x
_atom_site_fract_y
_atom_site_fract_z
Si Si1 0.489822 0.832080 0.947664
Si Si2 0.072350 0.471620 0.586398
Si Si3 0.394515 0.913116 0.546959
Si Si4 0.963626 0.894178 0.729809
Si Si5 0.972312 0.361424 0.937387
Si Si6 0.310692 0.709080 0.827090
Si Si7 0.570112 0.319989 0.750017
O O1 0.534448 0.672219 0.013559
O O2 0.678355 0.703362 0.656664
O O3 0.250080 0.968153 0.145025
O O4 0.500000 0.000000 0.000000
O O5 0.003066 0.685898 0.715528
O O6 0.975436 0.407761 0.777308
O O7 0.000000 0.500000 0.500000
O O8 0.416664 0.759739 0.628126
O O9 0.450094 0.807008 0.343942
O O10 0.500000 0.000000 0.500000
O O11 0.161405 0.123058 0.772453
O O12 0.186840 0.806141 0.463227
O O13 0.887374 0.064011 0.921812
O O14 0.000000 0.500000 0.000000
O O15 0.776923 0.387259 0.162055
O O16 0.456775 0.544723 0.800249
#
# Coordination Sequence:
#
# PCOD9071550 Si02
#       7
#     2   2   2   2   2   2   2
#     4  12  27  48  79 113 159 208 263 322 399 473
#     4  12  27  49  81 119 161 207 265 327 397 478
#     4  12  28  48  80 112 159 206 265 330 400 472
#     4  12  28  48  81 110 162 201 266 320 402 464
#     4  12  27  50  83 116 161 211 268 328 404 476
#     4  12  28  51  79 116 157 206 269 330 398 471
#     4  12  28  50  77 112 158 206 266 328 394 473
#
# _framework density 25.492735
#
# number of rings (size 3 to 8) (size 9 to 14) (size 15 to 20)
#    0.000    0.000    2.857    5.571    8.000    4.571 
#    0.000    0.000    0.000    0.000    0.000    0.000 
#    0.000    0.000    0.000    0.000    0.000    0.000 
#
# Total GULP energy -78428.151473 kJ/mol
# GULP energy per Si atom -5602.010820 kJ/mol
# Density = 2.543471 g / cm^3
# Si number density = 25.492735 Si / 1000 Ang^3
#
#
#
# Elastic Constant Matrix: (Units=GPa)
#
#
# Indices 1 2 3 4 5 6 
#
# 1 148.4744 49.0435 20.8146 -13.6809 -19.5429 25.1454
# 2 49.0435 163.9265 64.3919 -1.7382 -1.8431 11.3455
# 3 20.8146 64.3919 99.6491 19.1910 -8.4561 8.5710
# 4 -13.6809 -1.7382 19.1910 60.0624 5.6132 -4.2028
# 5 -19.5429 -1.8431 -8.4561 5.6132 31.4666 1.1003
# 6 25.1454 11.3455 8.5710 -4.2028 1.1003 43.0224
#
#
#
# Elastic Compliance Matrix: (Units=1/GPa)
#
#
# Indices 1 2 3 4 5 6 
#
# 1 0.009152 -0.002482 0.000387 0.001026 0.005628 -0.004815
# 2 -0.002482 0.009190 -0.006098 0.001966 -0.003011 0.000511
# 3 0.000387 -0.006098 0.015652 -0.005745 0.005199 -0.002430
# 4 0.001026 0.001966 -0.005745 0.019320 -0.004309 0.002024
# 5 0.005628 -0.003011 0.005199 -0.004309 0.037436 -0.004909
# 6 -0.004815 0.000511 -0.002430 0.002024 -0.004909 0.026730
#
#
# Mechanical properties :
#
#
# Convention : Reuss Voigt Hill
#
# Bulk Modulus (GPa) = 56.80062 75.61667 66.20865
# Shear Modulus (GPa) = 35.78180 45.43029 40.60604
#
# Velocity S-wave (km/s) = 3.75054 4.22606 3.99538
# Velocity P-wave (km/s) = 6.40975 7.31705 6.87837
#
# Compressibility (1/GPa) = 0.01760544
#
# Stress axis : x y z
#
# Youngs Moduli (GPa) = 109.26903 108.81435 63.89129
#
# Poissons Ratio (x) = 0.27013 -0.02470
# Poissons Ratio (y) = 0.27126 0.38961
# Poissons Ratio (z) = -0.04224 0.66355
#
# Static dielectric constant tensor:
#      x y z
#    x 2.197500 -0.036400 -0.028960 
#    y -0.036400 1.943950 -0.008520 
#    z -0.028960 -0.008520 2.023650 
# 
# From -- ./inp_files/238828.got.cif
#   From: 2010.05.17/outbox.cif.g08.bks.cpg/sg2_120_cif.got.tgz:238828.got - 2010.06.03 11:33:40.
