data_PCOD9071875
_publ_section_title
;
Structure prediction by ZEFSAII (Michael W. Deem and Ramdas Pophale) SiO2 
 PCOD9071875
Probable space group: P -1
;
_chemical_formula_sum "Si O2"
_cell_formula_units_Z 16
_cell_length_a 25.654059
_cell_length_b 12.624515
_cell_length_c 9.389604
_cell_angle_alpha 136.860730
_cell_angle_beta 36.454538
_cell_angle_gamma 153.058465
_cell_volume 817.776833
_symmetry_space_group_name_H-M "P -1"
_symmetry_group_IT_number 2
_symmetry_cell_setting 'triclinic'
loop_
_space_group_symop_operation_xyz
x,y,z
-x,-y,-z
loop_
_atom_site_type_symbol
_atom_site_label
_atom_site_fract_x
_atom_site_fract_y
_atom_site_fract_z
Si Si1 0.147312 0.832810 0.406470
Si Si2 0.810776 0.726739 0.729801
Si Si3 0.332144 0.660011 0.139702
Si Si4 0.767989 0.419197 0.279140
Si Si5 0.924291 0.106700 0.655178
Si Si6 0.368842 0.865968 0.969206
Si Si7 0.027483 0.690781 0.818476
Si Si8 0.849352 0.352124 0.285894
O O1 0.277159 0.898791 0.207628
O O2 0.098910 0.845892 0.672672
O O3 0.148910 0.953135 0.389768
O O4 0.037904 0.559658 0.332295
O O5 0.717651 0.570810 0.916598
O O6 0.760618 0.545951 0.534958
O O7 0.957540 0.863705 0.589883
O O8 0.828300 0.912219 0.795209
O O9 0.324296 0.688849 0.018433
O O10 0.236327 0.655722 0.425007
O O11 0.480877 0.889314 0.089495
O O12 0.781156 0.281358 0.212695
O O13 0.655012 0.244582 0.239922
O O14 0.904629 0.619585 0.086173
O O15 0.010081 0.371255 0.770064
O O16 0.128693 0.775418 0.801863
#
# Coordination Sequence:
#
# PCOD9071875 Si02
#       8
#     2   2   2   2   2   2   2   2
#     4   9  16  26  47  66  89 116 149 188 217 261
#     4   9  18  32  46  66  93 125 145 177 223 265
#     4   9  18  30  48  63  93 119 151 180 224 267
#     4   9  18  25  45  68  95 111 144 187 225 263
#     4   8  16  30  49  63  92 121 153 172 218 272
#     4  10  18  30  45  74  87 114 154 187 223 262
#     4   9  15  25  43  69  92 114 140 183 238 260
#     4   9  16  29  46  68  93 120 139 185 226 265
#
# _framework density 19.565238999999998
#
# number of rings (size 3 to 8) (size 9 to 14) (size 15 to 20)
#    0.000    3.250    1.250    0.375    5.250    3.000 
#    0.000    1.250    2.750    0.000    0.000    3.500 
#    0.000    0.000    0.000    0.000    0.000    0.000 
#
# Total GULP energy -89096.666386 kJ/mol
# GULP energy per Si atom -5568.541649 kJ/mol
# Density = 1.952071 g / cm^3
# Si number density = 19.565239 Si / 1000 Ang^3
#
#
#
# Elastic Constant Matrix: (Units=GPa)
#
#
# Indices 1 2 3 4 5 6 
#
# 1 137.5002 45.8667 13.8156 -9.3257 24.4381 -5.9498
# 2 45.8667 46.2986 8.2624 -14.3299 14.2133 -13.0978
# 3 13.8156 8.2624 24.0807 -3.4017 13.2808 -2.0262
# 4 -9.3257 -14.3299 -3.4017 19.8771 -0.7661 10.3616
# 5 24.4381 14.2133 13.2808 -0.7661 22.2051 -6.6939
# 6 -5.9498 -13.0978 -2.0262 10.3616 -6.6939 30.4990
#
#
#
# Elastic Compliance Matrix: (Units=1/GPa)
#
#
# Indices 1 2 3 4 5 6 
#
# 1 0.012025 -0.010786 0.000868 -0.000260 -0.008035 -0.003904
# 2 -0.010786 0.046508 0.004145 0.025607 -0.017827 0.005532
# 3 0.000868 0.004145 0.066590 0.018158 -0.045777 -0.009843
# 4 -0.000260 0.025607 0.018158 0.082352 -0.030941 -0.022617
# 5 -0.008035 -0.017827 -0.045777 -0.030941 0.097524 0.019652
# 6 -0.003904 0.005532 -0.009843 -0.022617 0.019652 0.045745
#
#
# Mechanical properties :
#
#
# Convention : Reuss Voigt Hill
#
# Bulk Modulus (GPa) = 8.80455 38.19656 23.50055
# Shear Modulus (GPa) = 12.49535 23.84524 18.17029
#
# Velocity S-wave (km/s) = 2.52989 3.49485 3.05077
# Velocity P-wave (km/s) = 3.61161 5.98752 4.94439
#
# Compressibility (1/GPa) = 0.11357765
#
# Stress axis : x y z
#
# Youngs Moduli (GPa) = 83.16055 21.50188 15.01718
#
# Poissons Ratio (x) = 0.23192 -0.01304
# Poissons Ratio (y) = 0.89696 -0.06225
# Poissons Ratio (z) = -0.07220 -0.08913
#
# Static dielectric constant tensor:
#      x y z
#    x 1.728510 -0.028310 0.012250 
#    y -0.028310 1.722210 0.026800 
#    z 0.012250 0.026800 1.758910 
# 
# From -- ./inp_files/266842.got.cif
#   From: 2010.05.17/outbox.cif.g08.bks.cpg/sg2_134_cif.got.tgz:266842.got - 2010.06.03 11:33:40.
