data_PCOD9071172
_publ_section_title
;
Structure prediction by ZEFSAII (Michael W. Deem and Ramdas Pophale) SiO2 
 PCOD9071172
Probable space group: P -1
;
_chemical_formula_sum "Si O2"
_cell_formula_units_Z 12
_cell_length_a 4.783884
_cell_length_b 13.015950
_cell_length_c 9.800775
_cell_angle_alpha 105.515011
_cell_angle_beta 63.347101
_cell_angle_gamma 95.249832
_cell_volume 525.254092
_symmetry_space_group_name_H-M "P -1"
_symmetry_group_IT_number 2
_symmetry_cell_setting 'triclinic'
loop_
_space_group_symop_operation_xyz
x,y,z
-x,-y,-z
loop_
_atom_site_type_symbol
_atom_site_label
_atom_site_fract_x
_atom_site_fract_y
_atom_site_fract_z
Si Si1 0.784752 0.921236 0.360339
Si Si2 0.749028 0.211241 0.295669
Si Si3 0.393509 0.537906 0.185116
Si Si4 0.701939 0.928803 0.827838
Si Si5 0.279697 0.780073 0.364803
Si Si6 0.743951 0.451157 0.320487
O O1 0.598533 0.839253 0.278366
O O2 0.500000 0.000000 0.500000
O O3 0.017412 0.149796 0.598733
O O4 0.039900 0.994971 0.264346
O O5 0.513734 0.126456 0.256207
O O6 0.723287 0.225299 0.470821
O O7 0.692510 0.325652 0.280879
O O8 0.097354 0.164952 0.175686
O O9 0.289600 0.661985 0.260534
O O10 0.676719 0.512809 0.216957
O O11 0.103015 0.472210 0.283080
O O12 0.500000 0.500000 0.000000
O O13 0.500000 0.000000 0.000000
O O14 0.500000 0.500000 0.500000
#
# Coordination Sequence:
#
# PCOD9071172 Si02
#       6
#     2   2   2   2   2   2
#     4  12  26  44  74 105 140 188 242 297 353 426
#     4  12  26  45  77 104 141 193 244 293 353 439
#     4  12  28  49  74 112 151 185 238 312 364 423
#     4  12  28  47  68 106 147 186 238 300 362 419
#     4  12  26  44  77 106 140 190 248 290 360 431
#     4  12  26  47  79 108 144 192 248 293 362 439
#
# _framework density 22.846084000000001
#
# number of rings (size 3 to 8) (size 9 to 14) (size 15 to 20)
#    0.000    0.000    3.333    6.000    2.333    4.000 
#    0.000    0.000    0.000    0.000    0.000    0.000 
#    0.000    0.000    0.000    0.000    0.000    0.000 
#
# Total GULP energy -67231.786068 kJ/mol
# GULP energy per Si atom -5602.648839 kJ/mol
# Density = 2.279409 g / cm^3
# Si number density = 22.846084 Si / 1000 Ang^3
#
#
#
# Elastic Constant Matrix: (Units=GPa)
#
#
# Indices 1 2 3 4 5 6 
#
# 1 141.2978 40.2336 48.6748 11.2700 -10.3994 -3.3460
# 2 40.2336 121.3217 69.7684 30.0605 -11.1398 0.4144
# 3 48.6748 69.7684 157.2309 21.8900 -23.5996 3.8836
# 4 11.2700 30.0605 21.8900 25.6488 0.3298 -1.3666
# 5 -10.3994 -11.1398 -23.5996 0.3298 29.7823 3.0920
# 6 -3.3460 0.4144 3.8836 -1.3666 3.0920 54.8958
#
#
#
# Elastic Compliance Matrix: (Units=1/GPa)
#
#
# Indices 1 2 3 4 5 6 
#
# 1 0.008213 -0.001618 -0.001669 -0.000269 0.000884 0.000574
# 2 -0.001618 0.014319 -0.003743 -0.012922 0.002007 -0.000377
# 3 -0.001669 -0.003743 0.009973 -0.003534 0.006084 -0.001210
# 4 -0.000269 -0.012922 -0.003534 0.057497 -0.008597 0.002247
# 5 0.000884 0.002007 0.006084 -0.008597 0.039848 -0.002850
# 6 0.000574 -0.000377 -0.001210 0.002247 -0.002850 0.018556
#
#
# Mechanical properties :
#
#
# Convention : Reuss Voigt Hill
#
# Bulk Modulus (GPa) = 54.21669 81.91154 68.06411
# Shear Modulus (GPa) = 29.65326 39.47697 34.56511
#
# Velocity S-wave (km/s) = 3.60663 4.16138 3.89389
# Velocity P-wave (km/s) = 6.41299 7.68250 7.07628
#
# Compressibility (1/GPa) = 0.01844450
#
# Stress axis : x y z
#
# Youngs Moduli (GPa) = 121.75932 69.83578 100.27378
#
# Poissons Ratio (x) = 0.11302 0.16731
# Poissons Ratio (y) = 0.19705 0.37536
# Poissons Ratio (z) = 0.20316 0.26142
#
# Static dielectric constant tensor:
#      x y z
#    x 1.827440 -0.012200 0.022630 
#    y -0.012200 1.870430 -0.013800 
#    z 0.022630 -0.013800 1.842770 
# 
# From -- ./inp_files/367133.got.cif
#   From: 2010.05.17/outbox.cif.g08.bks.cpg/sg2_184_cif.got.tgz:367133.got - 2010.06.03 11:33:40.
