data_PCOD9071263
_publ_section_title
;
Structure prediction by ZEFSAII (Michael W. Deem and Ramdas Pophale) SiO2 
 PCOD9071263
Probable space group: P -1
;
_chemical_formula_sum "Si O2"
_cell_formula_units_Z 14
_cell_length_a 10.769432
_cell_length_b 12.491199
_cell_length_c 6.628415
_cell_angle_alpha 132.325511
_cell_angle_beta 105.939639
_cell_angle_gamma 67.110391
_cell_volume 607.225872
_symmetry_space_group_name_H-M "P -1"
_symmetry_group_IT_number 2
_symmetry_cell_setting 'triclinic'
loop_
_space_group_symop_operation_xyz
x,y,z
-x,-y,-z
loop_
_atom_site_type_symbol
_atom_site_label
_atom_site_fract_x
_atom_site_fract_y
_atom_site_fract_z
Si Si1 0.249470 0.378856 0.971565
Si Si2 0.913332 0.421646 0.503502
Si Si3 0.713171 0.391542 0.046015
Si Si4 0.353551 0.970700 0.902536
Si Si5 0.475642 0.665161 0.799737
Si Si6 0.845848 0.068870 0.581389
Si Si7 0.847452 0.849813 0.640777
O O1 0.133715 0.486600 0.195678
O O2 0.379315 0.306122 0.073947
O O3 0.301081 0.475968 0.950279
O O4 0.198491 0.256687 0.674424
O O5 0.781853 0.427867 0.325211
O O6 0.000000 0.500000 0.500000
O O7 0.003889 0.250081 0.358225
O O8 0.587381 0.343837 0.018157
O O9 0.812246 0.247568 0.801017
O O10 0.381886 0.803361 0.804549
O O11 0.267481 0.968720 0.658678
O O12 0.500000 0.000000 0.000000
O O13 0.255293 0.102025 0.160325
O O14 0.500000 0.500000 0.500000
O O15 0.839998 0.003240 0.717258
O O16 0.000000 0.000000 0.500000
#
# Coordination Sequence:
#
# PCOD9071263 Si02
#       7
#     2   2   2   2   2   2   2
#     4  12  27  46  76 106 146 196 245 298 369 441
#     4  12  27  47  76 110 148 191 248 300 364 442
#     4  12  26  47  74 109 144 190 245 307 366 430
#     4  12  30  50  74 109 153 196 245 304 372 439
#     4  12  26  48  75 106 147 191 247 305 366 434
#     4  12  28  47  76 107 149 192 245 307 371 431
#     4  12  28  47  75 107 148 194 245 299 368 444
#
# _framework density 23.055669000000002
#
# number of rings (size 3 to 8) (size 9 to 14) (size 15 to 20)
#    0.000    0.000    4.286    4.286   12.000    2.286 
#    0.000    0.000    0.000    0.000    0.000    0.000 
#    0.000    0.000    0.000    0.000    0.000    0.000 
#
# Total GULP energy -78377.789621 kJ/mol
# GULP energy per Si atom -5598.413544 kJ/mol
# Density = 2.300319 g / cm^3
# Si number density = 23.055669 Si / 1000 Ang^3
#
#
#
# Elastic Constant Matrix: (Units=GPa)
#
#
# Indices 1 2 3 4 5 6 
#
# 1 75.2382 11.3594 -4.6339 -5.6491 -12.9880 -6.6980
# 2 11.3594 106.9445 1.4948 -3.6973 4.1653 -13.6698
# 3 -4.6339 1.4948 77.7056 4.7812 -14.4045 -10.9346
# 4 -5.6491 -3.6973 4.7812 31.4669 -2.6181 -1.7408
# 5 -12.9880 4.1653 -14.4045 -2.6181 32.3588 5.1449
# 6 -6.6980 -13.6698 -10.9346 -1.7408 5.1449 36.3017
#
#
#
# Elastic Compliance Matrix: (Units=1/GPa)
#
#
# Indices 1 2 3 4 5 6 
#
# 1 0.015352 -0.001586 0.002419 0.002928 0.007352 0.002062
# 2 -0.001586 0.010151 -0.000289 0.000948 -0.002608 0.003858
# 3 0.002419 -0.000289 0.014908 -0.001076 0.006954 0.003791
# 4 0.002928 0.000948 -0.001076 0.032922 0.002962 0.001732
# 5 0.007352 -0.002608 0.006954 0.002962 0.037966 -0.002770
# 6 0.002062 0.003858 0.003791 0.001732 -0.002770 0.030998
#
#
# Mechanical properties :
#
#
# Convention : Reuss Voigt Hill
#
# Bulk Modulus (GPa) = 24.09714 30.70322 27.40018
# Shear Modulus (GPa) = 32.24953 36.80334 34.52643
#
# Velocity S-wave (km/s) = 3.74407 3.99968 3.87398
# Velocity P-wave (km/s) = 5.40048 5.88862 5.64982
#
# Compressibility (1/GPa) = 0.04149870
#
# Stress axis : x y z
#
# Youngs Moduli (GPa) = 65.13753 98.51603 67.07936
#
# Poissons Ratio (x) = 0.15624 -0.16226
# Poissons Ratio (y) = 0.10331 0.01938
# Poissons Ratio (z) = -0.15756 0.02846
#
# Static dielectric constant tensor:
#      x y z
#    x 2.085430 -0.026160 0.143730 
#    y -0.026160 1.849370 -0.044090 
#    z 0.143730 -0.044090 1.947390 
# 
# From -- ./inp_files/69437.got.cif
#   From: 2010.05.17/outbox.cif.g08.bks.cpg/sg2_35_cif.got.tgz:69437.got - 2010.06.03 11:33:40.
