data_PCOD9071807
_publ_section_title
;
Structure prediction by ZEFSAII (Michael W. Deem and Ramdas Pophale) SiO2 
 PCOD9071807
Probable space group: P -1
;
_chemical_formula_sum "Si O2"
_cell_formula_units_Z 16
_cell_length_a 5.100126
_cell_length_b 20.957505
_cell_length_c 6.956178
_cell_angle_alpha 51.310411
_cell_angle_beta 92.703314
_cell_angle_gamma 92.182297
_cell_volume 579.667015
_symmetry_space_group_name_H-M "P -1"
_symmetry_group_IT_number 2
_symmetry_cell_setting 'triclinic'
loop_
_space_group_symop_operation_xyz
x,y,z
-x,-y,-z
loop_
_atom_site_type_symbol
_atom_site_label
_atom_site_fract_x
_atom_site_fract_y
_atom_site_fract_z
Si Si1 0.009615 0.110655 0.183938
Si Si2 0.205012 0.632866 0.380885
Si Si3 0.497726 0.281954 0.286266
Si Si4 0.803760 0.130101 0.550723
Si Si5 0.766368 0.448757 0.830101
Si Si6 0.714286 0.965755 0.317494
Si Si7 0.857043 0.601440 0.763805
Si Si8 0.297027 0.263044 0.910136
O O1 0.218812 0.055269 0.414523
O O2 0.836610 0.145243 0.290925
O O3 0.176817 0.182655 0.959928
O O4 0.820195 0.058349 0.139267
O O5 0.246322 0.555134 0.391642
O O6 0.440302 0.696644 0.239978
O O7 0.124770 0.614359 0.629423
O O8 0.935496 0.672003 0.220969
O O9 0.709242 0.214891 0.478629
O O10 0.290070 0.314465 0.369988
O O11 0.613971 0.366601 0.043887
O O12 0.348632 0.241335 0.176347
O O13 0.576461 0.061297 0.694139
O O14 0.082613 0.091464 0.682708
O O15 0.691802 0.534318 0.763738
O O16 0.053683 0.433932 0.962207
#
# Coordination Sequence:
#
# PCOD9071807 Si02
#       8
#     2   2   2   2   2   2   2   2
#     4   9  18  31  53  85 130 159 205 256 305 363
#     4  11  25  43  63  94 127 166 210 259 313 370
#     4  11  21  37  62  88 126 164 209 257 317 372
#     4  10  18  29  51  86 123 159 201 257 305 363
#     4  10  23  43  65  92 123 166 209 265 319 365
#     4   9  19  27  51  86 129 157 203 260 303 359
#     4  11  24  42  65  92 124 166 213 260 315 384
#     4  11  22  38  61  91 127 168 203 259 314 368
#
# _framework density 27.602053999999999
#
# number of rings (size 3 to 8) (size 9 to 14) (size 15 to 20)
#    0.750    1.000    2.500    2.625    3.500    0.000 
#    0.000    1.875    0.000    0.000    0.000    5.250 
#    0.000    0.000    0.000    0.000    0.000    0.000 
#
# Total GULP energy -89617.063300 kJ/mol
# GULP energy per Si atom -5601.066456 kJ/mol
# Density = 2.753923 g / cm^3
# Si number density = 27.602054 Si / 1000 Ang^3
#
#
#
# Elastic Constant Matrix: (Units=GPa)
#
#
# Indices 1 2 3 4 5 6 
#
# 1 134.7561 48.4623 25.9147 -8.1203 -32.6488 -5.6906
# 2 48.4623 145.6959 52.7466 -14.8674 -23.0315 -11.7060
# 3 25.9147 52.7466 75.4354 -6.9237 -35.1042 8.3690
# 4 -8.1203 -14.8674 -6.9237 49.5078 18.5675 0.4095
# 5 -32.6488 -23.0315 -35.1042 18.5675 52.3040 -10.2052
# 6 -5.6906 -11.7060 8.3690 0.4095 -10.2052 47.8295
#
#
#
# Elastic Compliance Matrix: (Units=1/GPa)
#
#
# Indices 1 2 3 4 5 6 
#
# 1 0.009720 -0.002668 0.001281 -0.001527 0.006627 0.001706
# 2 -0.002668 0.010712 -0.007864 0.002608 -0.002544 0.003115
# 3 0.001281 -0.007864 0.025379 -0.004332 0.015341 -0.002903
# 4 -0.001527 0.002608 -0.004332 0.024531 -0.011712 -0.001494
# 5 0.006627 -0.002544 0.015341 -0.011712 0.037687 0.005623
# 6 0.001706 0.003115 -0.002903 -0.001494 0.005623 0.023593
#
#
# Mechanical properties :
#
#
# Convention : Reuss Voigt Hill
#
# Bulk Modulus (GPa) = 36.61868 67.79274 52.20571
# Shear Modulus (GPa) = 31.40188 45.17917 38.29052
#
# Velocity S-wave (km/s) = 3.37659 4.05013 3.72860
# Velocity P-wave (km/s) = 5.33828 6.81803 6.12302
#
# Compressibility (1/GPa) = 0.02730847
#
# Stress axis : x y z
#
# Youngs Moduli (GPa) = 102.88514 93.35083 39.40314
#
# Poissons Ratio (x) = 0.24905 -0.05047
# Poissons Ratio (y) = 0.27448 0.30987
# Poissons Ratio (z) = -0.13179 0.73412
#
# Static dielectric constant tensor:
#      x y z
#    x 2.140750 0.008640 -0.001770 
#    y 0.008640 2.184370 0.049700 
#    z -0.001770 0.049700 2.204990 
# 
# From -- ./inp_files/140507.got.cif
#   From: 2010.05.17/outbox.cif.g08.bks.cpg/sg2_71_cif.got.tgz:140507.got - 2010.06.03 11:33:40.
