data_PCOD9071881
_publ_section_title
;
Structure prediction by ZEFSAII (Michael W. Deem and Ramdas Pophale) SiO2 
 PCOD9071881
Probable space group: P -1
;
_chemical_formula_sum "Si O2"
_cell_formula_units_Z 16
_cell_length_a 9.000000
_cell_length_b 9.000000
_cell_length_c 12.000000
_cell_angle_alpha 120.000000
_cell_angle_beta 80.000000
_cell_angle_gamma 90.000000
_cell_volume 824.681318
_symmetry_space_group_name_H-M "P -1"
_symmetry_group_IT_number 2
_symmetry_cell_setting 'triclinic'
loop_
_space_group_symop_operation_xyz
x,y,z
-x,-y,-z
loop_
_atom_site_type_symbol
_atom_site_label
_atom_site_fract_x
_atom_site_fract_y
_atom_site_fract_z
Si Si1 0.264881 0.076140 0.014222
Si Si2 0.938387 0.545847 0.400265
Si Si3 0.762935 0.300526 0.173267
Si Si4 0.338408 0.603815 0.025285
Si Si5 0.562511 0.029424 0.821117
Si Si6 0.203030 0.458703 0.185462
Si Si7 0.636487 0.726412 0.531625
Si Si8 0.458701 0.478997 0.335452
O O1 0.169570 0.259856 0.105957
O O2 0.354534 0.059140 0.113911
O O3 0.390651 0.083977 0.903768
O O4 0.190129 0.900276 0.934019
O O5 0.862634 0.395648 0.283894
O O6 0.812707 0.709409 0.471290
O O7 0.000000 0.500000 0.500000
O O8 0.083861 0.570905 0.317652
O O9 0.595138 0.325479 0.258311
O O10 0.719631 0.391589 0.093314
O O11 0.357612 0.796813 0.135236
O O12 0.213612 0.526797 0.086592
O O13 0.500000 0.500000 0.000000
O O14 0.581434 0.904974 0.665536
O O15 0.362686 0.470391 0.233137
O O16 0.531720 0.655268 0.421919
O O17 0.639854 0.574059 0.567778
#
# Coordination Sequence:
#
# PCOD9071881 Si02
#       8
#     2   2   2   2   2   2   2   2
#     4  10  17  30  57  85 112 137 187 243 280 318
#     4  11  23  37  58  83 117 151 188 231 280 333
#     4  10  21  36  58  89 113 144 187 234 287 332
#     4  11  21  35  59  85 117 147 183 235 283 338
#     4  10  17  32  55  86 110 143 186 239 282 317
#     4  12  21  36  56  87 116 150 186 227 287 338
#     4  10  19  33  55  83 111 147 185 235 277 321
#     4  10  17  31  58  82 107 142 192 230 269 324
#
# _framework density 19.401433999999998
#
# number of rings (size 3 to 8) (size 9 to 14) (size 15 to 20)
#    0.000    1.500    6.250    0.750    0.000    1.000 
#    0.000    1.250    0.000    0.000    0.000    0.000 
#    0.000    0.000    0.000    0.000    0.000    0.000 
#
# Total GULP energy -89090.829499 kJ/mol
# GULP energy per Si atom -5568.176844 kJ/mol
# Density = 1.935728 g / cm^3
# Si number density = 19.401434 Si / 1000 Ang^3
#
#
#
# Elastic Constant Matrix: (Units=GPa)
#
#
# Indices 1 2 3 4 5 6 
#
# 1 60.2071 12.6354 27.2240 1.1521 5.0080 -1.9313
# 2 12.6354 50.4773 29.1764 -1.3403 -0.6408 -2.4185
# 3 27.2240 29.1764 114.6895 12.6706 11.1174 -5.7574
# 4 1.1521 -1.3403 12.6706 28.5062 2.4422 -0.5456
# 5 5.0080 -0.6408 11.1174 2.4422 48.8423 3.5191
# 6 -1.9313 -2.4185 -5.7574 -0.5456 3.5191 3.7364
#
#
#
# Elastic Compliance Matrix: (Units=1/GPa)
#
#
# Indices 1 2 3 4 5 6 
#
# 1 0.019009 -0.002449 -0.003637 0.000942 -0.001502 0.004187
# 2 -0.002449 0.024169 -0.005897 0.003824 0.001392 0.004539
# 3 -0.003637 -0.005897 0.012843 -0.005213 -0.003570 0.016693
# 4 0.000942 0.003824 -0.005213 0.037633 -0.000828 0.001204
# 5 -0.001502 0.001392 -0.003570 -0.000828 0.023490 -0.027621
# 6 0.004187 0.004539 0.016693 0.001204 -0.027621 0.324648
#
#
# Mechanical properties :
#
#
# Convention : Reuss Voigt Hill
#
# Bulk Modulus (GPa) = 31.19713 40.38284 35.78999
# Shear Modulus (GPa) = 10.49441 26.63953 18.56697
#
# Velocity S-wave (km/s) = 2.32827 3.70952 3.09688
# Velocity P-wave (km/s) = 4.83141 6.26154 5.59238
#
# Compressibility (1/GPa) = 0.03205423
#
# Stress axis : x y z
#
# Youngs Moduli (GPa) = 52.60568 41.37532 77.86544
#
# Poissons Ratio (x) = 0.10134 0.28323
# Poissons Ratio (y) = 0.12885 0.45914
# Poissons Ratio (z) = 0.19135 0.24397
#
# Static dielectric constant tensor:
#      x y z
#    x 1.725510 0.031670 -0.032830 
#    y 0.031670 1.698680 -0.010290 
#    z -0.032830 -0.010290 1.688680 
# 
# From -- ./inp_files/215898.got.cif
#   From: 2010.05.17/outbox.ucp.g08.bks.cvg/sg2_108_cif.got.tgz:215898.got - 2010.06.11 11:32:03.
