data_PCOD9071776
_publ_section_title
;
Structure prediction by ZEFSAII (Michael W. Deem and Ramdas Pophale) SiO2 
 PCOD9071776
Probable space group: P -1
;
_chemical_formula_sum "Si O2"
_cell_formula_units_Z 14
_cell_length_a 7.184319
_cell_length_b 8.922190
_cell_length_c 17.127289
_cell_angle_alpha 48.868190
_cell_angle_beta 44.395448
_cell_angle_gamma 64.970575
_cell_volume 576.208672
_symmetry_space_group_name_H-M "P -1"
_symmetry_group_IT_number 2
_symmetry_cell_setting 'triclinic'
loop_
_space_group_symop_operation_xyz
x,y,z
-x,-y,-z
loop_
_atom_site_type_symbol
_atom_site_label
_atom_site_fract_x
_atom_site_fract_y
_atom_site_fract_z
Si Si1 0.735972 0.492935 0.026870
Si Si2 0.259165 0.917170 0.283012
Si Si3 0.070349 0.187069 0.728370
Si Si4 0.340529 0.750271 0.481103
Si Si5 0.601036 0.161662 0.286911
Si Si6 0.040938 0.682005 0.739717
Si Si7 0.616258 0.137714 0.989200
O O1 0.551496 0.308662 0.180745
O O2 0.568912 0.681435 0.019061
O O3 0.000000 0.500000 0.000000
O O4 0.852469 0.508776 0.899054
O O5 0.098483 0.110458 0.283144
O O6 0.266682 0.783370 0.402855
O O7 0.546988 0.010690 0.131901
O O8 0.116712 0.792239 0.297421
O O9 0.355616 0.310266 0.588447
O O10 0.915283 0.201293 0.850448
O O11 0.152236 0.958919 0.775041
O O12 0.131838 0.640395 0.639663
O O13 0.375627 0.980601 0.426583
O O14 0.694133 0.276267 0.298519
O O15 0.500000 0.000000 0.000000
#
# Coordination Sequence:
#
# PCOD9071776 Si02
#       7
#     2   2   2   2   2   2   2
#     4   9  16  29  52  75  94 129 165 195 242 287
#     4   9  17  28  46  75  98 123 162 201 237 281
#     4   8  18  31  50  75  98 125 162 203 237 283
#     4  10  18  29  50  76  98 127 157 201 244 282
#     4   8  17  30  48  76  95 124 165 193 242 284
#     4   9  16  29  46  71 103 124 157 203 237 283
#     4   9  16  30  48  72  98 126 162 202 234 283
#
# _framework density 24.296752999999999
#
# number of rings (size 3 to 8) (size 9 to 14) (size 15 to 20)
#    0.857    2.286    0.000    3.429    0.000    0.571 
#    0.000    2.857    0.000    3.429    7.429   25.000 
#    0.000    0.000    0.000    0.000    0.000    0.000 
#
# Total GULP energy -78159.462014 kJ/mol
# GULP energy per Si atom -5582.818715 kJ/mol
# Density = 2.424145 g / cm^3
# Si number density = 24.296753 Si / 1000 Ang^3
#
#
#
# Elastic Constant Matrix: (Units=GPa)
#
#
# Indices 1 2 3 4 5 6 
#
# 1 80.6216 14.6305 42.2723 1.9019 17.4142 -1.4965
# 2 14.6305 40.4036 39.2543 7.2651 7.2529 0.3664
# 3 42.2723 39.2543 210.8784 21.2111 22.7130 -10.4926
# 4 1.9019 7.2651 21.2111 38.6413 5.2601 -2.5390
# 5 17.4142 7.2529 22.7130 5.2601 40.6030 -2.6420
# 6 -1.4965 0.3664 -10.4926 -2.5390 -2.6420 19.3108
#
#
#
# Elastic Compliance Matrix: (Units=1/GPa)
#
#
# Indices 1 2 3 4 5 6 
#
# 1 0.015066 -0.002753 -0.002152 0.001610 -0.005002 -0.000422
# 2 -0.002753 0.031515 -0.005050 -0.003088 -0.001495 -0.004166
# 3 -0.002152 -0.005050 0.006638 -0.002196 -0.001405 0.003055
# 4 0.001610 -0.003088 -0.002196 0.028066 -0.002393 0.002353
# 5 -0.005002 -0.001495 -0.001405 -0.002393 0.028295 0.002434
# 6 -0.000422 -0.004166 0.003055 0.002353 0.002434 0.054133
#
#
# Mechanical properties :
#
#
# Convention : Reuss Voigt Hill
#
# Bulk Modulus (GPa) = 30.02179 58.24642 44.13411
# Shear Modulus (GPa) = 25.67705 35.42745 30.55225
#
# Velocity S-wave (km/s) = 3.25439 3.82267 3.54992
# Velocity P-wave (km/s) = 5.14825 6.59611 5.91664
#
# Compressibility (1/GPa) = 0.03330914
#
# Stress axis : x y z
#
# Youngs Moduli (GPa) = 66.37404 31.73087 150.65362
#
# Poissons Ratio (x) = 0.08734 0.32420
# Poissons Ratio (y) = 0.18270 0.76085
# Poissons Ratio (z) = 0.14283 0.16025
#
# Static dielectric constant tensor:
#      x y z
#    x 1.980370 0.046900 -0.045210 
#    y 0.046900 1.955430 -0.040260 
#    z -0.045210 -0.040260 1.958230 
# 
# From -- ./inp_files/558420.got.cif
#   From: 2010.05.17/outbox.cif.g08.bks.cpg/sg2_280_cif.got.tgz:558420.got - 2010.06.03 11:33:40.
