data_PCOD9071301
_publ_section_title
;
Structure prediction by ZEFSAII (Michael W. Deem and Ramdas Pophale) SiO2 
 PCOD9071301
Probable space group: P -1
;
_chemical_formula_sum "Si O2"
_cell_formula_units_Z 12
_cell_length_a 12.156460
_cell_length_b 5.067966
_cell_length_c 11.534109
_cell_angle_alpha 62.583308
_cell_angle_beta 54.967425
_cell_angle_gamma 60.576317
_cell_volume 490.683086
_symmetry_space_group_name_H-M "P -1"
_symmetry_group_IT_number 2
_symmetry_cell_setting 'triclinic'
loop_
_space_group_symop_operation_xyz
x,y,z
-x,-y,-z
loop_
_atom_site_type_symbol
_atom_site_label
_atom_site_fract_x
_atom_site_fract_y
_atom_site_fract_z
Si Si1 0.972505 0.046944 0.370931
Si Si2 0.561171 0.701083 0.703869
Si Si3 0.733530 0.224851 0.874934
Si Si4 0.795777 0.738291 0.381438
Si Si5 0.616932 0.766350 0.144318
Si Si6 0.837844 0.205093 0.076508
O O1 0.875903 0.403419 0.345886
O O2 0.123223 0.974428 0.233469
O O3 0.893228 0.823913 0.404980
O O4 0.000000 0.000000 0.500000
O O5 0.653863 0.728994 0.531981
O O6 0.471526 0.465587 0.784175
O O7 0.461958 0.034366 0.739602
O O8 0.333353 0.462599 0.221438
O O9 0.625923 0.024599 0.992910
O O10 0.772470 0.274425 0.973463
O O11 0.779649 0.997225 0.241177
O O12 0.781286 0.548474 0.100590
O O13 0.000000 0.000000 0.000000
#
# Coordination Sequence:
#
# PCOD9071301 Si02
#       6
#     2   2   2   2   2   2
#     4  12  26  47  79 114 150 196 258 317 374 435
#     4  12  28  49  78 111 153 201 256 311 372 451
#     4  12  27  48  83 111 154 197 259 317 376 445
#     4  12  28  48  77 115 155 198 252 311 384 450
#     4  12  28  50  77 112 152 202 255 310 376 451
#     4  12  28  51  77 115 155 200 251 314 382 456
#
# _framework density 24.455701000000001
#
# number of rings (size 3 to 8) (size 9 to 14) (size 15 to 20)
#    0.000    0.000    5.000    3.500    4.667    2.667 
#    0.000    0.000    0.000    0.000    0.000    0.000 
#    0.000    0.000    0.000    0.000    0.000    0.000 
#
# Total GULP energy -67240.478883 kJ/mol
# GULP energy per Si atom -5603.373240 kJ/mol
# Density = 2.440004 g / cm^3
# Si number density = 24.455701 Si / 1000 Ang^3
#
#
#
# Elastic Constant Matrix: (Units=GPa)
#
#
# Indices 1 2 3 4 5 6 
#
# 1 95.6400 19.0675 38.2545 17.2868 2.7593 6.1095
# 2 19.0675 126.5890 32.9349 34.2216 0.1329 -13.9444
# 3 38.2545 32.9349 175.0182 14.9410 1.2155 -12.0625
# 4 17.2868 34.2216 14.9410 50.4365 -9.8557 1.0217
# 5 2.7593 0.1329 1.2155 -9.8557 38.4953 -3.9132
# 6 6.1095 -13.9444 -12.0625 1.0217 -3.9132 43.8914
#
#
#
# Elastic Compliance Matrix: (Units=1/GPa)
#
#
# Indices 1 2 3 4 5 6 
#
# 1 0.012418 -0.000586 -0.002481 -0.003454 -0.001968 -0.002691
# 2 -0.000586 0.010483 -0.001023 -0.006951 -0.001420 0.003166
# 3 -0.002481 -0.001023 0.006614 -0.000443 0.000047 0.001852
# 4 -0.003454 -0.006951 -0.000443 0.027279 0.007081 -0.001853
# 5 -0.001968 -0.001420 0.000047 0.007081 0.028156 0.002181
# 6 -0.002691 0.003166 0.001852 -0.001853 0.002181 0.024911
#
#
# Mechanical properties :
#
#
# Convention : Reuss Voigt Hill
#
# Bulk Modulus (GPa) = 46.87153 64.19568 55.53361
# Shear Modulus (GPa) = 39.95115 47.03068 43.49091
#
# Velocity S-wave (km/s) = 4.04618 4.39007 4.22163
# Velocity P-wave (km/s) = 6.40596 7.21136 6.82056
#
# Compressibility (1/GPa) = 0.02133491
#
# Stress axis : x y z
#
# Youngs Moduli (GPa) = 80.52838 95.38982 151.20167
#
# Poissons Ratio (x) = 0.05587 0.37514
# Poissons Ratio (y) = 0.04717 0.15472
# Poissons Ratio (z) = 0.19979 0.09761
#
# Static dielectric constant tensor:
#      x y z
#    x 2.024660 -0.013270 0.012160 
#    y -0.013270 1.988500 0.002710 
#    z 0.012160 0.002710 1.893230 
# 
# From -- ./inp_files/84711.got.cif
#   From: 2010.05.17/outbox.cif.g08.bks.cpg/sg2_43_cif.got.tgz:84711.got - 2010.06.03 11:33:40.
