data_PCOD9071904
_publ_section_title
;
Structure prediction by ZEFSAII (Michael W. Deem and Ramdas Pophale) SiO2 
 PCOD9071904
Probable space group: P -1
;
_chemical_formula_sum "Si O2"
_cell_formula_units_Z 16
_cell_length_a 12.000000
_cell_length_b 15.000000
_cell_length_c 9.000000
_cell_angle_alpha 40.000000
_cell_angle_beta 50.000000
_cell_angle_gamma 50.000000
_cell_volume 759.581896
_symmetry_space_group_name_H-M "P -1"
_symmetry_group_IT_number 2
_symmetry_cell_setting 'triclinic'
loop_
_space_group_symop_operation_xyz
x,y,z
-x,-y,-z
loop_
_atom_site_type_symbol
_atom_site_label
_atom_site_fract_x
_atom_site_fract_y
_atom_site_fract_z
Si Si1 0.914351 0.307767 0.028486
Si Si2 0.911761 0.577590 0.826890
Si Si3 0.822171 0.948897 0.968832
Si Si4 0.549507 0.063057 0.229684
Si Si5 0.324501 0.989392 0.296698
Si Si6 0.432267 0.666801 0.717548
Si Si7 0.999861 0.836947 0.532711
Si Si8 0.441862 0.373165 0.012318
O O1 0.741269 0.332028 0.094713
O O2 0.935716 0.240440 0.265434
O O3 0.959954 0.455635 0.814011
O O4 0.034172 0.191806 0.976338
O O5 0.956900 0.724809 0.602432
O O6 0.726915 0.610907 0.930505
O O7 0.000000 0.500000 0.000000
O O8 0.716792 0.955412 0.904928
O O9 0.881354 0.088239 0.726742
O O10 0.715226 0.958448 0.185868
O O11 0.500000 0.000000 0.500000
O O12 0.429523 0.063939 0.201840
O O13 0.552513 0.226431 0.038105
O O14 0.407771 0.817497 0.461118
O O15 0.157398 0.036500 0.456506
O O16 0.485787 0.520423 0.760763
O O17 0.536068 0.651581 0.795276
#
# Coordination Sequence:
#
# PCOD9071904 Si02
#       8
#     2   2   2   2   2   2   2   2
#     4   9  17  34  59  91 120 156 198 248 306 351
#     4   9  18  32  60  89 121 158 199 245 303 357
#     4  11  22  37  61  95 120 157 210 253 295 361
#     4  12  25  41  59  85 128 165 202 250 307 361
#     4  11  19  38  62  91 121 161 200 251 305 356
#     4  10  18  35  64  85 118 159 199 242 305 363
#     4  10  17  33  62  91 120 151 204 254 296 355
#     4  10  21  36  58  87 118 166 197 237 305 368
#
# _framework density 21.064219999999999
#
# number of rings (size 3 to 8) (size 9 to 14) (size 15 to 20)
#    0.000    1.750    5.000    1.125    0.000    0.000 
#    0.000    4.375    0.000    1.500    0.000    0.000 
#    0.000    0.000    0.000    0.000    0.000    0.000 
#
# Total GULP energy -89215.409923 kJ/mol
# GULP energy per Si atom -5575.963120 kJ/mol
# Density = 2.101628 g / cm^3
# Si number density = 21.064220 Si / 1000 Ang^3
#
#
#
# Elastic Constant Matrix: (Units=GPa)
#
#
# Indices 1 2 3 4 5 6 
#
# 1 94.1224 23.8074 -2.8458 1.0838 -13.4340 -0.5102
# 2 23.8074 94.3560 48.3878 -14.2654 -13.4755 7.9928
# 3 -2.8458 48.3878 30.5603 7.3943 -8.2446 7.0014
# 4 1.0838 -14.2654 7.3943 35.3569 -5.9048 -9.0466
# 5 -13.4340 -13.4755 -8.2446 -5.9048 13.4772 -17.7841
# 6 -0.5102 7.9928 7.0014 -9.0466 -17.7841 29.4674
#
#
#
# Elastic Compliance Matrix: (Units=1/GPa)
#
#
# Indices 1 2 3 4 5 6 
#
# 1 -0.310290 0.489154 -1.001866 0.081531 -1.141329 -0.563791
# 2 0.489154 -0.760940 1.557409 -0.151244 1.705085 0.827446
# 3 -1.001866 1.557409 -3.149663 0.293766 -3.503285 -1.715533
# 4 0.081531 -0.151244 0.293766 -0.030710 0.234515 0.104743
# 5 -1.141329 1.705085 -3.503285 0.234515 -4.134971 -2.073408
# 6 -0.563791 0.827446 -1.715533 0.104743 -2.073408 -1.011838
#
#
# Mechanical properties :
#
#
# Convention : Reuss Voigt Hill
#
# Bulk Modulus (GPa) = -0.46915 39.74860 19.63972
# Shear Modulus (GPa) = -0.40989 25.63958 12.61484
#
# Velocity S-wave (km/s) = -0.44160 3.49264 2.44985
# Velocity P-wave (km/s) = 0.69515 5.93092 4.16489
#
# Compressibility (1/GPa) = -2.13149949
#
# Stress axis : x y z
#
# Youngs Moduli (GPa) = -3.22279 -1.31416 -0.31749
#
# Poissons Ratio (x) = 0.64283 -0.31809
# Poissons Ratio (y) = 1.57644 0.49447
# Poissons Ratio (z) = -3.22881 2.04669
#
# Static dielectric constant tensor:
#      x y z
#    x 1.737250 0.021150 -0.006120 
#    y 0.021150 1.825320 -0.026860 
#    z -0.006120 -0.026860 1.769810 
# 
# From -- ./inp_files/271449.got.cif
#   From: 2010.05.17/outbox.ucp.g08.bks.cvg/sg2_136_cif.got.tgz:271449.got - 2010.06.11 11:32:03.
