data_PCOD9071634
_publ_section_title
;
Structure prediction by ZEFSAII (Michael W. Deem and Ramdas Pophale) SiO2 
 PCOD9071634
Probable space group: P -1
;
_chemical_formula_sum "Si O2"
_cell_formula_units_Z 16
_cell_length_a 18.955265
_cell_length_b 33.132432
_cell_length_c 30.486955
_cell_angle_alpha 8.247610
_cell_angle_beta 19.789240
_cell_angle_gamma 19.498746
_cell_volume 903.757692
_symmetry_space_group_name_H-M "P -1"
_symmetry_group_IT_number 2
_symmetry_cell_setting 'triclinic'
loop_
_space_group_symop_operation_xyz
x,y,z
-x,-y,-z
loop_
_atom_site_type_symbol
_atom_site_label
_atom_site_fract_x
_atom_site_fract_y
_atom_site_fract_z
Si Si1 0.166284 0.603059 0.080756
Si Si2 0.129263 0.883042 0.488231
Si Si3 0.291340 0.428623 0.657300
Si Si4 0.624772 0.657309 0.902649
Si Si5 0.527097 0.643502 0.761138
Si Si6 0.154152 0.535765 0.931108
Si Si7 0.990205 0.216251 0.497242
Si Si8 0.682295 0.126738 0.703352
O O1 0.252210 0.456886 0.233215
O O2 0.936455 0.561945 0.243428
O O3 0.356700 0.515937 0.027347
O O4 0.130370 0.949370 0.729014
O O5 0.229374 0.680555 0.688206
O O6 0.287044 0.893150 0.344841
O O7 0.027870 0.202693 0.222442
O O8 0.946890 0.727695 0.742763
O O9 0.222029 0.693291 0.446423
O O10 0.484599 0.382690 0.559644
O O11 0.346326 0.164512 0.943680
O O12 0.855913 0.576669 0.828465
O O13 0.545298 0.007154 0.572899
O O14 0.476858 0.497467 0.132715
O O15 0.671819 0.559117 0.030644
O O16 0.903910 0.151406 0.570076
#
# Coordination Sequence:
#
# PCOD9071634 Si02
#       8
#     2   2   2   2   2   2   2   2
#     4   9  20  31  43  71  95 132 163 206 240 290
#     4  10  20  34  51  75 101 134 160 207 243 300
#     4  10  19  32  48  68 104 135 172 198 238 297
#     4  11  19  31  51  73  96 133 158 205 247 299
#     4  10  21  31  50  70  99 128 168 201 251 288
#     4  10  20  33  53  74 102 127 168 202 254 291
#     4  10  18  29  48  67 102 131 163 201 238 298
#     4  10  20  31  47  74  99 138 169 196 245 296
#
# _framework density 17.703861
#
# number of rings (size 3 to 8) (size 9 to 14) (size 15 to 20)
#    0.000    2.000    2.500    1.875    3.500    1.500 
#    0.000    0.000    0.000    0.000    0.000    1.750 
#    0.000    0.000    0.000    0.000    0.000    0.000 
#
# Total GULP energy -89089.502740 kJ/mol
# GULP energy per Si atom -5568.093921 kJ/mol
# Density = 1.766357 g / cm^3
# Si number density = 17.703861 Si / 1000 Ang^3
#
#
#
# Elastic Constant Matrix: (Units=GPa)
#
#
# Indices 1 2 3 4 5 6 
#
# 1 134.5303 34.4278 31.4096 -4.9884 21.2194 -0.1282
# 2 34.4278 52.0284 8.6781 2.4036 13.6359 3.9456
# 3 31.4096 8.6781 25.0060 -3.1070 2.0278 -4.6623
# 4 -4.9884 2.4036 -3.1070 16.3032 4.8077 3.6796
# 5 21.2194 13.6359 2.0278 4.8077 30.8392 -2.1118
# 6 -0.1282 3.9456 -4.6623 3.6796 -2.1118 27.2520
#
#
#
# Elastic Compliance Matrix: (Units=1/GPa)
#
#
# Indices 1 2 3 4 5 6 
#
# 1 0.013259 -0.004484 -0.014485 0.004727 -0.007128 -0.002957
# 2 -0.004484 0.025305 -0.003680 -0.002472 -0.007790 -0.004584
# 3 -0.014485 -0.003680 0.061270 0.002948 0.007869 0.011159
# 4 0.004727 -0.002472 0.002948 0.069994 -0.013925 -0.009645
# 5 -0.007128 -0.007790 0.007869 -0.013925 0.042952 0.007649
# 6 -0.002957 -0.004584 0.011159 -0.009645 0.007649 0.041148
#
#
# Mechanical properties :
#
#
# Convention : Reuss Voigt Hill
#
# Bulk Modulus (GPa) = 18.33601 40.06617 29.20109
# Shear Modulus (GPa) = 15.75279 24.01549 19.88414
#
# Velocity S-wave (km/s) = 2.98618 3.68708 3.35498
# Velocity P-wave (km/s) = 4.71903 6.38800 5.61586
#
# Compressibility (1/GPa) = 0.05453749
#
# Stress axis : x y z
#
# Youngs Moduli (GPa) = 75.41877 39.51848 16.32117
#
# Poissons Ratio (x) = 0.17720 0.23641
# Poissons Ratio (y) = 0.33817 0.06006
# Poissons Ratio (z) = 1.09242 0.14541
#
# Static dielectric constant tensor:
#      x y z
#    x 1.638510 0.017010 -0.037780 
#    y 0.017010 1.654710 -0.032080 
#    z -0.037780 -0.032080 1.659270 
# 
# From -- ./inp_files/74217.got.cif
#   From: 2010.05.17/outbox.cif.g08.bks.cpg/sg2_38_cif.got.tgz:74217.got - 2010.06.03 11:33:40.
