data_PCOD9071493
_publ_section_title
;
Structure prediction by ZEFSAII (Michael W. Deem and Ramdas Pophale) SiO2 
 PCOD9071493
Probable space group: P -1
;
_chemical_formula_sum "Si O2"
_cell_formula_units_Z 12
_cell_length_a 11.230987
_cell_length_b 9.085464
_cell_length_c 4.801094
_cell_angle_alpha 64.685435
_cell_angle_beta 91.482149
_cell_angle_gamma 92.276493
_cell_volume 442.483668
_symmetry_space_group_name_H-M "P -1"
_symmetry_group_IT_number 2
_symmetry_cell_setting 'triclinic'
loop_
_space_group_symop_operation_xyz
x,y,z
-x,-y,-z
loop_
_atom_site_type_symbol
_atom_site_label
_atom_site_fract_x
_atom_site_fract_y
_atom_site_fract_z
Si Si1 0.855326 0.739377 0.946737
Si Si2 0.041579 0.646462 0.585775
Si Si3 0.500000 0.500000 0.500000
Si Si4 0.000000 0.000000 0.000000
Si Si5 0.701021 0.763247 0.413808
Si Si6 0.682752 0.313469 0.282362
Si Si7 0.373640 0.903685 0.051221
O O1 0.737464 0.739320 0.750409
O O2 0.952712 0.653834 0.835875
O O3 0.802166 0.692032 0.281126
O O4 0.911387 0.920677 0.826953
O O5 0.030210 0.811845 0.266430
O O6 0.177668 0.639404 0.715657
O O7 0.000000 0.500000 0.500000
O O8 0.578119 0.668959 0.426429
O O9 0.597769 0.445158 0.305074
O O10 0.706968 0.955909 0.191770
O O11 0.640324 0.258751 0.013273
O O12 0.662680 0.153060 0.600096
O O13 0.500000 0.000000 0.000000
#
# Coordination Sequence:
#
# PCOD9071493 Si02
#       7
#     2   2   1   1   2   2   2
#     4  12  28  50  83 119 158 217 264 336 408 492
#     4  12  29  54  81 125 164 218 273 337 412 494
#     4  12  30  54  76 120 158 216 260 344 402 474
#     4  12  26  52  84 120 164 214 268 336 412 484
#     4  12  27  50  82 116 163 206 267 329 409 483
#     4  12  30  49  82 114 161 203 275 326 399 484
#     4  12  26  52  77 117 154 211 266 327 396 485
#
# _framework density 27.119645999999999
#
# number of rings (size 3 to 8) (size 9 to 14) (size 15 to 20)
#    0.000    0.000    3.333    5.000    7.000    4.667 
#    0.000    0.000    0.000    0.000    0.000    0.000 
#    0.000    0.000    0.000    0.000    0.000    0.000 
#
# Total GULP energy -66807.632377 kJ/mol
# GULP energy per Si atom -5567.302698 kJ/mol
# Density = 2.705792 g / cm^3
# Si number density = 27.119646 Si / 1000 Ang^3
#
#
#
# Elastic Constant Matrix: (Units=GPa)
#
#
# Indices 1 2 3 4 5 6 
#
# 1 123.5314 51.7930 12.5797 14.9187 -17.0378 14.8974
# 2 51.7930 203.1549 26.4803 7.5963 -9.1776 27.6299
# 3 12.5797 26.4803 91.7864 16.4388 -1.2546 9.6846
# 4 14.9187 7.5963 16.4388 49.0767 4.9384 6.1383
# 5 -17.0378 -9.1776 -1.2546 4.9384 45.4519 -6.8587
# 6 14.8974 27.6299 9.6846 6.1383 -6.8587 52.1369
#
#
#
# Elastic Compliance Matrix: (Units=1/GPa)
#
#
# Indices 1 2 3 4 5 6 
#
# 1 0.009936 -0.002135 -0.000085 -0.002899 0.003471 -0.000894
# 2 -0.002135 0.005932 -0.001251 0.000449 -0.000042 -0.002360
# 3 -0.000085 -0.001251 0.012050 -0.003711 0.000289 -0.001076
# 4 -0.002899 0.000449 -0.003711 0.023067 -0.003899 -0.001949
# 5 0.003471 -0.000042 0.000289 -0.003899 0.024119 0.002609
# 6 -0.000894 -0.002360 -0.001076 -0.001949 0.002609 0.021459
#
#
# Mechanical properties :
#
#
# Convention : Reuss Voigt Hill
#
# Bulk Modulus (GPa) = 47.67465 66.68652 57.18058
# Shear Modulus (GPa) = 45.25076 51.17442 48.21259
#
# Velocity S-wave (km/s) = 4.08923 4.34866 4.22094
# Velocity P-wave (km/s) = 6.31770 7.06099 6.69966
#
# Compressibility (1/GPa) = 0.02097551
#
# Stress axis : x y z
#
# Youngs Moduli (GPa) = 100.64848 168.57824 82.99090
#
# Poissons Ratio (x) = 0.35995 0.00704
# Poissons Ratio (y) = 0.21491 0.10380
# Poissons Ratio (z) = 0.00853 0.21086
#
# Static dielectric constant tensor:
#      x y z
#    x 2.029580 0.113070 0.107330 
#    y 0.113070 1.850960 -0.060240 
#    z 0.107330 -0.060240 2.129450 
# 
# From -- ./inp_files/57349.got.cif
#   From: 2010.05.17/outbox.cif.g08.bks.cpg/sg2_29_cif.got.tgz:57349.got - 2010.06.03 11:33:40.
