data_PCOD9071216
_publ_section_title
;
Structure prediction by ZEFSAII (Michael W. Deem and Ramdas Pophale) SiO2 
 PCOD9071216
Probable space group: P -1
;
_chemical_formula_sum "Si O2"
_cell_formula_units_Z 12
_cell_length_a 6.814457
_cell_length_b 15.244909
_cell_length_c 16.012716
_cell_angle_alpha 162.333668
_cell_angle_beta 96.561939
_cell_angle_gamma 88.226248
_cell_volume 484.472032
_symmetry_space_group_name_H-M "P -1"
_symmetry_group_IT_number 2
_symmetry_cell_setting 'triclinic'
loop_
_space_group_symop_operation_xyz
x,y,z
-x,-y,-z
loop_
_atom_site_type_symbol
_atom_site_label
_atom_site_fract_x
_atom_site_fract_y
_atom_site_fract_z
Si Si1 0.358862 0.800270 0.504669
Si Si2 0.500000 0.500000 0.500000
Si Si3 0.152043 0.931395 0.050747
Si Si4 0.997990 0.316217 0.750056
Si Si5 0.356904 0.593763 0.890970
Si Si6 0.864410 0.340805 0.457634
Si Si7 0.500000 0.000000 0.000000
O O1 0.546586 0.651496 0.368794
O O2 0.234866 0.708684 0.501334
O O3 0.201184 0.705030 0.335312
O O4 0.456204 0.154262 0.833147
O O5 0.681710 0.277910 0.323417
O O6 0.485380 0.320909 0.244414
O O7 0.333478 0.128534 0.180675
O O8 0.246889 0.763231 0.973011
O O9 0.014292 0.130137 0.261809
O O10 0.001099 0.676492 0.757811
O O11 0.192286 0.448376 0.820568
O O12 0.000000 0.000000 0.500000
O O13 0.000000 0.500000 0.000000
#
# Coordination Sequence:
#
# PCOD9071216 Si02
#       7
#     2   1   2   2   2   2   1
#     4  12  26  48  79 111 156 205 255 317 385 462
#     4  12  26  46  68 110 150 188 262 318 364 450
#     4  12  26  47  78 107 151 208 257 313 387 453
#     4  12  28  48  78 118 156 196 258 316 388 468
#     4  12  26  48  79 111 156 205 255 317 385 462
#     4  12  26  47  78 107 151 208 257 313 387 453
#     4  12  26  46  68 110 150 188 262 318 364 450
#
# _framework density 24.76923
#
# number of rings (size 3 to 8) (size 9 to 14) (size 15 to 20)
#    0.000    0.000    1.667    8.000    2.333    8.000 
#    0.000    0.000    0.000    0.000    0.000    0.000 
#    0.000    0.000    0.000    0.000    0.000    0.000 
#
# Total GULP energy -67196.706313 kJ/mol
# GULP energy per Si atom -5599.725526 kJ/mol
# Density = 2.471285 g / cm^3
# Si number density = 24.769230 Si / 1000 Ang^3
#
#
#
# Elastic Constant Matrix: (Units=GPa)
#
#
# Indices 1 2 3 4 5 6 
#
# 1 169.4554 88.5404 49.4908 -1.0493 -6.1354 16.4939
# 2 88.5404 184.5910 34.4296 -0.9375 -10.3689 13.6028
# 3 49.4908 34.4296 222.9454 13.5939 -25.5356 7.1042
# 4 -1.0493 -0.9375 13.5939 38.1998 -1.6587 3.5950
# 5 -6.1354 -10.3689 -25.5356 -1.6587 67.3703 0.0211
# 6 16.4939 13.6028 7.1042 3.5950 0.0211 43.5486
#
#
#
# Elastic Compliance Matrix: (Units=1/GPa)
#
#
# Indices 1 2 3 4 5 6 
#
# 1 0.008365 -0.003640 -0.001314 0.000773 -0.000277 -0.001880
# 2 -0.003640 0.007313 -0.000228 0.000276 0.000715 -0.000892
# 3 -0.001314 -0.000228 0.005124 -0.001778 0.001744 -0.000121
# 4 0.000773 0.000276 -0.001778 0.027062 0.000106 -0.002323
# 5 -0.000277 0.000715 0.001744 0.000106 0.015592 -0.000419
# 6 -0.001880 -0.000892 -0.000121 -0.002323 -0.000419 0.024165
#
#
# Mechanical properties :
#
#
# Convention : Reuss Voigt Hill
#
# Bulk Modulus (GPa) = 95.79641 102.43481 99.11561
# Shear Modulus (GPa) = 49.27847 56.79248 53.03547
#
# Velocity S-wave (km/s) = 4.46522 4.79358 4.63231
# Velocity P-wave (km/s) = 8.08355 8.49019 8.28937
#
# Compressibility (1/GPa) = 0.01043880
#
# Stress axis : x y z
#
# Youngs Moduli (GPa) = 119.54969 136.73929 195.15255
#
# Poissons Ratio (x) = 0.49776 0.25635
# Poissons Ratio (y) = 0.43519 0.04446
# Poissons Ratio (z) = 0.15704 0.03115
#
# Static dielectric constant tensor:
#      x y z
#    x 2.129820 -0.029280 -0.032620 
#    y -0.029280 1.846800 0.014710 
#    z -0.032620 0.014710 2.155780 
# 
# From -- ./inp_files/484043.got.cif
#   From: 2010.05.17/outbox.cif.g08.bks.cpg/sg2_243_cif.got.tgz:484043.got - 2010.06.03 11:33:40.
