data_PCOD9071967
_publ_section_title
;
Structure prediction by ZEFSAII (Michael W. Deem and Ramdas Pophale) SiO2 
 PCOD9071967
Probable space group: P -1
;
_chemical_formula_sum "Si O2"
_cell_formula_units_Z 14
_cell_length_a 5.089801
_cell_length_b 10.467809
_cell_length_c 19.876282
_cell_angle_alpha 39.610800
_cell_angle_beta 124.183844
_cell_angle_gamma 114.003378
_cell_volume 557.852681
_symmetry_space_group_name_H-M "P -1"
_symmetry_group_IT_number 2
_symmetry_cell_setting 'triclinic'
loop_
_space_group_symop_operation_xyz
x,y,z
-x,-y,-z
loop_
_atom_site_type_symbol
_atom_site_label
_atom_site_fract_x
_atom_site_fract_y
_atom_site_fract_z
Si Si1 0.827474 0.296772 0.041460
Si Si2 0.125712 0.591670 0.584706
Si Si3 0.772330 0.860651 0.226207
Si Si4 0.400176 0.154858 0.517642
Si Si5 0.666371 0.754760 0.678029
Si Si6 0.048376 0.849154 0.130373
Si Si7 0.086828 0.407116 0.898590
O O1 0.908268 0.077460 0.174330
O O2 0.456845 0.349790 0.979627
O O3 0.000000 0.500000 0.000000
O O4 0.905864 0.282028 0.979082
O O5 0.073948 0.363107 0.650207
O O6 0.297417 0.710857 0.502759
O O7 0.388142 0.606262 0.677243
O O8 0.827750 0.729512 0.510361
O O9 0.412028 0.862110 0.201399
O O10 0.792258 0.867141 0.144817
O O11 0.249494 0.152815 0.420608
O O12 0.518888 0.925611 0.636111
O O13 0.970775 0.636305 0.799713
O O14 0.021644 0.638178 0.174363
O O15 0.000000 0.000000 0.000000
#
# Coordination Sequence:
#
# PCOD9071967 Si02
#       7
#     2   2   2   2   2   2   2
#     4  12  27  42  53  76 111 156 198 231 263 310
#     4  10  18  30  49  78 111 142 170 203 270 335
#     4  12  21  35  56  79 113 146 178 228 274 335
#     4   9  19  31  48  78 127 136 159 211 272 361
#     4   9  20  30  53  80 115 142 169 207 283 338
#     4  12  20  33  53  86 109 134 174 225 291 324
#     4  12  23  36  61  81 112 147 186 228 271 339
#
# _framework density 25.096229999999998
#
# number of rings (size 3 to 8) (size 9 to 14) (size 15 to 20)
#    0.857    0.286    4.286    3.857    2.000    0.000 
#    0.000    0.000    0.000    0.000    0.000    6.000 
#    0.000    0.000    0.000    0.000    0.000    0.000 
#
# Total GULP energy -78169.326003 kJ/mol
# GULP energy per Si atom -5583.523286 kJ/mol
# Density = 2.503911 g / cm^3
# Si number density = 25.096230 Si / 1000 Ang^3
#
#
#
# Elastic Constant Matrix: (Units=GPa)
#
#
# Indices 1 2 3 4 5 6 
#
# 1 121.3043 13.0666 41.6289 -7.6890 35.0892 10.7037
# 2 13.0666 105.8227 55.7078 -39.1677 5.4436 2.4174
# 3 41.6289 55.7078 88.8533 -42.8329 27.0518 17.2965
# 4 -7.6890 -39.1677 -42.8329 39.5125 -6.1795 -10.8004
# 5 35.0892 5.4436 27.0518 -6.1795 33.3624 -5.4598
# 6 10.7037 2.4174 17.2965 -10.8004 -5.4598 5.3910
#
#
#
# Elastic Compliance Matrix: (Units=1/GPa)
#
#
# Indices 1 2 3 4 5 6 
#
# 1 0.009365 0.004450 -0.013013 -0.001626 0.003122 0.021067
# 2 0.004450 0.009963 0.003805 0.004561 -0.013457 -0.030005
# 3 -0.013013 0.003805 0.019479 0.038676 0.012990 0.052275
# 4 -0.001626 0.004561 0.038676 0.062469 -0.022123 -0.020159
# 5 0.003122 -0.013457 0.012990 -0.022123 0.000185 -0.085976
# 6 0.021067 -0.030005 0.052275 -0.020159 -0.085976 -0.138059
#
#
# Mechanical properties :
#
#
# Convention : Reuss Voigt Hill
#
# Bulk Modulus (GPa) = 34.13979 59.64299 46.89139
# Shear Modulus (GPa) = -288.70044 29.35829 -129.67107
#
# Velocity S-wave (km/s) = -10.73718 3.42399 -7.19595
# Velocity P-wave (km/s) = 11.83567 6.28083 7.09345
#
# Compressibility (1/GPa) = 0.02929134
#
# Stress axis : x y z
#
# Youngs Moduli (GPa) = 106.77953 100.37381 51.33720
#
# Poissons Ratio (x) = -0.44671 0.66807
# Poissons Ratio (y) = -0.47522 -0.19535
# Poissons Ratio (z) = 1.38957 -0.38194
#
# Static dielectric constant tensor:
#      x y z
#    x 1.949080 -0.048970 -0.009960 
#    y -0.048970 2.195070 -0.044490 
#    z -0.009960 -0.044490 2.068750 
# 
# From -- ./inp_files/615499.got.cif
#   From: 2010.05.17/outbox.cif.g08.bks.cpg/sg2_308_cif.got.tgz:615499.got - 2010.06.03 11:33:40.
