data_PCOD9071197
_publ_section_title
;
Structure prediction by ZEFSAII (Michael W. Deem and Ramdas Pophale) SiO2 
 PCOD9071197
Probable space group: P -1
;
_chemical_formula_sum "Si O2"
_cell_formula_units_Z 16
_cell_length_a 11.358981
_cell_length_b 26.353742
_cell_length_c 7.788335
_cell_angle_alpha 127.212974
_cell_angle_beta 52.023841
_cell_angle_gamma 158.488861
_cell_volume 669.667924
_symmetry_space_group_name_H-M "P -1"
_symmetry_group_IT_number 2
_symmetry_cell_setting 'triclinic'
loop_
_space_group_symop_operation_xyz
x,y,z
-x,-y,-z
loop_
_atom_site_type_symbol
_atom_site_label
_atom_site_fract_x
_atom_site_fract_y
_atom_site_fract_z
Si Si1 0.634903 0.000498 0.514454
Si Si2 0.179319 0.518333 0.252536
Si Si3 0.093447 0.971271 0.955640
Si Si4 0.481008 0.557825 0.522785
Si Si5 0.263532 0.736786 0.423659
Si Si6 0.456783 0.680813 0.008807
Si Si7 0.713505 0.229508 0.162355
Si Si8 0.881326 0.735184 0.192286
O O1 0.824370 0.103525 0.712745
O O2 0.500000 0.000000 0.500000
O O3 0.909120 0.073262 0.300706
O O4 0.371671 0.846509 0.479968
O O5 0.215008 0.565080 0.134386
O O6 0.549535 0.638663 0.215827
O O7 0.000000 0.500000 0.500000
O O8 0.948755 0.370123 0.152565
O O9 0.430117 0.103762 0.026309
O O10 0.000000 0.000000 0.000000
O O11 0.828692 0.839396 0.048851
O O12 0.500000 0.500000 0.500000
O O13 0.752799 0.660493 0.340092
O O14 0.111287 0.412976 0.491666
O O15 0.488244 0.630406 0.755886
O O16 0.336998 0.709786 0.161245
O O17 0.434508 0.798200 0.583984
O O18 0.945790 0.256825 0.046373
#
# Coordination Sequence:
#
# PCOD9071197 Si02
#       8
#     2   2   2   2   2   2   2   2
#     4  12  26  49  72 109 147 195 251 307 373 436
#     4  12  27  47  74 111 148 193 244 306 375 441
#     4  12  28  47  77 107 146 194 247 312 372 444
#     4  12  26  45  76 108 144 193 251 309 365 440
#     4  12  28  47  73 107 152 196 247 305 372 446
#     4  12  27  47  74 108 146 195 249 303 374 433
#     4  12  28  49  73 109 152 195 248 303 379 445
#     4  12  26  48  74 103 152 196 243 311 370 442
#
# _framework density 23.892437999999999
#
# number of rings (size 3 to 8) (size 9 to 14) (size 15 to 20)
#    0.000    0.000    6.250    2.250    7.000    2.000 
#    0.000    0.000    0.000    0.000    0.000    0.000 
#    0.000    0.000    0.000    0.000    0.000    0.000 
#
# Total GULP energy -89294.387616 kJ/mol
# GULP energy per Si atom -5580.899226 kJ/mol
# Density = 2.383806 g / cm^3
# Si number density = 23.892438 Si / 1000 Ang^3
#
#
#
# Elastic Constant Matrix: (Units=GPa)
#
#
# Indices 1 2 3 4 5 6 
#
# 1 61.4825 26.0628 19.6661 18.2563 -14.4279 -13.7335
# 2 26.0628 145.5019 33.4887 34.4193 -11.4590 -9.3073
# 3 19.6661 33.4887 127.9200 15.0702 -23.4776 -2.5895
# 4 18.2563 34.4193 15.0702 40.4908 -6.3193 -0.1439
# 5 -14.4279 -11.4590 -23.4776 -6.3193 35.1268 -1.8764
# 6 -13.7335 -9.3073 -2.5895 -0.1439 -1.8764 43.5868
#
#
#
# Elastic Compliance Matrix: (Units=1/GPa)
#
#
# Indices 1 2 3 4 5 6 
#
# 1 0.022609 -0.000956 -0.000790 -0.007906 0.007407 0.007165
# 2 -0.000956 0.009074 -0.001302 -0.006703 0.000575 0.001562
# 3 -0.000790 -0.001302 0.009406 -0.001205 0.005335 0.000258
# 4 -0.007906 -0.006703 -0.001205 0.034352 -0.000267 -0.003892
# 5 0.007407 0.000575 0.005335 -0.000267 0.035445 0.004299
# 6 0.007165 0.001562 0.000258 -0.003892 0.004299 0.025721
#
#
# Mechanical properties :
#
#
# Convention : Reuss Voigt Hill
#
# Bulk Modulus (GPa) = 28.57652 54.81550 41.69601
# Shear Modulus (GPa) = 32.39016 40.88668 36.63842
#
# Velocity S-wave (km/s) = 3.68593 4.14125 3.92021
# Velocity P-wave (km/s) = 5.48646 6.77193 6.16280
#
# Compressibility (1/GPa) = 0.03499377
#
# Stress axis : x y z
#
# Youngs Moduli (GPa) = 44.23026 110.19966 106.31751
#
# Poissons Ratio (x) = 0.10538 0.08395
# Poissons Ratio (y) = 0.04229 0.13841
# Poissons Ratio (z) = 0.03493 0.14346
#
# Static dielectric constant tensor:
#      x y z
#    x 1.969330 0.019230 0.011350 
#    y 0.019230 1.871990 -0.002090 
#    z 0.011350 -0.002090 1.910090 
# 
# From -- ./inp_files/187714.got.cif
#   From: 2010.05.17/outbox.cif.g08.bks.cpg/sg2_94_cif.got.tgz:187714.got - 2010.06.03 11:33:40.
