data_PCOD9071419
_publ_section_title
;
Structure prediction by ZEFSAII (Michael W. Deem and Ramdas Pophale) SiO2 
 PCOD9071419
Probable space group: P -1
;
_chemical_formula_sum "Si O2"
_cell_formula_units_Z 14
_cell_length_a 8.763777
_cell_length_b 6.822300
_cell_length_c 12.465729
_cell_angle_alpha 56.612829
_cell_angle_beta 89.730008
_cell_angle_gamma 68.456226
_cell_volume 559.837360
_symmetry_space_group_name_H-M "P -1"
_symmetry_group_IT_number 2
_symmetry_cell_setting 'triclinic'
loop_
_space_group_symop_operation_xyz
x,y,z
-x,-y,-z
loop_
_atom_site_type_symbol
_atom_site_label
_atom_site_fract_x
_atom_site_fract_y
_atom_site_fract_z
Si Si1 0.832680 0.942073 0.505945
Si Si2 0.197105 0.842616 0.086732
Si Si3 0.952436 0.369294 0.705240
Si Si4 0.102954 0.245254 0.222493
Si Si5 0.730084 0.354011 0.220311
Si Si6 0.355976 0.358547 0.080315
Si Si7 0.314044 0.122735 0.834432
O O1 0.883769 0.642602 0.560010
O O2 0.776475 0.954016 0.627151
O O3 0.710204 0.145772 0.360571
O O4 0.000000 0.000000 0.500000
O O5 0.167792 0.775086 0.230501
O O6 0.309964 0.557698 0.119647
O O7 0.289889 0.003577 0.984484
O O8 0.000000 0.000000 0.000000
O O9 0.959459 0.487494 0.787863
O O10 0.148545 0.179836 0.745455
O O11 0.196480 0.282801 0.107941
O O12 0.927468 0.227841 0.219668
O O13 0.685161 0.604069 0.221715
O O14 0.641295 0.475701 0.072801
O O15 0.520072 0.086575 0.159853
#
# Coordination Sequence:
#
# PCOD9071419 Si02
#       7
#     2   2   2   2   2   2   2
#     4   8  13  29  52  67  89 131 165 188 225 284
#     4   9  18  33  50  69  91 133 167 194 225 286
#     4   7  14  29  50  67  86 126 171 183 222 278
#     4   7  15  28  46  68  89 127 160 186 222 281
#     4  10  18  30  51  74 100 122 156 201 242 278
#     4  11  19  29  47  81  98 118 155 210 245 268
#     4  10  18  29  47  75 102 124 152 198 244 290
#
# _framework density 25.007262999999998
#
# number of rings (size 3 to 8) (size 9 to 14) (size 15 to 20)
#    0.857    2.286    1.429    2.143    0.000    0.000 
#    0.000    0.714    0.000    4.286    3.714    0.000 
#    0.000    0.000    0.000    0.000    0.000    0.000 
#
# Total GULP energy -77976.958113 kJ/mol
# GULP energy per Si atom -5569.782722 kJ/mol
# Density = 2.495035 g / cm^3
# Si number density = 25.007263 Si / 1000 Ang^3
#
#
#
# Elastic Constant Matrix: (Units=GPa)
#
#
# Indices 1 2 3 4 5 6 
#
# 1 44.7274 25.0658 27.3389 -8.0408 -1.8224 -14.6044
# 2 25.0658 124.8900 52.4618 -10.5472 5.1804 -25.7800
# 3 27.3389 52.4618 156.2148 -34.2433 -1.3675 -6.8424
# 4 -8.0408 -10.5472 -34.2433 36.8953 7.8695 -1.3942
# 5 -1.8224 5.1804 -1.3675 7.8695 24.2058 -5.7300
# 6 -14.6044 -25.7800 -6.8424 -1.3942 -5.7300 41.7285
#
#
#
# Elastic Compliance Matrix: (Units=1/GPa)
#
#
# Indices 1 2 3 4 5 6 
#
# 1 0.029258 -0.002666 -0.003384 0.001948 0.003997 0.008652
# 2 -0.002666 0.010921 -0.002907 0.000380 -0.001612 0.005129
# 3 -0.003384 -0.002907 0.009573 0.007673 -0.001922 -0.001418
# 4 0.001948 0.000380 0.007673 0.037208 -0.011151 0.001887
# 5 0.003997 -0.001612 -0.001922 -0.011151 0.046933 0.006160
# 6 0.008652 0.005129 -0.001418 0.001887 0.006160 0.030837
#
#
# Mechanical properties :
#
#
# Convention : Reuss Voigt Hill
#
# Bulk Modulus (GPa) = 31.40949 59.50727 45.45838
# Shear Modulus (GPa) = 25.87220 35.29699 30.58459
#
# Velocity S-wave (km/s) = 3.21999 3.76103 3.50098
# Velocity P-wave (km/s) = 5.13925 6.53514 5.87877
#
# Compressibility (1/GPa) = 0.03183751
#
# Stress axis : x y z
#
# Youngs Moduli (GPa) = 34.17837 91.56731 104.46109
#
# Poissons Ratio (x) = 0.24412 0.35352
# Poissons Ratio (y) = 0.09112 0.30368
# Poissons Ratio (z) = 0.11567 0.26620
#
# Static dielectric constant tensor:
#      x y z
#    x 2.164910 0.101210 -0.012470 
#    y 0.101210 2.016880 -0.007090 
#    z -0.012470 -0.007090 2.044990 
# 
# From -- ./inp_files/280535.got.cif
#   From: 2010.05.17/outbox.cif.g08.bks.cpg/sg2_141_cif.got.tgz:280535.got - 2010.06.03 11:33:40.
