data_PCOD9071500
_publ_section_title
;
Structure prediction by ZEFSAII (Michael W. Deem and Ramdas Pophale) SiO2 
 PCOD9071500
Probable space group: P -1
;
_chemical_formula_sum "Si O2"
_cell_formula_units_Z 14
_cell_length_a 5.567942
_cell_length_b 7.243037
_cell_length_c 14.234281
_cell_angle_alpha 111.329966
_cell_angle_beta 83.697860
_cell_angle_gamma 88.555909
_cell_volume 530.181638
_symmetry_space_group_name_H-M "P -1"
_symmetry_group_IT_number 2
_symmetry_cell_setting 'triclinic'
loop_
_space_group_symop_operation_xyz
x,y,z
-x,-y,-z
loop_
_atom_site_type_symbol
_atom_site_label
_atom_site_fract_x
_atom_site_fract_y
_atom_site_fract_z
Si Si1 0.727135 0.586707 0.059106
Si Si2 0.291848 0.899861 0.550241
Si Si3 0.071700 0.018754 0.892381
Si Si4 0.364744 0.258245 0.352313
Si Si5 0.885020 0.129291 0.729503
Si Si6 0.291866 0.590986 0.767012
Si Si7 0.963172 0.389688 0.620235
O O1 0.707089 0.522562 0.156541
O O2 0.500000 0.500000 0.000000
O O3 0.717907 0.825909 0.090509
O O4 0.000000 0.500000 0.000000
O O5 0.436754 0.731037 0.573994
O O6 0.857074 0.957940 0.342469
O O7 0.096558 0.798441 0.474341
O O8 0.500000 0.000000 0.500000
O O9 0.111030 0.790224 0.815180
O O10 0.899238 0.125502 0.840126
O O11 0.000000 0.000000 0.000000
O O12 0.143145 0.419512 0.396102
O O13 0.779657 0.555898 0.340437
O O14 0.295641 0.034239 0.319341
O O15 0.831888 0.334141 0.714705
O O16 0.529678 0.692296 0.744191
#
# Coordination Sequence:
#
# PCOD9071500 Si02
#       7
#     2   2   2   2   2   2   2
#     4  12  30  52  82 118 157 213 274 338 413 487
#     4  12  27  49  77 116 157 212 264 328 402 479
#     4  12  26  52  82 114 162 206 266 336 410 481
#     4  12  27  47  78 112 159 204 269 322 410 473
#     4  12  27  51  75 115 159 203 270 330 394 485
#     4  12  28  49  77 118 153 210 267 328 409 485
#     4  12  27  47  79 108 161 204 267 323 401 481
#
# _framework density 26.406044000000001
#
# number of rings (size 3 to 8) (size 9 to 14) (size 15 to 20)
#    0.000    0.000    7.143    0.857    6.000    5.143 
#    0.000    0.000    0.000    0.000    0.000    0.000 
#    0.000    0.000    0.000    0.000    0.000    0.000 
#
# Total GULP energy -78333.264277 kJ/mol
# GULP energy per Si atom -5595.233163 kJ/mol
# Density = 2.634594 g / cm^3
# Si number density = 26.406044 Si / 1000 Ang^3
#
#
#
# Elastic Constant Matrix: (Units=GPa)
#
#
# Indices 1 2 3 4 5 6 
#
# 1 124.9243 32.6421 51.8586 -5.0458 -2.7490 26.8010
# 2 32.6421 131.2058 46.3147 -34.0614 3.4611 30.9908
# 3 51.8586 46.3147 130.4551 -25.4267 8.7752 0.8752
# 4 -5.0458 -34.0614 -25.4267 53.7776 15.6771 -5.3593
# 5 -2.7490 3.4611 8.7752 15.6771 58.9426 -2.1575
# 6 26.8010 30.9908 0.8752 -5.3593 -2.1575 56.5506
#
#
#
# Elastic Compliance Matrix: (Units=1/GPa)
#
#
# Indices 1 2 3 4 5 6 
#
# 1 0.011195 -0.000616 -0.004836 -0.002657 0.001799 -0.005076
# 2 -0.000616 0.011636 -0.002488 0.006225 -0.002200 -0.005540
# 3 -0.004836 -0.002488 0.011548 0.004655 -0.002897 0.003807
# 4 -0.002657 0.006225 0.004655 0.026922 -0.008343 0.000009
# 5 0.001799 -0.002200 -0.002897 -0.008343 0.019842 0.000364
# 6 -0.005076 -0.005540 0.003807 0.000009 0.000364 0.023081
#
#
# Mechanical properties :
#
#
# Convention : Reuss Voigt Hill
#
# Bulk Modulus (GPa) = 54.05908 72.02401 63.04155
# Shear Modulus (GPa) = 39.59792 50.90548 45.25170
#
# Velocity S-wave (km/s) = 3.87664 4.39543 4.14416
# Velocity P-wave (km/s) = 6.36824 7.28660 6.84284
#
# Compressibility (1/GPa) = 0.01849828
#
# Stress axis : x y z
#
# Youngs Moduli (GPa) = 89.32757 85.94308 86.59775
#
# Poissons Ratio (x) = 0.05295 0.41880
# Poissons Ratio (y) = 0.05504 0.21541
# Poissons Ratio (z) = 0.43201 0.21379
#
# Static dielectric constant tensor:
#      x y z
#    x 2.140000 -0.065640 -0.013370 
#    y -0.065640 2.077890 0.067190 
#    z -0.013370 0.067190 2.105460 
# 
# From -- ./inp_files/480791.got.cif
#   From: 2010.05.17/outbox.cif.g08.bks.cpg/sg2_241_cif.got.tgz:480791.got - 2010.06.03 11:33:40.
