data_PCOD9071370
_publ_section_title
;
Structure prediction by ZEFSAII (Michael W. Deem and Ramdas Pophale) SiO2 
 PCOD9071370
Probable space group: P -1
;
_chemical_formula_sum "Si O2"
_cell_formula_units_Z 14
_cell_length_a 14.369281
_cell_length_b 4.822471
_cell_length_c 24.292238
_cell_angle_alpha 76.997311
_cell_angle_beta 19.926366
_cell_angle_gamma 71.129447
_cell_volume 526.297277
_symmetry_space_group_name_H-M "P -1"
_symmetry_group_IT_number 2
_symmetry_cell_setting 'triclinic'
loop_
_space_group_symop_operation_xyz
x,y,z
-x,-y,-z
loop_
_atom_site_type_symbol
_atom_site_label
_atom_site_fract_x
_atom_site_fract_y
_atom_site_fract_z
Si Si1 0.055946 0.784267 0.680990
Si Si2 0.209010 0.312678 0.953940
Si Si3 0.624572 0.183450 0.210677
Si Si4 0.961759 0.220796 0.809120
Si Si5 0.406172 0.035820 0.155291
Si Si6 0.322385 0.331227 0.707424
Si Si7 0.045617 0.683911 0.517414
O O1 0.117874 0.942490 0.694423
O O2 0.792900 0.011868 0.781310
O O3 0.635776 0.340346 0.515656
O O4 0.930000 0.522129 0.779004
O O5 0.168981 0.627910 0.930958
O O6 0.348838 0.016621 0.851527
O O7 0.436563 0.256479 0.880848
O O8 0.900344 0.369669 0.152691
O O9 0.366711 0.478764 0.362386
O O10 0.631076 0.942405 0.263937
O O11 0.148099 0.258101 0.756036
O O12 0.660655 0.166788 0.992804
O O13 0.168706 0.270909 0.315203
O O14 0.000000 0.500000 0.500000
O O15 0.000000 0.000000 0.500000
#
# Coordination Sequence:
#
# PCOD9071370 Si02
#       7
#     2   2   2   2   2   2   2
#     4  12  31  53  85 117 159 211 290 345 402 472
#     4  12  27  50  80 124 168 212 264 326 408 508
#     4  12  27  49  80 121 168 216 266 320 404 512
#     4  12  29  56  81 118 159 215 282 347 401 476
#     4  12  28  53  87 118 165 215 270 335 421 470
#     4  12  30  53  86 119 169 221 268 338 416 477
#     4  12  26  48  79 122 169 208 264 330 404 493
#
# _framework density 26.600935
#
# number of rings (size 3 to 8) (size 9 to 14) (size 15 to 20)
#    0.000    0.000    2.857    4.286    6.000    8.000 
#    0.000    0.000    0.000    0.000    0.000    0.000 
#    0.000    0.000    0.000    0.000    0.000    0.000 
#
# Total GULP energy -78405.257697 kJ/mol
# GULP energy per Si atom -5600.375550 kJ/mol
# Density = 2.654039 g / cm^3
# Si number density = 26.600935 Si / 1000 Ang^3
#
#
#
# Elastic Constant Matrix: (Units=GPa)
#
#
# Indices 1 2 3 4 5 6 
#
# 1 114.3996 32.9378 41.6650 -18.2284 3.8067 1.3510
# 2 32.9378 112.5787 16.4144 11.6511 14.8304 1.4358
# 3 41.6650 16.4144 149.5387 -4.8384 4.8821 -17.6853
# 4 -18.2284 11.6511 -4.8384 37.0309 3.8874 2.7896
# 5 3.8067 14.8304 4.8821 3.8874 49.2992 8.1205
# 6 1.3510 1.4358 -17.6853 2.7896 8.1205 38.2671
#
#
#
# Elastic Compliance Matrix: (Units=1/GPa)
#
#
# Indices 1 2 3 4 5 6 
#
# 1 0.012037 -0.003813 -0.002989 0.006867 0.000340 -0.002236
# 2 -0.003813 0.010888 -0.000140 -0.005086 -0.002665 0.000598
# 3 -0.002989 -0.000140 0.008041 -0.000565 -0.001157 0.004114
# 4 0.006867 -0.005086 -0.000565 0.032208 -0.001084 -0.002431
# 5 0.000340 -0.002665 -0.001157 -0.001084 0.022092 -0.005056
# 6 -0.002236 0.000598 0.004114 -0.002431 -0.005056 0.029340
#
#
# Mechanical properties :
#
#
# Convention : Reuss Voigt Hill
#
# Bulk Modulus (GPa) = 58.53406 62.06128 60.29767
# Shear Modulus (GPa) = 37.26232 43.95276 40.60754
#
# Velocity S-wave (km/s) = 3.74677 4.06926 3.91134
# Velocity P-wave (km/s) = 6.38514 6.74238 6.56619
#
# Compressibility (1/GPa) = 0.01708407
#
# Stress axis : x y z
#
# Youngs Moduli (GPa) = 83.07840 91.84075 124.35906
#
# Poissons Ratio (x) = 0.35018 0.37165
# Poissons Ratio (y) = 0.31677 0.01737
# Poissons Ratio (z) = 0.24828 0.01283
#
# Static dielectric constant tensor:
#      x y z
#    x 2.111310 0.019560 0.008990 
#    y 0.019560 2.021390 -0.044390 
#    z 0.008990 -0.044390 2.012780 
# 
# From -- ./inp_files/611065.got.cif
#   From: 2010.05.17/outbox.cif.g08.bks.cpg/sg2_306_cif.got.tgz:611065.got - 2010.06.03 11:33:40.
