data_PCOD9071152
_publ_section_title
;
Structure prediction by ZEFSAII (Michael W. Deem and Ramdas Pophale) SiO2 
 PCOD9071152
Probable space group: P -1
;
_chemical_formula_sum "Si O2"
_cell_formula_units_Z 15
_cell_length_a 9.516152
_cell_length_b 13.242750
_cell_length_c 11.601140
_cell_angle_alpha 119.752906
_cell_angle_beta 125.279635
_cell_angle_gamma 33.040770
_cell_volume 650.484115
_symmetry_space_group_name_H-M "P -1"
_symmetry_group_IT_number 2
_symmetry_cell_setting 'triclinic'
loop_
_space_group_symop_operation_xyz
x,y,z
-x,-y,-z
loop_
_atom_site_type_symbol
_atom_site_label
_atom_site_fract_x
_atom_site_fract_y
_atom_site_fract_z
Si Si1 0.425592 0.753714 0.822017
Si Si2 0.500000 0.000000 0.000000
Si Si3 0.769040 0.878850 0.807419
Si Si4 0.325320 0.290641 0.453556
Si Si5 0.842310 0.442854 0.654324
Si Si6 0.382382 0.245303 0.713636
Si Si7 0.033134 0.085321 0.472790
Si Si8 0.661544 0.300295 0.997436
O O1 0.661565 0.568160 0.750851
O O2 0.139754 0.862936 0.690922
O O3 0.428293 0.704477 0.925032
O O4 0.460419 0.874718 0.902674
O O5 0.396905 0.051252 0.114319
O O6 0.850572 0.710042 0.702673
O O7 0.021661 0.831051 0.923869
O O8 0.583817 0.031770 0.706723
O O9 0.309314 0.420570 0.451048
O O10 0.251723 0.325516 0.572029
O O11 0.641768 0.081602 0.485462
O O12 0.911192 0.271557 0.567392
O O13 0.135978 0.353020 0.747711
O O14 0.572033 0.254431 0.834945
O O15 0.000000 0.000000 0.500000
O O16 0.500000 0.500000 0.000000
#
# Coordination Sequence:
#
# PCOD9071152 Si02
#       8
#     2   1   2   2   2   2   2   2
#     4  12  28  51  80 112 160 206 261 327 384 475
#     4  12  26  50  82 104 154 206 254 318 394 462
#     4  12  25  52  76 112 151 207 260 319 390 469
#     4  12  26  49  78 110 156 203 260 325 383 465
#     4  12  27  48  78 117 152 200 270 319 393 456
#     4  12  27  47  77 110 153 209 255 320 390 466
#     4  12  26  47  77 115 150 199 257 322 391 450
#     4  12  30  48  74 114 157 203 259 317 393 463
#
# _framework density 23.059750000000001
#
# number of rings (size 3 to 8) (size 9 to 14) (size 15 to 20)
#    0.000    0.000    5.333    3.200    5.600    1.600 
#    0.000    0.000    0.000    0.000    0.000    0.000 
#    0.000    0.000    0.000    0.000    0.000    0.000 
#
# Total GULP energy -83738.783524 kJ/mol
# GULP energy per Si atom -5582.585568 kJ/mol
# Density = 2.300726 g / cm^3
# Si number density = 23.059750 Si / 1000 Ang^3
#
#
#
# Elastic Constant Matrix: (Units=GPa)
#
#
# Indices 1 2 3 4 5 6 
#
# 1 129.2651 38.3327 49.1295 7.8551 -5.4369 25.7397
# 2 38.3327 120.2408 34.4462 14.4680 12.8581 30.1372
# 3 49.1295 34.4462 110.9797 10.6377 4.3192 15.6958
# 4 7.8551 14.4680 10.6377 40.1246 0.8356 7.8857
# 5 -5.4369 12.8581 4.3192 0.8356 47.6418 2.7836
# 6 25.7397 30.1372 15.6958 7.8857 2.7836 41.2334
#
#
#
# Elastic Compliance Matrix: (Units=1/GPa)
#
#
# Indices 1 2 3 4 5 6 
#
# 1 0.010506 -0.001486 -0.003696 0.000251 0.002180 -0.004261
# 2 -0.001486 0.011354 -0.001692 -0.002091 -0.002685 -0.006146
# 3 -0.003696 -0.001692 0.011423 -0.001589 -0.000947 -0.000436
# 4 0.000251 -0.002091 -0.001589 0.026659 0.000454 -0.003152
# 5 0.002180 -0.002685 -0.000947 0.000454 0.022077 -0.000615
# 6 -0.004261 -0.006146 -0.000436 -0.003152 -0.000615 0.032214
#
#
# Mechanical properties :
#
#
# Convention : Reuss Voigt Hill
#
# Bulk Modulus (GPa) = 51.19032 67.14472 59.16752
# Shear Modulus (GPa) = 37.17644 41.70509 39.44076
#
# Velocity S-wave (km/s) = 4.01955 4.25734 4.14015
# Velocity P-wave (km/s) = 6.61737 7.30394 6.96911
#
# Compressibility (1/GPa) = 0.01953494
#
# Stress axis : x y z
#
# Youngs Moduli (GPa) = 95.18134 88.07288 87.54260
#
# Poissons Ratio (x) = 0.13087 0.32357
# Poissons Ratio (y) = 0.14143 0.14814
# Poissons Ratio (z) = 0.35180 0.14904
#
# Static dielectric constant tensor:
#      x y z
#    x 1.944740 -0.051280 0.045350 
#    y -0.051280 1.933300 0.010680 
#    z 0.045350 0.010680 1.867500 
# 
# From -- ./inp_files/333891.got.cif
#   From: 2010.05.17/outbox.cif.g08.bks.cpg/sg2_167_cif.got.tgz:333891.got - 2010.06.03 11:33:40.
