data_PCOD9071331
_publ_section_title
;
Structure prediction by ZEFSAII (Michael W. Deem and Ramdas Pophale) SiO2 
 PCOD9071331
Probable space group: P -1
;
_chemical_formula_sum "Si O2"
_cell_formula_units_Z 15
_cell_length_a 11.690462
_cell_length_b 8.361757
_cell_length_c 8.801457
_cell_angle_alpha 125.522224
_cell_angle_beta 92.237133
_cell_angle_gamma 71.041479
_cell_volume 649.609116
_symmetry_space_group_name_H-M "P -1"
_symmetry_group_IT_number 2
_symmetry_cell_setting 'triclinic'
loop_
_space_group_symop_operation_xyz
x,y,z
-x,-y,-z
loop_
_atom_site_type_symbol
_atom_site_label
_atom_site_fract_x
_atom_site_fract_y
_atom_site_fract_z
Si Si1 0.093916 0.831433 0.803475
Si Si2 0.194571 0.368420 0.671969
Si Si3 0.671881 0.013819 0.720178
Si Si4 0.305410 0.638518 0.292492
Si Si5 0.675976 0.090931 0.114904
Si Si6 0.500000 0.500000 0.500000
Si Si7 0.610646 0.762622 0.121540
Si Si8 0.967749 0.236032 0.565527
O O1 0.163721 0.613562 0.774938
O O2 0.196604 0.922620 0.809610
O O3 0.029357 0.780079 0.625656
O O4 0.000000 0.000000 0.000000
O O5 0.288276 0.284653 0.768628
O O6 0.068320 0.330939 0.672591
O O7 0.265355 0.232501 0.454242
O O8 0.719683 0.138453 0.668053
O O9 0.524225 0.104896 0.747434
O O10 0.697291 0.063632 0.920498
O O11 0.388179 0.611559 0.430772
O O12 0.172735 0.628233 0.318834
O O13 0.376286 0.458668 0.074883
O O14 0.571268 0.312513 0.276542
O O15 0.635639 0.905845 0.071713
O O16 0.000000 0.000000 0.500000
#
# Coordination Sequence:
#
# PCOD9071331 Si02
#       8
#     2   2   2   2   2   1   2   2
#     4  12  29  49  73 108 148 196 252 306 369 440
#     4  12  28  48  77 106 150 199 245 309 368 442
#     4  12  26  49  74 113 149 192 251 303 374 445
#     4  12  27  48  79 108 153 195 245 308 372 445
#     4  12  27  47  75 109 149 192 249 308 374 434
#     4  12  26  48  76 108 148 196 242 306 378 430
#     4  12  28  46  75 112 149 197 244 308 369 448
#     4  12  26  50  74 107 150 196 248 305 369 438
#
# _framework density 23.090807999999999
#
# number of rings (size 3 to 8) (size 9 to 14) (size 15 to 20)
#    0.000    0.000    4.000    4.800    9.333    0.533 
#    0.000    0.000    0.000    0.000    0.000    0.000 
#    0.000    0.000    0.000    0.000    0.000    0.000 
#
# Total GULP energy -83858.543040 kJ/mol
# GULP energy per Si atom -5590.569536 kJ/mol
# Density = 2.303825 g / cm^3
# Si number density = 23.090808 Si / 1000 Ang^3
#
#
#
# Elastic Constant Matrix: (Units=GPa)
#
#
# Indices 1 2 3 4 5 6 
#
# 1 69.3368 27.3877 10.9287 -4.1131 0.3376 -5.2644
# 2 27.3877 56.7121 37.2977 1.4095 -6.8143 -12.9967
# 3 10.9287 37.2977 119.6871 5.8114 -15.1116 -14.0096
# 4 -4.1131 1.4095 5.8114 47.3793 -18.4967 4.2109
# 5 0.3376 -6.8143 -15.1116 -18.4967 38.0937 -0.5816
# 6 -5.2644 -12.9967 -14.0096 4.2109 -0.5816 27.7209
#
#
#
# Elastic Compliance Matrix: (Units=1/GPa)
#
#
# Indices 1 2 3 4 5 6 
#
# 1 0.018159 -0.009839 0.001143 0.001511 -0.000746 -0.000832
# 2 -0.009839 0.029140 -0.006856 -0.000711 0.002364 0.008486
# 3 0.001143 -0.006856 0.011107 -0.000055 0.003184 0.002691
# 4 0.001511 -0.000711 -0.000055 0.026554 0.012672 -0.003842
# 5 -0.000746 0.002364 0.003184 0.012672 0.034118 0.001367
# 6 -0.000832 0.008486 0.002691 -0.003842 0.001367 0.041867
#
#
# Mechanical properties :
#
#
# Convention : Reuss Voigt Hill
#
# Bulk Modulus (GPa) = 36.62782 44.10714 40.36748
# Shear Modulus (GPa) = 24.85727 33.98024 29.41875
#
# Velocity S-wave (km/s) = 3.28457 3.84029 3.57325
# Velocity P-wave (km/s) = 5.50286 6.22952 5.87743
#
# Compressibility (1/GPa) = 0.02730165
#
# Stress axis : x y z
#
# Youngs Moduli (GPa) = 55.07022 34.31727 90.03392
#
# Poissons Ratio (x) = 0.33764 -0.10291
# Poissons Ratio (y) = 0.54183 0.61727
# Poissons Ratio (z) = -0.06294 0.23528
#
# Static dielectric constant tensor:
#      x y z
#    x 1.892340 0.004540 -0.020320 
#    y 0.004540 1.829010 -0.000250 
#    z -0.020320 -0.000250 1.831540 
# 
# From -- ./inp_files/177041.got.cif
#   From: 2010.05.17/outbox.cif.g08.bks.cpg/sg2_89_cif.got.tgz:177041.got - 2010.06.03 11:33:40.
