data_PCOD9071582
_publ_section_title
;
Structure prediction by ZEFSAII (Michael W. Deem and Ramdas Pophale) SiO2 
 PCOD9071582
Probable space group: P -1
;
_chemical_formula_sum "Si O2"
_cell_formula_units_Z 11
_cell_length_a 8.890700
_cell_length_b 12.064103
_cell_length_c 8.056285
_cell_angle_alpha 71.904699
_cell_angle_beta 146.055027
_cell_angle_gamma 108.302915
_cell_volume 456.053443
_symmetry_space_group_name_H-M "P -1"
_symmetry_group_IT_number 2
_symmetry_cell_setting 'triclinic'
loop_
_space_group_symop_operation_xyz
x,y,z
-x,-y,-z
loop_
_atom_site_type_symbol
_atom_site_label
_atom_site_fract_x
_atom_site_fract_y
_atom_site_fract_z
Si Si1 0.689059 0.701959 0.014066
Si Si2 0.849648 0.437804 0.553394
Si Si3 0.455760 0.270660 0.767664
Si Si4 0.718986 0.973820 0.844424
Si Si5 0.500000 0.500000 0.500000
Si Si6 0.920380 0.114781 0.275055
O O1 0.679415 0.683035 0.211329
O O2 0.950836 0.661332 0.182358
O O3 0.436927 0.623913 0.741784
O O4 0.674632 0.838850 0.915514
O O5 0.768417 0.502700 0.614881
O O6 0.000000 0.500000 0.500000
O O7 0.569298 0.375284 0.703119
O O8 0.211804 0.190722 0.488512
O O9 0.702012 0.200741 0.096961
O O10 0.500000 0.000000 0.500000
O O11 0.752240 0.058669 0.991624
O O12 0.000000 0.000000 0.000000
O O13 0.000000 0.000000 0.500000
#
# Coordination Sequence:
#
# PCOD9071582 Si02
#       6
#     2   2   2   2   1   2
#     4  12  27  51  79 114 162 211 268 341 422 486
#     4  12  28  52  78 115 157 213 273 340 405 488
#     4  12  28  49  81 118 159 218 274 338 408 495
#     4  12  28  47  76 119 162 210 264 346 418 491
#     4  12  32  52  82 118 166 220 282 334 422 496
#     4  12  27  50  80 116 161 214 274 334 419 497
#
# _framework density 24.119980999999999
#
# number of rings (size 3 to 8) (size 9 to 14) (size 15 to 20)
#    0.000    0.000    3.636    4.364   10.182    1.455 
#    0.000    0.000    0.000    0.000    0.000    0.000 
#    0.000    0.000    0.000    0.000    0.000    0.000 
#
# Total GULP energy -61287.505993 kJ/mol
# GULP energy per Si atom -5571.591454 kJ/mol
# Density = 2.406508 g / cm^3
# Si number density = 24.119981 Si / 1000 Ang^3
#
#
#
# Elastic Constant Matrix: (Units=GPa)
#
#
# Indices 1 2 3 4 5 6 
#
# 1 123.3117 19.6528 66.8326 5.4839 78.0308 29.9658
# 2 19.6528 60.1195 26.2835 -32.4057 -18.0084 14.9196
# 3 66.8326 26.2835 195.9295 46.3302 85.0917 27.9631
# 4 5.4839 -32.4057 46.3302 122.8488 113.2655 46.7677
# 5 78.0308 -18.0084 85.0917 113.2655 232.5655 65.3566
# 6 29.9658 14.9196 27.9631 46.7677 65.3566 78.5367
#
#
#
# Elastic Compliance Matrix: (Units=1/GPa)
#
#
# Indices 1 2 3 4 5 6 
#
# 1 0.014756 0.000211 -0.003621 0.008274 -0.006557 -0.003852
# 2 0.000211 0.030702 -0.006267 0.014217 0.001422 -0.013331
# 3 -0.003621 -0.006267 0.008234 -0.005254 -0.000656 0.003315
# 4 0.008274 0.014217 -0.005254 0.026768 -0.009384 -0.012118
# 5 -0.006557 0.001422 -0.000656 -0.009384 0.011952 -0.001893
# 6 -0.003852 -0.013331 0.003315 -0.012118 -0.001893 0.024346
#
#
# Mechanical properties :
#
#
# Convention : Reuss Voigt Hill
#
# Bulk Modulus (GPa) = 29.12273 67.21094 48.16684
# Shear Modulus (GPa) = 33.88531 104.56299 69.22415
#
# Velocity S-wave (km/s) = 3.75222 6.59131 5.36304
# Velocity P-wave (km/s) = 5.55630 9.26568 7.63955
#
# Compressibility (1/GPa) = 0.03433744
#
# Stress axis : x y z
#
# Youngs Moduli (GPa) = 67.77109 32.57133 121.45138
#
# Poissons Ratio (x) = -0.00688 0.43973
# Poissons Ratio (y) = -0.01431 0.76118
# Poissons Ratio (z) = 0.24538 0.20414
#
# Static dielectric constant tensor:
#      x y z
#    x 2.065050 -0.071850 -0.021540 
#    y -0.071850 1.918240 -0.043410 
#    z -0.021540 -0.043410 1.908910 
# 
# From -- ./inp_files/177106.got.cif
#   From: 2010.05.17/outbox.cif.g08.bks.cpg/sg2_89_cif.got.tgz:177106.got - 2010.06.03 11:33:40.
