data_PCOD9071784
_publ_section_title
;
Structure prediction by ZEFSAII (Michael W. Deem and Ramdas Pophale) SiO2 
 PCOD9071784
Probable space group: P -1
;
_chemical_formula_sum "Si O2"
_cell_formula_units_Z 16
_cell_length_a 10.806454
_cell_length_b 7.366565
_cell_length_c 18.054473
_cell_angle_alpha 109.328910
_cell_angle_beta 149.330504
_cell_angle_gamma 86.542424
_cell_volume 612.030181
_symmetry_space_group_name_H-M "P -1"
_symmetry_group_IT_number 2
_symmetry_cell_setting 'triclinic'
loop_
_space_group_symop_operation_xyz
x,y,z
-x,-y,-z
loop_
_atom_site_type_symbol
_atom_site_label
_atom_site_fract_x
_atom_site_fract_y
_atom_site_fract_z
Si Si1 0.502477 0.087585 0.317034
Si Si2 0.960203 0.876810 0.825683
Si Si3 0.156194 0.923364 0.631361
Si Si4 0.350883 0.351588 0.021049
Si Si5 0.871449 0.222128 0.657921
Si Si6 0.437174 0.348632 0.688591
Si Si7 0.423983 0.808760 0.997221
Si Si8 0.581686 0.728705 0.480357
O O1 0.473058 0.844531 0.283493
O O2 0.228097 0.097059 0.203293
O O3 0.621790 0.132698 0.301492
O O4 0.755241 0.241889 0.521425
O O5 0.144581 0.119136 0.920345
O O6 0.743091 0.714653 0.632111
O O7 0.182327 0.788595 0.924837
O O8 0.886512 0.719377 0.493608
O O9 0.316835 0.103666 0.800849
O O10 0.000000 0.000000 0.500000
O O11 0.448611 0.513346 0.160945
O O12 0.599717 0.364674 0.100925
O O13 0.164226 0.372199 0.863232
O O14 0.670472 0.245177 0.616268
O O15 0.794047 0.966183 0.588531
O O16 0.529155 0.442425 0.666169
O O17 0.500000 0.000000 0.000000
#
# Coordination Sequence:
#
# PCOD9071784 Si02
#       8
#     2   2   2   2   2   2   2   2
#     4   9  18  33  52  74 101 137 176 212 259 317
#     4   9  18  33  52  74 101 137 176 212 259 317
#     4  10  20  36  55  76 105 142 180 213 254 314
#     4  10  18  29  50  79 107 133 172 225 265 298
#     4   8  14  27  47  69  97 131 166 205 250 302
#     4  10  18  29  50  79 107 133 172 225 265 298
#     4  10  20  36  55  76 105 142 180 213 254 314
#     4   8  14  27  47  69  97 131 166 205 250 302
#
# _framework density 26.142499999999998
#
# number of rings (size 3 to 8) (size 9 to 14) (size 15 to 20)
#    0.000    2.750    0.000    6.000    0.000    2.500 
#    0.000   11.250    0.000    0.750    0.000    0.000 
#    0.000    0.000    0.000    0.000    0.000    0.000 
#
# Total GULP energy -89173.977418 kJ/mol
# GULP energy per Si atom -5573.373589 kJ/mol
# Density = 2.608300 g / cm^3
# Si number density = 26.142500 Si / 1000 Ang^3
#
#
#
# Elastic Constant Matrix: (Units=GPa)
#
#
# Indices 1 2 3 4 5 6 
#
# 1 147.8703 51.6675 52.7052 17.8936 -9.2071 -57.8795
# 2 51.6675 74.3035 38.2509 13.3509 5.4318 -21.0553
# 3 52.7052 38.2509 129.8603 13.6529 -33.3147 -43.6007
# 4 17.8936 13.3509 13.6529 26.7006 -16.1927 -1.9236
# 5 -9.2071 5.4318 -33.3147 -16.1927 54.3104 4.5645
# 6 -57.8795 -21.0553 -43.6007 -1.9236 4.5645 50.7211
#
#
#
# Elastic Compliance Matrix: (Units=1/GPa)
#
#
# Indices 1 2 3 4 5 6 
#
# 1 0.015494 -0.006036 0.002031 -0.006519 0.001140 0.016571
# 2 -0.006036 0.023057 -0.006781 -0.010515 -0.010405 -0.002608
# 3 0.002031 -0.006781 0.015180 0.000954 0.009634 0.011721
# 4 -0.006519 -0.010515 0.000954 0.056999 0.018407 -0.010478
# 5 0.001140 -0.010405 0.009634 0.018407 0.030776 0.003191
# 6 0.016571 -0.002608 0.011721 -0.010478 0.003191 0.046934
#
#
# Mechanical properties :
#
#
# Convention : Reuss Voigt Hill
#
# Bulk Modulus (GPa) = 31.09521 70.80906 50.95213
# Shear Modulus (GPa) = 22.65206 40.30711 31.47959
#
# Velocity S-wave (km/s) = 2.94680 3.93087 3.47386
# Velocity P-wave (km/s) = 4.84753 6.90991 5.96848
#
# Compressibility (1/GPa) = 0.03215930
#
# Stress axis : x y z
#
# Youngs Moduli (GPa) = 64.54260 43.37054 65.87529
#
# Poissons Ratio (x) = 0.26176 -0.13379
# Poissons Ratio (y) = 0.38955 0.44672
# Poissons Ratio (z) = -0.13109 0.29411
#
# Static dielectric constant tensor:
#      x y z
#    x 2.213440 0.160130 0.010700 
#    y 0.160130 2.378730 0.013100 
#    z 0.010700 0.013100 2.074250 
# 
# From -- ./inp_files/404573.got.cif
#   From: 2010.05.17/outbox.cif.g08.bks.cpg/sg2_203_cif.got.tgz:404573.got - 2010.06.03 11:33:40.
