data_PCOD9071475
_publ_section_title
;
Structure prediction by ZEFSAII (Michael W. Deem and Ramdas Pophale) SiO2 
 PCOD9071475
Probable space group: P -1
;
_chemical_formula_sum "Si O2"
_cell_formula_units_Z 16
_cell_length_a 15.384992
_cell_length_b 26.729974
_cell_length_c 9.396847
_cell_angle_alpha 31.454436
_cell_angle_beta 143.964173
_cell_angle_gamma 160.133819
_cell_volume 684.816340
_symmetry_space_group_name_H-M "P -1"
_symmetry_group_IT_number 2
_symmetry_cell_setting 'triclinic'
loop_
_space_group_symop_operation_xyz
x,y,z
-x,-y,-z
loop_
_atom_site_type_symbol
_atom_site_label
_atom_site_fract_x
_atom_site_fract_y
_atom_site_fract_z
Si Si1 0.720571 0.316698 0.722123
Si Si2 0.874037 0.615682 0.199784
Si Si3 0.332669 0.275063 0.843108
Si Si4 0.385938 0.828978 0.374006
Si Si5 0.854015 0.463726 0.033210
Si Si6 0.434316 0.429953 0.896973
Si Si7 0.078823 0.933453 0.411551
Si Si8 0.234651 0.164398 0.499252
O O1 0.843502 0.486694 0.438948
O O2 0.638669 0.225011 0.688160
O O3 0.456415 0.204411 0.723452
O O4 0.930190 0.380954 0.948406
O O5 0.733238 0.592030 0.939495
O O6 0.170743 0.797326 0.172231
O O7 0.722900 0.561996 0.274901
O O8 0.108134 0.202558 0.628857
O O9 0.611841 0.404997 0.826726
O O10 0.380940 0.362002 0.837094
O O11 0.216095 0.108175 0.129848
O O12 0.277799 0.694328 0.671704
O O13 0.679238 0.003436 0.378200
O O14 0.000000 0.500000 0.000000
O O15 0.344192 0.302060 0.202647
O O16 0.886978 0.861695 0.455859
O O17 0.000000 0.000000 0.500000
#
# Coordination Sequence:
#
# PCOD9071475 Si02
#       8
#     2   2   2   2   2   2   2   2
#     4  10  18  31  56  75  99 132 164 211 250 290
#     4   9  18  32  53  75  96 130 175 205 244 296
#     4  10  19  32  49  74 103 133 162 202 255 301
#     4  10  18  33  52  75  98 133 168 205 250 295
#     4  10  18  29  47  76 102 121 160 213 253 281
#     4  10  19  33  54  74  98 134 168 207 247 298
#     4  10  19  31  50  74 103 131 163 204 248 298
#     4  11  17  31  51  78 103 125 166 208 246 291
#
# _framework density 23.363928999999999
#
# number of rings (size 3 to 8) (size 9 to 14) (size 15 to 20)
#    0.000    2.000    2.500    5.250    0.000    0.000 
#    0.000    1.250    0.000   24.750    0.000    0.000 
#    0.000    0.000    0.000    0.000    0.000    0.000 
#
# Total GULP energy -89322.614686 kJ/mol
# GULP energy per Si atom -5582.663418 kJ/mol
# Density = 2.331075 g / cm^3
# Si number density = 23.363929 Si / 1000 Ang^3
#
#
#
# Elastic Constant Matrix: (Units=GPa)
#
#
# Indices 1 2 3 4 5 6 
#
# 1 136.9833 74.6928 19.7223 42.5706 -26.7565 8.9177
# 2 74.6928 174.7058 50.3705 65.0427 -9.7555 27.8458
# 3 19.7223 50.3705 44.0090 19.1001 -10.7938 5.8747
# 4 42.5706 65.0427 19.1001 43.9491 -4.6724 -0.1289
# 5 -26.7565 -9.7555 -10.7938 -4.6724 31.5146 4.0063
# 6 8.9177 27.8458 5.8747 -0.1289 4.0063 43.1374
#
#
#
# Elastic Compliance Matrix: (Units=1/GPa)
#
#
# Indices 1 2 3 4 5 6 
#
# 1 0.013444 -0.001423 0.003684 -0.011360 0.010986 -0.003417
# 2 -0.001423 0.019887 -0.010606 -0.023558 -0.000766 -0.011098
# 3 0.003684 -0.010606 0.037486 -0.002859 0.012282 -0.000170
# 4 -0.011360 -0.023558 -0.002859 0.068843 -0.010137 0.019092
# 5 0.010986 -0.000766 0.012282 -0.010137 0.044493 -0.007611
# 6 -0.003417 -0.011098 -0.000170 0.019092 -0.007611 0.031839
#
#
# Mechanical properties :
#
#
# Convention : Reuss Voigt Hill
#
# Bulk Modulus (GPa) = 18.47449 71.69660 45.08554
# Shear Modulus (GPa) = 19.94230 37.78106 28.86168
#
# Velocity S-wave (km/s) = 2.92473 4.02564 3.51851
# Velocity P-wave (km/s) = 4.39657 7.23610 5.98711
#
# Compressibility (1/GPa) = 0.05412868
#
# Stress axis : x y z
#
# Youngs Moduli (GPa) = 74.38149 50.28473 26.67654
#
# Poissons Ratio (x) = 0.07154 -0.09829
# Poissons Ratio (y) = 0.10582 0.28293
# Poissons Ratio (z) = -0.27405 0.53332
#
# Static dielectric constant tensor:
#      x y z
#    x 1.802120 0.088040 0.096870 
#    y 0.088040 1.944190 -0.005450 
#    z 0.096870 -0.005450 1.952240 
# 
# From -- ./inp_files/277878.got.cif
#   From: 2010.05.17/outbox.cif.g08.bks.cpg/sg2_139_cif.got.tgz:277878.got - 2010.06.03 11:33:40.
