data_PCOD9071949
_publ_section_title
;
Structure prediction by ZEFSAII (Michael W. Deem and Ramdas Pophale) SiO2 
 PCOD9071949
Probable space group: P -1
;
_chemical_formula_sum "Si O2"
_cell_formula_units_Z 16
_cell_length_a 12.838252
_cell_length_b 8.905593
_cell_length_c 8.904973
_cell_angle_alpha 127.384973
_cell_angle_beta 86.400382
_cell_angle_gamma 61.173014
_cell_volume 609.312887
_symmetry_space_group_name_H-M "P -1"
_symmetry_group_IT_number 2
_symmetry_cell_setting 'triclinic'
loop_
_space_group_symop_operation_xyz
x,y,z
-x,-y,-z
loop_
_atom_site_type_symbol
_atom_site_label
_atom_site_fract_x
_atom_site_fract_y
_atom_site_fract_z
Si Si1 0.404203 0.640520 0.446057
Si Si2 0.829437 0.081534 0.151423
Si Si3 0.595793 0.754494 0.948961
Si Si4 0.918019 0.724225 0.355745
Si Si5 0.829427 0.689727 0.759619
Si Si6 0.346503 0.444356 0.752535
Si Si7 0.346503 0.054484 0.362674
Si Si8 0.918013 0.308214 0.939723
O O1 0.500000 0.500000 0.500000
O O2 0.263390 0.885114 0.679226
O O3 0.504763 0.633944 0.320160
O O4 0.373850 0.475224 0.277040
O O5 0.747112 0.350297 0.247161
O O6 0.981056 0.937221 0.114618
O O7 0.832451 0.907989 0.927114
O O8 0.495234 0.829720 0.143509
O O9 0.736603 0.706055 0.911947
O O10 0.500000 0.000000 0.000000
O O11 0.762114 0.959774 0.559609
O O12 0.018960 0.576699 0.399314
O O13 0.000002 0.766909 0.266919
O O14 0.914538 0.521318 0.149592
O O15 0.747105 0.758615 0.655472
O O16 0.367586 0.203163 0.561707
O O17 0.237892 0.583859 0.984029
#
# Coordination Sequence:
#
# PCOD9071949 Si02
#       8
#     2   2   2   2   2   2   2   2
#     4  10  18  30  49  74 103 129 161 203 245 292
#     4  10  18  31  53  77 101 128 162 204 247 292
#     4  10  18  30  49  74 103 129 161 203 245 292
#     4   9  19  34  51  73 100 131 168 206 242 287
#     4  10  18  31  53  77 101 128 162 204 247 292
#     4  10  18  31  53  77 101 128 162 204 247 292
#     4  10  18  31  53  77 101 128 162 204 247 292
#     4   9  19  34  51  73 100 131 168 206 242 287
#
# _framework density 26.259087999999998
#
# number of rings (size 3 to 8) (size 9 to 14) (size 15 to 20)
#    0.000    2.250    0.000    7.500    0.000    0.000 
#    0.000    5.000    0.000   19.500    0.000    0.000 
#    0.000    0.000    0.000    0.000    0.000    0.000 
#
# Total GULP energy -89513.640415 kJ/mol
# GULP energy per Si atom -5594.602526 kJ/mol
# Density = 2.619932 g / cm^3
# Si number density = 26.259088 Si / 1000 Ang^3
#
#
#
# Elastic Constant Matrix: (Units=GPa)
#
#
# Indices 1 2 3 4 5 6 
#
# 1 122.2663 24.6895 47.2084 8.4992 -44.2074 -7.4570
# 2 24.6895 78.6986 14.1954 -15.1401 -20.4298 -6.0475
# 3 47.2084 14.1954 86.3651 0.1389 -21.5684 6.9127
# 4 8.4992 -15.1401 0.1389 34.8985 11.8951 -21.0718
# 5 -44.2074 -20.4298 -21.5684 11.8951 67.4750 4.8692
# 6 -7.4570 -6.0475 6.9127 -21.0718 4.8692 42.6781
#
#
#
# Elastic Compliance Matrix: (Units=1/GPa)
#
#
# Indices 1 2 3 4 5 6 
#
# 1 0.014449 -0.003504 -0.004860 -0.009876 0.008815 -0.003066
# 2 -0.003504 0.017413 -0.001929 0.014347 -0.000844 0.009348
# 3 -0.004860 -0.001929 0.015633 -0.004133 0.002388 -0.005968
# 4 -0.009876 0.014347 -0.004133 0.064043 -0.017232 0.034564
# 5 0.008815 -0.000844 0.002388 -0.017232 0.024885 -0.010313
# 6 -0.003066 0.009348 -0.005968 0.034564 -0.010313 0.043429
#
#
# Mechanical properties :
#
#
# Convention : Reuss Voigt Hill
#
# Bulk Modulus (GPa) = 37.15962 51.05739 44.10851
# Shear Modulus (GPa) = 23.87685 42.42610 33.15147
#
# Velocity S-wave (km/s) = 3.01870 4.02390 3.55699
# Velocity P-wave (km/s) = 5.13146 6.40898 5.80547
#
# Compressibility (1/GPa) = 0.02691093
#
# Stress axis : x y z
#
# Youngs Moduli (GPa) = 69.20717 57.42748 63.96768
#
# Poissons Ratio (x) = 0.20121 0.31086
# Poissons Ratio (y) = 0.24249 0.12338
# Poissons Ratio (z) = 0.33632 0.11077
#
# Static dielectric constant tensor:
#      x y z
#    x 2.011880 0.054990 -0.120760 
#    y 0.054990 1.901070 -0.049810 
#    z -0.120760 -0.049810 1.984530 
# 
# From -- ./inp_files/424488.got.cif
#   From: 2010.05.17/outbox.cif.g08.bks.cpg/sg2_213_cif.got.tgz:424488.got - 2010.06.03 11:33:40.
