data_PCOD9071741
_publ_section_title
;
Structure prediction by ZEFSAII (Michael W. Deem and Ramdas Pophale) SiO2 
 PCOD9071741
Probable space group: P -1
;
_chemical_formula_sum "Si O2"
_cell_formula_units_Z 14
_cell_length_a 5.679764
_cell_length_b 9.331363
_cell_length_c 11.595312
_cell_angle_alpha 94.715875
_cell_angle_beta 67.950718
_cell_angle_gamma 79.484690
_cell_volume 552.324248
_symmetry_space_group_name_H-M "P -1"
_symmetry_group_IT_number 2
_symmetry_cell_setting 'triclinic'
loop_
_space_group_symop_operation_xyz
x,y,z
-x,-y,-z
loop_
_atom_site_type_symbol
_atom_site_label
_atom_site_fract_x
_atom_site_fract_y
_atom_site_fract_z
Si Si1 0.041282 0.746752 0.294322
Si Si2 0.900413 0.065679 0.245103
Si Si3 0.856417 0.366381 0.496638
Si Si4 0.404090 0.428722 0.902512
Si Si5 0.755621 0.821806 0.987936
Si Si6 0.572376 0.899751 0.793534
Si Si7 0.728083 0.494440 0.303862
O O1 0.912374 0.894095 0.259500
O O2 0.031490 0.757064 0.436850
O O3 0.341204 0.690474 0.198209
O O4 0.904011 0.613568 0.281775
O O5 0.135182 0.086429 0.288385
O O6 0.592776 0.136190 0.286104
O O7 0.019153 0.108563 0.104273
O O8 0.847643 0.360250 0.358551
O O9 0.554859 0.424952 0.591143
O O10 0.000000 0.500000 0.500000
O O11 0.312594 0.541256 0.822635
O O12 0.500000 0.500000 0.000000
O O13 0.195450 0.332466 0.965771
O O14 0.605728 0.796267 0.894435
O O15 0.580566 0.945929 0.109671
#
# Coordination Sequence:
#
# PCOD9071741 Si02
#       7
#     2   2   2   2   2   2   2
#     4  10  18  30  51  75 102 129 170 212 262 308
#     4  10  18  29  49  73  99 129 163 215 265 308
#     4   8  16  31  49  73  93 128 159 213 266 307
#     4  11  21  33  46  70 104 146 179 202 238 301
#     4   9  18  29  43  66  99 134 172 208 248 299
#     4   9  17  28  47  67  95 128 161 208 263 297
#     4   9  18  31  49  67 103 128 169 211 254 304
#
# _framework density 25.347429000000002
#
# number of rings (size 3 to 8) (size 9 to 14) (size 15 to 20)
#    0.857    1.714    1.429    1.286    2.000    1.714 
#    0.000    0.000    0.000    0.000    0.000    1.000 
#    0.000   40.000    0.000    3.429    0.000    1.000 
#
# Total GULP energy -78065.624497 kJ/mol
# GULP energy per Si atom -5576.116036 kJ/mol
# Density = 2.528974 g / cm^3
# Si number density = 25.347429 Si / 1000 Ang^3
#
#
#
# Elastic Constant Matrix: (Units=GPa)
#
#
# Indices 1 2 3 4 5 6 
#
# 1 132.1924 13.5449 32.8438 -4.4629 12.0844 18.4091
# 2 13.5449 60.2262 50.9252 -25.8836 -1.4846 2.7270
# 3 32.8438 50.9252 144.0999 -26.5183 39.0237 0.8884
# 4 -4.4629 -25.8836 -26.5183 35.7474 -1.7873 1.5645
# 5 12.0844 -1.4846 39.0237 -1.7873 55.2973 -6.2447
# 6 18.4091 2.7270 0.8884 1.5645 -6.2447 30.4930
#
#
#
# Elastic Compliance Matrix: (Units=1/GPa)
#
#
# Indices 1 2 3 4 5 6 
#
# 1 0.008894 -0.000809 -0.001302 -0.000280 -0.001687 -0.005591
# 2 -0.000809 0.033606 -0.011203 0.016440 0.009391 -0.001111
# 3 -0.001302 -0.011203 0.014283 0.001850 -0.010126 -0.000797
# 4 -0.000280 0.016440 0.001850 0.041373 0.000145 -0.003448
# 5 -0.001687 0.009391 -0.010126 0.000145 0.026522 0.005898
# 6 -0.005591 -0.001111 -0.000797 -0.003448 0.005898 0.037677
#
#
# Mechanical properties :
#
#
# Convention : Reuss Voigt Hill
#
# Bulk Modulus (GPa) = 33.16023 59.01624 46.08824
# Shear Modulus (GPa) = 25.12136 40.25451 32.68793
#
# Velocity S-wave (km/s) = 3.15156 3.98943 3.59499
# Velocity P-wave (km/s) = 5.13359 6.67490 5.95433
#
# Compressibility (1/GPa) = 0.03015660
#
# Stress axis : x y z
#
# Youngs Moduli (GPa) = 112.43161 29.75663 70.01271
#
# Poissons Ratio (x) = 0.02406 0.09113
# Poissons Ratio (y) = 0.09092 0.78436
# Poissons Ratio (z) = 0.14635 0.33337
#
# Static dielectric constant tensor:
#      x y z
#    x 2.047230 0.037210 0.037870 
#    y 0.037210 2.002820 0.037400 
#    z 0.037870 0.037400 2.024130 
# 
# From -- ./inp_files/362006.got.cif
#   From: 2010.05.17/outbox.cif.g08.bks.cpg/sg2_182_cif.got.tgz:362006.got - 2010.06.03 11:33:40.
