data_PCOD9071552
_publ_section_title
;
Structure prediction by ZEFSAII (Michael W. Deem and Ramdas Pophale) SiO2 
 PCOD9071552
Probable space group: P -1
;
_chemical_formula_sum "Si O2"
_cell_formula_units_Z 16
_cell_length_a 9.173049
_cell_length_b 24.606953
_cell_length_c 5.648431
_cell_angle_alpha 94.734576
_cell_angle_beta 88.267610
_cell_angle_gamma 151.012413
_cell_volume 613.437679
_symmetry_space_group_name_H-M "P -1"
_symmetry_group_IT_number 2
_symmetry_cell_setting 'triclinic'
loop_
_space_group_symop_operation_xyz
x,y,z
-x,-y,-z
loop_
_atom_site_type_symbol
_atom_site_label
_atom_site_fract_x
_atom_site_fract_y
_atom_site_fract_z
Si Si1 0.967983 0.398866 0.009802
Si Si2 0.834747 0.745040 0.385759
Si Si3 0.744672 0.188911 0.355685
Si Si4 0.696609 0.795081 0.072331
Si Si5 0.791710 0.483371 0.463277
Si Si6 0.684146 0.903648 0.348595
Si Si7 0.194296 0.365127 0.014460
Si Si8 0.325278 0.997821 0.933075
O O1 0.653911 0.329099 0.013070
O O2 0.143083 0.475133 0.791329
O O3 0.937867 0.324518 0.938371
O O4 0.127301 0.455361 0.280263
O O5 0.793089 0.790775 0.292422
O O6 0.554737 0.645577 0.537469
O O7 0.803196 0.689085 0.157500
O O8 0.150439 0.831376 0.516775
O O9 0.602651 0.194296 0.497883
O O10 0.472314 0.084496 0.157927
O O11 0.063013 0.308411 0.258578
O O12 0.702715 0.861547 0.143140
O O13 0.967324 0.869685 0.910835
O O14 0.000000 0.500000 0.500000
O O15 0.643505 0.952040 0.274383
O O16 0.000000 0.000000 0.500000
O O17 0.500000 0.500000 0.000000
O O18 0.500000 0.000000 0.000000
#
# Coordination Sequence:
#
# PCOD9071552 Si02
#       8
#     2   2   2   2   2   2   2   2
#     4  12  28  48  83 116 160 217 271 347 410 491
#     4  12  28  48  78 115 158 214 268 333 412 491
#     4  12  27  49  78 109 163 206 263 335 408 490
#     4  12  27  48  79 117 154 211 272 336 412 489
#     4  12  27  50  77 118 167 209 279 340 416 489
#     4  12  28  50  79 114 157 210 272 335 412 491
#     4  12  27  49  78 115 156 208 270 333 409 491
#     4  12  28  51  78 116 158 204 269 335 410 496
#
# _framework density 26.082519999999999
#
# number of rings (size 3 to 8) (size 9 to 14) (size 15 to 20)
#    0.000    0.000    3.750    5.250    7.000    3.000 
#    0.000    0.000    0.000    0.000    0.000    0.000 
#    0.000    0.000    0.000    0.000    0.000    0.000 
#
# Total GULP energy -89397.632123 kJ/mol
# GULP energy per Si atom -5587.352008 kJ/mol
# Density = 2.602315 g / cm^3
# Si number density = 26.082520 Si / 1000 Ang^3
#
#
#
# Elastic Constant Matrix: (Units=GPa)
#
#
# Indices 1 2 3 4 5 6 
#
# 1 172.0680 25.7152 28.4256 -24.8050 11.8619 21.8466
# 2 25.7152 89.2507 41.0362 -18.1237 0.2673 27.9449
# 3 28.4256 41.0362 65.4584 2.8685 -0.8503 4.3640
# 4 -24.8050 -18.1237 2.8685 46.4697 5.8562 -0.5134
# 5 11.8619 0.2673 -0.8503 5.8562 45.5119 -5.1830
# 6 21.8466 27.9449 4.3640 -0.5134 -5.1830 52.1177
#
#
#
# Elastic Compliance Matrix: (Units=1/GPa)
#
#
# Indices 1 2 3 4 5 6 
#
# 1 0.007967 0.002824 -0.005228 0.006067 -0.003507 -0.004705
# 2 0.002824 0.024674 -0.016411 0.012541 -0.004321 -0.013346
# 3 -0.005228 -0.016411 0.027791 -0.011370 0.004465 0.008995
# 4 0.006067 0.012541 -0.011370 0.031119 -0.006861 -0.008691
# 5 -0.003507 -0.004321 0.004465 -0.006861 0.024537 0.005786
# 6 -0.004705 -0.013346 0.008995 -0.008691 0.005786 0.028052
#
#
# Mechanical properties :
#
#
# Convention : Reuss Voigt Hill
#
# Bulk Modulus (GPa) = 43.85270 57.45900 50.65585
# Shear Modulus (GPa) = 26.40326 44.25988 35.33157
#
# Velocity S-wave (km/s) = 3.18511 4.12383 3.68449
# Velocity P-wave (km/s) = 5.51146 6.68971 6.12896
#
# Compressibility (1/GPa) = 0.02280361
#
# Stress axis : x y z
#
# Youngs Moduli (GPa) = 125.51884 40.52802 35.98242
#
# Poissons Ratio (x) = -0.11444 0.18810
# Poissons Ratio (y) = -0.35442 0.59049
# Poissons Ratio (z) = 0.65616 0.66509
#
# Static dielectric constant tensor:
#      x y z
#    x 2.010620 -0.040880 0.018730 
#    y -0.040880 2.095830 -0.074250 
#    z 0.018730 -0.074250 2.305900 
# 
# From -- ./inp_files/56438.got.cif
#   From: 2010.05.17/outbox.cif.g08.bks.cpg/sg2_29_cif.got.tgz:56438.got - 2010.06.03 11:33:40.
