data_PCOD9071356
_publ_section_title
;
Structure prediction by ZEFSAII (Michael W. Deem and Ramdas Pophale) SiO2 
 PCOD9071356
Probable space group: P -1
;
_chemical_formula_sum "Si O2"
_cell_formula_units_Z 12
_cell_length_a 13.285880
_cell_length_b 7.070041
_cell_length_c 10.367515
_cell_angle_alpha 136.346388
_cell_angle_beta 136.131926
_cell_angle_gamma 48.731965
_cell_volume 446.065910
_symmetry_space_group_name_H-M "P -1"
_symmetry_group_IT_number 2
_symmetry_cell_setting 'triclinic'
loop_
_space_group_symop_operation_xyz
x,y,z
-x,-y,-z
loop_
_atom_site_type_symbol
_atom_site_label
_atom_site_fract_x
_atom_site_fract_y
_atom_site_fract_z
Si Si1 0.794445 0.976189 0.549014
Si Si2 0.416270 0.345848 0.744270
Si Si3 0.319103 0.090217 0.099753
Si Si4 0.993878 0.764454 0.985751
Si Si5 0.146631 0.094513 0.719034
Si Si6 0.445492 0.526539 0.316970
O O1 0.750928 0.686905 0.403037
O O2 0.759738 0.981733 0.366880
O O3 0.939734 0.093009 0.762298
O O4 0.693583 0.189653 0.667609
O O5 0.540802 0.037052 0.738711
O O6 0.555058 0.552607 0.319393
O O7 0.500000 0.500000 0.000000
O O8 0.378752 0.258774 0.124194
O O9 0.239336 0.924272 0.843812
O O10 0.174950 0.242398 0.131729
O O11 0.083970 0.440823 0.864235
O O12 0.000000 0.000000 0.000000
O O13 0.000000 0.000000 0.500000
O O14 0.500000 0.500000 0.500000
#
# Coordination Sequence:
#
# PCOD9071356 Si02
#       6
#     2   2   2   2   2   2
#     4  12  26  49  78 112 160 197 262 325 391 464
#     4  12  30  49  77 118 155 205 265 321 393 470
#     4  12  26  50  79 107 159 205 255 324 389 471
#     4  12  28  48  79 115 159 207 262 325 396 470
#     4  12  26  49  78 117 156 208 265 320 396 471
#     4  12  26  48  78 111 156 203 259 320 393 461
#
# _framework density 26.901855000000001
#
# number of rings (size 3 to 8) (size 9 to 14) (size 15 to 20)
#    0.000    0.000    5.000    4.000    7.000    3.333 
#    0.000    0.000    0.000    0.000    0.000    0.000 
#    0.000    0.000    0.000    0.000    0.000    0.000 
#
# Total GULP energy -66829.385825 kJ/mol
# GULP energy per Si atom -5569.115485 kJ/mol
# Density = 2.684062 g / cm^3
# Si number density = 26.901855 Si / 1000 Ang^3
#
#
#
# Elastic Constant Matrix: (Units=GPa)
#
#
# Indices 1 2 3 4 5 6 
#
# 1 128.5718 22.3605 21.4580 13.0673 -9.7360 22.5141
# 2 22.3605 57.4196 25.1318 18.6048 -3.4643 21.8917
# 3 21.4580 25.1318 145.5050 9.0623 6.4348 7.1238
# 4 13.0673 18.6048 9.0623 40.3410 7.8829 -2.4415
# 5 -9.7360 -3.4643 6.4348 7.8829 56.1098 2.3802
# 6 22.5141 21.8917 7.1238 -2.4415 2.3802 47.9449
#
#
#
# Elastic Compliance Matrix: (Units=1/GPa)
#
#
# Indices 1 2 3 4 5 6 
#
# 1 0.009282 -0.000266 -0.001002 -0.003387 0.002371 -0.004378
# 2 -0.000266 0.029270 -0.003665 -0.014350 0.004777 -0.013663
# 3 -0.001002 -0.003665 0.007621 0.000646 -0.001412 0.001115
# 4 -0.003387 -0.014350 0.000646 0.034300 -0.006796 0.010131
# 5 0.002371 0.004777 -0.001412 -0.006796 0.019833 -0.004415
# 6 -0.004378 -0.013663 0.001115 0.010131 -0.004415 0.029721
#
#
# Mechanical properties :
#
#
# Convention : Reuss Voigt Hill
#
# Bulk Modulus (GPa) = 27.54337 52.15520 39.84929
# Shear Modulus (GPa) = 32.89559 46.38221 39.63890
#
# Velocity S-wave (km/s) = 3.50065 4.15677 3.84274
# Velocity P-wave (km/s) = 5.15753 6.51671 5.87655
#
# Compressibility (1/GPa) = 0.03630637
#
# Stress axis : x y z
#
# Youngs Moduli (GPa) = 107.73845 34.16411 131.21506
#
# Poissons Ratio (x) = 0.00909 0.13153
# Poissons Ratio (y) = 0.02867 0.48090
# Poissons Ratio (z) = 0.10799 0.12521
#
# Static dielectric constant tensor:
#      x y z
#    x 1.653730 -0.044510 -0.669420 
#    y -0.044510 2.551730 0.205060 
#    z -0.669420 0.205060 1.131970 
# 
# From -- ./inp_files/445405.got.cif
#   From: 2010.05.17/outbox.cif.g08.bks.cpg/sg2_223_cif.got.tgz:445405.got - 2010.06.03 11:33:40.
