data_PCOD9071376
_publ_section_title
;
Structure prediction by ZEFSAII (Michael W. Deem and Ramdas Pophale) SiO2 
 PCOD9071376
Probable space group: P -1
;
_chemical_formula_sum "Si O2"
_cell_formula_units_Z 12
_cell_length_a 4.842135
_cell_length_b 9.684295
_cell_length_c 13.448217
_cell_angle_alpha 123.412657
_cell_angle_beta 113.375957
_cell_angle_gamma 67.411198
_cell_volume 471.766676
_symmetry_space_group_name_H-M "P -1"
_symmetry_group_IT_number 2
_symmetry_cell_setting 'triclinic'
loop_
_space_group_symop_operation_xyz
x,y,z
-x,-y,-z
loop_
_atom_site_type_symbol
_atom_site_label
_atom_site_fract_x
_atom_site_fract_y
_atom_site_fract_z
Si Si1 0.186378 0.028094 0.900469
Si Si2 0.712295 0.876563 0.238391
Si Si3 0.367772 0.670082 0.991492
Si Si4 0.554767 0.487407 0.385087
Si Si5 0.603536 0.165689 0.621790
Si Si6 0.998032 0.688885 0.763184
O O1 0.269516 0.970923 0.773183
O O2 0.940478 0.201343 0.963769
O O3 0.982748 0.888451 0.844906
O O4 0.500000 0.000000 0.000000
O O5 0.640060 0.766807 0.090258
O O6 0.484562 0.841769 0.277173
O O7 0.033310 0.843454 0.327843
O O8 0.500000 0.500000 0.000000
O O9 0.286467 0.619939 0.850399
O O10 0.500000 0.500000 0.500000
O O11 0.526021 0.668954 0.397681
O O12 0.884858 0.379259 0.355326
O O13 0.285196 0.390335 0.274718
O O14 0.500000 0.000000 0.500000
#
# Coordination Sequence:
#
# PCOD9071376 Si02
#       6
#     2   2   2   2   2   2
#     4  12  27  49  82 124 164 215 267 327 414 494
#     4  12  27  47  80 114 163 202 274 322 413 476
#     4  12  26  48  80 120 161 211 263 338 408 485
#     4  12  29  51  77 111 154 210 275 331 399 473
#     4  12  28  51  78 114 156 214 275 338 400 480
#     4  12  28  47  80 111 164 201 268 331 404 481
#
# _framework density 25.436305000000001
#
# number of rings (size 3 to 8) (size 9 to 14) (size 15 to 20)
#    0.000    0.000    3.333    5.500    7.000    0.667 
#    0.000    0.000    0.000    0.000    0.000    0.000 
#    0.000    0.000    0.000    0.000    0.000    0.000 
#
# Total GULP energy -66965.019179 kJ/mol
# GULP energy per Si atom -5580.418265 kJ/mol
# Density = 2.537841 g / cm^3
# Si number density = 25.436305 Si / 1000 Ang^3
#
#
#
# Elastic Constant Matrix: (Units=GPa)
#
#
# Indices 1 2 3 4 5 6 
#
# 1 124.0777 11.3962 36.4472 20.5426 -6.4099 14.1394
# 2 11.3962 130.9262 36.1475 0.2474 -26.6815 -0.7351
# 3 36.4472 36.1475 98.6119 -10.0973 -1.2485 -3.3510
# 4 20.5426 0.2474 -10.0973 40.9696 13.2338 -5.7703
# 5 -6.4099 -26.6815 -1.2485 13.2338 52.1189 -11.6036
# 6 14.1394 -0.7351 -3.3510 -5.7703 -11.6036 39.8244
#
#
#
# Elastic Compliance Matrix: (Units=1/GPa)
#
#
# Indices 1 2 3 4 5 6 
#
# 1 0.011972 0.001235 -0.005957 -0.009224 0.003158 -0.005145
# 2 0.001235 0.010038 -0.004413 -0.003699 0.006273 0.000667
# 3 -0.005957 -0.004413 0.014888 0.008457 -0.004040 0.003335
# 4 -0.009224 -0.003699 0.008457 0.035366 -0.010472 0.005991
# 5 0.003158 0.006273 -0.004040 -0.010472 0.026426 0.004837
# 6 -0.005145 0.000667 0.003335 0.005991 0.004837 0.029507
#
#
# Mechanical properties :
#
#
# Convention : Reuss Voigt Hill
#
# Bulk Modulus (GPa) = 53.68045 57.95530 55.81787
# Shear Modulus (GPa) = 32.74893 44.55757 38.65325
#
# Velocity S-wave (km/s) = 3.59205 4.18991 3.90245
# Velocity P-wave (km/s) = 6.19302 6.80008 6.50363
#
# Compressibility (1/GPa) = 0.01862876
#
# Stress axis : x y z
#
# Youngs Moduli (GPa) = 83.52484 99.62410 67.16770
#
# Poissons Ratio (x) = -0.12301 0.40012
# Poissons Ratio (y) = -0.10313 0.29638
# Poissons Ratio (z) = 0.49756 0.43959
#
# Static dielectric constant tensor:
#      x y z
#    x 1.693760 -0.343110 -0.128100 
#    y -0.343110 1.779530 -0.114410 
#    z -0.128100 -0.114410 2.056430 
# 
# From -- ./inp_files/479426.got.cif
#   From: 2010.05.17/outbox.cif.g08.bks.cpg/sg2_240_cif.got.tgz:479426.got - 2010.06.03 11:33:40.
