data_PCOD9071980
_publ_section_title
;
Structure prediction by ZEFSAII (Michael W. Deem and Ramdas Pophale) SiO2 
 PCOD9071980
Probable space group: P -1
;
_chemical_formula_sum "Si O2"
_cell_formula_units_Z 16
_cell_length_a 6.045736
_cell_length_b 28.869567
_cell_length_c 18.921365
_cell_angle_alpha 161.928416
_cell_angle_beta 80.596760
_cell_angle_gamma 90.625203
_cell_volume 891.086463
_symmetry_space_group_name_H-M "P -1"
_symmetry_group_IT_number 2
_symmetry_cell_setting 'triclinic'
loop_
_space_group_symop_operation_xyz
x,y,z
-x,-y,-z
loop_
_atom_site_type_symbol
_atom_site_label
_atom_site_fract_x
_atom_site_fract_y
_atom_site_fract_z
Si Si1 0.640971 0.024470 0.095716
Si Si2 0.457277 0.891835 0.434115
Si Si3 0.260484 0.775735 0.403772
Si Si4 0.880336 0.772302 0.518041
Si Si5 0.724868 0.525576 0.114472
Si Si6 0.566197 0.409355 0.090496
Si Si7 0.913612 0.857726 0.287183
Si Si8 0.115333 0.733379 0.603885
O O1 0.422437 0.104489 0.282213
O O2 0.742684 0.154800 0.256907
O O3 0.500000 0.000000 0.000000
O O4 0.889935 0.843429 0.829974
O O5 0.343615 0.881524 0.500513
O O6 0.745435 0.859435 0.365626
O O7 0.276899 0.071138 0.665964
O O8 0.464908 0.738965 0.163380
O O9 0.509547 0.651520 0.255047
O O10 0.032263 0.851426 0.582058
O O11 0.183478 0.661153 0.191099
O O12 0.917655 0.598908 0.227489
O O13 0.990145 0.727457 0.526464
O O14 0.601619 0.520020 0.187490
O O15 0.316980 0.543147 0.338141
O O16 0.829883 0.317631 0.986310
O O17 0.000000 0.000000 0.500000
#
# Coordination Sequence:
#
# PCOD9071980 Si02
#       8
#     2   2   2   2   2   2   2   2
#     4   9  19  31  48  66 100 135 165 204 241 290
#     4   9  20  34  47  68  96 130 164 211 237 285
#     4  10  20  31  45  70 102 131 170 197 237 295
#     4  11  18  31  47  68 102 137 164 197 241 290
#     4  10  20  29  43  74 101 136 161 198 236 292
#     4  10  18  30  50  70  97 131 162 203 243 290
#     4   9  19  34  49  65  91 126 169 205 249 283
#     4  10  19  32  45  73 100 130 170 201 245 291
#
# _framework density 17.955608999999999
#
# number of rings (size 3 to 8) (size 9 to 14) (size 15 to 20)
#    0.000    2.250    2.500    0.375    1.750    3.000 
#    0.000    0.000    0.000    0.000    0.000    0.875 
#    0.000   23.000    0.000    2.125    0.000    0.250 
#
# Total GULP energy -89107.098159 kJ/mol
# GULP energy per Si atom -5569.193635 kJ/mol
# Density = 1.791474 g / cm^3
# Si number density = 17.955609 Si / 1000 Ang^3
#
#
#
# Elastic Constant Matrix: (Units=GPa)
#
#
# Indices 1 2 3 4 5 6 
#
# 1 77.8444 17.0038 18.8814 3.5160 -7.5651 10.3837
# 2 17.0038 56.6078 18.0760 12.6714 -9.6494 15.7954
# 3 18.8814 18.0760 65.4383 4.8204 -29.5791 -6.2174
# 4 3.5160 12.6714 4.8204 14.4811 -2.5657 -3.0077
# 5 -7.5651 -9.6494 -29.5791 -2.5657 42.7330 -5.4666
# 6 10.3837 15.7954 -6.2174 -3.0077 -5.4666 32.0756
#
#
#
# Elastic Compliance Matrix: (Units=1/GPa)
#
#
# Indices 1 2 3 4 5 6 
#
# 1 0.015106 -0.000765 -0.005590 -0.002853 -0.002341 -0.006264
# 2 -0.000765 0.033866 -0.011215 -0.031249 -0.004991 -0.022384
# 3 -0.005590 -0.011215 0.030076 0.008309 0.020015 0.017352
# 4 -0.002853 -0.031249 0.008309 0.101727 0.007985 0.028822
# 5 -0.002341 -0.004991 0.020015 0.007985 0.038026 0.014324
# 6 -0.006264 -0.022384 0.017352 0.028822 0.014324 0.052735
#
#
# Mechanical properties :
#
#
# Convention : Reuss Voigt Hill
#
# Bulk Modulus (GPa) = 22.77474 34.20141 28.48808
# Shear Modulus (GPa) = 15.56118 27.58656 21.57387
#
# Velocity S-wave (km/s) = 2.94708 3.92392 3.47004
# Velocity P-wave (km/s) = 4.92867 6.29433 5.65289
#
# Compressibility (1/GPa) = 0.04390829
#
# Stress axis : x y z
#
# Youngs Moduli (GPa) = 66.19851 29.52777 33.24905
#
# Poissons Ratio (x) = 0.02259 0.18587
# Poissons Ratio (y) = 0.05065 0.37288
# Poissons Ratio (z) = 0.37006 0.33115
#
# Static dielectric constant tensor:
#      x y z
#    x 1.705440 0.018570 -0.040930 
#    y 0.018570 1.630840 -0.030530 
#    z -0.040930 -0.030530 1.676420 
# 
# From -- ./inp_files/93758.got.cif
#   From: 2010.05.17/outbox.cif.g08.bks.cpg/sg2_47_cif.got.tgz:93758.got - 2010.06.03 11:33:40.
