data_PCOD9071065
_publ_section_title
;
Structure prediction by ZEFSAII (Michael W. Deem and Ramdas Pophale) SiO2 
 PCOD9071065
Probable space group: P -1
;
_chemical_formula_sum "Si O2"
_cell_formula_units_Z 10
_cell_length_a 16.907320
_cell_length_b 4.758064
_cell_length_c 8.139992
_cell_angle_alpha 112.046979
_cell_angle_beta 38.960362
_cell_angle_gamma 95.311226
_cell_volume 358.626553
_symmetry_space_group_name_H-M "P -1"
_symmetry_group_IT_number 2
_symmetry_cell_setting 'triclinic'
loop_
_space_group_symop_operation_xyz
x,y,z
-x,-y,-z
loop_
_atom_site_type_symbol
_atom_site_label
_atom_site_fract_x
_atom_site_fract_y
_atom_site_fract_z
Si Si1 0.239946 0.618312 0.734601
Si Si2 0.373395 0.216072 0.861818
Si Si3 0.868619 0.943305 0.273440
Si Si4 0.472104 0.762023 0.866082
Si Si5 0.158876 0.869877 0.255864
O O1 0.244046 0.784367 0.589344
O O2 0.388809 0.387990 0.485711
O O3 0.147213 0.397685 0.820560
O O4 0.201305 0.884755 0.995450
O O5 0.433319 0.459839 0.914699
O O6 0.500000 0.000000 0.500000
O O7 0.355941 0.972312 0.975393
O O8 0.238600 0.479889 0.068336
O O9 0.851282 0.996300 0.507423
O O10 0.000000 0.000000 0.000000
O O11 0.500000 0.000000 0.000000
O O12 0.000000 0.000000 0.500000
#
# Coordination Sequence:
#
# PCOD9071065 Si02
#       5
#     2   2   2   2   2
#     4  12  27  49  78 112 152 198 257 318 382 453
#     4  12  26  48  76 113 152 195 260 314 380 468
#     4  12  27  49  73 114 155 198 259 313 378 469
#     4  12  25  49  79 109 154 199 254 322 388 455
#     4  12  28  50  80 111 156 207 255 315 393 449
#
# _framework density 27.884162
#
# number of rings (size 3 to 8) (size 9 to 14) (size 15 to 20)
#    0.000    0.000    4.000    5.400    0.000    2.400 
#    0.000    0.000    0.000    0.000    0.000    0.000 
#    0.000    0.000    0.000    0.000    0.000    0.000 
#
# Total GULP energy -55871.175316 kJ/mol
# GULP energy per Si atom -5587.117532 kJ/mol
# Density = 2.782070 g / cm^3
# Si number density = 27.884162 Si / 1000 Ang^3
#
#
#
# Elastic Constant Matrix: (Units=GPa)
#
#
# Indices 1 2 3 4 5 6 
#
# 1 172.8548 35.3815 34.0282 12.9511 44.7214 -7.4098
# 2 35.3815 166.9100 -0.9982 15.4443 35.3904 13.0016
# 3 34.0282 -0.9982 174.6437 1.8753 29.4911 0.5912
# 4 12.9511 15.4443 1.8753 43.4083 -9.2645 3.2650
# 5 44.7214 35.3904 29.4911 -9.2645 54.5379 20.9480
# 6 -7.4098 13.0016 0.5912 3.2650 20.9480 52.1551
#
#
#
# Elastic Compliance Matrix: (Units=1/GPa)
#
#
# Indices 1 2 3 4 5 6 
#
# 1 0.009299 0.000509 0.000157 -0.005855 -0.011391 0.006134
# 2 0.000509 0.007806 0.001259 -0.004692 -0.007506 0.001421
# 3 0.000157 0.001259 0.006685 -0.002159 -0.005720 0.002065
# 4 -0.005855 -0.004692 -0.002159 0.030951 0.017590 -0.008640
# 5 -0.011391 -0.007506 -0.005720 0.017590 0.046030 -0.019271
# 6 0.006134 0.001421 0.002065 -0.008640 -0.019271 0.027949
#
#
# Mechanical properties :
#
#
# Convention : Reuss Voigt Hill
#
# Bulk Modulus (GPa) = 36.18248 72.35904 54.27076
# Shear Modulus (GPa) = 37.29017 59.75337 48.52177
#
# Velocity S-wave (km/s) = 3.66091 4.63418 4.17600
# Velocity P-wave (km/s) = 5.55643 7.39192 6.53890
#
# Compressibility (1/GPa) = 0.02763769
#
# Stress axis : x y z
#
# Youngs Moduli (GPa) = 107.54050 128.10747 149.59495
#
# Poissons Ratio (x) = -0.06519 -0.02344
# Poissons Ratio (y) = -0.05473 -0.18827
# Poissons Ratio (z) = -0.01685 -0.16123
#
# Static dielectric constant tensor:
#      x y z
#    x 2.202220 0.114470 -0.267110 
#    y 0.114470 1.987610 0.292590 
#    z -0.267110 0.292590 1.498050 
# 
# From -- ./inp_files/49998.got.cif
#   From: 2010.05.17/outbox.cif.g08.bks.cpg/sg2_25_cif.got.tgz:49998.got - 2010.06.03 11:33:40.
