data_PCOD9071925
_publ_section_title
;
Structure prediction by ZEFSAII (Michael W. Deem and Ramdas Pophale) SiO2 
 PCOD9071925
Probable space group: P -1
;
_chemical_formula_sum "Si O2"
_cell_formula_units_Z 14
_cell_length_a 9.000000
_cell_length_b 15.000000
_cell_length_c 24.000000
_cell_angle_alpha 20.000000
_cell_angle_beta 40.000000
_cell_angle_gamma 40.000000
_cell_volume 696.397529
_symmetry_space_group_name_H-M "P -1"
_symmetry_group_IT_number 2
_symmetry_cell_setting 'triclinic'
loop_
_space_group_symop_operation_xyz
x,y,z
-x,-y,-z
loop_
_atom_site_type_symbol
_atom_site_label
_atom_site_fract_x
_atom_site_fract_y
_atom_site_fract_z
Si Si1 0.138138 0.578453 0.041276
Si Si2 0.435561 0.869645 0.853993
Si Si3 0.651846 0.592441 0.140292
Si Si4 0.761186 0.640111 0.556568
Si Si5 0.605947 0.016930 0.824574
Si Si6 0.694551 0.569784 0.486013
Si Si7 0.148916 0.811318 0.777184
O O1 0.339056 0.314342 0.132316
O O2 0.876314 0.531993 0.151927
O O3 0.212641 0.765770 0.956285
O O4 0.151801 0.718246 0.895046
O O5 0.446809 0.879054 0.911568
O O6 0.431276 0.167001 0.662492
O O7 0.418232 0.512526 0.274353
O O8 0.746132 0.421480 0.158348
O O9 0.607330 0.898964 0.954988
O O10 0.720342 0.627725 0.509624
O O11 0.035265 0.515867 0.562350
O O12 0.718450 0.946812 0.407146
O O13 0.560627 0.331744 0.655098
O O14 0.872057 0.921833 0.779661
#
# Coordination Sequence:
#
# PCOD9071925 Si02
#       7
#     2   2   2   2   2   2   2
#     4  10  20  34  64  84 112 147 187 229 283 330
#     4  11  19  37  61  83 113 151 185 227 278 344
#     4  11  20  37  60  89 110 141 192 243 269 323
#     4  10  22  37  60  82 113 149 193 229 274 329
#     4  10  20  35  63  84 111 146 191 227 279 333
#     4  10  22  39  57  81 112 158 187 221 277 344
#     4  10  17  38  59  87 109 146 190 231 276 334
#
# _framework density 20.103459999999998
#
# number of rings (size 3 to 8) (size 9 to 14) (size 15 to 20)
#    0.000    1.714    4.286    1.714    2.000    0.571 
#    0.000    1.429    6.286    0.000    0.000    0.000 
#    0.000    0.000    0.000    0.000    0.000    0.000 
#
# Total GULP energy -78069.260824 kJ/mol
# GULP energy per Si atom -5576.375773 kJ/mol
# Density = 2.005770 g / cm^3
# Si number density = 20.103460 Si / 1000 Ang^3
#
#
#
# Elastic Constant Matrix: (Units=GPa)
#
#
# Indices 1 2 3 4 5 6 
#
# 1 77.8269 10.3232 16.2554 -7.8253 -22.9399 3.4364
# 2 10.3232 -9.1073 25.5729 -5.8319 -6.3508 0.4138
# 3 16.2554 25.5729 91.1820 -12.0491 -17.5170 -11.6451
# 4 -7.8253 -5.8319 -12.0491 32.1602 -5.0205 -5.6755
# 5 -22.9399 -6.3508 -17.5170 -5.0205 29.8949 -2.5832
# 6 3.4364 0.4138 -11.6451 -5.6755 -2.5832 -5.9046
#
#
#
# Elastic Compliance Matrix: (Units=1/GPa)
#
#
# Indices 1 2 3 4 5 6 
#
# 1 0.017666 0.003567 -0.000556 0.006816 0.015004 -0.001487
# 2 0.003567 -0.061646 0.012353 -0.009277 -0.005981 -0.015074
# 3 -0.000556 0.012353 0.006693 0.002373 0.005037 -0.017144
# 4 0.006816 -0.009277 0.002373 0.027566 0.006622 -0.030757
# 5 0.015004 -0.005981 0.005037 0.006622 0.045352 -0.027826
# 6 -0.001487 -0.015074 -0.017144 -0.030757 -0.027826 -0.095733
#
#
# Mechanical properties :
#
#
# Convention : Reuss Voigt Hill
#
# Bulk Modulus (GPa) = -152.44605 29.35608 -61.54499
# Shear Modulus (GPa) = -53.75461 18.41343 -17.67059
#
# Velocity S-wave (km/s) = -5.17659 3.02972 -2.96798
# Velocity P-wave (km/s) = 10.56999 5.18393 6.51351
#
# Compressibility (1/GPa) = -0.00655970
#
# Stress axis : x y z
#
# Youngs Moduli (GPa) = 56.60718 -16.22178 149.40052
#
# Poissons Ratio (x) = 0.05786 0.08313
# Poissons Ratio (y) = -0.20189 -1.84558
# Poissons Ratio (z) = 0.03150 0.20039
#
# Static dielectric constant tensor:
#      x y z
#    x 1.765570 -0.007240 0.018680 
#    y -0.007240 1.682340 -0.032210 
#    z 0.018680 -0.032210 1.732520 
# 
# From -- ./inp_files/155248.got.cif
#   From: 2010.05.17/outbox.ucp.g08.bks.cvg/sg2_78_cif.got.tgz:155248.got - 2010.06.11 11:32:03.
