data_PCOD9071156
_publ_section_title
;
Structure prediction by ZEFSAII (Michael W. Deem and Ramdas Pophale) SiO2 
 PCOD9071156
Probable space group: P -1
;
_chemical_formula_sum "Si O2"
_cell_formula_units_Z 11
_cell_length_a 8.853852
_cell_length_b 9.232468
_cell_length_c 7.549467
_cell_angle_alpha 127.739118
_cell_angle_beta 62.856528
_cell_angle_gamma 108.399062
_cell_volume 433.690234
_symmetry_space_group_name_H-M "P -1"
_symmetry_group_IT_number 2
_symmetry_cell_setting 'triclinic'
loop_
_space_group_symop_operation_xyz
x,y,z
-x,-y,-z
loop_
_atom_site_type_symbol
_atom_site_label
_atom_site_fract_x
_atom_site_fract_y
_atom_site_fract_z
Si Si1 0.000000 0.000000 0.500000
Si Si2 0.489993 0.498958 0.794538
Si Si3 0.174193 0.071363 0.047838
Si Si4 0.796683 0.276445 0.029601
Si Si5 0.861861 0.572024 0.491471
Si Si6 0.662513 0.881169 0.363983
O O1 0.065120 0.815348 0.231818
O O2 0.814426 0.980959 0.467026
O O3 0.369995 0.658432 0.924853
O O4 0.672778 0.519727 0.622601
O O5 0.400289 0.304241 0.642487
O O6 0.500000 0.500000 0.000000
O O7 0.271453 0.168531 0.906579
O O8 0.259372 0.891005 0.933752
O O9 0.130068 0.204213 0.336296
O O10 0.000000 0.000000 0.000000
O O11 0.880117 0.452170 0.218163
O O12 0.000000 0.500000 0.500000
O O13 0.500000 0.000000 0.500000
#
# Coordination Sequence:
#
# PCOD9071156 Si02
#       6
#     1   2   2   2   2   2
#     4  12  28  52  80 126 160 226 272 348 412 494
#     4  12  28  53  79 125 163 217 274 349 411 495
#     4  12  25  52  80 118 158 221 265 340 416 491
#     4  12  29  50  81 118 162 212 285 330 418 492
#     4  12  26  51  84 118 168 213 272 341 415 495
#     4  12  27  52  84 118 171 215 276 343 416 492
#
# _framework density 25.363727000000001
#
# number of rings (size 3 to 8) (size 9 to 14) (size 15 to 20)
#    0.000    0.000    5.455    2.727    2.545    2.909 
#    0.000    0.000    0.000    0.000    0.000    0.000 
#    0.000    0.000    0.000    0.000    0.000    0.000 
#
# Total GULP energy -61480.744625 kJ/mol
# GULP energy per Si atom -5589.158602 kJ/mol
# Density = 2.530600 g / cm^3
# Si number density = 25.363727 Si / 1000 Ang^3
#
#
#
# Elastic Constant Matrix: (Units=GPa)
#
#
# Indices 1 2 3 4 5 6 
#
# 1 212.9028 52.4752 76.1479 16.5017 -21.2618 -17.8401
# 2 52.4752 102.8333 33.2444 29.6177 -9.9951 6.1735
# 3 76.1479 33.2444 218.5220 21.1411 2.5071 10.8863
# 4 16.5017 29.6177 21.1411 45.5277 2.3891 -7.0240
# 5 -21.2618 -9.9951 2.5071 2.3891 61.3073 8.4766
# 6 -17.8401 6.1735 10.8863 -7.0240 8.4766 52.3482
#
#
#
# Elastic Compliance Matrix: (Units=1/GPa)
#
#
# Indices 1 2 3 4 5 6 
#
# 1 0.006465 -0.002922 -0.002052 0.000878 0.001420 0.002862
# 2 -0.002922 0.014307 -0.000106 -0.008970 0.002258 -0.004230
# 3 -0.002052 -0.000106 0.005617 -0.002079 -0.000596 -0.002037
# 4 0.000878 -0.008970 -0.002079 0.029575 -0.003091 0.006258
# 5 0.001420 0.002258 -0.000596 -0.003091 0.017723 -0.002943
# 6 0.002862 -0.004230 -0.002037 0.006258 -0.002943 0.022317
#
#
# Mechanical properties :
#
#
# Convention : Reuss Voigt Hill
#
# Bulk Modulus (GPa) = 61.61939 95.33258 78.47598
# Shear Modulus (GPa) = 44.81369 56.66268 50.73818
#
# Velocity S-wave (km/s) = 4.20794 4.73165 4.47746
# Velocity P-wave (km/s) = 6.92503 8.21701 7.59853
#
# Compressibility (1/GPa) = 0.01622866
#
# Stress axis : x y z
#
# Youngs Moduli (GPa) = 154.68502 69.89701 178.03841
#
# Poissons Ratio (x) = 0.20426 0.36534
# Poissons Ratio (y) = 0.45203 0.01879
# Poissons Ratio (z) = 0.31741 0.00738
#
# Static dielectric constant tensor:
#      x y z
#    x 1.918760 0.026150 0.079540 
#    y 0.026150 2.285110 -0.005390 
#    z 0.079540 -0.005390 1.982390 
# 
# From -- ./inp_files/156301.got.cif
#   From: 2010.05.17/outbox.cif.g08.bks.cpg/sg2_79_cif.got.tgz:156301.got - 2010.06.03 11:33:40.
