data_PCOD9071884
_publ_section_title
;
Structure prediction by ZEFSAII (Michael W. Deem and Ramdas Pophale) SiO2 
 PCOD9071884
Probable space group: P -1
;
_chemical_formula_sum "Si O2"
_cell_formula_units_Z 16
_cell_length_a 22.616538
_cell_length_b 12.164244
_cell_length_c 8.540497
_cell_angle_alpha 146.672758
_cell_angle_beta 39.995994
_cell_angle_gamma 149.906133
_cell_volume 639.293193
_symmetry_space_group_name_H-M "P -1"
_symmetry_group_IT_number 2
_symmetry_cell_setting 'triclinic'
loop_
_space_group_symop_operation_xyz
x,y,z
-x,-y,-z
loop_
_atom_site_type_symbol
_atom_site_label
_atom_site_fract_x
_atom_site_fract_y
_atom_site_fract_z
Si Si1 0.363460 0.040158 0.775025
Si Si2 0.010437 0.280893 0.769273
Si Si3 0.225731 0.046390 0.293766
Si Si4 0.811448 0.742550 0.832226
Si Si5 0.619820 0.357626 0.540765
Si Si6 0.078290 0.910147 0.721793
Si Si7 0.172032 0.607123 0.418602
Si Si8 0.201773 0.590249 0.975777
O O1 0.377400 0.852254 0.621445
O O2 0.246107 0.846259 0.674412
O O3 0.482313 0.226014 0.652703
O O4 0.345655 0.188741 0.119448
O O5 0.874973 0.031190 0.720064
O O6 0.093587 0.262882 0.464519
O O7 0.072173 0.337209 0.878445
O O8 0.000000 0.500000 0.000000
O O9 0.177445 0.082314 0.591889
O O10 0.215497 0.805028 0.094922
O O11 0.695069 0.601788 0.795884
O O12 0.782711 0.549135 0.801467
O O13 0.859520 0.006940 0.136309
O O14 0.696000 0.421812 0.303957
O O15 0.974640 0.603912 0.527489
O O16 0.000000 0.000000 0.000000
O O17 0.203964 0.659842 0.232978
#
# Coordination Sequence:
#
# PCOD9071884 Si02
#       8
#     2   2   2   2   2   2   2   2
#     4   9  18  30  52  71  94 128 172 202 237 281
#     4   9  15  29  47  69  93 127 158 195 234 288
#     4  10  18  31  49  71  98 132 164 199 242 291
#     4   9  17  33  52  67  99 131 166 194 236 292
#     4   8  16  34  50  70  93 130 168 205 233 284
#     4  10  19  31  49  71 102 131 160 195 242 300
#     4  10  18  30  46  80 102 124 155 204 256 285
#     4   9  19  28  49  76 102 121 158 210 251 279
#
# _framework density 25.027639000000001
#
# number of rings (size 3 to 8) (size 9 to 14) (size 15 to 20)
#    0.000    2.750    2.500    2.250    1.750    1.000 
#    0.000    3.125    0.000    0.000    0.000    4.375 
#    0.000    0.000    0.000    0.000    0.000    0.000 
#
# Total GULP energy -89264.711972 kJ/mol
# GULP energy per Si atom -5579.044498 kJ/mol
# Density = 2.497068 g / cm^3
# Si number density = 25.027639 Si / 1000 Ang^3
#
#
#
# Elastic Constant Matrix: (Units=GPa)
#
#
# Indices 1 2 3 4 5 6 
#
# 1 84.3406 23.5425 32.1358 -10.8458 0.5144 -2.1664
# 2 23.5425 93.3699 55.7239 -18.3868 10.7130 3.6512
# 3 32.1358 55.7239 194.0108 -24.1733 16.9002 24.4881
# 4 -10.8458 -18.3868 -24.1733 40.7149 -7.0347 1.6024
# 5 0.5144 10.7130 16.9002 -7.0347 31.8619 5.7832
# 6 -2.1664 3.6512 24.4881 1.6024 5.7832 27.8367
#
#
#
# Elastic Compliance Matrix: (Units=1/GPa)
#
#
# Indices 1 2 3 4 5 6 
#
# 1 0.013444 -0.002241 -0.001826 0.001626 0.001399 0.002562
# 2 -0.002241 0.014078 -0.003170 0.003411 -0.002459 0.001082
# 3 -0.001826 -0.003170 0.007597 0.002632 -0.001208 -0.006310
# 4 0.001626 0.003411 0.002632 0.029141 0.004830 -0.005317
# 5 0.001399 -0.002459 -0.001208 0.004830 0.034996 -0.006055
# 6 0.002562 0.001082 -0.006310 -0.005317 -0.006055 0.043096
#
#
# Mechanical properties :
#
#
# Convention : Reuss Voigt Hill
#
# Bulk Modulus (GPa) = 48.43345 66.05842 57.24593
# Shear Modulus (GPa) = 30.54225 37.43732 33.98978
#
# Velocity S-wave (km/s) = 3.49713 3.87180 3.68923
# Velocity P-wave (km/s) = 5.97499 6.81464 6.40858
#
# Compressibility (1/GPa) = 0.02064689
#
# Stress axis : x y z
#
# Youngs Moduli (GPa) = 74.38124 71.03059 131.63356
#
# Poissons Ratio (x) = 0.15915 0.24036
# Poissons Ratio (y) = 0.16665 0.41725
# Poissons Ratio (z) = 0.13582 0.22515
#
# Static dielectric constant tensor:
#      x y z
#    x 2.009140 -0.082820 -0.015250 
#    y -0.082820 2.096410 0.080590 
#    z -0.015250 0.080590 2.076230 
# 
# From -- ./inp_files/357221.got.cif
#   From: 2010.05.17/outbox.cif.g08.bks.cpg/sg2_179_cif.got.tgz:357221.got - 2010.06.03 11:33:40.
