data_PCOD9071047
_publ_section_title
;
Structure prediction by ZEFSAII (Michael W. Deem and Ramdas Pophale) SiO2 
 PCOD9071047
Probable space group: P -1
;
_chemical_formula_sum "Si O2"
_cell_formula_units_Z 12
_cell_length_a 9.345763
_cell_length_b 11.434589
_cell_length_c 8.365539
_cell_angle_alpha 33.450960
_cell_angle_beta 68.350869
_cell_angle_gamma 66.634533
_cell_volume 451.094003
_symmetry_space_group_name_H-M "P -1"
_symmetry_group_IT_number 2
_symmetry_cell_setting 'triclinic'
loop_
_space_group_symop_operation_xyz
x,y,z
-x,-y,-z
loop_
_atom_site_type_symbol
_atom_site_label
_atom_site_fract_x
_atom_site_fract_y
_atom_site_fract_z
Si Si1 0.136445 0.987776 0.329430
Si Si2 0.178660 0.541481 0.867574
Si Si3 0.705778 0.544824 0.741220
Si Si4 0.938787 0.771577 0.231390
Si Si5 0.533526 0.064486 0.592563
Si Si6 0.483608 0.659681 0.177473
O O1 0.160736 0.746650 0.523697
O O2 0.288440 0.980546 0.380815
O O3 0.000000 0.000000 0.500000
O O4 0.111382 0.165956 0.001077
O O5 0.341755 0.391996 0.916821
O O6 0.218457 0.573922 0.999968
O O7 0.000000 0.500000 0.000000
O O8 0.800991 0.737532 0.446280
O O9 0.671340 0.378376 0.811412
O O10 0.532394 0.684113 0.662743
O O11 0.000000 0.500000 0.500000
O O12 0.000000 0.000000 0.000000
O O13 0.500000 0.000000 0.500000
O O14 0.459779 0.915481 0.918720
O O15 0.500000 0.500000 0.500000
#
# Coordination Sequence:
#
# PCOD9071047 Si02
#       6
#     2   2   2   2   2   2
#     4  12  27  48  80 117 158 212 271 334 411 491
#     4  12  25  49  76 111 156 209 265 331 407 486
#     4  12  27  51  78 113 159 209 269 334 403 490
#     4  12  31  55  83 123 166 215 273 341 413 488
#     4  12  26  47  78 116 153 207 268 333 409 481
#     4  12  27  46  78 111 158 203 267 334 406 483
#
# _framework density 26.601994000000001
#
# number of rings (size 3 to 8) (size 9 to 14) (size 15 to 20)
#    0.000    0.000    3.333    5.500    7.000    4.000 
#    0.000    0.000    0.000    0.000    0.000    0.000 
#    0.000    0.000    0.000    0.000    0.000    0.000 
#
# Total GULP energy -66878.527888 kJ/mol
# GULP energy per Si atom -5573.210657 kJ/mol
# Density = 2.654145 g / cm^3
# Si number density = 26.601994 Si / 1000 Ang^3
#
#
#
# Elastic Constant Matrix: (Units=GPa)
#
#
# Indices 1 2 3 4 5 6 
#
# 1 168.1919 20.3988 84.9999 0.0094 -6.8914 21.7031
# 2 20.3988 35.5061 18.5356 -10.8269 3.3007 4.2969
# 3 84.9999 18.5356 246.1935 -6.3708 17.2733 8.3535
# 4 0.0094 -10.8269 -6.3708 46.5926 4.8464 11.0363
# 5 -6.8914 3.3007 17.2733 4.8464 65.4939 1.6258
# 6 21.7031 4.2969 8.3535 11.0363 1.6258 25.2125
#
#
#
# Elastic Compliance Matrix: (Units=1/GPa)
#
#
# Indices 1 2 3 4 5 6 
#
# 1 0.008497 -0.002858 -0.002634 0.000244 0.001868 -0.006182
# 2 -0.002858 0.034383 -0.000939 0.009819 -0.002333 -0.007236
# 3 -0.002634 -0.000939 0.005150 0.000515 -0.001641 0.000601
# 4 0.000244 0.009819 0.000515 0.027338 -0.002284 -0.013874
# 5 0.001868 -0.002333 -0.001641 -0.002284 0.016202 -0.000712
# 6 -0.006182 -0.007236 0.000601 -0.013874 -0.000712 0.052137
#
#
# Mechanical properties :
#
#
# Convention : Reuss Voigt Hill
#
# Bulk Modulus (GPa) = 28.43378 77.52888 52.98133
# Shear Modulus (GPa) = 29.71031 49.19030 39.45030
#
# Velocity S-wave (km/s) = 3.34555 4.30481 3.85513
# Velocity P-wave (km/s) = 5.06314 7.34273 6.30679
#
# Compressibility (1/GPa) = 0.03516943
#
# Stress axis : x y z
#
# Youngs Moduli (GPa) = 117.68206 29.08438 194.18070
#
# Poissons Ratio (x) = 0.08313 0.51140
# Poissons Ratio (y) = 0.33635 0.18225
# Poissons Ratio (z) = 0.30993 0.02730
#
# Static dielectric constant tensor:
#      x y z
#    x 2.571070 -0.125100 -0.134100 
#    y -0.125100 2.338330 -0.069260 
#    z -0.134100 -0.069260 2.115010 
# 
# From -- ./inp_files/173664.got.cif
#   From: 2010.05.17/outbox.cif.g08.bks.cpg/sg2_87_cif.got.tgz:173664.got - 2010.06.03 11:33:40.
