data_PCOD9071796
_publ_section_title
;
Structure prediction by ZEFSAII (Michael W. Deem and Ramdas Pophale) SiO2 
 PCOD9071796
Probable space group: P -1
;
_chemical_formula_sum "Si O2"
_cell_formula_units_Z 16
_cell_length_a 8.799519
_cell_length_b 14.862797
_cell_length_c 16.282627
_cell_angle_alpha 29.100565
_cell_angle_beta 43.088400
_cell_angle_gamma 44.740755
_cell_volume 690.601103
_symmetry_space_group_name_H-M "P -1"
_symmetry_group_IT_number 2
_symmetry_cell_setting 'triclinic'
loop_
_space_group_symop_operation_xyz
x,y,z
-x,-y,-z
loop_
_atom_site_type_symbol
_atom_site_label
_atom_site_fract_x
_atom_site_fract_y
_atom_site_fract_z
Si Si1 0.666218 0.788910 0.944835
Si Si2 0.778267 0.590950 0.886365
Si Si3 0.383128 0.819047 0.176013
Si Si4 0.783845 0.281313 0.394666
Si Si5 0.364130 0.791061 0.804058
Si Si6 0.984569 0.910728 0.988515
Si Si7 0.561200 0.774496 0.308115
Si Si8 0.900592 0.068075 0.350964
O O1 0.713420 0.666046 0.943338
O O2 0.906368 0.830514 0.844519
O O3 0.513205 0.000139 0.820013
O O4 0.527078 0.708166 0.133677
O O5 0.628560 0.748729 0.758795
O O6 0.048568 0.572712 0.786457
O O7 0.689855 0.402755 0.055283
O O8 0.416093 0.726852 0.325195
O O9 0.500000 0.000000 0.000000
O O10 0.139042 0.918292 0.159055
O O11 0.533812 0.323040 0.500135
O O12 0.780976 0.196448 0.371794
O O13 0.940663 0.113623 0.522608
O O14 0.266928 0.941334 0.651193
O O15 0.219707 0.828791 0.915349
O O16 0.821192 0.759397 0.187736
O O17 0.000000 0.000000 0.000000
#
# Coordination Sequence:
#
# PCOD9071796 Si02
#       8
#     2   2   2   2   2   2   2   2
#     4   8  14  29  48  73  98 129 167 206 252 288
#     4  10  22  34  50  71 108 139 163 208 253 302
#     4   8  14  26  47  72  97 126 162 207 242 283
#     4   9  18  34  51  76 103 135 165 202 258 300
#     4  11  21  35  50  77 103 132 172 209 251 295
#     4  10  18  29  51  76  99 127 166 213 249 289
#     4   9  16  30  51  73 102 128 164 211 247 295
#     4   9  17  30  53  75 102 130 169 213 240 295
#
# _framework density 23.168220999999999
#
# number of rings (size 3 to 8) (size 9 to 14) (size 15 to 20)
#    0.000    3.000    0.000    5.250    0.000    2.500 
#    0.000    1.875    0.000    0.000    0.000    7.000 
#    0.000    0.000    0.000    0.000    0.000    0.000 
#
# Total GULP energy -89246.231812 kJ/mol
# GULP energy per Si atom -5577.889488 kJ/mol
# Density = 2.311549 g / cm^3
# Si number density = 23.168221 Si / 1000 Ang^3
#
#
#
# Elastic Constant Matrix: (Units=GPa)
#
#
# Indices 1 2 3 4 5 6 
#
# 1 81.5862 19.4349 -3.3446 7.4419 3.6366 0.3431
# 2 19.4349 49.6534 24.3627 11.6904 0.1611 3.8353
# 3 -3.3446 24.3627 81.5019 14.8589 1.1830 0.0383
# 4 7.4419 11.6904 14.8589 29.0256 -6.9040 1.0945
# 5 3.6366 0.1611 1.1830 -6.9040 25.6765 5.6861
# 6 0.3431 3.8353 0.0383 1.0945 5.6861 35.5687
#
#
#
# Elastic Compliance Matrix: (Units=1/GPa)
#
#
# Indices 1 2 3 4 5 6 
#
# 1 0.014400 -0.006454 0.003224 -0.003592 -0.003380 0.001204
# 2 -0.006454 0.027916 -0.007602 -0.005539 0.000221 -0.002805
# 3 0.003224 -0.007602 0.015957 -0.006775 -0.003300 0.001507
# 4 -0.003592 -0.005539 -0.006775 0.044374 0.013423 -0.002872
# 5 -0.003380 0.000221 -0.003300 0.013423 0.044862 -0.007572
# 6 0.001204 -0.002805 0.001507 -0.002872 -0.007572 0.029703
#
#
# Mechanical properties :
#
#
# Convention : Reuss Voigt Hill
#
# Bulk Modulus (GPa) = 27.31668 32.62749 29.97208
# Shear Modulus (GPa) = 23.68807 29.54007 26.61407
#
# Velocity S-wave (km/s) = 3.20103 3.57462 3.39297
# Velocity P-wave (km/s) = 5.04760 5.58128 5.32114
#
# Compressibility (1/GPa) = 0.03660767
#
# Stress axis : x y z
#
# Youngs Moduli (GPa) = 69.44495 35.82232 62.67002
#
# Poissons Ratio (x) = 0.23121 -0.20203
# Poissons Ratio (y) = 0.44822 0.47639
# Poissons Ratio (z) = -0.22387 0.27230
#
# Static dielectric constant tensor:
#      x y z
#    x 1.887750 -0.032590 0.039330 
#    y -0.032590 1.933780 -0.053420 
#    z 0.039330 -0.053420 2.001310 
# 
# From -- ./inp_files/502608.got.cif
#   From: 2010.05.17/outbox.cif.g08.bks.cpg/sg2_252_cif.got.tgz:502608.got - 2010.06.03 11:33:40.
