data_PCOD9071085
_publ_section_title
;
Structure prediction by ZEFSAII (Michael W. Deem and Ramdas Pophale) SiO2 
 PCOD9071085
Probable space group: P -1
;
_chemical_formula_sum "Si O2"
_cell_formula_units_Z 11
_cell_length_a 9.106288
_cell_length_b 15.271432
_cell_length_c 5.528461
_cell_angle_alpha 98.503518
_cell_angle_beta 110.888918
_cell_angle_gamma 36.332576
_cell_volume 411.855671
_symmetry_space_group_name_H-M "P -1"
_symmetry_group_IT_number 2
_symmetry_cell_setting 'triclinic'
loop_
_space_group_symop_operation_xyz
x,y,z
-x,-y,-z
loop_
_atom_site_type_symbol
_atom_site_label
_atom_site_fract_x
_atom_site_fract_y
_atom_site_fract_z
Si Si1 0.432398 0.770799 0.583640
Si Si2 0.767282 0.437553 0.067640
Si Si3 0.744878 0.848069 0.427657
Si Si4 0.000000 0.500000 0.000000
Si Si5 0.912816 0.222077 0.748180
Si Si6 0.684311 0.083669 0.933974
O O1 0.350503 0.706323 0.468729
O O2 0.336452 0.859883 0.313429
O O3 0.292785 0.869579 0.788524
O O4 0.751405 0.639584 0.737051
O O5 0.864683 0.344394 0.842556
O O6 0.500000 0.500000 0.000000
O O7 0.999198 0.309540 0.347438
O O8 0.779983 0.535316 0.049860
O O9 0.597632 0.841491 0.176075
O O10 0.857453 0.878534 0.357811
O O11 0.500000 0.000000 0.500000
O O12 0.059277 0.100455 0.996332
#
# Coordination Sequence:
#
# PCOD9071085 Si02
#       6
#     2   2   2   1   2   2
#     4  12  29  49  83 119 170 217 276 350 428 508
#     4  12  29  53  83 120 169 225 280 349 428 510
#     4  12  25  49  83 118 160 219 281 345 426 500
#     4  12  28  54  78 118 170 224 282 340 424 512
#     4  12  28  49  82 121 167 211 286 353 423 502
#     4  12  26  50  81 122 160 215 275 351 424 499
#
# _framework density 26.708386000000001
#
# number of rings (size 3 to 8) (size 9 to 14) (size 15 to 20)
#    0.000    0.000    3.636    4.909    5.091    5.091 
#    0.000    0.000    0.000    0.000    0.000    0.000 
#    0.000    0.000    0.000    0.000    0.000    0.000 
#
# Total GULP energy -61373.211939 kJ/mol
# GULP energy per Si atom -5579.382904 kJ/mol
# Density = 2.664760 g / cm^3
# Si number density = 26.708386 Si / 1000 Ang^3
#
#
#
# Elastic Constant Matrix: (Units=GPa)
#
#
# Indices 1 2 3 4 5 6 
#
# 1 147.2087 13.3699 45.1397 -20.5922 3.3851 -23.9626
# 2 13.3699 37.8927 34.2473 -10.6254 -7.2844 -5.8741
# 3 45.1397 34.2473 146.3841 -12.8495 -2.3972 1.2510
# 4 -20.5922 -10.6254 -12.8495 44.4646 -2.3043 6.8611
# 5 3.3851 -7.2844 -2.3972 -2.3043 55.0748 -8.5379
# 6 -23.9626 -5.8741 1.2510 6.8611 -8.5379 42.7355
#
#
#
# Elastic Compliance Matrix: (Units=1/GPa)
#
#
# Indices 1 2 3 4 5 6 
#
# 1 0.008674 0.000926 -0.002684 0.002755 0.000315 0.004690
# 2 0.000926 0.037532 -0.008470 0.006312 0.005742 0.006060
# 3 -0.002684 -0.008470 0.009647 -0.000047 -0.001026 -0.003149
# 4 0.002755 0.006312 -0.000047 0.025553 0.001518 -0.001385
# 5 0.000315 0.005742 -0.001026 0.001518 0.019641 0.004676
# 6 0.004690 0.006060 -0.003149 -0.001385 0.004676 0.028111
#
#
# Mechanical properties :
#
#
# Convention : Reuss Voigt Hill
#
# Bulk Modulus (GPa) = 28.25226 57.44439 42.84832
# Shear Modulus (GPa) = 30.97641 44.37021 37.67331
#
# Velocity S-wave (km/s) = 3.40928 4.08031 3.75979
# Velocity P-wave (km/s) = 5.10868 6.61462 5.90981
#
# Compressibility (1/GPa) = 0.03539540
#
# Stress axis : x y z
#
# Youngs Moduli (GPa) = 115.29130 26.64393 103.66222
#
# Poissons Ratio (x) = -0.02467 0.27827
# Poissons Ratio (y) = -0.10674 0.87801
# Poissons Ratio (z) = 0.30948 0.22567
#
# Static dielectric constant tensor:
#      x y z
#    x 2.351040 0.135990 -0.178220 
#    y 0.135990 2.266810 -0.063810 
#    z -0.178220 -0.063810 2.351100 
# 
# From -- ./inp_files/35559.got.cif
#   From: 2010.05.17/outbox.cif.g08.bks.cpg/sg2_18_cif.got.tgz:35559.got - 2010.06.03 11:33:40.
