data_PCOD9071060
_publ_section_title
;
Structure prediction by ZEFSAII (Michael W. Deem and Ramdas Pophale) SiO2 
 PCOD9071060
Probable space group: P -1
;
_chemical_formula_sum "Si O2"
_cell_formula_units_Z 13
_cell_length_a 9.180623
_cell_length_b 8.937896
_cell_length_c 9.037695
_cell_angle_alpha 72.526067
_cell_angle_beta 128.153552
_cell_angle_gamma 114.960492
_cell_volume 527.874164
_symmetry_space_group_name_H-M "P -1"
_symmetry_group_IT_number 2
_symmetry_cell_setting 'triclinic'
loop_
_space_group_symop_operation_xyz
x,y,z
-x,-y,-z
loop_
_atom_site_type_symbol
_atom_site_label
_atom_site_fract_x
_atom_site_fract_y
_atom_site_fract_z
Si Si1 0.185027 0.999942 0.015078
Si Si2 0.500000 0.500000 0.000000
Si Si3 0.603360 0.714023 0.758094
Si Si4 0.800445 0.030163 0.321245
Si Si5 0.157323 0.449084 0.208527
Si Si6 0.881782 0.397617 0.318225
Si Si7 0.555789 0.206915 0.654492
O O1 0.191067 0.966551 0.853894
O O2 0.332623 0.186184 0.078658
O O3 0.276309 0.874480 0.189270
O O4 0.000000 0.000000 0.000000
O O5 0.482270 0.538647 0.800432
O O6 0.279509 0.528152 0.875425
O O7 0.787998 0.697632 0.790877
O O8 0.502223 0.799429 0.552257
O O9 0.783480 0.199592 0.332051
O O10 0.620672 0.885367 0.320484
O O11 0.000000 0.000000 0.500000
O O12 0.351699 0.601254 0.306986
O O13 0.053805 0.401105 0.312182
O O14 0.000000 0.500000 0.000000
O O15 0.000000 0.500000 0.500000
#
# Coordination Sequence:
#
# PCOD9071060 Si02
#       7
#     2   1   2   2   2   2   2
#     4  12  27  47  80 114 162 209 264 331 402 490
#     4  12  28  46  82 116 160 204 288 322 420 478
#     4  12  27  47  77 114 157 212 265 331 402 488
#     4  12  29  53  82 118 165 212 274 337 421 489
#     4  12  25  49  77 114 160 205 264 332 407 479
#     4  12  28  52  82 117 162 214 274 345 411 502
#     4  12  27  50  78 115 163 214 269 336 408 484
#
# _framework density 24.627078999999998
#
# number of rings (size 3 to 8) (size 9 to 14) (size 15 to 20)
#    0.000    0.000    1.538    7.846    4.308    2.462 
#    0.000    0.000    0.000    0.000    0.000    0.000 
#    0.000    0.000    0.000    0.000    0.000    0.000 
#
# Total GULP energy -72535.894595 kJ/mol
# GULP energy per Si atom -5579.684200 kJ/mol
# Density = 2.457103 g / cm^3
# Si number density = 24.627079 Si / 1000 Ang^3
#
#
#
# Elastic Constant Matrix: (Units=GPa)
#
#
# Indices 1 2 3 4 5 6 
#
# 1 164.1704 30.4163 56.2248 -4.0911 -9.6404 11.1404
# 2 30.4163 87.7315 24.7355 20.2438 10.2892 -6.8117
# 3 56.2248 24.7355 167.6738 -19.9840 0.5468 -18.6396
# 4 -4.0911 20.2438 -19.9840 42.7193 -8.5448 -0.9596
# 5 -9.6404 10.2892 0.5468 -8.5448 48.5897 -0.0623
# 6 11.1404 -6.8117 -18.6396 -0.9596 -0.0623 48.9507
#
#
#
# Elastic Compliance Matrix: (Units=1/GPa)
#
#
# Indices 1 2 3 4 5 6 
#
# 1 0.007828 -0.002899 -0.002375 0.001432 0.002442 -0.003058
# 2 -0.002899 0.016271 -0.002431 -0.010244 -0.005792 0.001790
# 3 -0.002375 -0.002431 0.008081 0.004946 0.000827 0.003377
# 4 0.001432 -0.010244 0.004946 0.032349 0.008088 0.000776
# 5 0.002442 -0.005792 0.000827 0.008088 0.023703 -0.000858
# 6 -0.003058 0.001790 0.003377 0.000776 -0.000858 0.022674
#
#
# Mechanical properties :
#
#
# Convention : Reuss Voigt Hill
#
# Bulk Modulus (GPa) = 59.62684 71.36989 65.49836
# Shear Modulus (GPa) = 37.90576 48.59855 43.25215
#
# Velocity S-wave (km/s) = 3.92751 4.44709 4.19535
# Velocity P-wave (km/s) = 6.69564 7.44392 7.07967
#
# Compressibility (1/GPa) = 0.01677097
#
# Stress axis : x y z
#
# Youngs Moduli (GPa) = 127.74520 61.45919 123.74510
#
# Poissons Ratio (x) = 0.17816 0.29383
# Poissons Ratio (y) = 0.37030 0.30087
# Poissons Ratio (z) = 0.30333 0.14943
#
# Static dielectric constant tensor:
#      x y z
#    x 1.935040 -0.029390 -0.001170 
#    y -0.029390 2.084470 -0.023600 
#    z -0.001170 -0.023600 1.936830 
# 
# From -- ./inp_files/157801.got.cif
#   From: 2010.05.17/outbox.cif.g08.bks.cpg/sg2_79_cif.got.tgz:157801.got - 2010.06.03 11:33:40.
