data_PCOD9071952
_publ_section_title
;
Structure prediction by ZEFSAII (Michael W. Deem and Ramdas Pophale) SiO2 
 PCOD9071952
Probable space group: P -1
;
_chemical_formula_sum "Si O2"
_cell_formula_units_Z 12
_cell_length_a 14.037720
_cell_length_b 8.273733
_cell_length_c 8.972818
_cell_angle_alpha 83.614638
_cell_angle_beta 123.767522
_cell_angle_gamma 139.974998
_cell_volume 450.621352
_symmetry_space_group_name_H-M "P -1"
_symmetry_group_IT_number 2
_symmetry_cell_setting 'triclinic'
loop_
_space_group_symop_operation_xyz
x,y,z
-x,-y,-z
loop_
_atom_site_type_symbol
_atom_site_label
_atom_site_fract_x
_atom_site_fract_y
_atom_site_fract_z
Si Si1 0.501792 0.049210 0.670726
Si Si2 0.097958 0.802131 0.864827
Si Si3 0.983554 0.326476 0.853228
Si Si4 0.591021 0.397433 0.211061
Si Si5 0.915468 0.865646 0.179267
Si Si6 0.494162 0.413179 0.664978
O O1 0.756325 0.364465 0.913173
O O2 0.420453 0.135146 0.619895
O O3 0.500000 0.000000 0.500000
O O4 0.399842 0.773036 0.697381
O O5 0.965414 0.480058 0.743862
O O6 0.335580 0.098292 0.964651
O O7 0.133771 0.822599 0.073251
O O8 0.980349 0.831644 0.734236
O O9 0.940869 0.113201 0.744842
O O10 0.767574 0.633178 0.212511
O O11 0.256000 0.304070 0.085009
O O12 0.608156 0.575761 0.314467
O O13 0.500000 0.500000 0.500000
#
# Coordination Sequence:
#
# PCOD9071952 Si02
#       6
#     2   2   2   2   2   2
#     4  10  19  32  51  75 106 132 171 213 248 303
#     4   9  17  32  50  76 107 129 169 210 252 305
#     4   9  19  31  51  78 102 137 167 206 258 302
#     4  10  20  33  53  82 102 130 169 218 259 292
#     4  10  20  32  52  82 105 127 171 218 257 292
#     4  10  18  30  49  74 104 133 165 203 256 298
#
# _framework density 26.629895000000001
#
# number of rings (size 3 to 8) (size 9 to 14) (size 15 to 20)
#    0.000    2.333    1.667    2.500    0.000    7.333 
#    0.000    0.000    0.000    1.000    8.667   14.000 
#    0.000    0.000    0.000    0.000    0.000    0.000 
#
# Total GULP energy -67243.831073 kJ/mol
# GULP energy per Si atom -5603.652589 kJ/mol
# Density = 2.656928 g / cm^3
# Si number density = 26.629895 Si / 1000 Ang^3
#
#
#
# Elastic Constant Matrix: (Units=GPa)
#
#
# Indices 1 2 3 4 5 6 
#
# 1 203.6484 84.7750 31.8680 -20.0268 26.6506 -49.5815
# 2 84.7750 187.0027 43.0780 -11.4143 -6.1361 -52.3839
# 3 31.8680 43.0780 65.4920 -2.1200 14.3768 -21.2496
# 4 -20.0268 -11.4143 -2.1200 50.1617 -12.1596 2.3631
# 5 26.6506 -6.1361 14.3768 -12.1596 38.9680 -13.7429
# 6 -49.5815 -52.3839 -21.2496 2.3631 -13.7429 66.4234
#
#
#
# Elastic Compliance Matrix: (Units=1/GPa)
#
#
# Indices 1 2 3 4 5 6 
#
# 1 0.007280 -0.002684 -0.000045 0.001169 -0.004174 0.002398
# 2 -0.002684 0.009689 -0.004907 0.002591 0.007964 0.005624
# 3 -0.000045 -0.004907 0.020688 -0.002437 -0.008788 0.000983
# 4 0.001169 0.002591 -0.002437 0.022862 0.008746 0.003133
# 5 -0.004174 0.007964 -0.008788 0.008746 0.038572 0.008022
# 6 0.002398 0.005624 0.000983 0.003133 0.008022 0.023143
#
#
# Mechanical properties :
#
#
# Convention : Reuss Voigt Hill
#
# Bulk Modulus (GPa) = 44.67114 86.17611 65.42362
# Shear Modulus (GPa) = 34.49096 50.87209 42.68153
#
# Velocity S-wave (km/s) = 3.60279 4.37548 4.00780
# Velocity P-wave (km/s) = 5.84106 7.61297 6.78511
#
# Compressibility (1/GPa) = 0.02238582
#
# Stress axis : x y z
#
# Youngs Moduli (GPa) = 137.36964 103.20617 48.33765
#
# Poissons Ratio (x) = 0.27698 0.00217
# Poissons Ratio (y) = 0.36866 0.23719
# Poissons Ratio (z) = 0.00616 0.50643
#
# Static dielectric constant tensor:
#      x y z
#    x 2.118890 -0.042740 0.031860 
#    y -0.042740 2.037970 0.076230 
#    z 0.031860 0.076230 2.116690 
# 
# From -- ./inp_files/295281.got.cif
#   From: 2010.05.17/outbox.cif.g08.bks.cpg/sg2_148_cif.got.tgz:295281.got - 2010.06.03 11:33:40.
