data_PCOD9071797
_publ_section_title
;
Structure prediction by ZEFSAII (Michael W. Deem and Ramdas Pophale) SiO2 
 PCOD9071797
Probable space group: P -1
;
_chemical_formula_sum "Si O2"
_cell_formula_units_Z 12
_cell_length_a 12.209999
_cell_length_b 6.310642
_cell_length_c 8.156613
_cell_angle_alpha 114.873720
_cell_angle_beta 102.524630
_cell_angle_gamma 119.509496
_cell_volume 418.580928
_symmetry_space_group_name_H-M "P -1"
_symmetry_group_IT_number 2
_symmetry_cell_setting 'triclinic'
loop_
_space_group_symop_operation_xyz
x,y,z
-x,-y,-z
loop_
_atom_site_type_symbol
_atom_site_label
_atom_site_fract_x
_atom_site_fract_y
_atom_site_fract_z
Si Si1 0.616696 0.824560 0.462759
Si Si2 0.867990 0.996625 0.813614
Si Si3 0.437087 0.672094 0.930241
Si Si4 0.038994 0.317143 0.672116
Si Si5 0.683217 0.661854 0.917891
Si Si6 0.802167 0.376116 0.484230
O O1 0.731542 0.973987 0.697159
O O2 0.645394 0.610604 0.317562
O O3 0.437782 0.573537 0.339112
O O4 0.653957 0.083345 0.432817
O O5 0.837941 0.951452 0.984471
O O6 0.845301 0.690814 0.666899
O O7 0.010731 0.275967 0.846110
O O8 0.593989 0.739502 0.012963
O O9 0.330606 0.549751 0.014275
O O10 0.500000 0.000000 0.000000
O O11 0.914928 0.328419 0.567558
O O12 0.180454 0.580618 0.692738
O O13 0.000000 0.000000 0.500000
#
# Coordination Sequence:
#
# PCOD9071797 Si02
#       6
#     2   2   2   2   2   2
#     4   9  19  30  48  74  97 130 163 194 237 285
#     4  10  18  29  51  77 100 123 157 203 240 281
#     4   9  20  35  47  62  99 140 166 191 234 288
#     4   8  16  31  46  71 100 128 154 190 245 292
#     4   9  20  33  46  73 100 129 165 194 237 288
#     4   9  17  29  49  73 101 124 155 200 242 282
#
# _framework density 28.668291
#
# number of rings (size 3 to 8) (size 9 to 14) (size 15 to 20)
#    1.000    2.000    0.000    0.500    2.333    3.333 
#    0.000    0.000    0.000    1.000    0.000   40.833 
#    0.000    0.000    0.000    0.000    0.000    0.000 
#
# Total GULP energy -66969.996624 kJ/mol
# GULP energy per Si atom -5580.833052 kJ/mol
# Density = 2.860304 g / cm^3
# Si number density = 28.668291 Si / 1000 Ang^3
#
#
#
# Elastic Constant Matrix: (Units=GPa)
#
#
# Indices 1 2 3 4 5 6 
#
# 1 108.8309 54.3912 43.7082 -10.0171 -16.7029 8.1536
# 2 54.3912 203.1696 58.7726 -49.7378 -25.2228 31.0817
# 3 43.7082 58.7726 69.7686 -25.4494 -13.4456 3.3950
# 4 -10.0171 -49.7378 -25.4494 68.1409 8.5761 -21.9599
# 5 -16.7029 -25.2228 -13.4456 8.5761 45.4429 -8.1084
# 6 8.1536 31.0817 3.3950 -21.9599 -8.1084 69.3479
#
#
#
# Elastic Compliance Matrix: (Units=1/GPa)
#
#
# Indices 1 2 3 4 5 6 
#
# 1 0.013095 -0.001596 -0.007355 -0.002581 0.002053 -0.001042
# 2 -0.001596 0.007763 -0.003999 0.003116 0.001608 -0.001921
# 3 -0.007355 -0.003999 0.024747 0.006172 0.001880 0.003620
# 4 -0.002581 0.003116 0.006172 0.020557 -0.000367 0.005071
# 5 0.002053 0.001608 0.001880 -0.000367 0.024582 0.001704
# 6 -0.001042 -0.001921 0.003620 0.005071 0.001704 0.017031
#
#
# Mechanical properties :
#
#
# Convention : Reuss Voigt Hill
#
# Bulk Modulus (GPa) = 50.74694 77.27923 64.01309
# Shear Modulus (GPa) = 35.65235 51.57946 43.61590
#
# Velocity S-wave (km/s) = 3.53032 4.24628 3.90474
# Velocity P-wave (km/s) = 5.86152 7.14535 6.53504
#
# Compressibility (1/GPa) = 0.01970562
#
# Stress axis : x y z
#
# Youngs Moduli (GPa) = 76.36257 128.82424 40.40862
#
# Poissons Ratio (x) = 0.20558 0.29719
# Poissons Ratio (y) = 0.12186 0.16160
# Poissons Ratio (z) = 0.56162 0.51520
#
# Static dielectric constant tensor:
#      x y z
#    x 2.281520 -0.056040 0.080520 
#    y -0.056040 2.247900 -0.051190 
#    z 0.080520 -0.051190 2.344240 
# 
# From -- ./inp_files/45832.got.cif
#   From: 2010.05.17/outbox.cif.g08.bks.cpg/sg2_23_cif.got.tgz:45832.got - 2010.06.03 11:33:40.
