data_PCOD9071457
_publ_section_title
;
Structure prediction by ZEFSAII (Michael W. Deem and Ramdas Pophale) SiO2 
 PCOD9071457
Probable space group: P -1
;
_chemical_formula_sum "Si O2"
_cell_formula_units_Z 15
_cell_length_a 9.397895
_cell_length_b 8.042613
_cell_length_c 9.098585
_cell_angle_alpha 75.034484
_cell_angle_beta 92.322451
_cell_angle_gamma 120.045233
_cell_volume 571.856511
_symmetry_space_group_name_H-M "P -1"
_symmetry_group_IT_number 2
_symmetry_cell_setting 'triclinic'
loop_
_space_group_symop_operation_xyz
x,y,z
-x,-y,-z
loop_
_atom_site_type_symbol
_atom_site_label
_atom_site_fract_x
_atom_site_fract_y
_atom_site_fract_z
Si Si1 0.480345 0.340568 0.292367
Si Si2 0.897926 0.795792 0.951014
Si Si3 0.088907 0.705555 0.170652
Si Si4 0.545278 0.962539 0.848728
Si Si5 0.500000 0.500000 0.000000
Si Si6 0.202936 0.324062 0.637954
Si Si7 0.051442 0.292255 0.325593
Si Si8 0.688088 0.962934 0.386729
O O1 0.640732 0.461405 0.369637
O O2 0.369126 0.153678 0.433405
O O3 0.502955 0.266565 0.143264
O O4 0.441088 0.496585 0.177811
O O5 0.707879 0.655642 0.020160
O O6 0.908639 0.823811 0.770671
O O7 0.017417 0.705260 0.007478
O O8 0.000000 0.000000 0.000000
O O9 0.258533 0.901850 0.175563
O O10 0.109174 0.517139 0.235178
O O11 0.945083 0.693489 0.268875
O O12 0.451134 0.011984 0.707866
O O13 0.500000 0.000000 0.000000
O O14 0.143042 0.299005 0.475164
O O15 0.262842 0.164627 0.688898
O O16 0.854059 0.173379 0.368761
#
# Coordination Sequence:
#
# PCOD9071457 Si02
#       8
#     2   2   2   2   1   2   2   2
#     4  12  27  50  80 119 163 212 275 347 413 507
#     4  12  27  52  81 122 165 221 279 348 412 505
#     4  12  26  50  79 115 166 213 271 340 423 495
#     4  12  29  50  82 119 165 214 278 342 420 505
#     4  12  28  48  88 112 168 208 284 330 432 468
#     4  12  26  50  78 115 158 212 271 339 416 492
#     4  12  27  48  82 114 166 212 273 342 421 498
#     4  12  27  50  80 121 161 215 277 340 417 500
#
# _framework density 26.230354999999999
#
# number of rings (size 3 to 8) (size 9 to 14) (size 15 to 20)
#    0.000    0.000    1.333    7.600    3.733    0.000 
#    0.000    0.000    0.000    0.000    0.000    0.000 
#    0.000    0.000    0.000    0.000    0.000    0.000 
#
# Total GULP energy -83866.271213 kJ/mol
# GULP energy per Si atom -5591.084748 kJ/mol
# Density = 2.617065 g / cm^3
# Si number density = 26.230355 Si / 1000 Ang^3
#
#
#
# Elastic Constant Matrix: (Units=GPa)
#
#
# Indices 1 2 3 4 5 6 
#
# 1 137.0351 56.8572 24.1590 6.0363 24.7180 22.3820
# 2 56.8572 167.4661 32.6192 16.5428 -6.8619 33.5403
# 3 24.1590 32.6192 136.8546 14.0918 13.7088 23.9620
# 4 6.0363 16.5428 14.0918 44.7831 3.8229 -1.2125
# 5 24.7180 -6.8619 13.7088 3.8229 48.5087 8.4739
# 6 22.3820 33.5403 23.9620 -1.2125 8.4739 56.8327
#
#
#
# Elastic Compliance Matrix: (Units=1/GPa)
#
#
# Indices 1 2 3 4 5 6 
#
# 1 0.009824 -0.003340 -0.000282 0.000421 -0.005260 -0.000986
# 2 -0.003340 0.008531 -0.000849 -0.002892 0.004081 -0.004031
# 3 -0.000282 -0.000849 0.008440 -0.002233 -0.001707 -0.002739
# 4 0.000421 -0.002892 -0.002233 0.024349 -0.002501 0.003374
# 5 -0.005260 0.004081 -0.001707 -0.002501 0.025149 -0.003420
# 6 -0.000986 -0.004031 -0.002739 0.003374 -0.003420 0.022100
#
#
# Mechanical properties :
#
#
# Convention : Reuss Voigt Hill
#
# Bulk Modulus (GPa) = 56.01401 74.29185 65.15293
# Shear Modulus (GPa) = 44.13622 51.87294 48.00458
#
# Velocity S-wave (km/s) = 4.10645 4.45184 4.28263
# Velocity P-wave (km/s) = 6.62457 7.40334 7.02476
#
# Compressibility (1/GPa) = 0.01785268
#
# Stress axis : x y z
#
# Youngs Moduli (GPa) = 101.78963 117.21933 118.48807
#
# Poissons Ratio (x) = 0.39154 0.03341
# Poissons Ratio (y) = 0.34000 0.10058
# Poissons Ratio (z) = 0.02871 0.09951
#
# Static dielectric constant tensor:
#      x y z
#    x 2.273830 -0.222640 0.126820 
#    y -0.222640 2.287490 -0.249140 
#    z 0.126820 -0.249140 2.445830 
# 
# From -- ./inp_files/158131.got.cif
#   From: 2010.05.17/outbox.cif.g08.bks.cpg/sg2_80_cif.got.tgz:158131.got - 2010.06.03 11:33:40.
