data_PCOD9071182
_publ_section_title
;
Structure prediction by ZEFSAII (Michael W. Deem and Ramdas Pophale) SiO2 
 PCOD9071182
Probable space group: P -1
;
_chemical_formula_sum "Si O2"
_cell_formula_units_Z 11
_cell_length_a 13.441959
_cell_length_b 9.641506
_cell_length_c 9.439712
_cell_angle_alpha 69.956366
_cell_angle_beta 37.846072
_cell_angle_gamma 47.029606
_cell_volume 494.400425
_symmetry_space_group_name_H-M "P -1"
_symmetry_group_IT_number 2
_symmetry_cell_setting 'triclinic'
loop_
_space_group_symop_operation_xyz
x,y,z
-x,-y,-z
loop_
_atom_site_type_symbol
_atom_site_label
_atom_site_fract_x
_atom_site_fract_y
_atom_site_fract_z
Si Si1 0.180909 0.335680 0.476479
Si Si2 0.443732 0.730681 0.299863
Si Si3 0.085108 0.577233 0.973104
Si Si4 0.488678 0.409549 0.184825
Si Si5 0.977803 0.968863 0.873555
Si Si6 0.500000 0.000000 0.000000
O O1 0.293527 0.411381 0.388540
O O2 0.371844 0.111128 0.261735
O O3 0.000000 0.500000 0.500000
O O4 0.042845 0.346811 0.756312
O O5 0.459687 0.552775 0.286668
O O6 0.181870 0.916640 0.579314
O O7 0.498506 0.821048 0.091799
O O8 0.641597 0.612799 0.237734
O O9 0.000000 0.500000 0.000000
O O10 0.020254 0.767333 0.897747
O O11 0.500000 0.500000 0.000000
O O12 0.730662 0.171124 0.020217
O O13 0.000000 0.000000 0.000000
#
# Coordination Sequence:
#
# PCOD9071182 Si02
#       6
#     2   2   2   2   2   1
#     4  12  27  51  77 111 157 196 259 318 380 457
#     4  12  27  49  74 111 152 198 258 314 378 455
#     4  12  27  48  78 113 156 203 253 319 382 457
#     4  12  27  49  75 112 148 200 251 312 381 457
#     4  12  28  48  76 107 152 201 249 311 386 451
#     4  12  26  44  80 108 146 200 250 314 384 432
#
# _framework density 22.249172000000002
#
# number of rings (size 3 to 8) (size 9 to 14) (size 15 to 20)
#    0.000    0.000    5.455    2.727    7.636    2.909 
#    0.000    0.000    0.000    0.000    0.000    0.000 
#    0.000    0.000    0.000    0.000    0.000    0.000 
#
# Total GULP energy -61350.019854 kJ/mol
# GULP energy per Si atom -5577.274532 kJ/mol
# Density = 2.219853 g / cm^3
# Si number density = 22.249172 Si / 1000 Ang^3
#
#
#
# Elastic Constant Matrix: (Units=GPa)
#
#
# Indices 1 2 3 4 5 6 
#
# 1 117.9232 33.9238 19.8272 8.2706 -30.1537 4.8538
# 2 33.9238 119.0639 39.0424 -24.9177 -24.4238 -1.7926
# 3 19.8272 39.0424 92.3366 -11.5291 -9.7662 -11.3414
# 4 8.2706 -24.9177 -11.5291 34.6450 2.2030 0.8208
# 5 -30.1537 -24.4238 -9.7662 2.2030 42.0054 -0.5411
# 6 4.8538 -1.7926 -11.3414 0.8208 -0.5411 51.3871
#
#
#
# Elastic Compliance Matrix: (Units=1/GPa)
#
#
# Indices 1 2 3 4 5 6 
#
# 1 0.011674 -0.002618 -0.001550 -0.005583 0.006773 -0.001375
# 2 -0.002618 0.012946 -0.003398 0.008528 0.004409 -0.000141
# 3 -0.001550 -0.003398 0.013230 0.002266 -0.000093 0.002911
# 4 -0.005583 0.008528 0.002266 0.037097 -0.000459 0.000728
# 5 0.006773 0.004409 -0.000093 -0.000459 0.031232 -0.000170
# 6 -0.001375 -0.000141 0.002911 0.000728 -0.000170 0.020214
#
#
# Mechanical properties :
#
#
# Convention : Reuss Voigt Hill
#
# Bulk Modulus (GPa) = 44.01589 57.21229 50.61409
# Shear Modulus (GPa) = 33.53529 41.37616 37.45573
#
# Velocity S-wave (km/s) = 3.88656 4.31707 4.10746
# Velocity P-wave (km/s) = 6.32191 7.11475 6.73001
#
# Compressibility (1/GPa) = 0.02271907
#
# Stress axis : x y z
#
# Youngs Moduli (GPa) = 85.66208 77.24322 75.58630
#
# Poissons Ratio (x) = 0.20221 0.11712
# Poissons Ratio (y) = 0.22425 0.25684
# Poissons Ratio (z) = 0.13273 0.26247
#
# Static dielectric constant tensor:
#      x y z
#    x 1.780950 -0.003850 0.042680 
#    y -0.003850 1.724280 0.050710 
#    z 0.042680 0.050710 1.805560 
# 
# From -- ./inp_files/17768.got.cif
#   From: 2010.05.17/outbox.cif.g08.bks.cpg/sg2_9_cif.got.tgz:17768.got - 2010.06.03 11:33:40.
