data_PCOD9071714
_publ_section_title
;
Structure prediction by ZEFSAII (Michael W. Deem and Ramdas Pophale) SiO2 
 PCOD9071714
Probable space group: P -1
;
_chemical_formula_sum "Si O2"
_cell_formula_units_Z 12
_cell_length_a 12.654148
_cell_length_b 10.747010
_cell_length_c 7.382092
_cell_angle_alpha 139.014144
_cell_angle_beta 128.084630
_cell_angle_gamma 48.650745
_cell_volume 479.857034
_symmetry_space_group_name_H-M "P -1"
_symmetry_group_IT_number 2
_symmetry_cell_setting 'triclinic'
loop_
_space_group_symop_operation_xyz
x,y,z
-x,-y,-z
loop_
_atom_site_type_symbol
_atom_site_label
_atom_site_fract_x
_atom_site_fract_y
_atom_site_fract_z
Si Si1 0.065954 0.554559 0.909102
Si Si2 0.425406 0.666150 0.853741
Si Si3 0.387338 0.101668 0.289516
Si Si4 0.192848 0.528793 0.648928
Si Si5 0.833607 0.835308 0.207246
Si Si6 0.370271 0.761062 0.471955
O O1 0.126118 0.625375 0.874826
O O2 0.180533 0.352193 0.900515
O O3 0.940779 0.477740 0.619982
O O4 0.992736 0.732397 0.173119
O O5 0.289585 0.628974 0.756332
O O6 0.397512 0.700941 0.646949
O O7 0.569145 0.460993 0.805927
O O8 0.430709 0.875741 0.166625
O O9 0.294624 0.290720 0.523964
O O10 0.519555 0.138733 0.375770
O O11 0.275601 0.120033 0.027312
O O12 0.784569 0.050248 0.495984
#
# Coordination Sequence:
#
# PCOD9071714 Si02
#       6
#     2   2   2   2   2   2
#     4   9  18  32  49  70  99 131 161 196 235 283
#     4   9  16  29  52  75  94 123 162 199 236 286
#     4   9  17  32  54  74  95 125 159 199 242 282
#     4   9  18  33  51  71  97 129 160 194 242 286
#     4   9  16  30  52  72  93 129 164 193 238 283
#     4   9  17  30  52  76  96 123 160 200 240 282
#
# _framework density 25.007448
#
# number of rings (size 3 to 8) (size 9 to 14) (size 15 to 20)
#    0.000    3.000    0.000    2.000    0.000    1.333 
#    0.000   20.000    0.000   25.000    0.000    0.000 
#    0.000    0.000    0.000    0.000    0.000    0.000 
#
# Total GULP energy -67096.932197 kJ/mol
# GULP energy per Si atom -5591.411016 kJ/mol
# Density = 2.495053 g / cm^3
# Si number density = 25.007448 Si / 1000 Ang^3
#
#
#
# Elastic Constant Matrix: (Units=GPa)
#
#
# Indices 1 2 3 4 5 6 
#
# 1 125.8460 21.2438 49.0458 17.0438 -11.6442 14.9418
# 2 21.2438 89.5735 25.2653 27.2382 -2.7779 -25.6126
# 3 49.0458 25.2653 99.6262 46.2200 -6.2328 -6.6917
# 4 17.0438 27.2382 46.2200 52.4299 -5.7985 -7.5229
# 5 -11.6442 -2.7779 -6.2328 -5.7985 41.5162 2.9842
# 6 14.9418 -25.6126 -6.6917 -7.5229 2.9842 21.4284
#
#
#
# Elastic Compliance Matrix: (Units=1/GPa)
#
#
# Indices 1 2 3 4 5 6 
#
# 1 0.015526 -0.009221 -0.008708 0.004556 0.004765 -0.023631
# 2 -0.009221 0.024674 0.004761 -0.009495 -0.004036 0.034637
# 3 -0.008708 0.004761 0.021885 -0.017338 -0.002181 0.012813
# 4 0.004556 -0.009495 -0.017338 0.037161 0.003763 -0.007418
# 5 0.004765 -0.004036 -0.002181 0.003763 0.026153 -0.011149
# 6 -0.023631 0.034637 0.012813 -0.007418 -0.011149 0.107495
#
#
# Mechanical properties :
#
#
# Convention : Reuss Voigt Hill
#
# Bulk Modulus (GPa) = 27.97222 56.23948 42.10585
# Shear Modulus (GPa) = 18.44024 37.70763 28.07394
#
# Velocity S-wave (km/s) = 2.71844 3.88732 3.35419
# Velocity P-wave (km/s) = 4.58945 6.53348 5.64577
#
# Compressibility (1/GPa) = 0.03574976
#
# Stress axis : x y z
#
# Youngs Moduli (GPa) = 64.40798 40.52825 45.69343
#
# Poissons Ratio (x) = 0.37370 0.39789
# Poissons Ratio (y) = 0.59389 -0.21754
# Poissons Ratio (z) = 0.56085 -0.19295
#
# Static dielectric constant tensor:
#      x y z
#    x 1.965740 -0.035450 -0.018680 
#    y -0.035450 1.962440 -0.006210 
#    z -0.018680 -0.006210 2.055710 
# 
# From -- ./inp_files/168170.got.cif
#   From: 2010.05.17/outbox.cif.g08.bks.cpg/sg2_85_cif.got.tgz:168170.got - 2010.06.03 11:33:40.
