data_PCOD9071638
_publ_section_title
;
Structure prediction by ZEFSAII (Michael W. Deem and Ramdas Pophale) SiO2 
 PCOD9071638
Probable space group: P -1
;
_chemical_formula_sum "Si O2"
_cell_formula_units_Z 10
_cell_length_a 9.356809
_cell_length_b 11.822278
_cell_length_c 9.248555
_cell_angle_alpha 142.552899
_cell_angle_beta 42.115807
_cell_angle_gamma 144.315966
_cell_volume 349.036839
_symmetry_space_group_name_H-M "P -1"
_symmetry_group_IT_number 2
_symmetry_cell_setting 'triclinic'
loop_
_space_group_symop_operation_xyz
x,y,z
-x,-y,-z
loop_
_atom_site_type_symbol
_atom_site_label
_atom_site_fract_x
_atom_site_fract_y
_atom_site_fract_z
Si Si1 0.534491 0.834707 0.901549
Si Si2 0.898637 0.586660 0.542187
Si Si3 0.880471 0.667477 0.339236
Si Si4 0.662557 0.810361 0.080220
Si Si5 0.665860 0.687951 0.253158
O O1 0.722182 0.761669 0.629826
O O2 0.272086 0.593191 0.852428
O O3 0.613759 0.922546 0.096155
O O4 0.500000 0.000000 0.000000
O O5 0.029756 0.670433 0.373339
O O6 0.597774 0.392227 0.545479
O O7 0.000000 0.500000 0.500000
O O8 0.886421 0.779276 0.826838
O O9 0.902679 0.770436 0.266688
O O10 0.694025 0.848331 0.266134
O O11 0.414969 0.550055 0.994690
#
# Coordination Sequence:
#
# PCOD9071638 Si02
#       5
#     2   2   2   2   2
#     4   9  14  25  45  64  80 107 145 172 200 244
#     4   9  14  23  42  64  83 110 139 167 207 247
#     4   9  15  28  42  62  84 109 141 172 202 244
#     4   7  14  24  40  60  83 108 135 172 210 234
#     4   8  12  26  43  55  86 110 132 176 206 235
#
# _framework density 28.650271
#
# number of rings (size 3 to 8) (size 9 to 14) (size 15 to 20)
#    1.200    2.400    4.000    0.000    0.000    0.000 
#    0.000    2.000    0.000    4.800    0.000    5.600 
#    0.000    0.000    0.000    0.000    0.000    0.000 
#
# Total GULP energy -55716.653835 kJ/mol
# GULP energy per Si atom -5571.665384 kJ/mol
# Density = 2.858506 g / cm^3
# Si number density = 28.650271 Si / 1000 Ang^3
#
#
#
# Elastic Constant Matrix: (Units=GPa)
#
#
# Indices 1 2 3 4 5 6 
#
# 1 230.7784 90.4170 55.8482 -6.6118 14.8229 -94.5761
# 2 90.4170 121.0308 43.2937 12.9989 12.4147 -48.3771
# 3 55.8482 43.2937 83.4137 3.4550 2.6340 -22.7539
# 4 -6.6118 12.9989 3.4550 47.0993 -11.4378 9.4129
# 5 14.8229 12.4147 2.6340 -11.4378 52.2187 -17.1511
# 6 -94.5761 -48.3771 -22.7539 9.4129 -17.1511 79.3542
#
#
#
# Elastic Compliance Matrix: (Units=1/GPa)
#
#
# Indices 1 2 3 4 5 6 
#
# 1 0.009948 -0.002908 -0.002630 0.000806 0.001302 0.009515
# 2 -0.002908 0.014443 -0.004065 -0.005495 -0.002176 0.004355
# 3 -0.002630 -0.004065 0.015565 -0.000044 0.000584 -0.001018
# 4 0.000806 -0.005495 -0.000044 0.024965 0.005152 -0.004249
# 5 0.001302 -0.002176 0.000584 0.005152 0.021878 0.004510
# 6 0.009515 0.004355 -0.001018 -0.004249 0.004510 0.027783
#
#
# Mechanical properties :
#
#
# Convention : Reuss Voigt Hill
#
# Bulk Modulus (GPa) = 48.19366 90.48230 69.33798
# Shear Modulus (GPa) = 35.53544 52.11205 43.82375
#
# Velocity S-wave (km/s) = 3.52564 4.26949 3.91527
# Velocity P-wave (km/s) = 5.78199 7.48030 6.68529
#
# Compressibility (1/GPa) = 0.02074962
#
# Stress axis : x y z
#
# Youngs Moduli (GPa) = 100.52698 69.23798 64.24742
#
# Poissons Ratio (x) = 0.20132 0.16898
# Poissons Ratio (y) = 0.29230 0.26117
# Poissons Ratio (z) = 0.26440 0.28146
#
# Static dielectric constant tensor:
#      x y z
#    x 2.316790 0.117690 0.004340 
#    y 0.117690 2.381690 -0.062540 
#    z 0.004340 -0.062540 2.236510 
# 
# From -- ./inp_files/191026.got.cif
#   From: 2010.05.17/outbox.cif.g08.bks.cpg/sg2_96_cif.got.tgz:191026.got - 2010.06.03 11:33:40.
