data_PCOD9071947
_publ_section_title
;
Structure prediction by ZEFSAII (Michael W. Deem and Ramdas Pophale) SiO2 
 PCOD9071947
Probable space group: P -1
;
_chemical_formula_sum "Si O2"
_cell_formula_units_Z 16
_cell_length_a 12.768153
_cell_length_b 10.179180
_cell_length_c 21.339501
_cell_angle_alpha 41.163788
_cell_angle_beta 148.552290
_cell_angle_gamma 144.262710
_cell_volume 828.395180
_symmetry_space_group_name_H-M "P -1"
_symmetry_group_IT_number 2
_symmetry_cell_setting 'triclinic'
loop_
_space_group_symop_operation_xyz
x,y,z
-x,-y,-z
loop_
_atom_site_type_symbol
_atom_site_label
_atom_site_fract_x
_atom_site_fract_y
_atom_site_fract_z
Si Si1 0.398914 0.878353 0.901919
Si Si2 0.667708 0.954975 0.396146
Si Si3 0.495956 0.252848 0.135306
Si Si4 0.919225 0.140895 0.085939
Si Si5 0.882726 0.746034 0.130377
Si Si6 0.960888 0.518559 0.874022
Si Si7 0.901944 0.009611 0.364999
Si Si8 0.787666 0.441504 0.679918
O O1 0.442770 0.811546 0.878555
O O2 0.215265 0.653367 0.924969
O O3 0.266401 0.020819 0.767612
O O4 0.647920 0.008557 0.013460
O O5 0.909291 0.072264 0.514987
O O6 0.477356 0.720931 0.415392
O O7 0.548858 0.109405 0.264757
O O8 0.751320 0.915570 0.384684
O O9 0.670811 0.522761 0.135106
O O10 0.237715 0.206595 0.008491
O O11 0.062295 0.296086 0.161385
O O12 0.975621 0.958430 0.148846
O O13 0.936124 0.315987 0.977714
O O14 0.067055 0.672925 0.231079
O O15 0.788785 0.427284 0.761121
O O16 0.065620 0.288000 0.356979
#
# Coordination Sequence:
#
# PCOD9071947 Si02
#       8
#     2   2   2   2   2   2   2   2
#     4   9  16  33  49  68  96 127 158 201 237 280
#     4  10  18  30  49  74 100 127 159 204 245 274
#     4   9  17  31  47  69 103 129 155 194 246 289
#     4  10  21  31  47  71 103 129 159 191 240 294
#     4  10  18  32  47  71 104 128 154 196 245 292
#     4  10  19  32  46  70 100 129 162 194 230 296
#     4   9  18  31  47  74 102 121 161 208 242 275
#     4  11  19  32  51  75 101 125 162 197 245 286
#
# _framework density 19.314453
#
# number of rings (size 3 to 8) (size 9 to 14) (size 15 to 20)
#    0.000    2.250    3.750    3.000    0.000    2.000 
#    0.000    0.000    0.000    0.000    0.000   11.375 
#    0.000    0.125    0.000    0.000    0.000    0.000 
#
# Total GULP energy -89175.473181 kJ/mol
# GULP energy per Si atom -5573.467074 kJ/mol
# Density = 1.927049 g / cm^3
# Si number density = 19.314453 Si / 1000 Ang^3
#
#
#
# Elastic Constant Matrix: (Units=GPa)
#
#
# Indices 1 2 3 4 5 6 
#
# 1 41.3857 21.8796 8.3690 0.7260 4.5120 -5.9556
# 2 21.8796 52.1104 0.9764 -4.2704 4.2402 -3.7025
# 3 8.3690 0.9764 46.7259 -5.0717 21.2530 0.9838
# 4 0.7260 -4.2704 -5.0717 25.8033 2.2569 3.2425
# 5 4.5120 4.2402 21.2530 2.2569 18.8037 7.2223
# 6 -5.9556 -3.7025 0.9838 3.2425 7.2223 37.5967
#
#
#
# Elastic Compliance Matrix: (Units=1/GPa)
#
#
# Indices 1 2 3 4 5 6 
#
# 1 0.033730 -0.014465 -0.007939 -0.005692 0.003294 0.003984
# 2 -0.014465 0.027213 0.010135 0.007990 -0.016046 0.002517
# 3 -0.007939 0.010135 0.056056 0.017746 -0.069765 0.010145
# 4 -0.005692 0.007990 0.017746 0.045955 -0.026197 0.000490
# 5 0.003294 -0.016046 -0.069765 -0.026197 0.147744 -0.025355
# 6 0.003984 0.002517 0.010145 0.000490 -0.025355 0.032040
#
#
# Mechanical properties :
#
#
# Convention : Reuss Voigt Hill
#
# Bulk Modulus (GPa) = 10.81544 22.51911 16.66727
# Shear Modulus (GPa) = 12.55980 23.70720 18.13350
#
# Velocity S-wave (km/s) = 2.55283 3.50728 3.06740
# Velocity P-wave (km/s) = 3.78167 5.29961 4.60363
#
# Compressibility (1/GPa) = 0.09246045
#
# Stress axis : x y z
#
# Youngs Moduli (GPa) = 29.64759 36.74756 17.83925
#
# Poissons Ratio (x) = 0.53154 0.14163
# Poissons Ratio (y) = 0.42884 -0.18080
# Poissons Ratio (z) = 0.23537 -0.37243
#
# Static dielectric constant tensor:
#      x y z
#    x 1.686120 0.005900 0.012860 
#    y 0.005900 1.709410 -0.008870 
#    z 0.012860 -0.008870 1.752670 
# 
# From -- ./inp_files/316728.got.cif
#   From: 2010.05.17/outbox.cif.g08.bks.cpg/sg2_159_cif.got.tgz:316728.got - 2010.06.03 11:33:40.
