data_PCOD9071346
_publ_section_title
;
Structure prediction by ZEFSAII (Michael W. Deem and Ramdas Pophale) SiO2 
 PCOD9071346
Probable space group: P -1
;
_chemical_formula_sum "Si O2"
_cell_formula_units_Z 14
_cell_length_a 12.713960
_cell_length_b 9.547099
_cell_length_c 7.803498
_cell_angle_alpha 130.082153
_cell_angle_beta 99.727985
_cell_angle_gamma 51.726179
_cell_volume 525.642203
_symmetry_space_group_name_H-M "P -1"
_symmetry_group_IT_number 2
_symmetry_cell_setting 'triclinic'
loop_
_space_group_symop_operation_xyz
x,y,z
-x,-y,-z
loop_
_atom_site_type_symbol
_atom_site_label
_atom_site_fract_x
_atom_site_fract_y
_atom_site_fract_z
Si Si1 0.000000 0.500000 0.500000
Si Si2 0.463572 0.936800 0.767943
Si Si3 0.361901 0.791171 0.201452
Si Si4 0.500000 0.000000 0.500000
Si Si5 0.221697 0.568660 0.521070
Si Si6 0.048457 0.533082 0.861155
Si Si7 0.848495 0.255677 0.732033
Si Si8 0.758271 0.037073 0.071642
O O1 0.903769 0.420660 0.447312
O O2 0.111779 0.330944 0.574080
O O3 0.428921 0.129026 0.769247
O O4 0.622421 0.673060 0.547658
O O5 0.344008 0.926701 0.780015
O O6 0.500000 0.000000 0.000000
O O7 0.412633 0.908510 0.410952
O O8 0.242760 0.806795 0.275034
O O9 0.500000 0.500000 0.000000
O O10 0.318730 0.883502 0.067104
O O11 0.224571 0.564031 0.311449
O O12 0.197934 0.806825 0.753942
O O13 0.000000 0.500000 0.000000
O O14 0.120905 0.636360 0.020964
O O15 0.902833 0.743505 0.869016
O O16 0.000000 0.000000 0.500000
#
# Coordination Sequence:
#
# PCOD9071346 Si02
#       8
#     1   2   2   1   2   2   2   2
#     4  12  28  46  74 112 156 202 272 318 406 478
#     4  12  26  49  75 113 152 196 265 327 398 479
#     4  12  28  51  80 119 160 213 279 334 408 496
#     4  12  28  46  80 112 154 208 260 334 410 466
#     4  12  26  48  77 112 155 208 257 333 400 481
#     4  12  28  49  78 115 157 210 263 332 400 489
#     4  12  27  50  79 115 163 208 267 337 408 481
#     4  12  26  50  80 109 162 205 266 330 402 479
#
# _framework density 26.634087999999998
#
# number of rings (size 3 to 8) (size 9 to 14) (size 15 to 20)
#    0.000    0.000    4.286    4.714    2.000    2.286 
#    0.000    0.000    0.000    0.000    0.000    0.000 
#    0.000    0.000    0.000    0.000    0.000    0.000 
#
# Total GULP energy -78157.158336 kJ/mol
# GULP energy per Si atom -5582.654167 kJ/mol
# Density = 2.657347 g / cm^3
# Si number density = 26.634088 Si / 1000 Ang^3
#
#
#
# Elastic Constant Matrix: (Units=GPa)
#
#
# Indices 1 2 3 4 5 6 
#
# 1 266.2975 53.5272 68.6482 4.0857 18.1643 49.2432
# 2 53.5272 97.8519 13.8722 -20.7047 -14.1124 -6.4234
# 3 68.6482 13.8722 91.4632 -20.1506 13.8048 -1.0730
# 4 4.0857 -20.7047 -20.1506 59.9309 -0.1688 -13.4460
# 5 18.1643 -14.1124 13.8048 -0.1688 61.8637 -9.1724
# 6 49.2432 -6.4234 -1.0730 -13.4460 -9.1724 59.6442
#
#
#
# Elastic Compliance Matrix: (Units=1/GPa)
#
#
# Indices 1 2 3 4 5 6 
#
# 1 0.009804 -0.007519 -0.007504 -0.008417 -0.004670 -0.011655
# 2 -0.007519 0.017776 0.004396 0.010780 0.007048 0.011715
# 3 -0.007504 0.004396 0.018182 0.010253 0.000570 0.009395
# 4 -0.008417 0.010780 0.010253 0.027889 0.004995 0.015350
# 5 -0.004670 0.007048 0.000570 0.004995 0.020347 0.008880
# 6 -0.011655 0.011715 0.009395 0.015350 0.008880 0.032645
#
#
# Mechanical properties :
#
#
# Convention : Reuss Voigt Hill
#
# Bulk Modulus (GPa) = 40.80412 80.85641 60.83027
# Shear Modulus (GPa) = 32.03776 57.59208 44.81492
#
# Velocity S-wave (km/s) = 3.47203 4.65515 4.10642
# Velocity P-wave (km/s) = 5.60596 7.70182 6.73590
#
# Compressibility (1/GPa) = 0.02450733
#
# Stress axis : x y z
#
# Youngs Moduli (GPa) = 102.00130 56.25674 54.99927
#
# Poissons Ratio (x) = 0.42297 0.41272
# Poissons Ratio (y) = 0.76691 -0.24176
# Poissons Ratio (z) = 0.76543 -0.24729
#
# Static dielectric constant tensor:
#      x y z
#    x 1.892380 -0.028760 0.260830 
#    y -0.028760 2.508570 -0.240130 
#    z 0.260830 -0.240130 1.181770 
# 
# From -- ./inp_files/246043.got.cif
#   From: 2010.05.17/outbox.cif.g08.bks.cpg/sg2_124_cif.got.tgz:246043.got - 2010.06.03 11:33:40.
