data_PCOD9071853
_publ_section_title
;
Structure prediction by ZEFSAII (Michael W. Deem and Ramdas Pophale) SiO2 
 PCOD9071853
Probable space group: P -1
;
_chemical_formula_sum "Si O2"
_cell_formula_units_Z 12
_cell_length_a 13.848396
_cell_length_b 8.757864
_cell_length_c 8.239930
_cell_angle_alpha 109.059031
_cell_angle_beta 45.643585
_cell_angle_gamma 136.728863
_cell_volume 454.563067
_symmetry_space_group_name_H-M "P -1"
_symmetry_group_IT_number 2
_symmetry_cell_setting 'triclinic'
loop_
_space_group_symop_operation_xyz
x,y,z
-x,-y,-z
loop_
_atom_site_type_symbol
_atom_site_label
_atom_site_fract_x
_atom_site_fract_y
_atom_site_fract_z
Si Si1 0.234902 0.831575 0.159111
Si Si2 0.234332 0.202767 0.234784
Si Si3 0.826601 0.308362 0.465482
Si Si4 0.004597 0.122115 0.190409
Si Si5 0.352702 0.398517 0.486406
Si Si6 0.231767 0.650492 0.782361
O O1 0.285424 0.814212 0.274684
O O2 0.987605 0.598000 0.381885
O O3 0.288128 0.060652 0.125090
O O4 0.306727 0.781890 0.911167
O O5 0.376415 0.425797 0.271303
O O6 0.196305 0.247650 0.117543
O O7 0.000000 0.000000 0.500000
O O8 0.971414 0.280880 0.258090
O O9 0.693090 0.208978 0.427978
O O10 0.793824 0.884379 0.435104
O O11 0.000000 0.000000 0.000000
O O12 0.500000 0.500000 0.500000
O O13 0.251353 0.477201 0.681051
O O14 0.000000 0.500000 0.000000
#
# Coordination Sequence:
#
# PCOD9071853 Si02
#       6
#     2   2   2   2   2   2
#     4  10  18  31  54  86 115 147 201 255 300 338
#     4  10  18  36  60  84 119 163 203 242 301 370
#     4  10  18  29  57  88 116 142 202 266 298 331
#     4  11  20  35  65  93 116 158 219 254 290 369
#     4  11  24  42  59  87 133 166 191 252 328 364
#     4  10  20  36  59  86 118 158 206 248 296 369
#
# _framework density 26.398976000000001
#
# number of rings (size 3 to 8) (size 9 to 14) (size 15 to 20)
#    0.000    1.667    3.333    7.000    2.333    0.000 
#    0.000    2.500    0.000    0.000    0.000    0.000 
#    0.000    0.000    0.000    0.000    0.000    0.000 
#
# Total GULP energy -67022.475611 kJ/mol
# GULP energy per Si atom -5585.206301 kJ/mol
# Density = 2.633889 g / cm^3
# Si number density = 26.398976 Si / 1000 Ang^3
#
#
#
# Elastic Constant Matrix: (Units=GPa)
#
#
# Indices 1 2 3 4 5 6 
#
# 1 178.9767 84.2739 26.3006 10.2161 27.2397 17.8785
# 2 84.2739 104.7692 43.8648 26.1836 -3.1291 4.3573
# 3 26.3006 43.8648 69.4358 24.4170 31.0201 -4.6155
# 4 10.2161 26.1836 24.4170 46.8659 1.6947 -4.5647
# 5 27.2397 -3.1291 31.0201 1.6947 52.6619 13.5849
# 6 17.8785 4.3573 -4.6155 -4.5647 13.5849 67.1752
#
#
#
# Elastic Compliance Matrix: (Units=1/GPa)
#
#
# Indices 1 2 3 4 5 6 
#
# 1 0.014358 -0.017768 0.013054 0.000757 -0.016619 0.001640
# 2 -0.017768 0.039067 -0.031431 -0.003376 0.031846 -0.006634
# 3 0.013054 -0.031431 0.051969 -0.009903 -0.041453 0.009845
# 4 0.000757 -0.003376 -0.009903 0.028103 0.004236 0.000390
# 5 -0.016619 0.031846 -0.041453 0.004236 0.056773 -0.011684
# 6 0.001640 -0.006634 0.009845 0.000390 -0.011684 0.017946
#
#
# Mechanical properties :
#
#
# Convention : Reuss Voigt Hill
#
# Bulk Modulus (GPa) = 30.20866 73.56226 51.88546
# Shear Modulus (GPa) = 17.15028 46.59012 31.87020
#
# Velocity S-wave (km/s) = 2.55160 4.20556 3.47832
# Velocity P-wave (km/s) = 4.48875 7.17694 5.98570
#
# Compressibility (1/GPa) = 0.03310309
#
# Stress axis : x y z
#
# Youngs Moduli (GPa) = 69.64882 25.59692 19.24228
#
# Poissons Ratio (x) = 0.45481 -0.25118
# Poissons Ratio (y) = 1.23753 0.60480
# Poissons Ratio (z) = -0.90917 0.80454
#
# Static dielectric constant tensor:
#      x y z
#    x 2.227270 -0.025380 0.284050 
#    y -0.025380 2.087340 -0.161400 
#    z 0.284050 -0.161400 2.342130 
# 
# From -- ./inp_files/150270.got.cif
#   From: 2010.05.17/outbox.cif.g08.bks.cpg/sg2_76_cif.got.tgz:150270.got - 2010.06.03 11:33:40.
