data_PCOD9071481
_publ_section_title
;
Structure prediction by ZEFSAII (Michael W. Deem and Ramdas Pophale) SiO2 
 PCOD9071481
Probable space group: P -1
;
_chemical_formula_sum "Si O2"
_cell_formula_units_Z 10
_cell_length_a 14.049125
_cell_length_b 9.120027
_cell_length_c 11.045410
_cell_angle_alpha 65.834901
_cell_angle_beta 160.600952
_cell_angle_gamma 113.097838
_cell_volume 428.781650
_symmetry_space_group_name_H-M "P -1"
_symmetry_group_IT_number 2
_symmetry_cell_setting 'triclinic'
loop_
_space_group_symop_operation_xyz
x,y,z
-x,-y,-z
loop_
_atom_site_type_symbol
_atom_site_label
_atom_site_fract_x
_atom_site_fract_y
_atom_site_fract_z
Si Si1 0.272419 0.108710 0.757209
Si Si2 0.958846 0.652503 0.798017
Si Si3 0.602370 0.555442 0.756612
Si Si4 0.496020 0.350613 0.139175
Si Si5 0.012616 0.191022 0.965582
O O1 0.196407 0.242412 0.523548
O O2 0.376271 0.199364 0.971906
O O3 0.000000 0.000000 0.500000
O O4 0.500000 0.000000 0.000000
O O5 0.718156 0.521377 0.597990
O O6 0.207908 0.569512 0.047545
O O7 0.032680 0.765106 0.962821
O O8 0.683796 0.583981 0.984736
O O9 0.682168 0.726900 0.733442
O O10 0.782267 0.281960 0.572343
O O11 0.500000 0.500000 0.000000
O O12 0.000000 0.000000 0.000000
#
# Coordination Sequence:
#
# PCOD9071481 Si02
#       5
#     2   2   2   2   2
#     4  12  28  49  75 111 157 203 250 319 389 452
#     4  12  27  50  78 111 153 206 258 310 382 463
#     4  12  26  51  78 110 152 203 259 309 380 460
#     4  12  28  51  80 113 152 205 260 313 378 464
#     4  12  29  49  78 118 156 198 256 325 383 446
#
# _framework density 23.321892999999999
#
# number of rings (size 3 to 8) (size 9 to 14) (size 15 to 20)
#    0.000    0.000    4.000    3.600    8.400    2.400 
#    0.000    0.000    0.000    0.000    0.000    0.000 
#    0.000    0.000    0.000    0.000    0.000    0.000 
#
# Total GULP energy -55938.736583 kJ/mol
# GULP energy per Si atom -5593.873658 kJ/mol
# Density = 2.326881 g / cm^3
# Si number density = 23.321893 Si / 1000 Ang^3
#
#
#
# Elastic Constant Matrix: (Units=GPa)
#
#
# Indices 1 2 3 4 5 6 
#
# 1 225.7163 79.4408 74.1702 16.0132 0.1345 -46.0942
# 2 79.4408 164.0231 63.0877 17.0995 12.2209 -42.0261
# 3 74.1702 63.0877 123.4532 17.4393 6.6323 -20.4271
# 4 16.0132 17.0995 17.4393 45.9647 -1.6493 -14.8390
# 5 0.1345 12.2209 6.6323 -1.6493 59.0458 9.1092
# 6 -46.0942 -42.0261 -20.4271 -14.8390 9.1092 47.4858
#
#
#
# Elastic Compliance Matrix: (Units=1/GPa)
#
#
# Indices 1 2 3 4 5 6 
#
# 1 0.006574 -0.001015 -0.002757 0.000584 -0.000175 0.004513
# 2 -0.001015 0.009723 -0.003087 0.000011 -0.002715 0.006816
# 3 -0.002757 -0.003087 0.011547 -0.002670 -0.000546 -0.001171
# 4 0.000584 0.000011 -0.002670 0.024891 -0.000124 0.007230
# 5 -0.000175 -0.002715 -0.000546 -0.000124 0.018544 -0.006403
# 6 0.004513 0.006816 -0.001171 0.007230 -0.006403 0.034456
#
#
# Mechanical properties :
#
#
# Convention : Reuss Voigt Hill
#
# Bulk Modulus (GPa) = 70.79175 105.17667 87.98421
# Shear Modulus (GPa) = 40.27000 50.26553 45.26776
#
# Velocity S-wave (km/s) = 4.15987 4.64755 4.41046
# Velocity P-wave (km/s) = 7.31388 8.60206 7.98399
#
# Compressibility (1/GPa) = 0.01412594
#
# Stress axis : x y z
#
# Youngs Moduli (GPa) = 152.11780 102.84732 86.60275
#
# Poissons Ratio (x) = 0.10438 0.23879
# Poissons Ratio (y) = 0.15438 0.26733
# Poissons Ratio (z) = 0.41943 0.31747
#
# Static dielectric constant tensor:
#      x y z
#    x 1.875820 0.042140 -0.038660 
#    y 0.042140 1.909490 -0.058770 
#    z -0.038660 -0.058770 2.060880 
# 
# From -- ./inp_files/310432.got.cif
#   From: 2010.05.17/outbox.cif.g08.bks.cpg/sg2_156_cif.got.tgz:310432.got - 2010.06.03 11:33:40.
