data_PCOD9071774
_publ_section_title
;
Structure prediction by ZEFSAII (Michael W. Deem and Ramdas Pophale) SiO2 
 PCOD9071774
Probable space group: P -1
;
_chemical_formula_sum "Si O2"
_cell_formula_units_Z 14
_cell_length_a 16.112864
_cell_length_b 11.127690
_cell_length_c 5.341583
_cell_angle_alpha 140.282045
_cell_angle_beta 70.533340
_cell_angle_gamma 122.885018
_cell_volume 507.544161
_symmetry_space_group_name_H-M "P -1"
_symmetry_group_IT_number 2
_symmetry_cell_setting 'triclinic'
loop_
_space_group_symop_operation_xyz
x,y,z
-x,-y,-z
loop_
_atom_site_type_symbol
_atom_site_label
_atom_site_fract_x
_atom_site_fract_y
_atom_site_fract_z
Si Si1 0.305357 0.628474 0.189044
Si Si2 0.978169 0.774750 0.838621
Si Si3 0.912251 0.538912 0.038506
Si Si4 0.370426 0.301995 0.115430
Si Si5 0.582283 0.228796 0.189810
Si Si6 0.684014 0.822621 0.522807
Si Si7 0.846829 0.974094 0.262118
O O1 0.333280 0.702758 0.565492
O O2 0.201656 0.610313 0.166873
O O3 0.383728 0.774674 0.134906
O O4 0.301575 0.392354 0.805588
O O5 0.907821 0.668202 0.495142
O O6 0.958906 0.639846 0.887178
O O7 0.934805 0.934374 0.217275
O O8 0.091469 0.871404 0.779247
O O9 0.000000 0.500000 0.000000
O O10 0.431005 0.555901 0.469949
O O11 0.363498 0.168241 0.153268
O O12 0.391891 0.223973 0.706491
O O13 0.251378 0.223020 0.069445
O O14 0.500000 0.000000 0.000000
O O15 0.789405 0.012479 0.616877
#
# Coordination Sequence:
#
# PCOD9071774 Si02
#       7
#     2   2   2   2   2   2   2
#     4  10  18  33  48  67 102 137 165 208 259 288
#     4  11  22  31  52  75  97 134 185 218 253 302
#     4  12  24  39  51  70 105 152 191 207 237 298
#     4   8  15  25  40  63  99 129 142 187 252 297
#     4  10  18  29  50  75 102 131 163 201 263 338
#     4   8  14  25  43  62  92 130 150 187 255 302
#     4   9  19  29  51  73 105 126 168 214 271 312
#
# _framework density 27.583805999999999
#
# number of rings (size 3 to 8) (size 9 to 14) (size 15 to 20)
#    0.857    1.429    1.429    3.429    2.000    1.143 
#    0.000    0.000    0.000    0.000    0.000    0.000 
#    0.000    6.857    0.000    0.000    0.000    0.000 
#
# Total GULP energy -78049.179217 kJ/mol
# GULP energy per Si atom -5574.941373 kJ/mol
# Density = 2.752102 g / cm^3
# Si number density = 27.583806 Si / 1000 Ang^3
#
#
#
# Elastic Constant Matrix: (Units=GPa)
#
#
# Indices 1 2 3 4 5 6 
#
# 1 58.2466 21.3216 21.2908 -0.9278 10.5842 -4.3007
# 2 21.3216 224.7199 38.7433 -55.1640 16.9337 -0.3935
# 3 21.2908 38.7433 62.5413 -30.0740 18.1837 -4.6991
# 4 -0.9278 -55.1640 -30.0740 56.5835 -9.7203 10.3716
# 5 10.5842 16.9337 18.1837 -9.7203 38.9891 4.1814
# 6 -4.3007 -0.3935 -4.6991 10.3716 4.1814 47.5733
#
#
#
# Elastic Compliance Matrix: (Units=1/GPa)
#
#
# Indices 1 2 3 4 5 6 
#
# 1 0.021722 -0.002161 -0.008431 -0.007325 -0.003173 0.002989
# 2 -0.002161 0.006216 -0.000171 0.006144 -0.000344 -0.001470
# 3 -0.008431 -0.000171 0.027263 0.013023 -0.007074 -0.000288
# 4 -0.007325 0.006144 0.013023 0.031978 0.001912 -0.006465
# 5 -0.003173 -0.000344 -0.007074 0.001912 0.030877 -0.004119
# 6 0.002989 -0.001470 -0.000288 -0.006465 -0.004119 0.023021
#
#
# Mechanical properties :
#
#
# Convention : Reuss Voigt Hill
#
# Bulk Modulus (GPa) = 29.69620 56.46882 43.08251
# Shear Modulus (GPa) = 28.76404 46.23931 37.50167
#
# Velocity S-wave (km/s) = 3.23272 4.09873 3.69121
# Velocity P-wave (km/s) = 4.97224 6.55100 5.81545
#
# Compressibility (1/GPa) = 0.03367434
#
# Stress axis : x y z
#
# Youngs Moduli (GPa) = 46.03661 160.87138 36.67980
#
# Poissons Ratio (x) = 0.34767 0.30925
# Poissons Ratio (y) = 0.09949 0.00627
# Poissons Ratio (z) = 0.38814 0.02751
#
# Static dielectric constant tensor:
#      x y z
#    x 2.105660 -0.054290 -0.089840 
#    y -0.054290 2.257220 0.008470 
#    z -0.089840 0.008470 2.557290 
# 
# From -- ./inp_files/109420.got.cif
#   From: 2010.05.17/outbox.cif.g08.bks.cpg/sg2_55_cif.got.tgz:109420.got - 2010.06.03 11:33:40.
