data_PCOD9071224
_publ_section_title
;
Structure prediction by ZEFSAII (Michael W. Deem and Ramdas Pophale) SiO2 
 PCOD9071224
Probable space group: P -1
;
_chemical_formula_sum "Si O2"
_cell_formula_units_Z 12
_cell_length_a 9.540813
_cell_length_b 26.871439
_cell_length_c 23.712411
_cell_angle_alpha 170.749624
_cell_angle_beta 150.001468
_cell_angle_gamma 29.270902
_cell_volume 476.817260
_symmetry_space_group_name_H-M "P -1"
_symmetry_group_IT_number 2
_symmetry_cell_setting 'triclinic'
loop_
_space_group_symop_operation_xyz
x,y,z
-x,-y,-z
loop_
_atom_site_type_symbol
_atom_site_label
_atom_site_fract_x
_atom_site_fract_y
_atom_site_fract_z
Si Si1 0.526282 0.423173 0.858707
Si Si2 0.661595 0.507405 0.889584
Si Si3 0.129621 0.979341 0.194366
Si Si4 0.869174 0.872871 0.867930
Si Si5 0.885358 0.837896 0.185674
Si Si6 0.798765 0.114183 0.344404
O O1 0.556672 0.660517 0.085098
O O2 0.840626 0.190867 0.710109
O O3 0.264002 0.279101 0.588145
O O4 0.500000 0.500000 0.000000
O O5 0.652746 0.137958 0.463761
O O6 0.416003 0.696465 0.974769
O O7 0.000000 0.500000 0.000000
O O8 0.933738 0.964821 0.165295
O O9 0.959834 0.012367 0.114002
O O10 0.526122 0.925661 0.806615
O O11 0.000000 0.500000 0.500000
O O12 0.000000 0.000000 0.000000
O O13 0.948989 0.946162 0.265498
O O14 0.811556 0.489583 0.769712
#
# Coordination Sequence:
#
# PCOD9071224 Si02
#       6
#     2   2   2   2   2   2
#     4  12  26  46  74 115 163 204 257 319 395 470
#     4  12  27  45  75 116 163 208 261 314 389 469
#     4  12  29  49  79 116 159 210 262 321 397 470
#     4  12  30  54  83 114 152 205 270 333 390 461
#     4  12  26  47  79 118 157 210 259 321 388 469
#     4  12  28  51  83 111 161 207 265 323 395 465
#
# _framework density 25.166874
#
# number of rings (size 3 to 8) (size 9 to 14) (size 15 to 20)
#    0.000    0.000    3.333    5.000    9.333    1.333 
#    0.000    3.333    0.000    0.000    0.000    0.000 
#    0.000    0.000    0.000    0.000    0.000    0.000 
#
# Total GULP energy -67163.668397 kJ/mol
# GULP energy per Si atom -5596.972366 kJ/mol
# Density = 2.510959 g / cm^3
# Si number density = 25.166874 Si / 1000 Ang^3
#
#
#
# Elastic Constant Matrix: (Units=GPa)
#
#
# Indices 1 2 3 4 5 6 
#
# 1 215.9991 52.5534 47.6081 -20.2416 9.6688 17.1069
# 2 52.5534 125.3401 41.0741 -25.5971 10.4658 4.9205
# 3 47.6081 41.0741 124.5130 -5.7323 7.9633 11.2555
# 4 -20.2416 -25.5971 -5.7323 50.8345 3.9751 -3.6684
# 5 9.6688 10.4658 7.9633 3.9751 45.0358 -3.3082
# 6 17.1069 4.9205 11.2555 -3.6684 -3.3082 56.3012
#
#
#
# Elastic Compliance Matrix: (Units=1/GPa)
#
#
# Indices 1 2 3 4 5 6 
#
# 1 0.005557 -0.001492 -0.001411 0.001276 -0.000801 -0.001240
# 2 -0.001492 0.010556 -0.002588 0.004608 -0.002065 0.000227
# 3 -0.001411 -0.002588 0.009561 -0.000821 -0.000814 -0.001358
# 4 0.001276 0.004608 -0.000821 0.022702 -0.003154 0.000668
# 5 -0.000801 -0.002065 -0.000814 -0.003154 0.023408 0.001756
# 6 -0.001240 0.000227 -0.001358 0.000668 0.001756 0.018537
#
#
# Mechanical properties :
#
#
# Convention : Reuss Voigt Hill
#
# Bulk Modulus (GPa) = 68.05632 83.14705 75.60169
# Shear Modulus (GPa) = 47.08071 52.07541 49.57806
#
# Velocity S-wave (km/s) = 4.32990 4.55379 4.44325
# Velocity P-wave (km/s) = 7.21790 7.79483 7.51190
#
# Compressibility (1/GPa) = 0.01469371
#
# Stress axis : x y z
#
# Youngs Moduli (GPa) = 179.94982 94.72904 104.58641
#
# Poissons Ratio (x) = 0.14131 0.14754
# Poissons Ratio (y) = 0.26843 0.27070
# Poissons Ratio (z) = 0.25385 0.24519
#
# Static dielectric constant tensor:
#      x y z
#    x 2.133130 0.000950 0.042930 
#    y 0.000950 2.014020 0.080320 
#    z 0.042930 0.080320 2.106220 
# 
# From -- ./inp_files/131571.got.cif
#   From: 2010.05.17/outbox.cif.g08.bks.cpg/sg2_66_cif.got.tgz:131571.got - 2010.06.03 11:33:40.
