data_PCOD9071906
_publ_section_title
;
Structure prediction by ZEFSAII (Michael W. Deem and Ramdas Pophale) SiO2 
 PCOD9071906
Probable space group: P -1
;
_chemical_formula_sum "Si O2"
_cell_formula_units_Z 16
_cell_length_a 8.615778
_cell_length_b 8.297576
_cell_length_c 13.951639
_cell_angle_alpha 63.927693
_cell_angle_beta 50.181014
_cell_angle_gamma 54.287376
_cell_volume 618.557581
_symmetry_space_group_name_H-M "P -1"
_symmetry_group_IT_number 2
_symmetry_cell_setting 'triclinic'
loop_
_space_group_symop_operation_xyz
x,y,z
-x,-y,-z
loop_
_atom_site_type_symbol
_atom_site_label
_atom_site_fract_x
_atom_site_fract_y
_atom_site_fract_z
Si Si1 0.603859 0.056608 0.784493
Si Si2 0.108695 0.134917 0.965612
Si Si3 0.146916 0.543592 0.159667
Si Si4 0.406966 0.070630 0.375630
Si Si5 0.715717 0.305127 0.199283
Si Si6 0.465571 0.534253 0.393997
Si Si7 0.203920 0.304638 0.574626
Si Si8 0.512615 0.297763 0.945387
O O1 0.371723 0.036767 0.892327
O O2 0.711632 0.917431 0.683218
O O3 0.575935 0.259770 0.689535
O O4 0.626685 0.115721 0.871580
O O5 0.042450 0.328603 0.875204
O O6 0.974620 0.200737 0.099123
O O7 0.000000 0.000000 0.000000
O O8 0.299340 0.662586 0.083242
O O9 0.016089 0.581665 0.302728
O O10 0.310014 0.339587 0.092091
O O11 0.591759 0.851170 0.397106
O O12 0.569555 0.182866 0.271337
O O13 0.229185 0.166048 0.507892
O O14 0.688338 0.365654 0.303519
O O15 0.606639 0.504704 0.126533
O O16 0.500000 0.500000 0.500000
O O17 0.267556 0.473445 0.463102
#
# Coordination Sequence:
#
# PCOD9071906 Si02
#       8
#     2   2   2   2   2   2   2   2
#     4  11  20  35  54  86 113 138 185 234 275 313
#     4  11  19  33  59  84 106 138 181 230 274 329
#     4  10  19  39  58  80 110 149 185 215 279 332
#     4  10  18  33  54  83 110 142 178 231 270 323
#     4   9  19  32  51  79 108 143 182 217 277 323
#     4  10  18  30  47  80 110 140 172 231 266 313
#     4  10  19  32  57  79 109 148 185 218 275 330
#     4   9  22  36  58  79 115 144 180 234 268 323
#
# _framework density 25.866631000000002
#
# number of rings (size 3 to 8) (size 9 to 14) (size 15 to 20)
#    0.000    2.000    3.750    0.000    0.000    5.500 
#    0.000    6.875    0.000    0.000    0.000    0.000 
#    0.000    0.000    0.000    0.000    0.000    0.000 
#
# Total GULP energy -89226.525120 kJ/mol
# GULP energy per Si atom -5576.657820 kJ/mol
# Density = 2.580776 g / cm^3
# Si number density = 25.866631 Si / 1000 Ang^3
#
#
#
# Elastic Constant Matrix: (Units=GPa)
#
#
# Indices 1 2 3 4 5 6 
#
# 1 64.7696 40.0951 14.5080 22.5487 29.7070 1.8113
# 2 40.0951 73.9343 53.5371 27.6162 16.0922 -2.3947
# 3 14.5080 53.5371 174.4187 40.4474 33.0747 11.7500
# 4 22.5487 27.6162 40.4474 57.9589 15.5129 10.8999
# 5 29.7070 16.0922 33.0747 15.5129 46.5922 10.8895
# 6 1.8113 -2.3947 11.7500 10.8999 10.8895 39.5699
#
#
#
# Elastic Compliance Matrix: (Units=1/GPa)
#
#
# Indices 1 2 3 4 5 6 
#
# 1 0.037234 -0.019146 0.008003 -0.005622 -0.021454 0.002213
# 2 -0.019146 0.029814 -0.008523 -0.003775 0.008289 0.003970
# 3 0.008003 -0.008523 0.010126 -0.003883 -0.007904 -0.000644
# 4 -0.005622 -0.003775 -0.003883 0.024854 0.000741 -0.005868
# 5 -0.021454 0.008289 -0.007904 0.000741 0.039325 -0.007195
# 6 0.002213 0.003970 -0.000644 -0.005868 -0.007195 0.029199
#
#
# Mechanical properties :
#
#
# Convention : Reuss Voigt Hill
#
# Bulk Modulus (GPa) = 26.42530 58.82257 42.62393
# Shear Modulus (GPa) = 22.47192 42.48969 32.48081
#
# Velocity S-wave (km/s) = 2.95067 4.05735 3.54743
# Velocity P-wave (km/s) = 4.67405 6.68876 5.77002
#
# Compressibility (1/GPa) = 0.03784252
#
# Stress axis : x y z
#
# Youngs Moduli (GPa) = 26.85682 33.54076 98.75291
#
# Poissons Ratio (x) = 0.64218 -0.79028
# Poissons Ratio (y) = 0.51420 0.84165
# Poissons Ratio (z) = -0.21492 0.28586
#
# Static dielectric constant tensor:
#      x y z
#    x 2.050980 0.034540 0.059540 
#    y 0.034540 2.184340 0.013390 
#    z 0.059540 0.013390 2.006220 
# 
# From -- ./inp_files/312427.got.cif
#   From: 2010.05.17/outbox.cif.g08.bks.cpg/sg2_157_cif.got.tgz:312427.got - 2010.06.03 11:33:40.
