data_PCOD9071818
_publ_section_title
;
Structure prediction by ZEFSAII (Michael W. Deem and Ramdas Pophale) SiO2 
 PCOD9071818
Probable space group: P -1
;
_chemical_formula_sum "Si O2"
_cell_formula_units_Z 16
_cell_length_a 12.028096
_cell_length_b 14.130718
_cell_length_c 8.435860
_cell_angle_alpha 82.068458
_cell_angle_beta 35.438464
_cell_angle_gamma 68.749570
_cell_volume 741.278470
_symmetry_space_group_name_H-M "P -1"
_symmetry_group_IT_number 2
_symmetry_cell_setting 'triclinic'
loop_
_space_group_symop_operation_xyz
x,y,z
-x,-y,-z
loop_
_atom_site_type_symbol
_atom_site_label
_atom_site_fract_x
_atom_site_fract_y
_atom_site_fract_z
Si Si1 0.263095 0.134165 0.854358
Si Si2 0.896111 0.108422 0.887391
Si Si3 0.608492 0.691657 0.249739
Si Si4 0.826903 0.116020 0.327436
Si Si5 0.015989 0.418815 0.366348
Si Si6 0.497074 0.912376 0.755371
Si Si7 0.096633 0.264621 0.576442
Si Si8 0.819231 0.573969 0.317547
O O1 0.251037 0.243886 0.899881
O O2 0.378489 0.113830 0.553654
O O3 0.400136 0.039503 0.837539
O O4 0.034055 0.136341 0.104877
O O5 0.945936 0.209071 0.811848
O O6 0.813803 0.095189 0.160334
O O7 0.703680 0.115665 0.000244
O O8 0.107853 0.997874 0.638148
O O9 0.385501 0.777437 0.422029
O O10 0.615459 0.639965 0.426958
O O11 0.757194 0.606150 0.973490
O O12 0.022099 0.320662 0.481060
O O13 0.000000 0.500000 0.500000
O O14 0.824109 0.483941 0.453780
O O15 0.672429 0.834821 0.687658
O O16 0.121815 0.343984 0.662956
O O17 0.000000 0.500000 0.000000
#
# Coordination Sequence:
#
# PCOD9071818 Si02
#       8
#     2   2   2   2   2   2   2   2
#     4  10  18  30  53  89 116 141 178 225 266 323
#     4  10  18  29  52  87 122 146 178 219 268 337
#     4  11  18  35  61  83 109 147 185 230 282 326
#     4  10  18  29  52  90 120 140 182 227 264 329
#     4   9  22  38  59  80 107 147 189 241 284 327
#     4  10  18  30  53  86 118 145 178 215 270 330
#     4  11  18  35  57  80 112 153 180 221 289 334
#     4   9  18  34  59  81 101 138 188 244 280 315
#
# _framework density 21.584332
#
# number of rings (size 3 to 8) (size 9 to 14) (size 15 to 20)
#    0.000    2.000    3.750    0.750    0.000    0.000 
#    0.000    3.750    0.000   63.000    0.000    0.000 
#    0.000    0.000    0.000    0.000    0.000    0.000 
#
# Total GULP energy -89109.599750 kJ/mol
# GULP energy per Si atom -5569.349984 kJ/mol
# Density = 2.153521 g / cm^3
# Si number density = 21.584332 Si / 1000 Ang^3
#
#
#
# Elastic Constant Matrix: (Units=GPa)
#
#
# Indices 1 2 3 4 5 6 
#
# 1 38.5458 36.4630 24.1782 0.8650 -2.5390 -8.2528
# 2 36.4630 123.5072 27.3378 4.4337 -9.3469 -32.7774
# 3 24.1782 27.3378 55.0071 17.3466 -5.8005 -3.3053
# 4 0.8650 4.4337 17.3466 26.7873 1.3221 -1.0337
# 5 -2.5390 -9.3469 -5.8005 1.3221 23.8807 -9.1644
# 6 -8.2528 -32.7774 -3.3053 -1.0337 -9.1644 -0.5572
#
#
#
# Elastic Compliance Matrix: (Units=1/GPa)
#
#
# Indices 1 2 3 4 5 6 
#
# 1 0.048294 -0.009582 -0.021039 0.013930 -0.003378 0.002917
# 2 -0.009582 0.004791 0.000134 -0.001032 -0.007154 -0.021105
# 3 -0.021039 0.000134 0.035439 -0.022646 0.008163 0.001266
# 4 0.013930 -0.001032 -0.022646 0.052110 -0.006667 0.001672
# 5 -0.003378 -0.007154 0.008163 -0.006667 0.028436 -0.032915
# 6 0.002917 -0.021105 0.001266 0.001672 -0.032915 -0.065613
#
#
# Mechanical properties :
#
#
# Convention : Reuss Voigt Hill
#
# Bulk Modulus (GPa) = 36.29965 43.66868 39.98417
# Shear Modulus (GPa) = 28.79932 18.62756 23.71344
#
# Velocity S-wave (km/s) = 3.65673 2.94090 3.31817
# Velocity P-wave (km/s) = 5.88923 5.63981 5.76586
#
# Compressibility (1/GPa) = 0.02754848
#
# Stress axis : x y z
#
# Youngs Moduli (GPa) = 20.70645 208.74193 28.21757
#
# Poissons Ratio (x) = 2.00026 0.59367
# Poissons Ratio (y) = 0.19842 -0.00378
# Poissons Ratio (z) = 0.43564 -0.02793
#
# Static dielectric constant tensor:
#      x y z
#    x 1.814790 -0.059970 0.021340 
#    y -0.059970 1.880620 0.024850 
#    z 0.021340 0.024850 1.822150 
# 
# From -- ./inp_files/272799.got.cif
#   From: 2010.05.17/outbox.cif.g08.bks.cpg/sg2_137_cif.got.tgz:272799.got - 2010.06.03 11:33:40.
