data_PCOD9071650
_publ_section_title
;
Structure prediction by ZEFSAII (Michael W. Deem and Ramdas Pophale) SiO2 
 PCOD9071650
Probable space group: P -1
;
_chemical_formula_sum "Si O2"
_cell_formula_units_Z 16
_cell_length_a 8.677282
_cell_length_b 20.721590
_cell_length_c 16.389697
_cell_angle_alpha 163.309266
_cell_angle_beta 134.721025
_cell_angle_gamma 52.058549
_cell_volume 575.575251
_symmetry_space_group_name_H-M "P -1"
_symmetry_group_IT_number 2
_symmetry_cell_setting 'triclinic'
loop_
_space_group_symop_operation_xyz
x,y,z
-x,-y,-z
loop_
_atom_site_type_symbol
_atom_site_label
_atom_site_fract_x
_atom_site_fract_y
_atom_site_fract_z
Si Si1 0.300739 0.886600 0.725221
Si Si2 0.032913 0.090074 0.251214
Si Si3 0.240251 0.035198 0.536970
Si Si4 0.132042 0.636605 0.820616
Si Si5 0.809207 0.673155 0.867678
Si Si6 0.365659 0.097496 0.255204
Si Si7 0.483646 0.660564 0.855478
Si Si8 0.504103 0.297138 0.817760
O O1 0.073627 0.769997 0.552514
O O2 0.408241 0.767755 0.548240
O O3 0.254629 0.114054 0.942507
O O4 0.500000 0.000000 0.000000
O O5 0.252603 0.207555 0.419313
O O6 0.090257 0.871508 0.052036
O O7 0.832719 0.990065 0.990817
O O8 0.313293 0.217774 0.858544
O O9 0.276050 0.188022 0.652223
O O10 0.431457 0.899987 0.449928
O O11 0.011569 0.824471 0.185530
O O12 0.255114 0.535596 0.670857
O O13 0.312617 0.674662 0.007207
O O14 0.901286 0.533220 0.662020
O O15 0.596656 0.536569 0.678628
O O16 0.422117 0.875310 0.047756
O O17 0.500000 0.500000 0.000000
#
# Coordination Sequence:
#
# PCOD9071650 Si02
#       8
#     2   2   2   2   2   2   2   2
#     4   8  13  20  31  51  80 109 137 172 210 246
#     4   8  12  20  32  50  79 105 135 176 205 244
#     4   9  17  28  44  66  88 114 146 176 213 258
#     4   8  15  25  39  60  82 111 146 175 213 257
#     4   9  15  24  40  60  86 116 142 177 216 251
#     4   8  13  19  31  52  78 109 136 167 212 247
#     4   9  15  24  39  60  87 115 142 174 214 254
#     4   9  17  30  47  66  89 115 144 179 216 255
#
# _framework density 27.798276000000001
#
# number of rings (size 3 to 8) (size 9 to 14) (size 15 to 20)
#    0.000    3.500    0.000    1.125    0.000    0.000 
#    0.000    0.000    0.000   18.750    0.000    0.875 
#    0.000   25.000    0.000    0.000    0.000   12.750 
#
# Total GULP energy -89360.121140 kJ/mol
# GULP energy per Si atom -5585.007571 kJ/mol
# Density = 2.773501 g / cm^3
# Si number density = 27.798276 Si / 1000 Ang^3
#
#
#
# Elastic Constant Matrix: (Units=GPa)
#
#
# Indices 1 2 3 4 5 6 
#
# 1 350.7625 22.2487 40.3787 16.0685 -12.9453 4.8748
# 2 22.2487 161.5487 43.3824 -6.8068 12.5270 11.1246
# 3 40.3787 43.3824 90.9909 10.1019 2.4692 7.5646
# 4 16.0685 -6.8068 10.1019 34.7656 10.8863 12.2921
# 5 -12.9453 12.5270 2.4692 10.8863 28.4527 8.8340
# 6 4.8748 11.1246 7.5646 12.2921 8.8340 37.1764
#
#
#
# Elastic Compliance Matrix: (Units=1/GPa)
#
#
# Indices 1 2 3 4 5 6 
#
# 1 0.003186 -0.000439 -0.001046 -0.002043 0.002514 0.000005
# 2 -0.000439 0.008024 -0.003896 0.005130 -0.004695 -0.002131
# 3 -0.001046 -0.003896 0.013821 -0.004777 0.001993 -0.000404
# 4 -0.002043 0.005130 -0.004777 0.040387 -0.015102 -0.010060
# 5 0.002514 -0.004695 0.001993 -0.015102 0.045566 -0.005164
# 6 0.000005 -0.002131 -0.000404 -0.010060 -0.005164 0.032171
#
#
# Mechanical properties :
#
#
# Convention : Reuss Voigt Hill
#
# Bulk Modulus (GPa) = 70.08125 90.59130 80.33627
# Shear Modulus (GPa) = 31.51154 53.23177 42.37165
#
# Velocity S-wave (km/s) = 3.37052 4.38074 3.90841
# Velocity P-wave (km/s) = 6.35709 7.63200 7.02353
#
# Compressibility (1/GPa) = 0.01426915
#
# Stress axis : x y z
#
# Youngs Moduli (GPa) = 313.92199 124.63157 72.35165
#
# Poissons Ratio (x) = 0.05473 0.07568
# Poissons Ratio (y) = 0.13786 0.28185
# Poissons Ratio (z) = 0.32837 0.48550
#
# Static dielectric constant tensor:
#      x y z
#    x 2.332910 -0.018940 0.025050 
#    y -0.018940 2.128280 -0.006480 
#    z 0.025050 -0.006480 2.107070 
# 
# From -- ./inp_files/196876.got.cif
#   From: 2010.05.17/outbox.cif.g08.bks.cpg/sg2_99_cif.got.tgz:196876.got - 2010.06.03 11:33:40.
