data_PCOD9071717
_publ_section_title
;
Structure prediction by ZEFSAII (Michael W. Deem and Ramdas Pophale) SiO2 
 PCOD9071717
Probable space group: P -1
;
_chemical_formula_sum "Si O2"
_cell_formula_units_Z 16
_cell_length_a 19.774258
_cell_length_b 8.455138
_cell_length_c 8.662739
_cell_angle_alpha 74.719054
_cell_angle_beta 30.823108
_cell_angle_gamma 82.247414
_cell_volume 703.531190
_symmetry_space_group_name_H-M "P -1"
_symmetry_group_IT_number 2
_symmetry_cell_setting 'triclinic'
loop_
_space_group_symop_operation_xyz
x,y,z
-x,-y,-z
loop_
_atom_site_type_symbol
_atom_site_label
_atom_site_fract_x
_atom_site_fract_y
_atom_site_fract_z
Si Si1 0.668360 0.910470 0.094618
Si Si2 0.827313 0.333225 0.471953
Si Si3 0.710017 0.785902 0.732957
Si Si4 0.629390 0.124916 0.373119
Si Si5 0.397352 0.734494 0.300426
Si Si6 0.245405 0.550431 0.106825
Si Si7 0.260699 0.396739 0.818119
Si Si8 0.099641 0.279940 0.877293
O O1 0.526769 0.956040 0.310199
O O2 0.653025 0.723229 0.237772
O O3 0.713960 0.025529 0.123210
O O4 0.744063 0.903811 0.785975
O O5 0.680710 0.262736 0.707502
O O6 0.830705 0.355187 0.643765
O O7 0.865481 0.523981 0.288770
O O8 0.939684 0.237953 0.210202
O O9 0.707165 0.597724 0.853021
O O10 0.821010 0.813541 0.375112
O O11 0.558535 0.785325 0.969436
O O12 0.660094 0.153758 0.485755
O O13 0.642335 0.305948 0.221863
O O14 0.352197 0.546444 0.505886
O O15 0.180550 0.469109 0.095687
O O16 0.161687 0.284199 0.924171
#
# Coordination Sequence:
#
# PCOD9071717 Si02
#       8
#     2   2   2   2   2   2   2   2
#     4   9  17  30  48  71  98 125 156 196 238 279
#     4   9  18  31  48  72  99 125 156 196 238 279
#     4   9  17  30  50  74  97 123 156 194 236 281
#     4   9  17  30  48  71  98 125 156 196 238 279
#     4   9  17  30  50  74  97 123 156 194 236 281
#     4   9  17  29  48  72  96 122 157 197 236 277
#     4   9  17  29  48  72  96 122 157 197 236 277
#     4   9  18  31  48  72  99 125 156 196 238 279
#
# _framework density 22.742417
#
# number of rings (size 3 to 8) (size 9 to 14) (size 15 to 20)
#    0.000    3.000    0.000    0.750    0.000    9.000 
#    0.000    5.000    0.000    9.000    0.000    0.000 
#    0.000    0.000    0.000    0.000    0.000    0.000 
#
# Total GULP energy -89115.814048 kJ/mol
# GULP energy per Si atom -5569.738378 kJ/mol
# Density = 2.269065 g / cm^3
# Si number density = 22.742417 Si / 1000 Ang^3
#
#
#
# Elastic Constant Matrix: (Units=GPa)
#
#
# Indices 1 2 3 4 5 6 
#
# 1 55.9052 17.9088 45.2204 19.6148 21.5313 7.2634
# 2 17.9088 64.2792 30.2185 15.5242 16.4452 5.3392
# 3 45.2204 30.2185 93.2714 34.7252 15.2867 3.7413
# 4 19.6148 15.5242 34.7252 38.2147 9.4497 19.9171
# 5 21.5313 16.4452 15.2867 9.4497 21.3170 11.2032
# 6 7.2634 5.3392 3.7413 19.9171 11.2032 20.9638
#
#
#
# Elastic Compliance Matrix: (Units=1/GPa)
#
#
# Indices 1 2 3 4 5 6 
#
# 1 0.048886 0.008585 -0.008440 -0.026864 -0.058673 0.039260
# 2 0.008585 0.024315 0.000055 -0.020970 -0.033124 0.028447
# 3 -0.008440 0.000055 0.038512 -0.058442 -0.028264 0.066666
# 4 -0.026864 -0.020970 -0.058442 0.182406 0.114385 -0.209349
# 5 -0.058673 -0.033124 -0.028264 0.114385 0.195560 -0.179374
# 6 0.039260 0.028447 0.066666 -0.209349 -0.179374 0.309711
#
#
# Mechanical properties :
#
#
# Convention : Reuss Voigt Hill
#
# Bulk Modulus (GPa) = 8.91954 44.46125 26.69040
# Shear Modulus (GPa) = 5.97828 24.10631 15.04229
#
# Velocity S-wave (km/s) = 1.62308 3.25925 2.57460
# Velocity P-wave (km/s) = 2.72819 5.80999 4.53867
#
# Compressibility (1/GPa) = 0.11211339
#
# Stress axis : x y z
#
# Youngs Moduli (GPa) = 20.45587 41.12611 25.96600
#
# Poissons Ratio (x) = -0.35308 0.21915
# Poissons Ratio (y) = -0.17562 -0.00142
# Poissons Ratio (z) = 0.17264 -0.00225
#
# Static dielectric constant tensor:
#      x y z
#    x 1.865670 0.018220 0.041030 
#    y 0.018220 1.907110 0.027460 
#    z 0.041030 0.027460 1.844580 
# 
# From -- ./inp_files/195225.got.cif
#   From: 2010.05.17/outbox.cif.g08.bks.cpg/sg2_98_cif.got.tgz:195225.got - 2010.06.03 11:33:40.
