data_PCOD9071305
_publ_section_title
;
Structure prediction by ZEFSAII (Michael W. Deem and Ramdas Pophale) SiO2 
 PCOD9071305
Probable space group: P -1
;
_chemical_formula_sum "Si O2"
_cell_formula_units_Z 14
_cell_length_a 5.230914
_cell_length_b 11.504471
_cell_length_c 9.740447
_cell_angle_alpha 89.658211
_cell_angle_beta 68.240707
_cell_angle_gamma 103.430014
_cell_volume 526.760245
_symmetry_space_group_name_H-M "P -1"
_symmetry_group_IT_number 2
_symmetry_cell_setting 'triclinic'
loop_
_space_group_symop_operation_xyz
x,y,z
-x,-y,-z
loop_
_atom_site_type_symbol
_atom_site_label
_atom_site_fract_x
_atom_site_fract_y
_atom_site_fract_z
Si Si1 0.741774 0.387458 0.097076
Si Si2 0.079514 0.872484 0.459792
Si Si3 0.995695 0.616718 0.408184
Si Si4 0.215748 0.815810 0.716326
Si Si5 0.301714 0.220746 0.005546
Si Si6 0.499651 0.966407 0.157340
Si Si7 0.601588 0.594922 0.222658
O O1 0.774014 0.313954 0.229130
O O2 0.504258 0.461712 0.179248
O O3 0.603778 0.290041 0.009426
O O4 0.000000 0.500000 0.000000
O O5 0.902558 0.731422 0.493080
O O6 0.281048 0.856489 0.547333
O O7 0.213824 0.889610 0.282115
O O8 0.000000 0.000000 0.500000
O O9 0.331937 0.649316 0.302456
O O10 0.000000 0.500000 0.500000
O O11 0.787817 0.586072 0.319167
O O12 0.411598 0.917087 0.769599
O O13 0.900189 0.823208 0.824484
O O14 0.285068 0.117342 0.897530
O O15 0.212496 0.319765 0.930470
O O16 0.500000 0.000000 0.000000
#
# Coordination Sequence:
#
# PCOD9071305 Si02
#       7
#     2   2   2   2   2   2   2
#     4  12  26  47  80 120 166 209 277 342 418 495
#     4  12  30  50  81 120 166 212 279 346 419 493
#     4  12  29  53  82 119 167 222 276 342 425 504
#     4  12  28  49  81 116 162 215 274 345 417 492
#     4  12  26  47  79 116 157 212 273 336 411 493
#     4  12  26  51  80 112 158 215 277 338 414 494
#     4  12  27  47  83 114 164 213 275 336 412 495
#
# _framework density 26.577558
#
# number of rings (size 3 to 8) (size 9 to 14) (size 15 to 20)
#    0.000    0.000    4.286    4.286    8.000    1.143 
#    0.000    0.000    0.000    0.000    0.000    0.000 
#    0.000    0.000    0.000    0.000    0.000    0.000 
#
# Total GULP energy -78175.254987 kJ/mol
# GULP energy per Si atom -5583.946785 kJ/mol
# Density = 2.651707 g / cm^3
# Si number density = 26.577558 Si / 1000 Ang^3
#
#
#
# Elastic Constant Matrix: (Units=GPa)
#
#
# Indices 1 2 3 4 5 6 
#
# 1 85.5568 10.4623 13.7572 -17.4012 11.9864 -1.7366
# 2 10.4623 160.5894 26.8634 -7.5690 4.5477 -32.8315
# 3 13.7572 26.8634 104.0994 -17.6687 24.8875 -10.1241
# 4 -17.4012 -7.5690 -17.6687 52.0971 -7.7660 -0.7844
# 5 11.9864 4.5477 24.8875 -7.7660 49.4748 -3.0496
# 6 -1.7366 -32.8315 -10.1241 -0.7844 -3.0496 47.8274
#
#
#
# Elastic Compliance Matrix: (Units=1/GPa)
#
#
# Indices 1 2 3 4 5 6 
#
# 1 0.012901 -0.000550 -0.000384 0.003756 -0.002297 -0.000075
# 2 -0.000550 0.007510 -0.001424 0.000580 0.000551 0.004879
# 3 -0.000384 -0.001424 0.011892 0.002939 -0.005220 0.001241
# 4 0.003756 0.000580 0.002939 0.021713 0.001064 0.001581
# 5 -0.002297 0.000551 -0.005220 0.001064 0.023555 0.000709
# 6 -0.000075 0.004879 0.001241 0.001581 0.000709 0.024589
#
#
# Mechanical properties :
#
#
# Convention : Reuss Voigt Hill
#
# Bulk Modulus (GPa) = 36.24727 50.26791 43.25759
# Shear Modulus (GPa) = 43.07704 49.82402 46.45053
#
# Velocity S-wave (km/s) = 4.03029 4.33444 4.18513
# Velocity P-wave (km/s) = 5.94353 6.63359 6.29802
#
# Compressibility (1/GPa) = 0.02758828
#
# Stress axis : x y z
#
# Youngs Moduli (GPa) = 77.51209 133.15101 84.09036
#
# Poissons Ratio (x) = 0.07317 0.03227
# Poissons Ratio (y) = 0.04260 0.11976
# Poissons Ratio (z) = 0.02975 0.18964
#
# Static dielectric constant tensor:
#      x y z
#    x 2.333230 -0.261630 -0.231100 
#    y -0.261630 2.445280 0.178550 
#    z -0.231100 0.178550 2.254770 
# 
# From -- ./inp_files/130968.got.cif
#   From: 2010.05.17/outbox.cif.g08.bks.cpg/sg2_66_cif.got.tgz:130968.got - 2010.06.03 11:33:40.
