data_PCOD9071588
_publ_section_title
;
Structure prediction by ZEFSAII (Michael W. Deem and Ramdas Pophale) SiO2 
 PCOD9071588
Probable space group: P -1
;
_chemical_formula_sum "Si O2"
_cell_formula_units_Z 10
_cell_length_a 9.372098
_cell_length_b 9.501727
_cell_length_c 9.282567
_cell_angle_alpha 103.478855
_cell_angle_beta 108.737117
_cell_angle_gamma 30.813275
_cell_volume 399.426523
_symmetry_space_group_name_H-M "P -1"
_symmetry_group_IT_number 2
_symmetry_cell_setting 'triclinic'
loop_
_space_group_symop_operation_xyz
x,y,z
-x,-y,-z
loop_
_atom_site_type_symbol
_atom_site_label
_atom_site_fract_x
_atom_site_fract_y
_atom_site_fract_z
Si Si1 0.206045 0.774687 0.889647
Si Si2 0.595930 0.643899 0.308808
Si Si3 0.398461 0.108742 0.830304
Si Si4 0.242735 0.407976 0.346025
Si Si5 0.892683 0.153911 0.651163
O O1 0.172040 0.654089 0.758210
O O2 0.500000 0.500000 0.000000
O O3 0.167252 0.928798 0.792637
O O4 0.000000 0.000000 0.000000
O O5 0.482708 0.843094 0.195645
O O6 0.729226 0.623600 0.479894
O O7 0.346443 0.749573 0.324539
O O8 0.056192 0.403793 0.771932
O O9 0.504707 0.888849 0.714882
O O10 0.500000 0.000000 0.000000
O O11 0.239895 0.580710 0.351184
O O12 0.000000 0.000000 0.500000
#
# Coordination Sequence:
#
# PCOD9071588 Si02
#       5
#     2   2   2   2   2
#     4  12  28  45  76 115 160 196 253 318 392 442
#     4  12  28  51  80 115 157 208 260 313 386 467
#     4  12  31  51  77 112 158 204 258 318 390 456
#     4  12  28  50  78 110 156 206 257 314 383 462
#     4  12  27  50  82 118 153 200 265 320 382 464
#
# _framework density 25.035895
#
# number of rings (size 3 to 8) (size 9 to 14) (size 15 to 20)
#    0.000    0.000    4.000    3.600   11.200    0.000 
#    0.000    0.000    0.000    0.000    0.000    0.000 
#    0.000    0.000    0.000    0.000    0.000    0.000 
#
# Total GULP energy -56038.655327 kJ/mol
# GULP energy per Si atom -5603.865533 kJ/mol
# Density = 2.497891 g / cm^3
# Si number density = 25.035895 Si / 1000 Ang^3
#
#
#
# Elastic Constant Matrix: (Units=GPa)
#
#
# Indices 1 2 3 4 5 6 
#
# 1 130.5959 16.4818 14.6114 6.3188 -33.4164 10.3359
# 2 16.4818 137.4659 38.9862 14.6869 -26.2338 19.3900
# 3 14.6114 38.9862 188.6124 -1.1297 -28.3626 9.7013
# 4 6.3188 14.6869 -1.1297 67.9170 4.2825 7.5198
# 5 -33.4164 -26.2338 -28.3626 4.2825 35.9808 -9.1851
# 6 10.3359 19.3900 9.7013 7.5198 -9.1851 50.4253
#
#
#
# Elastic Compliance Matrix: (Units=1/GPa)
#
#
# Indices 1 2 3 4 5 6 
#
# 1 0.010386 0.000897 0.000663 -0.001802 0.010950 -0.000338
# 2 0.000897 0.009207 -0.000890 -0.002283 0.006603 -0.002010
# 3 0.000663 -0.000890 0.006162 -0.000059 0.004807 -0.000095
# 4 -0.001802 -0.002283 -0.000059 0.015996 -0.005849 -0.002192
# 5 0.010950 0.006603 0.004807 -0.005849 0.048272 0.003957
# 6 -0.000338 -0.002010 -0.000095 -0.002192 0.003957 0.021739
#
#
# Mechanical properties :
#
#
# Convention : Reuss Voigt Hill
#
# Bulk Modulus (GPa) = 36.90794 66.31476 51.61135
# Shear Modulus (GPa) = 41.85750 56.63762 49.24756
#
# Velocity S-wave (km/s) = 4.09332 4.76148 4.43999
# Velocity P-wave (km/s) = 6.09216 7.53487 6.85159
#
# Compressibility (1/GPa) = 0.02709444
#
# Stress axis : x y z
#
# Youngs Moduli (GPa) = 96.28614 108.61467 162.28873
#
# Poissons Ratio (x) = -0.09738 -0.10766
# Poissons Ratio (y) = -0.08633 0.14443
# Poissons Ratio (z) = -0.06387 0.09666
#
# Static dielectric constant tensor:
#      x y z
#    x 2.108370 -0.084700 0.050400 
#    y -0.084700 1.966710 -0.061850 
#    z 0.050400 -0.061850 1.979420 
# 
# From -- ./inp_files/57805.got.cif
#   From: 2010.05.17/outbox.cif.g08.bks.cpg/sg2_29_cif.got.tgz:57805.got - 2010.06.03 11:33:40.
