data_PCOD9071374
_publ_section_title
;
Structure prediction by ZEFSAII (Michael W. Deem and Ramdas Pophale) SiO2 
 PCOD9071374
Probable space group: P -1
;
_chemical_formula_sum "Si O2"
_cell_formula_units_Z 13
_cell_length_a 7.008896
_cell_length_b 12.856135
_cell_length_c 11.564214
_cell_angle_alpha 39.481392
_cell_angle_beta 112.975678
_cell_angle_gamma 127.199794
_cell_volume 521.714250
_symmetry_space_group_name_H-M "P -1"
_symmetry_group_IT_number 2
_symmetry_cell_setting 'triclinic'
loop_
_space_group_symop_operation_xyz
x,y,z
-x,-y,-z
loop_
_atom_site_type_symbol
_atom_site_label
_atom_site_fract_x
_atom_site_fract_y
_atom_site_fract_z
Si Si1 0.757314 0.112125 0.641130
Si Si2 0.728901 0.629455 0.361569
Si Si3 0.497087 0.665189 0.628772
Si Si4 0.480889 0.135156 0.973795
Si Si5 0.053148 0.010410 0.637795
Si Si6 0.970029 0.375487 0.986456
Si Si7 0.500000 0.500000 0.000000
O O1 0.595937 0.191313 0.482891
O O2 0.010676 0.292685 0.587712
O O3 0.836307 0.000628 0.668254
O O4 0.620709 0.975543 0.834316
O O5 0.500000 0.500000 0.500000
O O6 0.701155 0.516210 0.334096
O O7 0.707958 0.810595 0.165693
O O8 0.701906 0.785586 0.475543
O O9 0.612143 0.607167 0.810057
O O10 0.739132 0.331967 0.890861
O O11 0.500000 0.000000 0.000000
O O12 0.098363 0.842583 0.824165
O O13 0.000000 0.000000 0.500000
O O14 0.241634 0.475547 0.916766
O O15 0.000000 0.500000 0.000000
#
# Coordination Sequence:
#
# PCOD9071374 Si02
#       7
#     2   2   2   2   2   2   1
#     4  12  28  51  81 112 161 214 260 337 412 464
#     4  12  26  48  80 117 158 202 269 331 399 485
#     4  12  27  50  77 118 155 212 264 328 407 482
#     4  12  28  51  83 117 160 213 271 332 404 482
#     4  12  27  50  74 111 160 203 269 323 392 484
#     4  12  29  50  77 114 158 208 268 328 395 480
#     4  12  30  44  80 114 160 204 266 324 400 472
#
# _framework density 24.917853000000001
#
# number of rings (size 3 to 8) (size 9 to 14) (size 15 to 20)
#    0.000    0.000    4.615    3.692   10.769    0.615 
#    0.000    0.000    0.000    0.000    0.000    0.000 
#    0.000    0.000    0.000    0.000    0.000    0.000 
#
# Total GULP energy -72555.720144 kJ/mol
# GULP energy per Si atom -5581.209242 kJ/mol
# Density = 2.486114 g / cm^3
# Si number density = 24.917853 Si / 1000 Ang^3
#
#
#
# Elastic Constant Matrix: (Units=GPa)
#
#
# Indices 1 2 3 4 5 6 
#
# 1 141.4274 37.5746 25.3947 4.0774 -6.9041 -6.8498
# 2 37.5746 127.4213 -5.4936 0.7897 -0.5110 -15.9642
# 3 25.3947 -5.4936 115.6742 14.0175 7.0074 -23.3949
# 4 4.0774 0.7897 14.0175 30.1758 2.2859 3.1903
# 5 -6.9041 -0.5110 7.0074 2.2859 41.4541 -7.7894
# 6 -6.8498 -15.9642 -23.3949 3.1903 -7.7894 58.2401
#
#
#
# Elastic Compliance Matrix: (Units=1/GPa)
#
#
# Indices 1 2 3 4 5 6 
#
# 1 0.008183 -0.002536 -0.002063 -0.000169 0.001627 -0.000335
# 2 -0.002536 0.009040 0.001696 -0.000990 0.000005 0.002916
# 3 -0.002063 0.001696 0.010826 -0.005220 -0.000977 0.004726
# 4 -0.000169 -0.000990 -0.005220 0.036258 -0.002030 -0.004646
# 5 0.001627 0.000005 -0.000977 -0.002030 0.025290 0.003294
# 6 -0.000335 0.002916 0.004726 -0.004646 0.003294 0.020524
#
#
# Mechanical properties :
#
#
# Convention : Reuss Voigt Hill
#
# Bulk Modulus (GPa) = 44.95866 55.49718 50.22792
# Shear Modulus (GPa) = 40.53761 47.77716 44.15739
#
# Velocity S-wave (km/s) = 4.03780 4.38355 4.21422
# Velocity P-wave (km/s) = 6.31034 6.92395 6.62425
#
# Compressibility (1/GPa) = 0.02224266
#
# Stress axis : x y z
#
# Youngs Moduli (GPa) = 122.20343 110.61370 92.37050
#
# Poissons Ratio (x) = 0.28055 0.19053
# Poissons Ratio (y) = 0.30995 -0.15662
# Poissons Ratio (z) = 0.25206 -0.18755
#
# Static dielectric constant tensor:
#      x y z
#    x 1.979900 0.016610 -0.037970 
#    y 0.016610 2.047930 -0.012910 
#    z -0.037970 -0.012910 2.014650 
# 
# From -- ./inp_files/363584.got.cif
#   From: 2010.05.17/outbox.cif.g08.bks.cpg/sg2_182_cif.got.tgz:363584.got - 2010.06.03 11:33:40.
