data_PCOD9071107
_publ_section_title
;
Structure prediction by ZEFSAII (Michael W. Deem and Ramdas Pophale) SiO2 
 PCOD9071107
Probable space group: P -1
;
_chemical_formula_sum "Si O2"
_cell_formula_units_Z 13
_cell_length_a 9.742303
_cell_length_b 11.530766
_cell_length_c 8.446189
_cell_angle_alpha 34.809087
_cell_angle_beta 87.536871
_cell_angle_gamma 98.624155
_cell_volume 511.785427
_symmetry_space_group_name_H-M "P -1"
_symmetry_group_IT_number 2
_symmetry_cell_setting 'triclinic'
loop_
_space_group_symop_operation_xyz
x,y,z
-x,-y,-z
loop_
_atom_site_type_symbol
_atom_site_label
_atom_site_fract_x
_atom_site_fract_y
_atom_site_fract_z
Si Si1 0.930059 0.156481 0.738671
Si Si2 0.361626 0.056885 0.882397
Si Si3 0.380999 0.877605 0.770029
Si Si4 0.562884 0.589555 0.068267
Si Si5 0.500000 0.500000 0.500000
Si Si6 0.879931 0.867989 0.776533
Si Si7 0.058444 0.577777 0.086371
O O1 0.043161 0.380220 0.426482
O O2 0.865455 0.037830 0.712163
O O3 0.785418 0.143614 0.854842
O O4 0.000000 0.000000 0.000000
O O5 0.363418 0.275482 0.722391
O O6 0.368876 0.053766 0.696469
O O7 0.500000 0.000000 0.000000
O O8 0.500000 0.000000 0.500000
O O9 0.454523 0.705176 0.027082
O O10 0.222016 0.736538 0.881371
O O11 0.572810 0.453496 0.375680
O O12 0.500000 0.500000 0.000000
O O13 0.723591 0.746407 0.849958
O O14 0.000000 0.000000 0.500000
O O15 0.952924 0.698396 0.028510
O O16 0.000000 0.500000 0.000000
#
# Coordination Sequence:
#
# PCOD9071107 Si02
#       7
#     2   2   2   2   1   2   2
#     4  12  29  49  77 115 159 208 265 327 398 482
#     4  12  27  49  78 111 161 200 269 330 399 473
#     4  12  27  50  80 117 156 206 271 330 398 488
#     4  12  27  47  78 115 156 202 265 329 397 472
#     4  12  26  48  76 110 156 206 256 328 404 456
#     4  12  25  50  77 110 156 205 262 326 400 476
#     4  12  28  48  82 114 160 209 262 328 408 474
#
# _framework density 25.401271000000001
#
# number of rings (size 3 to 8) (size 9 to 14) (size 15 to 20)
#    0.000    0.000    4.615    3.692    6.462    2.462 
#    0.000    0.000    0.000    0.000    0.000    0.000 
#    0.000    0.000    0.000    0.000    0.000    0.000 
#
# Total GULP energy -72516.190942 kJ/mol
# GULP energy per Si atom -5578.168534 kJ/mol
# Density = 2.534346 g / cm^3
# Si number density = 25.401271 Si / 1000 Ang^3
#
#
#
# Elastic Constant Matrix: (Units=GPa)
#
#
# Indices 1 2 3 4 5 6 
#
# 1 118.5754 21.5128 33.4706 -11.0146 -25.8677 30.2523
# 2 21.5128 159.5113 55.6255 -6.5713 -39.9838 8.1455
# 3 33.4706 55.6255 149.7454 -1.2323 -27.8810 18.0389
# 4 -11.0146 -6.5713 -1.2323 43.6866 -4.3029 -13.0277
# 5 -25.8677 -39.9838 -27.8810 -4.3029 60.2389 -10.7319
# 6 30.2523 8.1455 18.0389 -13.0277 -10.7319 44.6010
#
#
#
# Elastic Compliance Matrix: (Units=1/GPa)
#
#
# Indices 1 2 3 4 5 6 
#
# 1 0.011100 0.000109 -0.001181 0.001361 0.003344 -0.005870
# 2 0.000109 0.008300 -0.002326 0.002013 0.004819 0.001099
# 3 -0.001181 -0.002326 0.008300 -0.000896 0.001359 -0.002066
# 4 0.001361 0.002013 -0.000896 0.026346 0.004799 0.007922
# 5 0.003344 0.004819 0.001359 0.004799 0.022774 0.003184
# 6 -0.005870 0.001099 -0.002066 0.007922 0.003184 0.030117
#
#
# Mechanical properties :
#
#
# Convention : Reuss Voigt Hill
#
# Bulk Modulus (GPa) = 47.83545 72.11662 59.97604
# Shear Modulus (GPa) = 41.42398 50.85354 46.13876
#
# Velocity S-wave (km/s) = 4.04268 4.47923 4.26654
# Velocity P-wave (km/s) = 6.37682 7.42994 6.92343
#
# Compressibility (1/GPa) = 0.02090500
#
# Stress axis : x y z
#
# Youngs Moduli (GPa) = 90.08696 120.47567 120.47472
#
# Poissons Ratio (x) = -0.01309 0.14223
# Poissons Ratio (y) = -0.00978 0.28024
# Poissons Ratio (z) = 0.10636 0.28025
#
# Static dielectric constant tensor:
#      x y z
#    x 2.129170 -0.045330 0.302590 
#    y -0.045330 2.063710 -0.002250 
#    z 0.302590 -0.002250 2.719070 
# 
# From -- ./inp_files/183461.got.cif
#   From: 2010.05.17/outbox.cif.g08.bks.cpg/sg2_92_cif.got.tgz:183461.got - 2010.06.03 11:33:40.
