data_PCOD9071969
_publ_section_title
;
Structure prediction by ZEFSAII (Michael W. Deem and Ramdas Pophale) SiO2 
 PCOD9071969
Probable space group: P -1
;
_chemical_formula_sum "Si O2"
_cell_formula_units_Z 16
_cell_length_a 15.866370
_cell_length_b 11.204888
_cell_length_c 7.324325
_cell_angle_alpha 107.370512
_cell_angle_beta 79.428460
_cell_angle_gamma 150.238505
_cell_volume 608.957043
_symmetry_space_group_name_H-M "P -1"
_symmetry_group_IT_number 2
_symmetry_cell_setting 'triclinic'
loop_
_space_group_symop_operation_xyz
x,y,z
-x,-y,-z
loop_
_atom_site_type_symbol
_atom_site_label
_atom_site_fract_x
_atom_site_fract_y
_atom_site_fract_z
Si Si1 0.646723 0.022376 0.262511
Si Si2 0.399127 0.549453 0.664265
Si Si3 0.772497 0.062754 0.845962
Si Si4 0.915085 0.545891 0.299482
Si Si5 0.772213 0.803404 0.902902
Si Si6 0.086267 0.204165 0.413708
Si Si7 0.365159 0.257687 0.714110
Si Si8 0.638217 0.275985 0.991229
O O1 0.782727 0.303521 0.367874
O O2 0.664783 0.926978 0.341277
O O3 0.714094 0.056287 0.051988
O O4 0.449419 0.819924 0.218418
O O5 0.284178 0.468136 0.522603
O O6 0.352171 0.345212 0.601822
O O7 0.361258 0.578111 0.877386
O O8 0.599635 0.825517 0.691382
O O9 0.917571 0.311055 0.781504
O O10 0.832599 0.000276 0.852600
O O11 0.984092 0.748477 0.487882
O O12 0.809968 0.449136 0.109394
O O13 0.885928 0.829807 0.805406
O O14 0.568765 0.527041 0.810697
O O15 0.760070 0.836068 0.128770
O O16 0.000000 0.000000 0.500000
O O17 0.500000 0.000000 0.000000
#
# Coordination Sequence:
#
# PCOD9071969 Si02
#       8
#     2   2   2   2   2   2   2   2
#     4   9  17  31  53  74 104 144 179 215 259 314
#     4   9  19  33  55  81 102 140 178 219 266 313
#     4   9  16  29  50  79 103 133 178 225 258 302
#     4  10  18  30  49  79 110 137 171 224 271 307
#     4   9  17  32  53  78 105 138 173 216 259 311
#     4  11  21  35  53  82 111 135 173 224 275 316
#     4   9  18  34  58  77 105 139 185 217 252 318
#     4   8  15  27  46  74 106 135 170 216 264 305
#
# _framework density 26.274432000000001
#
# number of rings (size 3 to 8) (size 9 to 14) (size 15 to 20)
#    0.000    2.750    1.250    2.625    0.000    2.000 
#    0.000    1.250    5.500    3.000    0.000    1.750 
#    0.000    0.000    0.000    0.000    0.000    0.000 
#
# Total GULP energy -89206.531207 kJ/mol
# GULP energy per Si atom -5575.408200 kJ/mol
# Density = 2.621463 g / cm^3
# Si number density = 26.274432 Si / 1000 Ang^3
#
#
#
# Elastic Constant Matrix: (Units=GPa)
#
#
# Indices 1 2 3 4 5 6 
#
# 1 75.5484 25.6939 0.4934 1.2410 -0.7624 -9.5528
# 2 25.6939 100.3933 26.0510 11.3220 -0.7448 -4.2593
# 3 0.4934 26.0510 71.8824 -9.2704 -16.5823 -2.1876
# 4 1.2410 11.3220 -9.2704 39.6854 2.6154 -4.9512
# 5 -0.7624 -0.7448 -16.5823 2.6154 31.4221 10.2103
# 6 -9.5528 -4.2593 -2.1876 -4.9512 10.2103 47.2356
#
#
#
# Elastic Compliance Matrix: (Units=1/GPa)
#
#
# Indices 1 2 3 4 5 6 
#
# 1 0.015049 -0.004371 0.001803 0.001544 0.000155 0.002861
# 2 -0.004371 0.013151 -0.005945 -0.004827 -0.002554 0.000073
# 3 0.001803 -0.005945 0.018961 0.005322 0.009740 -0.000841
# 4 0.001544 -0.004827 0.005322 0.028216 -0.000665 0.003225
# 5 0.000155 -0.002554 0.009740 -0.000665 0.039692 -0.008397
# 6 0.002861 0.000073 -0.000841 0.003225 -0.008397 0.023870
#
#
# Mechanical properties :
#
#
# Convention : Reuss Voigt Hill
#
# Bulk Modulus (GPa) = 33.18482 39.14454 36.16468
# Shear Modulus (GPa) = 30.11839 36.70768 33.41304
#
# Velocity S-wave (km/s) = 3.38938 3.74182 3.56995
# Velocity P-wave (km/s) = 5.28911 5.79646 5.54859
#
# Compressibility (1/GPa) = 0.03013426
#
# Stress axis : x y z
#
# Youngs Moduli (GPa) = 66.44804 76.04141 52.73845
#
# Poissons Ratio (x) = 0.33238 -0.09507
# Poissons Ratio (y) = 0.29045 0.31355
# Poissons Ratio (z) = -0.11979 0.45209
#
# Static dielectric constant tensor:
#      x y z
#    x 2.090710 0.038210 -0.043120 
#    y 0.038210 2.058630 0.008820 
#    z -0.043120 0.008820 2.213940 
# 
# From -- ./inp_files/333141.got.cif
#   From: 2010.05.17/outbox.cif.g08.bks.cpg/sg2_167_cif.got.tgz:333141.got - 2010.06.03 11:33:40.
