data_PCOD9071298
_publ_section_title
;
Structure prediction by ZEFSAII (Michael W. Deem and Ramdas Pophale) SiO2 
 PCOD9071298
Probable space group: P -1
;
_chemical_formula_sum "Si O2"
_cell_formula_units_Z 10
_cell_length_a 11.864735
_cell_length_b 12.121337
_cell_length_c 16.418951
_cell_angle_alpha 27.081486
_cell_angle_beta 153.150071
_cell_angle_gamma 157.633457
_cell_volume 375.413588
_symmetry_space_group_name_H-M "P -1"
_symmetry_group_IT_number 2
_symmetry_cell_setting 'triclinic'
loop_
_space_group_symop_operation_xyz
x,y,z
-x,-y,-z
loop_
_atom_site_type_symbol
_atom_site_label
_atom_site_fract_x
_atom_site_fract_y
_atom_site_fract_z
Si Si1 0.745122 0.225241 0.577281
Si Si2 0.190590 0.184821 0.322786
Si Si3 0.690780 0.956710 0.000916
Si Si4 0.729890 0.668266 0.960548
Si Si5 0.590335 0.730700 0.332223
O O1 0.524581 0.246968 0.480679
O O2 0.000000 0.500000 0.500000
O O3 0.500000 0.000000 0.500000
O O4 0.832454 0.015115 0.804093
O O5 0.328400 0.515346 0.233595
O O6 0.956250 0.059550 0.174976
O O7 0.952847 0.913662 0.413084
O O8 0.492500 0.600248 0.076132
O O9 0.915102 0.218597 0.903074
O O10 0.448791 0.013466 0.837382
O O11 0.500000 0.500000 0.000000
O O12 0.500000 0.500000 0.500000
#
# Coordination Sequence:
#
# PCOD9071298 Si02
#       5
#     2   2   2   2   2
#     4  12  26  47  79 111 152 196 259 307 380 462
#     4  12  26  49  78 106 153 200 257 313 373 457
#     4  12  26  49  75 111 153 200 258 305 383 458
#     4  12  28  46  77 113 158 197 246 322 385 445
#     4  12  28  47  78 110 149 202 256 318 382 443
#
# _framework density 26.637287000000001
#
# number of rings (size 3 to 8) (size 9 to 14) (size 15 to 20)
#    0.000    0.000    2.000    7.200    5.600    0.000 
#    0.000    0.000    0.000    0.000    0.000    0.000 
#    0.000    0.000    0.000    0.000    0.000    0.000 
#
# Total GULP energy -55870.435117 kJ/mol
# GULP energy per Si atom -5587.043512 kJ/mol
# Density = 2.657666 g / cm^3
# Si number density = 26.637287 Si / 1000 Ang^3
#
#
#
# Elastic Constant Matrix: (Units=GPa)
#
#
# Indices 1 2 3 4 5 6 
#
# 1 167.0157 85.9565 61.9142 -16.0744 15.8611 31.3531
# 2 85.9565 209.3345 42.3224 -19.2325 0.4211 35.6383
# 3 61.9142 42.3224 105.0607 -16.1492 12.7937 6.7128
# 4 -16.0744 -19.2325 -16.1492 40.1226 1.3295 -10.9985
# 5 15.8611 0.4211 12.7937 1.3295 37.9104 0.2799
# 6 31.3531 35.6383 6.7128 -10.9985 0.2799 84.0789
#
#
#
# Elastic Compliance Matrix: (Units=1/GPa)
#
#
# Indices 1 2 3 4 5 6 
#
# 1 0.009544 -0.002718 -0.004016 0.000437 -0.002608 -0.002021
# 2 -0.002718 0.006430 -0.000872 0.001189 0.001329 -0.001491
# 3 -0.004016 -0.000872 0.013067 0.003688 -0.002859 0.001316
# 4 0.000437 0.001189 0.003688 0.027976 -0.002442 0.002706
# 5 -0.002608 0.001329 -0.002859 -0.002442 0.028503 0.000223
# 6 -0.002021 -0.001491 0.001316 0.002706 0.000223 0.013527
#
#
# Mechanical properties :
#
#
# Convention : Reuss Voigt Hill
#
# Bulk Modulus (GPa) = 72.30957 95.75523 84.03240
# Shear Modulus (GPa) = 42.06326 51.83689 46.95007
#
# Velocity S-wave (km/s) = 3.97812 4.41617 4.20285
# Velocity P-wave (km/s) = 6.95021 7.87586 7.42747
#
# Compressibility (1/GPa) = 0.01382943
#
# Stress axis : x y z
#
# Youngs Moduli (GPa) = 104.77990 155.52633 76.52715
#
# Poissons Ratio (x) = 0.42266 0.30731
# Poissons Ratio (y) = 0.28475 0.06676
# Poissons Ratio (z) = 0.42077 0.13568
#
# Static dielectric constant tensor:
#      x y z
#    x 2.200510 -0.027100 -0.130160 
#    y -0.027100 1.981910 0.005060 
#    z -0.130160 0.005060 1.897290 
# 
# From -- ./inp_files/378196.got.cif
#   From: 2010.05.17/outbox.cif.g08.bks.cpg/sg2_190_cif.got.tgz:378196.got - 2010.06.03 11:33:40.
