data_PCOD9071755
_publ_section_title
;
Structure prediction by ZEFSAII (Michael W. Deem and Ramdas Pophale) SiO2 
 PCOD9071755
Probable space group: P -1
;
_chemical_formula_sum "Si O2"
_cell_formula_units_Z 16
_cell_length_a 8.008863
_cell_length_b 9.122352
_cell_length_c 13.170708
_cell_angle_alpha 96.200753
_cell_angle_beta 144.654824
_cell_angle_gamma 93.359436
_cell_volume 535.097069
_symmetry_space_group_name_H-M "P -1"
_symmetry_group_IT_number 2
_symmetry_cell_setting 'triclinic'
loop_
_space_group_symop_operation_xyz
x,y,z
-x,-y,-z
loop_
_atom_site_type_symbol
_atom_site_label
_atom_site_fract_x
_atom_site_fract_y
_atom_site_fract_z
Si Si1 0.722164 0.643943 0.216300
Si Si2 0.599776 0.126981 0.872155
Si Si3 0.151573 0.694876 0.192875
Si Si4 0.769600 0.060564 0.488186
Si Si5 0.957289 0.375462 0.269206
Si Si6 0.399042 0.198342 0.099300
Si Si7 0.509608 0.530706 0.700189
Si Si8 0.711577 0.853099 0.622597
O O1 0.495140 0.751534 0.091960
O O2 0.603560 0.557118 0.256534
O O3 0.026815 0.769922 0.402152
O O4 0.800840 0.511402 0.177016
O O5 0.781694 0.222244 0.877250
O O6 0.298515 0.033427 0.656540
O O7 0.704148 0.984612 0.958962
O O8 0.198968 0.526033 0.190568
O O9 0.416494 0.763039 0.407471
O O10 0.847948 0.735968 0.076676
O O11 0.433503 0.064837 0.358096
O O12 0.876868 0.970160 0.626931
O O13 0.245800 0.468860 0.485009
O O14 0.102227 0.266283 0.263669
O O15 0.724851 0.258636 0.217298
O O16 0.429917 0.293517 0.226866
#
# Coordination Sequence:
#
# PCOD9071755 Si02
#       8
#     2   2   2   2   2   2   2   2
#     4  10  18  29  49  78 102 123 159 213 256 286
#     4  10  19  30  49  79 105 126 162 209 255 294
#     4   9  19  33  49  72 105 135 164 201 247 304
#     4  10  18  32  53  72 101 133 167 207 247 290
#     4  10  19  32  51  76 102 130 168 206 245 296
#     4  11  18  30  53  76 102 133 162 204 257 299
#     4   9  18  31  48  75 103 129 165 207 251 296
#     4   9  20  35  51  73 100 135 171 203 241 293
#
# _framework density 29.901115000000001
#
# number of rings (size 3 to 8) (size 9 to 14) (size 15 to 20)
#    0.000    2.250    0.000    5.625    0.000    0.500 
#    0.000    0.000    0.000   18.000    0.000    0.000 
#    0.000    0.000    0.000    0.000    0.000    0.000 
#
# Total GULP energy -89750.232644 kJ/mol
# GULP energy per Si atom -5609.389540 kJ/mol
# Density = 2.983306 g / cm^3
# Si number density = 29.901115 Si / 1000 Ang^3
#
#
#
# Elastic Constant Matrix: (Units=GPa)
#
#
# Indices 1 2 3 4 5 6 
#
# 1 111.2405 79.9466 18.0382 -16.1026 12.4196 -34.9780
# 2 79.9466 277.6090 54.3765 -40.1642 3.4144 -33.0588
# 3 18.0382 54.3765 124.2601 -34.2324 24.8979 -6.9390
# 4 -16.1026 -40.1642 -34.2324 76.2086 -10.9095 -2.3252
# 5 12.4196 3.4144 24.8979 -10.9095 39.5831 -11.7573
# 6 -34.9780 -33.0588 -6.9390 -2.3252 -11.7573 63.7085
#
#
#
# Elastic Compliance Matrix: (Units=1/GPa)
#
#
# Indices 1 2 3 4 5 6 
#
# 1 0.013226 -0.003064 0.000521 0.001251 -0.002278 0.005353
# 2 -0.003064 0.005212 -0.001797 0.001692 0.002510 0.001351
# 3 0.000521 -0.001797 0.010815 0.003135 -0.006089 -0.000478
# 4 0.001251 0.001692 0.003135 0.016186 0.002849 0.003023
# 5 -0.002278 0.002510 -0.006089 0.002849 0.031979 0.005394
# 6 0.005353 0.001351 -0.000478 0.003023 0.005394 0.020390
#
#
# Mechanical properties :
#
#
# Convention : Reuss Voigt Hill
#
# Bulk Modulus (GPa) = 48.60857 90.87024 69.73940
# Shear Modulus (GPa) = 44.11217 59.94992 52.03104
#
# Velocity S-wave (km/s) = 3.84509 4.48251 4.17598
# Velocity P-wave (km/s) = 6.00039 7.56616 6.82830
#
# Compressibility (1/GPa) = 0.02057251
#
# Stress axis : x y z
#
# Youngs Moduli (GPa) = 75.60778 191.88042 92.46038
#
# Poissons Ratio (x) = 0.58802 -0.04818
# Poissons Ratio (y) = 0.23170 0.16615
# Poissons Ratio (z) = -0.03940 0.34480
#
# Static dielectric constant tensor:
#      x y z
#    x 2.324980 -0.014800 0.038480 
#    y -0.014800 2.230590 -0.040000 
#    z 0.038480 -0.040000 2.380350 
# 
# From -- ./inp_files/217066.got.cif
#   From: 2010.05.17/outbox.cif.g08.bks.cpg/sg2_109_cif.got.tgz:217066.got - 2010.06.03 11:33:40.
