data_PCOD9071571
_publ_section_title
;
Structure prediction by ZEFSAII (Michael W. Deem and Ramdas Pophale) SiO2 
 PCOD9071571
Probable space group: P -1
;
_chemical_formula_sum "Si O2"
_cell_formula_units_Z 10
_cell_length_a 8.524623
_cell_length_b 5.228134
_cell_length_c 15.294769
_cell_angle_alpha 102.249056
_cell_angle_beta 39.109549
_cell_angle_gamma 82.334574
_cell_volume 367.836349
_symmetry_space_group_name_H-M "P -1"
_symmetry_group_IT_number 2
_symmetry_cell_setting 'triclinic'
loop_
_space_group_symop_operation_xyz
x,y,z
-x,-y,-z
loop_
_atom_site_type_symbol
_atom_site_label
_atom_site_fract_x
_atom_site_fract_y
_atom_site_fract_z
Si Si1 0.632267 0.880947 0.337119
Si Si2 0.113309 0.876007 0.536499
Si Si3 0.328222 0.925152 0.852848
Si Si4 0.182494 0.443697 0.266711
Si Si5 0.276559 0.410413 0.045230
O O1 0.969316 0.683282 0.174882
O O2 0.500000 0.000000 0.500000
O O3 0.452233 0.712959 0.382224
O O4 0.572330 0.085021 0.291050
O O5 0.976767 0.206295 0.663396
O O6 0.000000 0.000000 0.500000
O O7 0.998245 0.662708 0.604774
O O8 0.532256 0.650805 0.808013
O O9 0.356968 0.187453 0.912794
O O10 0.000000 0.000000 0.000000
O O11 0.216876 0.269387 0.148196
O O12 0.500000 0.500000 0.000000
#
# Coordination Sequence:
#
# PCOD9071571 Si02
#       5
#     2   2   2   2   2
#     4  12  28  49  83 122 164 216 283 346 410 498
#     4  12  27  49  82 120 166 212 279 350 415 484
#     4  12  29  48  81 121 168 223 278 345 421 503
#     4  12  27  51  82 117 165 220 276 342 417 498
#     4  12  28  53  83 121 171 222 277 344 427 502
#
# _framework density 27.186002999999999
#
# number of rings (size 3 to 8) (size 9 to 14) (size 15 to 20)
#    0.000    0.000    4.000    4.200    5.600    0.800 
#    0.000    0.000    0.000    0.000    0.000    0.000 
#    0.000    0.000    0.000    0.000    0.000    0.000 
#
# Total GULP energy -55885.539082 kJ/mol
# GULP energy per Si atom -5588.553908 kJ/mol
# Density = 2.712413 g / cm^3
# Si number density = 27.186003 Si / 1000 Ang^3
#
#
#
# Elastic Constant Matrix: (Units=GPa)
#
#
# Indices 1 2 3 4 5 6 
#
# 1 184.0655 48.0662 57.4647 7.6628 -20.3367 -11.4065
# 2 48.0662 101.6917 50.1617 9.0626 -1.4650 11.6147
# 3 57.4647 50.1617 109.7529 1.0257 -2.3368 -3.7205
# 4 7.6628 9.0626 1.0257 52.2418 -7.0777 -4.5970
# 5 -20.3367 -1.4650 -2.3368 -7.0777 88.2632 -15.3358
# 6 -11.4065 11.6147 -3.7205 -4.5970 -15.3358 47.2414
#
#
#
# Elastic Compliance Matrix: (Units=1/GPa)
#
#
# Indices 1 2 3 4 5 6 
#
# 1 0.007276 -0.002475 -0.002539 -0.000061 0.002054 0.002826
# 2 -0.002475 0.014590 -0.005566 -0.002758 -0.001639 -0.005423
# 3 -0.002539 -0.005566 0.013040 0.001267 0.000107 0.001940
# 4 -0.000061 -0.002758 0.001267 0.020204 0.002192 0.003441
# 5 0.002054 -0.001639 0.000107 0.002192 0.012875 0.005300
# 6 0.002826 -0.005423 0.001940 0.003441 0.005300 0.025392
#
#
# Mechanical properties :
#
#
# Convention : Reuss Voigt Hill
#
# Bulk Modulus (GPa) = 72.73156 78.54391 75.63773
# Shear Modulus (GPa) = 41.97464 53.53710 47.75587
#
# Velocity S-wave (km/s) = 3.93361 4.44248 4.19577
# Velocity P-wave (km/s) = 6.88785 7.43426 7.16626
#
# Compressibility (1/GPa) = 0.01374919
#
# Stress axis : x y z
#
# Youngs Moduli (GPa) = 137.43192 68.53820 76.68467
#
# Poissons Ratio (x) = 0.16962 0.19467
# Poissons Ratio (y) = 0.34013 0.42680
# Poissons Ratio (z) = 0.34887 0.38146
#
# Static dielectric constant tensor:
#      x y z
#    x 2.191550 0.097110 0.115420 
#    y 0.097110 2.250240 0.180950 
#    z 0.115420 0.180950 2.673980 
# 
# From -- ./inp_files/486565.got.cif
#   From: 2010.05.17/outbox.cif.g08.bks.cpg/sg2_244_cif.got.tgz:486565.got - 2010.06.03 11:33:40.
