data_PCOD9071208
_publ_section_title
;
Structure prediction by ZEFSAII (Michael W. Deem and Ramdas Pophale) SiO2 
 PCOD9071208
Probable space group: P -1
;
_chemical_formula_sum "Si O2"
_cell_formula_units_Z 14
_cell_length_a 15.299705
_cell_length_b 7.957538
_cell_length_c 8.305840
_cell_angle_alpha 77.023915
_cell_angle_beta 45.409622
_cell_angle_gamma 59.938956
_cell_volume 609.870068
_symmetry_space_group_name_H-M "P -1"
_symmetry_group_IT_number 2
_symmetry_cell_setting 'triclinic'
loop_
_space_group_symop_operation_xyz
x,y,z
-x,-y,-z
loop_
_atom_site_type_symbol
_atom_site_label
_atom_site_fract_x
_atom_site_fract_y
_atom_site_fract_z
Si Si1 0.352098 0.540358 0.250194
Si Si2 0.117086 0.861894 0.256619
Si Si3 0.654778 0.352779 0.397192
Si Si4 0.653651 0.806985 0.813061
Si Si5 0.775733 0.613359 0.037257
Si Si6 0.775967 0.936470 0.167324
Si Si7 0.942397 0.723807 0.297992
O O1 0.233586 0.680344 0.247175
O O2 0.330403 0.635100 0.433463
O O3 0.359928 0.328669 0.278373
O O4 0.500000 0.500000 0.000000
O O5 0.033938 0.804799 0.248920
O O6 0.000000 0.000000 0.500000
O O7 0.182987 0.979759 0.058166
O O8 0.500000 0.500000 0.500000
O O9 0.747149 0.442629 0.180720
O O10 0.687622 0.135667 0.343828
O O11 0.795144 0.807257 0.568606
O O12 0.695819 0.696527 0.954675
O O13 0.500000 0.000000 0.000000
O O14 0.722424 0.792959 0.195484
O O15 0.945307 0.512708 0.805667
O O16 0.903646 0.799652 0.150047
#
# Coordination Sequence:
#
# PCOD9071208 Si02
#       7
#     2   2   2   2   2   2   2
#     4  12  28  51  75 109 156 200 254 315 381 453
#     4  12  26  45  79 111 150 203 250 311 378 452
#     4  12  28  50  77 113 159 200 254 320 383 458
#     4  12  29  49  78 113 152 202 257 314 386 458
#     4  12  27  50  78 113 155 197 260 317 381 455
#     4  12  27  47  79 113 155 201 254 310 389 452
#     4  12  26  50  75 114 156 197 258 320 376 454
#
# _framework density 22.955711000000001
#
# number of rings (size 3 to 8) (size 9 to 14) (size 15 to 20)
#    0.000    0.000    2.857    5.571   14.000    0.571 
#    0.000    0.000    0.000    0.000    0.000    0.000 
#    0.000    0.000    0.000    0.000    0.000    0.000 
#
# Total GULP energy -78306.680054 kJ/mol
# GULP energy per Si atom -5593.334290 kJ/mol
# Density = 2.290346 g / cm^3
# Si number density = 22.955711 Si / 1000 Ang^3
#
#
#
# Elastic Constant Matrix: (Units=GPa)
#
#
# Indices 1 2 3 4 5 6 
#
# 1 90.3631 22.6540 21.0559 17.7164 14.3182 5.4787
# 2 22.6540 71.6371 32.3467 27.9636 2.7012 -0.8641
# 3 21.0559 32.3467 110.0114 15.6727 0.3401 -0.7083
# 4 17.7164 27.9636 15.6727 40.9579 -0.4799 3.8866
# 5 14.3182 2.7012 0.3401 -0.4799 51.0248 3.5392
# 6 5.4787 -0.8641 -0.7083 3.8866 3.5392 50.2554
#
#
#
# Elastic Compliance Matrix: (Units=1/GPa)
#
#
# Indices 1 2 3 4 5 6 
#
# 1 0.013256 -0.001937 -0.001419 -0.003821 -0.003578 -0.000951
# 2 -0.001937 0.021266 -0.004124 -0.012257 -0.000776 0.001521
# 3 -0.001419 -0.004124 0.010670 -0.000671 0.000522 0.000249
# 4 -0.003821 -0.012257 -0.000671 0.034972 0.002239 -0.002666
# 5 -0.003578 -0.000776 0.000522 0.002239 0.020748 -0.001250
# 6 -0.000951 0.001521 0.000249 -0.002666 -0.001250 0.020326
#
#
# Mechanical properties :
#
#
# Convention : Reuss Voigt Hill
#
# Bulk Modulus (GPa) = 33.07591 47.12499 40.10045
# Shear Modulus (GPa) = 34.18268 41.51131 37.84699
#
# Velocity S-wave (km/s) = 3.86303 4.25705 4.06482
# Velocity P-wave (km/s) = 5.85980 6.68854 6.28784
#
# Compressibility (1/GPa) = 0.03023349
#
# Stress axis : x y z
#
# Youngs Moduli (GPa) = 75.43666 47.02407 93.72425
#
# Poissons Ratio (x) = 0.09107 0.13295
# Poissons Ratio (y) = 0.14610 0.38649
# Poissons Ratio (z) = 0.10701 0.19392
#
# Static dielectric constant tensor:
#      x y z
#    x 1.812810 0.082810 -0.033920 
#    y 0.082810 1.924020 0.032260 
#    z -0.033920 0.032260 1.815670 
# 
# From -- ./inp_files/295381.got.cif
#   From: 2010.05.17/outbox.cif.g08.bks.cpg/sg2_148_cif.got.tgz:295381.got - 2010.06.03 11:33:40.
