data_PCOD9071995
_publ_section_title
;
Structure prediction by ZEFSAII (Michael W. Deem and Ramdas Pophale) SiO2 
 PCOD9071995
Probable space group: P -1
;
_chemical_formula_sum "Si O2"
_cell_formula_units_Z 16
_cell_length_a 12.000000
_cell_length_b 12.000000
_cell_length_c 15.000000
_cell_angle_alpha 140.000000
_cell_angle_beta 90.000000
_cell_angle_gamma 60.000000
_cell_volume 872.532825
_symmetry_space_group_name_H-M "P -1"
_symmetry_group_IT_number 2
_symmetry_cell_setting 'triclinic'
loop_
_space_group_symop_operation_xyz
x,y,z
-x,-y,-z
loop_
_atom_site_type_symbol
_atom_site_label
_atom_site_fract_x
_atom_site_fract_y
_atom_site_fract_z
Si Si1 0.636174 0.233895 0.770765
Si Si2 0.548341 0.135479 0.280739
Si Si3 0.093477 0.182761 0.258146
Si Si4 0.456340 0.604208 0.837422
Si Si5 0.968733 0.181453 0.449033
Si Si6 0.663845 0.318728 0.491420
Si Si7 0.347186 0.269728 0.103855
Si Si8 0.739497 0.757454 0.574550
O O1 0.537140 0.367987 0.760028
O O2 0.834210 0.075897 0.668399
O O3 0.676275 0.992125 0.657081
O O4 0.500000 0.500000 0.000000
O O5 0.670042 0.135427 0.324034
O O6 0.406746 0.425338 0.403732
O O7 0.421941 0.176540 0.370004
O O8 0.660882 0.862201 0.055424
O O9 0.013176 0.190862 0.353154
O O10 0.199768 0.222011 0.320144
O O11 0.925459 0.439188 0.355052
O O12 0.248915 0.886636 0.029219
O O13 0.510182 0.481203 0.664011
O O14 0.567111 0.650994 0.879442
O O15 0.853524 0.145636 0.423392
O O16 0.835311 0.469660 0.682157
O O17 0.500000 0.000000 0.000000
#
# Coordination Sequence:
#
# PCOD9071995 Si02
#       8
#     2   2   2   2   2   2   2   2
#     4  11  21  35  59  90 120 148 190 246 296 333
#     4  11  19  38  56  84 121 155 189 239 292 343
#     4  10  18  32  61  86 114 143 193 248 287 330
#     4  11  21  37  58  91 116 152 192 243 292 342
#     4  10  20  35  59  89 113 150 193 239 290 342
#     4  10  23  34  58  83 122 154 191 235 295 344
#     4  11  19  33  60  87 114 147 195 238 284 336
#     4  10  19  31  59  86 111 151 192 236 291 336
#
# _framework density 18.337419000000001
#
# number of rings (size 3 to 8) (size 9 to 14) (size 15 to 20)
#    0.000    1.500    7.500    0.000    3.500    2.000 
#    0.000    1.250    5.500    6.750    0.000    0.000 
#    0.000    0.000    0.000    0.000    0.000    0.000 
#
# Total GULP energy -89133.823038 kJ/mol
# GULP energy per Si atom -5570.863940 kJ/mol
# Density = 1.829568 g / cm^3
# Si number density = 18.337419 Si / 1000 Ang^3
#
#
#
# Elastic Constant Matrix: (Units=GPa)
#
#
# Indices 1 2 3 4 5 6 
#
# 1 61.3233 12.6190 39.6298 -0.9137 -8.6934 -1.4292
# 2 12.6190 58.5805 29.6850 22.7621 -2.2644 16.1639
# 3 39.6298 29.6850 131.6259 5.6391 -21.7462 -6.4396
# 4 -0.9137 22.7621 5.6391 29.4317 -6.6042 -0.8209
# 5 -8.6934 -2.2644 -21.7462 -6.6042 38.2622 -1.0610
# 6 -1.4292 16.1639 -6.4396 -0.8209 -1.0610 22.0518
#
#
#
# Elastic Compliance Matrix: (Units=1/GPa)
#
#
# Indices 1 2 3 4 5 6 
#
# 1 0.021231 -0.006638 -0.004395 0.007545 0.003385 0.005402
# 2 -0.006638 0.055070 -0.013250 -0.044899 -0.014834 -0.047051
# 3 -0.004395 -0.013250 0.013498 0.009704 0.007955 0.014113
# 4 0.007545 -0.044899 0.009704 0.072258 0.018148 0.039796
# 5 0.003385 -0.014834 0.007955 0.018148 0.034116 0.015733
# 6 0.005402 -0.047051 0.014113 0.039796 0.015733 0.086546
#
#
# Mechanical properties :
#
#
# Convention : Reuss Voigt Hill
#
# Bulk Modulus (GPa) = 24.25247 46.15526 35.20387
# Shear Modulus (GPa) = 14.49148 29.25553 21.87350
#
# Velocity S-wave (km/s) = 2.81422 3.99858 3.45749
# Velocity P-wave (km/s) = 4.87998 6.82223 5.93115
#
# Compressibility (1/GPa) = 0.04123291
#
# Stress axis : x y z
#
# Youngs Moduli (GPa) = 47.10001 18.15872 74.08609
#
# Poissons Ratio (x) = 0.12053 0.32561
# Poissons Ratio (y) = 0.31264 0.98166
# Poissons Ratio (z) = 0.20701 0.24061
#
# Static dielectric constant tensor:
#      x y z
#    x 1.654030 0.015790 0.002020 
#    y 0.015790 1.713760 -0.024450 
#    z 0.002020 -0.024450 1.643810 
# 
# From -- ./inp_files/519911.got.cif
#   From: 2010.05.17/outbox.ucp.g08.bks.cvg/sg2_260_cif.got.tgz:519911.got - 2010.06.11 11:32:03.
