data_PCOD9071495
_publ_section_title
;
Structure prediction by ZEFSAII (Michael W. Deem and Ramdas Pophale) SiO2 
 PCOD9071495
Probable space group: P -1
;
_chemical_formula_sum "Si O2"
_cell_formula_units_Z 13
_cell_length_a 14.701713
_cell_length_b 6.589524
_cell_length_c 5.703616
_cell_angle_alpha 94.359133
_cell_angle_beta 91.820499
_cell_angle_gamma 103.872083
_cell_volume 534.169316
_symmetry_space_group_name_H-M "P -1"
_symmetry_group_IT_number 2
_symmetry_cell_setting 'triclinic'
loop_
_space_group_symop_operation_xyz
x,y,z
-x,-y,-z
loop_
_atom_site_type_symbol
_atom_site_label
_atom_site_fract_x
_atom_site_fract_y
_atom_site_fract_z
Si Si1 0.400463 0.406155 0.606278
Si Si2 0.491163 0.884211 0.238179
Si Si3 0.219145 0.283127 0.273099
Si Si4 0.079141 0.192507 0.624862
Si Si5 0.689654 0.351871 0.016084
Si Si6 0.000000 0.500000 0.000000
Si Si7 0.836162 0.097716 0.080925
O O1 0.500000 0.500000 0.500000
O O2 0.427102 0.238950 0.768084
O O3 0.317730 0.305440 0.413823
O O4 0.365928 0.575054 0.771098
O O5 0.385764 0.739886 0.199198
O O6 0.500000 0.000000 0.500000
O O7 0.500000 0.000000 0.000000
O O8 0.139194 0.333702 0.437727
O O9 0.239105 0.448627 0.076999
O O10 0.178906 0.046497 0.164866
O O11 0.149507 0.068070 0.739350
O O12 0.038140 0.336241 0.810460
O O13 0.000000 0.000000 0.500000
O O14 0.745262 0.189109 0.100481
O O15 0.924415 0.294904 0.089062
#
# Coordination Sequence:
#
# PCOD9071495 Si02
#       7
#     2   2   2   2   2   1   2
#     4  12  26  52  79 118 167 225 283 349 427 512
#     4  12  28  49  82 119 164 226 289 357 428 514
#     4  12  27  51  82 117 169 217 280 355 421 514
#     4  12  29  55  86 121 167 215 282 348 436 526
#     4  12  29  50  81 118 167 222 284 351 430 515
#     4  12  26  54  84 116 158 208 276 344 426 510
#     4  12  28  50  80 123 161 215 277 352 426 521
#
# _framework density 24.336852
#
# number of rings (size 3 to 8) (size 9 to 14) (size 15 to 20)
#    0.000    0.000    3.077    5.538    8.615    3.077 
#    2.769    0.000    0.000    0.000    0.000    0.000 
#    0.000    0.000    0.000    0.000    0.000    0.000 
#
# Total GULP energy -72601.670366 kJ/mol
# GULP energy per Si atom -5584.743874 kJ/mol
# Density = 2.428146 g / cm^3
# Si number density = 24.336852 Si / 1000 Ang^3
#
#
#
# Elastic Constant Matrix: (Units=GPa)
#
#
# Indices 1 2 3 4 5 6 
#
# 1 95.4969 35.9079 55.5267 5.3847 -19.5786 -10.0168
# 2 35.9079 126.8699 54.6543 15.2461 -6.9439 -1.7797
# 3 55.5267 54.6543 118.4253 11.5431 -12.8551 -11.5629
# 4 5.3847 15.2461 11.5431 37.1955 1.8825 -6.9696
# 5 -19.5786 -6.9439 -12.8551 1.8825 60.2827 8.2304
# 6 -10.0168 -1.7797 -11.5629 -6.9696 8.2304 63.0318
#
#
#
# Elastic Compliance Matrix: (Units=1/GPa)
#
#
# Indices 1 2 3 4 5 6 
#
# 1 0.015349 -0.001578 -0.006044 0.000293 0.003386 0.000876
# 2 -0.001578 0.010328 -0.003821 -0.003012 0.000094 -0.001005
# 3 -0.006044 -0.003821 0.013337 -0.001495 0.000328 0.001170
# 4 0.000293 -0.003012 -0.001495 0.029232 -0.001916 0.003170
# 5 0.003386 0.000094 0.000328 -0.001916 0.018098 -0.001974
# 6 0.000876 -0.001005 0.001170 0.003170 -0.001974 0.016799
#
#
# Mechanical properties :
#
#
# Convention : Reuss Voigt Hill
#
# Bulk Modulus (GPa) = 62.00513 70.33000 66.16757
# Shear Modulus (GPa) = 38.05076 45.08221 41.56649
#
# Velocity S-wave (km/s) = 3.95841 4.30865 4.13724
# Velocity P-wave (km/s) = 6.81360 7.32898 7.07598
#
# Compressibility (1/GPa) = 0.01612770
#
# Stress axis : x y z
#
# Youngs Moduli (GPa) = 65.15269 96.82699 74.98039
#
# Poissons Ratio (x) = 0.15281 0.45316
# Poissons Ratio (y) = 0.10282 0.28648
# Poissons Ratio (z) = 0.39377 0.36995
#
# Static dielectric constant tensor:
#      x y z
#    x 1.950410 0.046710 0.026050 
#    y 0.046710 1.967790 -0.023070 
#    z 0.026050 -0.023070 1.961870 
# 
# From -- ./inp_files/86026.got.cif
#   From: 2010.05.17/outbox.cif.g08.bks.cpg/sg2_44_cif.got.tgz:86026.got - 2010.06.03 11:33:40.
