data_PCOD9071734
_publ_section_title
;
Structure prediction by ZEFSAII (Michael W. Deem and Ramdas Pophale) SiO2 
 PCOD9071734
Probable space group: P -1
;
_chemical_formula_sum "Si O2"
_cell_formula_units_Z 16
_cell_length_a 8.001510
_cell_length_b 23.968871
_cell_length_c 11.990734
_cell_angle_alpha 38.391177
_cell_angle_beta 69.840736
_cell_angle_gamma 37.213733
_cell_volume 576.803881
_symmetry_space_group_name_H-M "P -1"
_symmetry_group_IT_number 2
_symmetry_cell_setting 'triclinic'
loop_
_space_group_symop_operation_xyz
x,y,z
-x,-y,-z
loop_
_atom_site_type_symbol
_atom_site_label
_atom_site_fract_x
_atom_site_fract_y
_atom_site_fract_z
Si Si1 0.515084 0.883076 0.572519
Si Si2 0.376058 0.693772 0.649131
Si Si3 0.104122 0.631637 0.509195
Si Si4 0.689935 0.732445 0.245058
Si Si5 0.438810 0.124369 0.175899
Si Si6 0.817553 0.197512 0.819686
Si Si7 0.320520 0.914598 0.342410
Si Si8 0.542915 0.535614 0.081791
O O1 0.344192 0.062674 0.316959
O O2 0.277876 0.934307 0.453772
O O3 0.989079 0.670475 0.752888
O O4 0.550288 0.836046 0.765779
O O5 0.534857 0.722363 0.559420
O O6 0.583210 0.511691 0.832638
O O7 0.920580 0.905379 0.372016
O O8 0.320100 0.697796 0.787160
O O9 0.022243 0.607191 0.459075
O O10 0.218684 0.679531 0.371581
O O11 0.651000 0.839826 0.347392
O O12 0.415533 0.460465 0.804405
O O13 0.545880 0.695092 0.320958
O O14 0.784001 0.731792 0.103723
O O15 0.257229 0.973122 0.011587
O O16 0.909748 0.119493 0.045666
#
# Coordination Sequence:
#
# PCOD9071734 Si02
#       8
#     2   2   2   2   2   2   2   2
#     4   9  19  31  52  75 111 144 173 223 271 324
#     4  10  19  33  54  77 114 139 178 224 269 327
#     4  10  20  30  50  78 110 138 178 223 268 321
#     4  10  18  29  49  75 104 140 171 222 270 309
#     4  10  18  34  51  79 111 138 181 220 274 321
#     4  10  18  29  48  77 109 135 173 231 272 306
#     4  10  18  31  51  80 109 137 176 224 275 319
#     4   9  20  36  52  80 109 144 178 219 274 326
#
# _framework density 27.739065
#
# number of rings (size 3 to 8) (size 9 to 14) (size 15 to 20)
#    0.000    2.250    1.250    4.500    3.500    2.500 
#    0.000    0.000    0.000    0.000    0.000   35.000 
#    7.500    0.000    0.000    0.000    0.000    0.000 
#
# Total GULP energy -89628.417918 kJ/mol
# GULP energy per Si atom -5601.776120 kJ/mol
# Density = 2.767593 g / cm^3
# Si number density = 27.739065 Si / 1000 Ang^3
#
#
#
# Elastic Constant Matrix: (Units=GPa)
#
#
# Indices 1 2 3 4 5 6 
#
# 1 173.2627 48.0508 68.5272 28.8971 18.5702 11.6958
# 2 48.0508 100.7966 44.9725 32.7932 0.1520 17.2760
# 3 68.5272 44.9725 163.3602 38.3874 38.6057 20.5227
# 4 28.8971 32.7932 38.3874 49.7290 15.5581 12.9949
# 5 18.5702 0.1520 38.6057 15.5581 51.9522 16.2121
# 6 11.6958 17.2760 20.5227 12.9949 16.2121 50.4942
#
#
#
# Elastic Compliance Matrix: (Units=1/GPa)
#
#
# Indices 1 2 3 4 5 6 
#
# 1 0.007499 -0.002412 -0.002080 -0.000984 -0.000991 0.000505
# 2 -0.002412 0.015258 -0.002320 -0.007799 0.006014 -0.003643
# 3 -0.002080 -0.002320 0.009639 -0.002953 -0.005491 -0.000119
# 4 -0.000984 -0.007799 -0.002953 0.030451 -0.005982 -0.001819
# 5 -0.000991 0.006014 -0.005491 -0.005982 0.027618 -0.006924
# 6 0.000505 -0.003643 -0.000119 -0.001819 -0.006924 0.023673
#
#
# Mechanical properties :
#
#
# Convention : Reuss Voigt Hill
#
# Bulk Modulus (GPa) = 53.26576 84.50229 68.88402
# Shear Modulus (GPa) = 37.30805 48.82634 43.06719
#
# Velocity S-wave (km/s) = 3.67135 4.20003 3.94456
# Velocity P-wave (km/s) = 6.10048 7.35185 6.75521
#
# Compressibility (1/GPa) = 0.01877379
#
# Stress axis : x y z
#
# Youngs Moduli (GPa) = 133.34533 65.53741 103.74354
#
# Poissons Ratio (x) = 0.15808 0.21578
# Poissons Ratio (y) = 0.32164 0.24064
# Poissons Ratio (z) = 0.27735 0.15202
#
# Static dielectric constant tensor:
#      x y z
#    x 2.137850 0.009640 0.030910 
#    y 0.009640 2.242080 -0.064360 
#    z 0.030910 -0.064360 2.111110 
# 
# From -- ./inp_files/256943.got.cif
#   From: 2010.05.17/outbox.cif.g08.bks.cpg/sg2_129_cif.got.tgz:256943.got - 2010.06.03 11:33:40.
