data_PCOD9071143
_publ_section_title
;
Structure prediction by ZEFSAII (Michael W. Deem and Ramdas Pophale) SiO2 
 PCOD9071143
Probable space group: P -1
;
_chemical_formula_sum "Si O2"
_cell_formula_units_Z 16
_cell_length_a 19.631310
_cell_length_b 9.417405
_cell_length_c 4.896743
_cell_angle_alpha 107.071960
_cell_angle_beta 95.914615
_cell_angle_gamma 42.893745
_cell_volume 580.229802
_symmetry_space_group_name_H-M "P -1"
_symmetry_group_IT_number 2
_symmetry_cell_setting 'triclinic'
loop_
_space_group_symop_operation_xyz
x,y,z
-x,-y,-z
loop_
_atom_site_type_symbol
_atom_site_label
_atom_site_fract_x
_atom_site_fract_y
_atom_site_fract_z
Si Si1 0.481358 0.239381 0.416785
Si Si2 0.701485 0.521454 0.873936
Si Si3 0.387788 0.950343 0.148873
Si Si4 0.129463 0.052269 0.999543
Si Si5 0.900403 0.195499 0.402036
Si Si6 0.791653 0.626841 0.360658
Si Si7 0.647508 0.323603 0.110883
Si Si8 0.083375 0.301949 0.632840
O O1 0.392442 0.291286 0.259406
O O2 0.428034 0.483920 0.591780
O O3 0.474428 0.878861 0.341039
O O4 0.576467 0.093549 0.171129
O O5 0.799789 0.337565 0.624270
O O6 0.731042 0.604768 0.142001
O O7 0.669827 0.424757 0.971783
O O8 0.281030 0.189633 0.331931
O O9 0.388254 0.770980 0.095387
O O10 0.057399 0.258676 0.877622
O O11 0.103546 0.921178 0.901151
O O12 0.243015 0.890037 0.837805
O O13 0.133405 0.103008 0.336032
O O14 0.886408 0.382619 0.386275
O O15 0.000000 0.000000 0.500000
O O16 0.838939 0.690375 0.260768
O O17 0.000000 0.500000 0.500000
#
# Coordination Sequence:
#
# PCOD9071143 Si02
#       8
#     2   2   2   2   2   2   2   2
#     4  12  27  50  79 120 158 214 270 324 400 483
#     4  12  27  50  79 113 168 209 271 328 398 482
#     4  12  30  46  84 115 162 211 268 330 402 469
#     4  12  26  50  83 111 155 211 262 330 394 475
#     4  12  29  51  83 117 161 215 271 325 405 488
#     4  12  30  50  76 121 164 208 265 337 402 475
#     4  12  25  51  79 118 157 214 270 329 389 484
#     4  12  29  51  81 117 158 205 268 340 405 466
#
# _framework density 27.575284
#
# number of rings (size 3 to 8) (size 9 to 14) (size 15 to 20)
#    0.000    0.000    5.000    2.625    8.750    1.500 
#    0.000    0.000    0.000    0.000    0.000    0.000 
#    0.000    0.000    0.000    0.000    0.000    0.000 
#
# Total GULP energy -89862.097316 kJ/mol
# GULP energy per Si atom -5616.381082 kJ/mol
# Density = 2.751252 g / cm^3
# Si number density = 27.575284 Si / 1000 Ang^3
#
#
#
# Elastic Constant Matrix: (Units=GPa)
#
#
# Indices 1 2 3 4 5 6 
#
# 1 104.2172 29.3808 46.9797 10.6539 17.1458 17.1473
# 2 29.3808 138.6479 45.1323 3.8386 9.1152 -0.8179
# 3 46.9797 45.1323 162.0599 9.8065 17.5259 14.0079
# 4 10.6539 3.8386 9.8065 50.3742 -1.0849 1.1750
# 5 17.1458 9.1152 17.5259 -1.0849 52.8095 0.3007
# 6 17.1473 -0.8179 14.0079 1.1750 0.3007 55.1114
#
#
#
# Elastic Compliance Matrix: (Units=1/GPa)
#
#
# Indices 1 2 3 4 5 6 
#
# 1 0.012354 -0.001599 -0.002419 -0.002009 -0.002955 -0.003194
# 2 -0.001599 0.008188 -0.001885 0.000050 -0.000274 0.001099
# 3 -0.002419 -0.001885 0.007710 -0.000849 -0.001459 -0.001209
# 4 -0.002009 0.000050 -0.000849 0.020457 0.001344 0.000398
# 5 -0.002955 -0.000274 -0.001459 0.001344 0.020448 0.001146
# 6 -0.003194 0.001099 -0.001209 0.000398 0.001146 0.019448
#
#
# Mechanical properties :
#
#
# Convention : Reuss Voigt Hill
#
# Bulk Modulus (GPa) = 60.80538 71.99007 66.39772
# Shear Modulus (GPa) = 47.21739 50.55451 48.88595
#
# Velocity S-wave (km/s) = 4.14249 4.28638 4.21505
# Velocity P-wave (km/s) = 6.70663 7.11764 6.91519
#
# Compressibility (1/GPa) = 0.01644591
#
# Stress axis : x y z
#
# Youngs Moduli (GPa) = 80.94824 122.12731 129.69679
#
# Poissons Ratio (x) = 0.19534 0.31367
# Poissons Ratio (y) = 0.12948 0.24449
# Poissons Ratio (z) = 0.19577 0.23022
#
# Static dielectric constant tensor:
#      x y z
#    x 2.128470 -0.030210 0.015250 
#    y -0.030210 2.213940 0.034920 
#    z 0.015250 0.034920 2.091200 
# 
# From -- ./inp_files/83960.got.cif
#   From: 2010.05.17/outbox.cif.g08.bks.cpg/sg2_42_cif.got.tgz:83960.got - 2010.06.03 11:33:40.
