data_PCOD9071033
_publ_section_title
;
Structure prediction by ZEFSAII (Michael W. Deem and Ramdas Pophale) SiO2 
 PCOD9071033
Probable space group: P -1
;
_chemical_formula_sum "Si O2"
_cell_formula_units_Z 16
_cell_length_a 8.747755
_cell_length_b 16.362753
_cell_length_c 12.313169
_cell_angle_alpha 127.363179
_cell_angle_beta 50.696908
_cell_angle_gamma 149.140865
_cell_volume 690.638385
_symmetry_space_group_name_H-M "P -1"
_symmetry_group_IT_number 2
_symmetry_cell_setting 'triclinic'
loop_
_space_group_symop_operation_xyz
x,y,z
-x,-y,-z
loop_
_atom_site_type_symbol
_atom_site_label
_atom_site_fract_x
_atom_site_fract_y
_atom_site_fract_z
Si Si1 0.847705 0.237797 0.827860
Si Si2 0.842880 0.745391 0.845673
Si Si3 0.167995 0.158036 0.293246
Si Si4 0.223733 0.003558 0.454807
Si Si5 0.724489 0.522725 0.992116
Si Si6 0.307009 0.004913 0.024049
Si Si7 0.118984 0.488917 0.717555
Si Si8 0.070553 0.641746 0.541132
O O1 0.768177 0.094248 0.701770
O O2 0.080781 0.325572 0.894986
O O3 0.995737 0.369436 0.775621
O O4 0.535274 0.154079 0.956735
O O5 0.941573 0.852767 0.785385
O O6 0.498199 0.628501 0.947484
O O7 0.055529 0.849184 0.937450
O O8 0.875516 0.643649 0.702369
O O9 0.511687 0.342251 0.306504
O O10 0.931772 0.094027 0.441123
O O11 0.181328 0.040175 0.189801
O O12 0.568287 0.185075 0.465588
O O13 0.000000 0.000000 0.500000
O O14 0.500000 0.500000 0.000000
O O15 0.944598 0.529589 0.837905
O O16 0.500000 0.000000 0.000000
O O17 0.029619 0.398090 0.571792
O O18 0.000000 0.500000 0.500000
#
# Coordination Sequence:
#
# PCOD9071033 Si02
#       8
#     2   2   2   2   2   2   2   2
#     4  12  25  49  75 102 152 190 240 295 360 426
#     4  12  27  47  74 108 144 195 241 295 362 424
#     4  12  27  48  75 108 148 190 242 293 363 428
#     4  12  29  47  76 107 144 192 239 297 364 429
#     4  12  26  45  75 110 146 193 242 295 359 426
#     4  12  26  47  74 105 149 191 240 304 356 422
#     4  12  27  47  75 109 147 191 237 302 356 428
#     4  12  29  49  74 107 146 186 243 301 358 431
#
# _framework density 23.166972999999999
#
# number of rings (size 3 to 8) (size 9 to 14) (size 15 to 20)
#    0.000    0.000    3.750    5.250   10.500    2.000 
#    0.000    0.000    0.000    0.000    0.000    0.000 
#    0.000    0.000    0.000    0.000    0.000    0.000 
#
# Total GULP energy -89683.168294 kJ/mol
# GULP energy per Si atom -5605.198018 kJ/mol
# Density = 2.311424 g / cm^3
# Si number density = 23.166973 Si / 1000 Ang^3
#
#
#
# Elastic Constant Matrix: (Units=GPa)
#
#
# Indices 1 2 3 4 5 6 
#
# 1 71.1846 32.5300 14.7477 24.8071 6.5240 -1.8177
# 2 32.5300 118.2407 59.4957 12.8984 15.1597 10.5844
# 3 14.7477 59.4957 102.8676 17.6822 13.2730 18.0398
# 4 24.8071 12.8984 17.6822 49.6109 2.3986 9.8746
# 5 6.5240 15.1597 13.2730 2.3986 40.2365 6.5823
# 6 -1.8177 10.5844 18.0398 9.8746 6.5823 39.7406
#
#
#
# Elastic Compliance Matrix: (Units=1/GPa)
#
#
# Indices 1 2 3 4 5 6 
#
# 1 0.019874 -0.005221 0.001319 -0.009848 -0.001832 0.004451
# 2 -0.005221 0.013538 -0.007009 0.001842 -0.001920 -0.000802
# 3 0.001319 -0.007009 0.015050 -0.003365 -0.001718 -0.003784
# 4 -0.009848 0.001842 -0.003365 0.026998 0.001444 -0.006361
# 5 -0.001832 -0.001920 -0.001718 0.001444 0.026945 -0.003614
# 6 0.004451 -0.000802 -0.003784 -0.006361 -0.003614 0.029477
#
#
# Mechanical properties :
#
#
# Convention : Reuss Voigt Hill
#
# Bulk Modulus (GPa) = 37.53934 56.20442 46.87188
# Shear Modulus (GPa) = 30.75331 38.28556 34.51943
#
# Velocity S-wave (km/s) = 3.64739 4.06962 3.86428
# Velocity P-wave (km/s) = 5.82897 6.81143 6.33927
#
# Compressibility (1/GPa) = 0.02663872
#
# Stress axis : x y z
#
# Youngs Moduli (GPa) = 50.31749 73.86786 66.44563
#
# Poissons Ratio (x) = 0.38563 -0.08762
# Poissons Ratio (y) = 0.26268 0.46575
# Poissons Ratio (z) = -0.06635 0.51778
#
# Static dielectric constant tensor:
#      x y z
#    x 1.883900 -0.037880 0.000270 
#    y -0.037880 1.900060 -0.013690 
#    z 0.000270 -0.013690 1.820660 
# 
# From -- ./inp_files/208371.got.cif
#   From: 2010.05.17/outbox.cif.g08.bks.cpg/sg2_105_cif.got.tgz:208371.got - 2010.06.03 11:33:40.
