data_PCOD9071083
_publ_section_title
;
Structure prediction by ZEFSAII (Michael W. Deem and Ramdas Pophale) SiO2 
 PCOD9071083
Probable space group: P -1
;
_chemical_formula_sum "Si O2"
_cell_formula_units_Z 16
_cell_length_a 14.026993
_cell_length_b 14.114212
_cell_length_c 14.502720
_cell_angle_alpha 29.320483
_cell_angle_beta 131.077934
_cell_angle_gamma 151.105804
_cell_volume 607.011376
_symmetry_space_group_name_H-M "P -1"
_symmetry_group_IT_number 2
_symmetry_cell_setting 'triclinic'
loop_
_space_group_symop_operation_xyz
x,y,z
-x,-y,-z
loop_
_atom_site_type_symbol
_atom_site_label
_atom_site_fract_x
_atom_site_fract_y
_atom_site_fract_z
Si Si1 0.637233 0.258678 0.127808
Si Si2 0.714945 0.334460 0.904468
Si Si3 0.471423 0.194230 0.327412
Si Si4 0.115294 0.030682 0.299164
Si Si5 0.097820 0.745437 0.676384
Si Si6 0.555648 0.551902 0.601036
Si Si7 0.211607 0.185280 0.858508
Si Si8 0.211265 0.846023 0.284051
O O1 0.806403 0.341117 0.224111
O O2 0.379386 0.908861 0.286461
O O3 0.678316 0.245517 0.062227
O O4 0.720592 0.585585 0.903801
O O5 0.712631 0.562718 0.700921
O O6 0.914386 0.474355 0.866128
O O7 0.500000 0.000000 0.000000
O O8 0.259192 0.018284 0.390831
O O9 0.662856 0.525431 0.230591
O O10 0.500000 0.000000 0.500000
O O11 0.398641 0.167199 0.200756
O O12 0.982608 0.775114 0.517529
O O13 0.978690 0.923439 0.215150
O O14 0.303514 0.101952 0.556576
O O15 0.500000 0.500000 0.500000
O O16 0.350843 0.286373 0.770631
O O17 0.140860 0.912557 0.106367
O O18 0.000000 0.500000 0.500000
#
# Coordination Sequence:
#
# PCOD9071083 Si02
#       8
#     2   2   2   2   2   2   2   2
#     4  12  27  53  80 123 178 212 292 366 417 516
#     4  12  26  46  78 122 173 221 285 348 425 513
#     4  12  28  55  85 121 169 219 286 364 431 508
#     4  12  28  53  88 122 170 223 278 361 437 509
#     4  12  26  50  85 123 170 229 284 342 435 517
#     4  12  25  49  82 124 178 222 278 350 428 516
#     4  12  28  55  85 127 173 222 287 361 428 521
#     4  12  29  54  88 118 166 227 286 356 439 498
#
# _framework density 26.358649
#
# number of rings (size 3 to 8) (size 9 to 14) (size 15 to 20)
#    0.000    0.000    5.000    3.375    5.250    3.500 
#    0.000    0.000    0.000    0.000    0.000    0.000 
#    0.000    0.000    0.000    0.000    0.000    0.000 
#
# Total GULP energy -89421.300266 kJ/mol
# GULP energy per Si atom -5588.831267 kJ/mol
# Density = 2.629866 g / cm^3
# Si number density = 26.358649 Si / 1000 Ang^3
#
#
#
# Elastic Constant Matrix: (Units=GPa)
#
#
# Indices 1 2 3 4 5 6 
#
# 1 96.9844 35.7836 78.9727 3.7368 11.2446 27.4707
# 2 35.7836 160.8951 70.6693 35.9117 -10.8815 -7.1804
# 3 78.9727 70.6693 147.3091 36.0165 -16.5555 11.4492
# 4 3.7368 35.9117 36.0165 47.3703 7.9136 -2.0328
# 5 11.2446 -10.8815 -16.5555 7.9136 43.1336 2.7982
# 6 27.4707 -7.1804 11.4492 -2.0328 2.7982 56.8766
#
#
#
# Elastic Compliance Matrix: (Units=1/GPa)
#
#
# Indices 1 2 3 4 5 6 
#
# 1 0.039035 -0.004710 -0.026528 0.024362 -0.025237 -0.011996
# 2 -0.004710 0.009304 0.000226 -0.007541 0.004857 0.002895
# 3 -0.026528 0.000226 0.028663 -0.023312 0.021916 0.005160
# 4 0.024362 -0.007541 -0.023312 0.046659 -0.025430 -0.005107
# 5 -0.025237 0.004857 0.021916 -0.025430 0.043720 0.005331
# 6 -0.011996 0.002895 0.005160 -0.005107 0.005331 0.022258
#
#
# Mechanical properties :
#
#
# Convention : Reuss Voigt Hill
#
# Bulk Modulus (GPa) = 66.75744 86.22665 76.49205
# Shear Modulus (GPa) = 19.48143 44.12697 31.80420
#
# Velocity S-wave (km/s) = 2.72157 4.09601 3.47738
# Velocity P-wave (km/s) = 5.93780 7.42655 6.72351
#
# Compressibility (1/GPa) = 0.01497960
#
# Stress axis : x y z
#
# Youngs Moduli (GPa) = 25.61824 107.47654 34.88783
#
# Poissons Ratio (x) = 0.50616 0.92549
# Poissons Ratio (y) = 0.12065 -0.00788
# Poissons Ratio (z) = 0.67959 -0.02427
#
# Static dielectric constant tensor:
#      x y z
#    x 2.354320 -0.216410 -0.427350 
#    y -0.216410 2.303650 0.414890 
#    z -0.427350 0.414890 2.778130 
# 
# From -- ./inp_files/534138.got.cif
#   From: 2010.05.17/outbox.cif.g08.bks.cpg/sg2_268_cif.got.tgz:534138.got - 2010.06.03 11:33:40.
