data_PCOD9071831
_publ_section_title
;
Structure prediction by ZEFSAII (Michael W. Deem and Ramdas Pophale) SiO2 
 PCOD9071831
Probable space group: P -1
;
_chemical_formula_sum "Si O2"
_cell_formula_units_Z 16
_cell_length_a 13.260433
_cell_length_b 11.439539
_cell_length_c 13.901304
_cell_angle_alpha 140.866248
_cell_angle_beta 30.176300
_cell_angle_gamma 129.027849
_cell_volume 663.417227
_symmetry_space_group_name_H-M "P -1"
_symmetry_group_IT_number 2
_symmetry_cell_setting 'triclinic'
loop_
_space_group_symop_operation_xyz
x,y,z
-x,-y,-z
loop_
_atom_site_type_symbol
_atom_site_label
_atom_site_fract_x
_atom_site_fract_y
_atom_site_fract_z
Si Si1 0.757721 0.369351 0.114895
Si Si2 0.117243 0.335156 0.502335
Si Si3 0.963868 0.956986 0.112522
Si Si4 0.163058 0.227986 0.609662
Si Si5 0.424607 0.850874 0.719356
Si Si6 0.471056 0.578010 0.337136
Si Si7 0.251796 0.353959 0.996782
Si Si8 0.920233 0.719268 0.709168
O O1 0.810651 0.555353 0.244973
O O2 0.594440 0.288710 0.264545
O O3 0.652385 0.438417 0.146319
O O4 0.952413 0.220736 0.834365
O O5 0.145524 0.220896 0.504564
O O6 0.267770 0.492754 0.473283
O O7 0.161837 0.230149 0.297581
O O8 0.895452 0.451844 0.759250
O O9 0.896115 0.159540 0.343104
O O10 0.186775 0.924610 0.954790
O O11 0.837706 0.783782 0.096770
O O12 0.000000 0.000000 0.000000
O O13 0.356233 0.087318 0.397263
O O14 0.461106 0.761887 0.527267
O O15 0.531909 0.612764 0.200541
O O16 0.233988 0.270729 0.065510
O O17 0.000000 0.500000 0.500000
#
# Coordination Sequence:
#
# PCOD9071831 Si02
#       8
#     2   2   2   2   2   2   2   2
#     4  10  18  30  52  91 126 150 194 234 284 341
#     4  11  18  36  59  88 123 156 192 241 290 342
#     4  10  21  41  62  83 116 154 197 246 296 341
#     4  10  18  29  53  86 122 156 189 238 280 341
#     4  11  20  32  56  89 119 152 193 242 291 339
#     4  11  19  30  60  94 122 152 194 238 289 343
#     4  10  20  37  61  89 118 154 196 247 286 339
#     4   9  22  40  65  81 112 160 198 240 301 350
#
# _framework density 24.117550999999999
#
# number of rings (size 3 to 8) (size 9 to 14) (size 15 to 20)
#    0.000    1.750    5.000    0.750    3.500    0.500 
#    0.000    3.125    5.500    0.750    0.000    0.000 
#    0.000    0.000    0.000    0.000    0.000    0.000 
#
# Total GULP energy -89135.277739 kJ/mol
# GULP energy per Si atom -5570.954859 kJ/mol
# Density = 2.406266 g / cm^3
# Si number density = 24.117551 Si / 1000 Ang^3
#
#
#
# Elastic Constant Matrix: (Units=GPa)
#
#
# Indices 1 2 3 4 5 6 
#
# 1 96.7172 -6.4922 33.5909 -6.0605 19.2453 -18.5430
# 2 -6.4922 11.7252 23.9341 -13.7104 8.0878 -22.3725
# 3 33.5909 23.9341 87.0419 -35.5692 -0.6201 -7.6760
# 4 -6.0605 -13.7104 -35.5692 34.8489 -4.7098 15.5964
# 5 19.2453 8.0878 -0.6201 -4.7098 44.1505 -8.3185
# 6 -18.5430 -22.3725 -7.6760 15.5964 -8.3185 13.3606
#
#
#
# Elastic Compliance Matrix: (Units=1/GPa)
#
#
# Indices 1 2 3 4 5 6 
#
# 1 0.008474 -0.011689 -0.000869 0.000472 -0.003607 -0.011108
# 2 -0.011689 0.000101 0.013875 0.033054 0.000006 -0.046663
# 3 -0.000869 0.013875 0.015115 0.013866 0.002566 0.016125
# 4 0.000472 0.033054 0.013866 0.057348 -0.000577 -0.003333
# 5 -0.003607 0.000006 0.002566 -0.000577 0.026803 0.013838
# 6 -0.011108 -0.046663 0.016125 -0.003333 0.013838 0.003062
#
#
# Mechanical properties :
#
#
# Convention : Reuss Voigt Hill
#
# Bulk Modulus (GPa) = 37.98471 33.06110 35.52291
# Shear Modulus (GPa) = 42.71945 28.10208 35.41077
#
# Velocity S-wave (km/s) = 4.21325 3.41722 3.83594
# Velocity P-wave (km/s) = 6.28113 5.41368 5.86347
#
# Compressibility (1/GPa) = 0.02632638
#
# Stress axis : x y z
#
# Youngs Moduli (GPa) = 118.00396 9898.57158 66.15930
#
# Poissons Ratio (x) = 115.70053 0.05747
# Poissons Ratio (y) = 1.37930 -0.91797
# Poissons Ratio (z) = 0.10250 -137.34481
#
# Static dielectric constant tensor:
#      x y z
#    x 1.987470 0.028450 -0.051000 
#    y 0.028450 2.223790 0.239380 
#    z -0.051000 0.239380 2.114450 
# 
# From -- ./inp_files/532713.got.cif
#   From: 2010.05.17/outbox.cif.g08.bks.cpg/sg2_267_cif.got.tgz:532713.got - 2010.06.03 11:33:40.
