data_PCOD9071523
_publ_section_title
;
Structure prediction by ZEFSAII (Michael W. Deem and Ramdas Pophale) SiO2 
 PCOD9071523
Probable space group: P -1
;
_chemical_formula_sum "Si O2"
_cell_formula_units_Z 10
_cell_length_a 12.974430
_cell_length_b 5.324230
_cell_length_c 8.946577
_cell_angle_alpha 120.416891
_cell_angle_beta 127.086113
_cell_angle_gamma 95.314192
_cell_volume 346.816142
_symmetry_space_group_name_H-M "P -1"
_symmetry_group_IT_number 2
_symmetry_cell_setting 'triclinic'
loop_
_space_group_symop_operation_xyz
x,y,z
-x,-y,-z
loop_
_atom_site_type_symbol
_atom_site_label
_atom_site_fract_x
_atom_site_fract_y
_atom_site_fract_z
Si Si1 0.659803 0.638551 0.584001
Si Si2 0.597514 0.378004 0.123262
Si Si3 0.023061 0.061823 0.715273
Si Si4 0.919902 0.588464 0.752792
Si Si5 0.666274 0.257303 0.818786
O O1 0.500000 0.500000 0.500000
O O2 0.654374 0.624242 0.394834
O O3 0.741448 0.428695 0.607417
O O4 0.752430 0.057781 0.822969
O O5 0.500000 0.500000 0.000000
O O6 0.663184 0.310113 0.010438
O O7 0.500000 0.000000 0.000000
O O8 0.956095 0.306703 0.750513
O O9 0.211105 0.327750 0.997036
O O10 0.000000 0.000000 0.500000
O O11 0.941210 0.689423 0.623270
O O12 0.000000 0.000000 0.000000
O O13 0.500000 0.000000 0.500000
#
# Coordination Sequence:
#
# PCOD9071523 Si02
#       5
#     2   2   2   2   2
#     4  12  27  50  83 119 169 217 277 345 415 487
#     4  12  27  46  73 117 159 207 268 333 405 487
#     4  12  29  55  84 119 168 218 276 345 416 498
#     4  12  28  51  84 116 161 220 278 329 419 506
#     4  12  27  49  86 122 166 219 276 345 418 487
#
# _framework density 28.833722000000002
#
# number of rings (size 3 to 8) (size 9 to 14) (size 15 to 20)
#    0.000    0.000    6.000    2.400    2.800    4.800 
#    0.000    0.000    0.000    0.000    0.000    0.000 
#    0.000    0.000    0.000    0.000    0.000    0.000 
#
# Total GULP energy -55682.507771 kJ/mol
# GULP energy per Si atom -5568.250777 kJ/mol
# Density = 2.876810 g / cm^3
# Si number density = 28.833722 Si / 1000 Ang^3
#
#
#
# Elastic Constant Matrix: (Units=GPa)
#
#
# Indices 1 2 3 4 5 6 
#
# 1 158.0350 33.7028 55.0146 16.7161 -38.0349 1.3093
# 2 33.7028 160.9480 0.7581 15.3674 7.6304 7.7510
# 3 55.0146 0.7581 95.6458 4.4098 -25.1461 21.2023
# 4 16.7161 15.3674 4.4098 46.9911 17.2835 -4.7087
# 5 -38.0349 7.6304 -25.1461 17.2835 75.7345 0.7922
# 6 1.3093 7.7510 21.2023 -4.7087 0.7922 78.8981
#
#
#
# Elastic Compliance Matrix: (Units=1/GPa)
#
#
# Indices 1 2 3 4 5 6 
#
# 1 0.009792 -0.001906 -0.004445 -0.004020 0.004541 0.000934
# 2 -0.001906 0.006835 0.001078 -0.001407 -0.000956 -0.001004
# 3 -0.004445 0.001078 0.014784 -0.001674 0.002993 -0.004135
# 4 -0.004020 -0.001407 -0.001674 0.026707 -0.008552 0.002335
# 5 0.004541 -0.000956 0.002993 -0.008552 0.018542 -0.001482
# 6 0.000934 -0.001004 -0.004135 0.002335 -0.001482 0.014023
#
#
# Mechanical properties :
#
#
# Convention : Reuss Voigt Hill
#
# Bulk Modulus (GPa) = 47.92465 65.95333 56.93899
# Shear Modulus (GPa) = 46.21734 62.00162 54.10948
#
# Velocity S-wave (km/s) = 4.00796 4.64218 4.33668
# Velocity P-wave (km/s) = 6.17053 7.18724 6.69820
#
# Compressibility (1/GPa) = 0.02086609
#
# Stress axis : x y z
#
# Youngs Moduli (GPa) = 102.12478 146.29954 67.64037
#
# Poissons Ratio (x) = 0.27885 0.30065
# Poissons Ratio (y) = 0.19465 -0.07293
# Poissons Ratio (z) = 0.45393 -0.15774
#
# Static dielectric constant tensor:
#      x y z
#    x 2.822470 1.229700 -1.589220 
#    y 1.229700 4.638500 -3.622240 
#    z -1.589220 -3.622240 7.877840 
# 
# From -- ./inp_files/28821.got.cif
#   From: 2010.05.17/outbox.cif.g08.bks.cpg/sg2_15_cif.got.tgz:28821.got - 2010.06.03 11:33:40.
