data_PCOD9071746
_publ_section_title
;
Structure prediction by ZEFSAII (Michael W. Deem and Ramdas Pophale) SiO2 
 PCOD9071746
Probable space group: P -1
;
_chemical_formula_sum "Si O2"
_cell_formula_units_Z 16
_cell_length_a 7.604945
_cell_length_b 15.197186
_cell_length_c 17.476634
_cell_angle_alpha 147.867243
_cell_angle_beta 45.578621
_cell_angle_gamma 116.594587
_cell_volume 709.163126
_symmetry_space_group_name_H-M "P -1"
_symmetry_group_IT_number 2
_symmetry_cell_setting 'triclinic'
loop_
_space_group_symop_operation_xyz
x,y,z
-x,-y,-z
loop_
_atom_site_type_symbol
_atom_site_label
_atom_site_fract_x
_atom_site_fract_y
_atom_site_fract_z
Si Si1 0.149886 0.615354 0.778651
Si Si2 0.677675 0.219227 0.705676
Si Si3 0.583486 0.706006 0.948840
Si Si4 0.810490 0.394244 0.533415
Si Si5 0.757473 0.962028 0.638050
Si Si6 0.776302 0.467124 0.978168
Si Si7 0.307442 0.349257 0.665028
Si Si8 0.663087 0.622388 0.600030
O O1 0.200676 0.537343 0.790713
O O2 0.346907 0.720623 0.781649
O O3 0.270409 0.453138 0.561189
O O4 0.837564 0.694145 0.914359
O O5 0.759069 0.374696 0.832767
O O6 0.926582 0.106338 0.494298
O O7 0.685426 0.092931 0.681718
O O8 0.396814 0.323833 0.829075
O O9 0.711168 0.586758 0.748724
O O10 0.389707 0.613236 0.975276
O O11 0.407497 0.916405 0.153444
O O12 0.613934 0.304437 0.557828
O O13 0.751455 0.449549 0.503593
O O14 0.121271 0.293770 0.382505
O O15 0.695245 0.798171 0.503764
O O16 0.098458 0.386908 0.826306
#
# Coordination Sequence:
#
# PCOD9071746 Si02
#       8
#     2   2   2   2   2   2   2   2
#     4   9  16  29  54  74  86 119 166 201 230 274
#     4   8  14  26  43  64  94 132 162 194 220 250
#     4  10  18  29  49  74  98 126 156 190 233 279
#     4   9  18  31  50  72  94 121 156 201 242 274
#     4   9  16  26  44  69  98 126 158 191 228 275
#     4   9  16  27  45  71 100 125 160 190 216 275
#     4  10  18  29  49  74  98 126 156 190 233 279
#     4   8  16  32  52  70  88 114 166 210 230 268
#
# _framework density 22.561807000000002
#
# number of rings (size 3 to 8) (size 9 to 14) (size 15 to 20)
#    0.000    3.000    0.000    3.750    0.000    0.500 
#    0.000    0.000    0.000   43.500    0.000    0.000 
#    0.000    0.000    0.000    0.000    0.000    0.000 
#
# Total GULP energy -89072.720883 kJ/mol
# GULP energy per Si atom -5567.045055 kJ/mol
# Density = 2.251046 g / cm^3
# Si number density = 22.561807 Si / 1000 Ang^3
#
#
#
# Elastic Constant Matrix: (Units=GPa)
#
#
# Indices 1 2 3 4 5 6 
#
# 1 80.3321 33.5236 11.8522 -13.0290 -29.8057 9.8988
# 2 33.5236 61.8172 41.5704 -25.9969 -22.2586 21.4028
# 3 11.8522 41.5704 81.0906 -11.5301 -11.9627 8.1640
# 4 -13.0290 -25.9969 -11.5301 27.7053 7.0781 -10.4150
# 5 -29.8057 -22.2586 -11.9627 7.0781 34.2814 -16.0193
# 6 9.8988 21.4028 8.1640 -10.4150 -16.0193 34.5568
#
#
#
# Elastic Compliance Matrix: (Units=1/GPa)
#
#
# Indices 1 2 3 4 5 6 
#
# 1 0.021757 -0.011333 0.004317 -0.000042 0.016541 0.007422
# 2 -0.011333 0.057458 -0.020687 0.032831 0.006703 -0.014451
# 3 0.004317 -0.020687 0.021003 -0.007081 0.001540 0.005193
# 4 -0.000042 0.032831 -0.007081 0.063504 0.007566 0.003997
# 5 0.016541 0.006703 0.001540 0.007566 0.055683 0.018839
# 6 0.007422 -0.014451 0.005193 0.003997 0.018839 0.044473
#
#
# Mechanical properties :
#
#
# Convention : Reuss Voigt Hill
#
# Bulk Modulus (GPa) = 22.31567 44.12579 33.22073
# Shear Modulus (GPa) = 14.96013 28.39496 21.67755
#
# Velocity S-wave (km/s) = 2.57781 3.55144 3.10305
# Velocity P-wave (km/s) = 4.33273 6.03466 5.25308
#
# Compressibility (1/GPa) = 0.04481155
#
# Stress axis : x y z
#
# Youngs Moduli (GPa) = 45.96278 17.40396 47.61145
#
# Poissons Ratio (x) = 0.19724 -0.20553
# Poissons Ratio (y) = 0.52090 0.98494
# Poissons Ratio (z) = -0.19842 0.36004
#
# Static dielectric constant tensor:
#      x y z
#    x 1.996870 0.080030 -0.001960 
#    y 0.080030 1.888330 -0.052980 
#    z -0.001960 -0.052980 1.866560 
# 
# From -- ./inp_files/340961.got.cif
#   From: 2010.05.17/outbox.cif.g08.bks.cpg/sg2_171_cif.got.tgz:340961.got - 2010.06.03 11:33:40.
