data_PCOD9071681
_publ_section_title
;
Structure prediction by ZEFSAII (Michael W. Deem and Ramdas Pophale) SiO2 
 PCOD9071681
Probable space group: P -1
;
_chemical_formula_sum "Si O2"
_cell_formula_units_Z 16
_cell_length_a 9.464527
_cell_length_b 7.591589
_cell_length_c 14.259608
_cell_angle_alpha 92.618015
_cell_angle_beta 106.543566
_cell_angle_gamma 130.003298
_cell_volume 714.907975
_symmetry_space_group_name_H-M "P -1"
_symmetry_group_IT_number 2
_symmetry_cell_setting 'triclinic'
loop_
_space_group_symop_operation_xyz
x,y,z
-x,-y,-z
loop_
_atom_site_type_symbol
_atom_site_label
_atom_site_fract_x
_atom_site_fract_y
_atom_site_fract_z
Si Si1 0.469797 0.298160 0.874069
Si Si2 0.390057 0.679215 0.496188
Si Si3 0.997132 0.833496 0.582674
Si Si4 0.198146 0.901745 0.443230
Si Si5 0.026989 0.009971 0.786863
Si Si6 0.714458 0.466913 0.741911
Si Si7 0.922243 0.425299 0.271042
Si Si8 0.312140 0.538482 0.892338
O O1 0.559448 0.311612 0.792633
O O2 0.459652 0.505810 0.879325
O O3 0.607319 0.350263 0.987381
O O4 0.233399 0.063382 0.842633
O O5 0.227356 0.409054 0.497185
O O6 0.304415 0.805854 0.498681
O O7 0.386573 0.635412 0.382258
O O8 0.620803 0.862702 0.576148
O O9 0.002552 0.984351 0.668313
O O10 0.923330 0.272628 0.345419
O O11 0.133592 0.963360 0.521194
O O12 0.010383 0.665732 0.348143
O O13 0.830448 0.749771 0.781277
O O14 0.097788 0.254444 0.847738
O O15 0.903981 0.488405 0.768556
O O16 0.722251 0.324782 0.178368
#
# Coordination Sequence:
#
# PCOD9071681 Si02
#       8
#     2   2   2   2   2   2   2   2
#     4   9  18  34  56  65  94 139 161 184 249 308
#     4   8  15  25  45  74  91 118 161 197 217 291
#     4   9  16  29  51  71  93 129 161 190 236 287
#     4   9  15  27  49  69  96 130 155 188 244 282
#     4   8  17  32  52  70  95 130 163 191 237 297
#     4   9  17  31  55  72  92 127 168 195 236 287
#     4   9  18  31  50  77 100 120 160 217 230 266
#     4   9  19  35  50  70 102 125 160 204 244 281
#
# _framework density 22.380502
#
# number of rings (size 3 to 8) (size 9 to 14) (size 15 to 20)
#    0.750    3.000    0.000    2.250    0.000    1.000 
#    0.000    3.125   19.250    1.500    0.000    0.000 
#    0.000    0.000    0.000    0.000    0.000    0.000 
#
# Total GULP energy -89133.906503 kJ/mol
# GULP energy per Si atom -5570.869156 kJ/mol
# Density = 2.232956 g / cm^3
# Si number density = 22.380502 Si / 1000 Ang^3
#
#
#
# Elastic Constant Matrix: (Units=GPa)
#
#
# Indices 1 2 3 4 5 6 
#
# 1 51.4254 2.4019 5.3542 -17.9011 -3.3358 -2.0979
# 2 2.4019 62.9572 5.1753 9.3741 -1.2673 -3.4304
# 3 5.3542 5.1753 50.1003 1.4088 8.9091 6.5568
# 4 -17.9011 9.3741 1.4088 24.8997 -4.5700 -3.4267
# 5 -3.3358 -1.2673 8.9091 -4.5700 27.7873 -4.2683
# 6 -2.0979 -3.4304 6.5568 -3.4267 -4.2683 29.0287
#
#
#
# Elastic Compliance Matrix: (Units=1/GPa)
#
#
# Indices 1 2 3 4 5 6 
#
# 1 0.030951 -0.004023 -0.006776 0.027384 0.011470 0.008211
# 2 -0.004023 0.017565 -0.001086 -0.009475 -0.000769 0.000799
# 3 -0.006776 -0.001086 0.024263 -0.009170 -0.011513 -0.008874
# 4 0.027384 -0.009475 -0.009170 0.069410 0.019357 0.013970
# 5 0.011470 -0.000769 -0.011513 0.019357 0.046110 0.012403
# 6 0.008211 0.000799 -0.008874 0.013970 0.012403 0.040614
#
#
# Mechanical properties :
#
#
# Convention : Reuss Voigt Hill
#
# Bulk Modulus (GPa) = 20.40462 21.14952 20.77707
# Shear Modulus (GPa) = 18.58611 26.44660 22.51636
#
# Velocity S-wave (km/s) = 2.88490 3.44129 3.17530
# Velocity P-wave (km/s) = 4.49820 5.02598 4.76939
#
# Compressibility (1/GPa) = 0.04900851
#
# Stress axis : x y z
#
# Youngs Moduli (GPa) = 32.30963 56.93022 41.21521
#
# Poissons Ratio (x) = 0.22902 0.27929
# Poissons Ratio (y) = 0.12998 0.04475
# Poissons Ratio (z) = 0.21894 0.06182
#
# Static dielectric constant tensor:
#      x y z
#    x 1.916120 -0.064010 0.075970 
#    y -0.064010 1.862880 0.016000 
#    z 0.075970 0.016000 1.842530 
# 
# From -- ./inp_files/493209.got.cif
#   From: 2010.05.17/outbox.cif.g08.bks.cpg/sg2_247_cif.got.tgz:493209.got - 2010.06.03 11:33:40.
