data_PCOD9071297
_publ_section_title
;
Structure prediction by ZEFSAII (Michael W. Deem and Ramdas Pophale) SiO2 
 PCOD9071297
Probable space group: P -1
;
_chemical_formula_sum "Si O2"
_cell_formula_units_Z 10
_cell_length_a 8.308505
_cell_length_b 13.384462
_cell_length_c 12.749532
_cell_angle_alpha 158.753243
_cell_angle_beta 59.182623
_cell_angle_gamma 120.954513
_cell_volume 438.139729
_symmetry_space_group_name_H-M "P -1"
_symmetry_group_IT_number 2
_symmetry_cell_setting 'triclinic'
loop_
_space_group_symop_operation_xyz
x,y,z
-x,-y,-z
loop_
_atom_site_type_symbol
_atom_site_label
_atom_site_fract_x
_atom_site_fract_y
_atom_site_fract_z
Si Si1 0.372189 0.729746 0.481762
Si Si2 0.455902 0.692171 0.104486
Si Si3 0.927671 0.061939 0.470637
Si Si4 0.622763 0.262931 0.263819
Si Si5 0.010958 0.435505 0.189117
O O1 0.358406 0.760250 0.640049
O O2 0.182796 0.565724 0.333621
O O3 0.413849 0.030185 0.706024
O O4 0.537099 0.534534 0.211477
O O5 0.268043 0.816855 0.322766
O O6 0.500000 0.500000 0.000000
O O7 0.048362 0.310675 0.611916
O O8 0.000000 0.000000 0.500000
O O9 0.921665 0.791710 0.135215
O O10 0.500000 0.500000 0.500000
O O11 0.832304 0.306303 0.188184
O O12 0.500000 0.000000 0.000000
#
# Coordination Sequence:
#
# PCOD9071297 Si02
#       5
#     2   2   2   2   2
#     4  12  27  48  82 110 151 202 254 315 369 455
#     4  12  26  47  78 115 155 194 255 303 382 457
#     4  12  28  46  76 116 157 198 241 319 380 448
#     4  12  29  52  77 110 151 200 256 321 381 441
#     4  12  27  50  77 111 153 198 259 304 380 452
#
# _framework density 22.823768999999999
#
# number of rings (size 3 to 8) (size 9 to 14) (size 15 to 20)
#    0.000    0.000    2.000    6.600    8.400    0.000 
#    0.000    6.000    0.000    0.000    0.000    0.000 
#    0.000    0.000    0.000    0.000    0.000    0.000 
#
# Total GULP energy -55999.922626 kJ/mol
# GULP energy per Si atom -5599.992263 kJ/mol
# Density = 2.277182 g / cm^3
# Si number density = 22.823769 Si / 1000 Ang^3
#
#
#
# Elastic Constant Matrix: (Units=GPa)
#
#
# Indices 1 2 3 4 5 6 
#
# 1 134.7798 106.3591 81.1670 -5.6515 4.7909 -23.4671
# 2 106.3591 209.9804 101.5026 -6.8017 29.9946 -14.2006
# 3 81.1670 101.5026 212.2075 11.9749 13.3262 -19.5825
# 4 -5.6515 -6.8017 11.9749 45.5815 -5.4401 6.0294
# 5 4.7909 29.9946 13.3262 -5.4401 33.3815 2.0411
# 6 -23.4671 -14.2006 -19.5825 6.0294 2.0411 39.1790
#
#
#
# Elastic Compliance Matrix: (Units=1/GPa)
#
#
# Indices 1 2 3 4 5 6 
#
# 1 0.014875 -0.006666 -0.002437 0.001422 0.004765 0.004808
# 2 -0.006666 0.010036 -0.001920 0.000455 -0.007158 -0.001012
# 3 -0.002437 -0.001920 0.006971 -0.002814 -0.001278 0.001828
# 4 0.001422 0.000455 -0.002814 0.024056 0.004696 -0.004336
# 5 0.004765 -0.007158 -0.001278 0.004696 0.037166 -0.003038
# 6 0.004808 -0.001012 0.001828 -0.004336 -0.003038 0.029776
#
#
# Mechanical properties :
#
#
# Convention : Reuss Voigt Hill
#
# Bulk Modulus (GPa) = 101.67383 126.11390 113.89387
# Shear Modulus (GPa) = 33.73724 41.49100 37.61412
#
# Velocity S-wave (km/s) = 3.84886 4.26829 4.06399
# Velocity P-wave (km/s) = 8.02469 8.92561 8.48711
#
# Compressibility (1/GPa) = 0.00983537
#
# Stress axis : x y z
#
# Youngs Moduli (GPa) = 67.22842 99.64403 143.45795
#
# Poissons Ratio (x) = 0.66421 0.34958
# Poissons Ratio (y) = 0.44813 0.27547
# Poissons Ratio (z) = 0.16382 0.19134
#
# Static dielectric constant tensor:
#      x y z
#    x 1.893540 0.037850 0.013960 
#    y 0.037850 1.856230 0.002880 
#    z 0.013960 0.002880 1.820320 
# 
# From -- ./inp_files/254836.got.cif
#   From: 2010.05.17/outbox.cif.g08.bks.cpg/sg2_128_cif.got.tgz:254836.got - 2010.06.03 11:33:40.
