data_PCOD9071061
_publ_section_title
;
Structure prediction by ZEFSAII (Michael W. Deem and Ramdas Pophale) SiO2 
 PCOD9071061
Probable space group: P -1
;
_chemical_formula_sum "Si O2"
_cell_formula_units_Z 10
_cell_length_a 18.348426
_cell_length_b 5.054605
_cell_length_c 9.063908
_cell_angle_alpha 104.047384
_cell_angle_beta 32.802745
_cell_angle_gamma 114.973165
_cell_volume 401.920369
_symmetry_space_group_name_H-M "P -1"
_symmetry_group_IT_number 2
_symmetry_cell_setting 'triclinic'
loop_
_space_group_symop_operation_xyz
x,y,z
-x,-y,-z
loop_
_atom_site_type_symbol
_atom_site_label
_atom_site_fract_x
_atom_site_fract_y
_atom_site_fract_z
Si Si1 0.558813 0.845599 0.506979
Si Si2 0.845683 0.858626 0.150446
Si Si3 0.321765 0.788959 0.123111
Si Si4 0.325168 0.379310 0.299601
Si Si5 0.082021 0.293160 0.302212
O O1 0.500000 0.500000 0.500000
O O2 0.735697 0.976956 0.261178
O O3 0.500000 0.000000 0.500000
O O4 0.485419 0.896463 0.791559
O O5 0.731725 0.665204 0.443529
O O6 0.904163 0.738700 0.897402
O O7 0.000000 0.000000 0.000000
O O8 0.286236 0.625763 0.318691
O O9 0.243315 0.505195 0.112891
O O10 0.728283 0.939931 0.739582
O O11 0.500000 0.500000 0.000000
O O12 0.000000 0.500000 0.500000
O O13 0.000000 0.000000 0.500000
#
# Coordination Sequence:
#
# PCOD9071061 Si02
#       5
#     2   2   2   2   2
#     4  12  27  48  82 119 157 212 276 326 401 495
#     4  12  28  52  83 122 165 210 271 347 410 471
#     4  12  25  49  78 109 161 213 267 324 400 494
#     4  12  27  49  78 120 161 207 265 338 407 478
#     4  12  28  50  77 113 159 215 271 330 401 486
#
# _framework density 24.880554
#
# number of rings (size 3 to 8) (size 9 to 14) (size 15 to 20)
#    0.000    0.000    4.000    5.400    2.800    1.600 
#    0.000    7.000    0.000    0.000    0.000    0.000 
#    0.000    0.000    0.000    0.000    0.000    0.000 
#
# Total GULP energy -55786.302583 kJ/mol
# GULP energy per Si atom -5578.630258 kJ/mol
# Density = 2.482392 g / cm^3
# Si number density = 24.880554 Si / 1000 Ang^3
#
#
#
# Elastic Constant Matrix: (Units=GPa)
#
#
# Indices 1 2 3 4 5 6 
#
# 1 171.5577 65.3926 53.4656 -3.7610 6.0810 6.3899
# 2 65.3926 143.4769 50.9951 2.5314 18.7573 -6.1061
# 3 53.4656 50.9951 174.0399 24.2950 22.1667 6.4131
# 4 -3.7610 2.5314 24.2950 39.1687 13.6150 -0.9044
# 5 6.0810 18.7573 22.1667 13.6150 60.5293 6.3849
# 6 6.3899 -6.1061 6.4131 -0.9044 6.3849 62.6264
#
#
#
# Elastic Compliance Matrix: (Units=1/GPa)
#
#
# Indices 1 2 3 4 5 6 
#
# 1 0.007553 -0.002960 -0.001733 0.001803 0.000483 -0.000905
# 2 -0.002960 0.009289 -0.001717 0.001038 -0.002359 0.001639
# 3 -0.001733 -0.001717 0.007550 -0.004411 -0.000990 -0.000727
# 4 0.001803 0.001038 -0.004411 0.030451 -0.005885 0.001409
# 5 0.000483 -0.002359 -0.000990 -0.005885 0.019123 -0.002213
# 6 -0.000905 0.001639 -0.000727 0.001409 -0.002213 0.016540
#
#
# Mechanical properties :
#
#
# Convention : Reuss Voigt Hill
#
# Bulk Modulus (GPa) = 86.41800 92.08678 89.25239
# Shear Modulus (GPa) = 46.64842 53.74629 50.19735
#
# Velocity S-wave (km/s) = 4.33470 4.65281 4.49657
# Velocity P-wave (km/s) = 7.73702 8.12137 7.93152
#
# Compressibility (1/GPa) = 0.01157166
#
# Stress axis : x y z
#
# Youngs Moduli (GPa) = 132.38997 107.65289 132.45109
#
# Poissons Ratio (x) = 0.31867 0.22952
# Poissons Ratio (y) = 0.39190 0.22746
# Poissons Ratio (z) = 0.22942 0.18487
#
# Static dielectric constant tensor:
#      x y z
#    x 1.986700 -0.097440 0.011940 
#    y -0.097440 1.916740 0.047810 
#    z 0.011940 0.047810 1.922140 
# 
# From -- ./inp_files/321826.got.cif
#   From: 2010.05.17/outbox.cif.g08.bks.cpg/sg2_161_cif.got.tgz:321826.got - 2010.06.03 11:33:40.
