data_PCOD9071237
_publ_section_title
;
Structure prediction by ZEFSAII (Michael W. Deem and Ramdas Pophale) SiO2 
 PCOD9071237
Probable space group: P -1
;
_chemical_formula_sum "Si O2"
_cell_formula_units_Z 15
_cell_length_a 7.664829
_cell_length_b 17.010499
_cell_length_c 8.016693
_cell_angle_alpha 75.553407
_cell_angle_beta 54.459025
_cell_angle_gamma 114.474909
_cell_volume 580.147629
_symmetry_space_group_name_H-M "P -1"
_symmetry_group_IT_number 2
_symmetry_cell_setting 'triclinic'
loop_
_space_group_symop_operation_xyz
x,y,z
-x,-y,-z
loop_
_atom_site_type_symbol
_atom_site_label
_atom_site_fract_x
_atom_site_fract_y
_atom_site_fract_z
Si Si1 0.057170 0.148276 0.821808
Si Si2 0.255581 0.657180 0.172391
Si Si3 0.320901 0.393598 0.531624
Si Si4 0.739047 0.894216 0.577993
Si Si5 0.396685 0.932480 0.270115
Si Si6 0.255408 0.494609 0.054500
Si Si7 0.352091 0.740931 0.405278
Si Si8 0.500000 0.000000 0.500000
O O1 0.144415 0.264149 0.745798
O O2 0.091820 0.126752 0.623159
O O3 0.315264 0.164070 0.753906
O O4 0.721258 0.039786 0.137175
O O5 0.381394 0.683146 0.274048
O O6 0.936986 0.617621 0.394368
O O7 0.484831 0.776641 0.882190
O O8 0.212705 0.561581 0.155705
O O9 0.500000 0.500000 0.500000
O O10 0.581006 0.433172 0.241605
O O11 0.568021 0.919186 0.558822
O O12 0.000000 0.000000 0.500000
O O13 0.298974 0.817330 0.329111
O O14 0.221944 0.900867 0.557417
O O15 0.500000 0.000000 0.000000
O O16 0.500000 0.500000 0.000000
O O17 0.934184 0.363928 0.271642
#
# Coordination Sequence:
#
# PCOD9071237 Si02
#       8
#     2   2   2   2   2   2   2   1
#     4  12  26  49  75 116 156 203 265 333 408 483
#     4  12  27  52  76 116 158 208 267 334 411 481
#     4  12  28  49  81 112 154 210 260 335 403 478
#     4  12  27  49  80 115 167 211 268 341 408 491
#     4  12  27  49  76 114 160 207 268 337 409 496
#     4  12  28  49  77 113 155 205 273 325 399 490
#     4  12  26  47  78 109 156 208 262 334 400 490
#     4  12  26  46  76 116 156 216 268 320 414 484
#
# _framework density 25.855488999999999
#
# number of rings (size 3 to 8) (size 9 to 14) (size 15 to 20)
#    0.000    0.000    4.000    5.600    5.600    3.200 
#    0.000    0.000    0.000    0.000    0.000    0.000 
#    0.000    0.000    0.000    0.000    0.000    0.000 
#
# Total GULP energy -83686.048751 kJ/mol
# GULP energy per Si atom -5579.069917 kJ/mol
# Density = 2.579664 g / cm^3
# Si number density = 25.855489 Si / 1000 Ang^3
#
#
#
# Elastic Constant Matrix: (Units=GPa)
#
#
# Indices 1 2 3 4 5 6 
#
# 1 74.1783 9.6509 15.7012 -4.7554 3.9401 -8.6933
# 2 9.6509 161.9012 15.7425 -5.3535 1.8413 -12.4176
# 3 15.7012 15.7425 138.5620 -25.1516 -4.9065 -18.1075
# 4 -4.7554 -5.3535 -25.1516 48.8831 -7.4043 4.5494
# 5 3.9401 1.8413 -4.9065 -7.4043 34.9817 2.9480
# 6 -8.6933 -12.4176 -18.1075 4.5494 2.9480 45.8954
#
#
#
# Elastic Compliance Matrix: (Units=1/GPa)
#
#
# Indices 1 2 3 4 5 6 
#
# 1 0.014188 -0.000528 -0.001306 0.000164 -0.001899 0.002135
# 2 -0.000528 0.006375 -0.000450 0.000217 -0.000416 0.001453
# 3 -0.001306 -0.000450 0.008598 0.004335 0.002087 0.002459
# 4 0.000164 0.000217 0.004335 0.023670 0.005665 -0.000910
# 5 -0.001899 -0.000416 0.002087 0.005665 0.030497 -0.002169
# 6 0.002135 0.001453 0.002459 -0.000910 -0.002169 0.023786
#
#
# Mechanical properties :
#
#
# Convention : Reuss Voigt Hill
#
# Bulk Modulus (GPa) = 40.66193 50.75898 45.71045
# Shear Modulus (GPa) = 41.70853 48.18849 44.94851
#
# Velocity S-wave (km/s) = 4.02075 4.32182 4.17400
# Velocity P-wave (km/s) = 6.10868 6.67672 6.39900
#
# Compressibility (1/GPa) = 0.02459303
#
# Stress axis : x y z
#
# Youngs Moduli (GPa) = 70.48330 156.85922 116.30203
#
# Poissons Ratio (x) = 0.08282 0.15191
# Poissons Ratio (y) = 0.03721 0.05233
# Poissons Ratio (z) = 0.09206 0.07058
#
# Static dielectric constant tensor:
#      x y z
#    x -0.303670 -2.301470 -2.147010 
#    y -2.301470 0.038120 -1.658590 
#    z -2.147010 -1.658590 0.623510 
# 
# From -- ./inp_files/217435.got.cif
#   From: 2010.05.17/outbox.cif.g08.bks.cpg/sg2_109_cif.got.tgz:217435.got - 2010.06.03 11:33:40.
