data_PCOD9071787
_publ_section_title
;
Structure prediction by ZEFSAII (Michael W. Deem and Ramdas Pophale) SiO2 
 PCOD9071787
Probable space group: P -1
;
_chemical_formula_sum "Si O2"
_cell_formula_units_Z 14
_cell_length_a 12.338060
_cell_length_b 19.131445
_cell_length_c 13.238318
_cell_angle_alpha 27.469283
_cell_angle_beta 115.044144
_cell_angle_gamma 134.752932
_cell_volume 807.385494
_symmetry_space_group_name_H-M "P -1"
_symmetry_group_IT_number 2
_symmetry_cell_setting 'triclinic'
loop_
_space_group_symop_operation_xyz
x,y,z
-x,-y,-z
loop_
_atom_site_type_symbol
_atom_site_label
_atom_site_fract_x
_atom_site_fract_y
_atom_site_fract_z
Si Si1 0.300116 0.885949 0.865231
Si Si2 0.931225 0.299515 0.471811
Si Si3 0.964707 0.637473 0.344108
Si Si4 0.500278 0.949406 0.680050
Si Si5 0.427512 0.727736 0.232179
Si Si6 0.763243 0.929350 0.240371
Si Si7 0.743315 0.560212 0.671864
O O1 0.399727 0.972570 0.684771
O O2 0.277613 0.024479 0.730874
O O3 0.088872 0.593908 0.155129
O O4 0.428421 0.900279 0.968197
O O5 0.039351 0.283464 0.465045
O O6 0.927289 0.236820 0.666237
O O7 0.719586 0.134792 0.564071
O O8 0.000000 0.500000 0.500000
O O9 0.743344 0.444495 0.532788
O O10 0.033840 0.817115 0.053118
O O11 0.500000 0.000000 0.500000
O O12 0.370569 0.670042 0.006170
O O13 0.616182 0.854545 0.196577
O O14 0.363263 0.564232 0.319618
O O15 0.741163 0.728456 0.492886
#
# Coordination Sequence:
#
# PCOD9071787 Si02
#       7
#     2   2   2   2   2   2   2
#     4   9  20  32  52  85 100 139 179 217 261 298
#     4   9  19  37  54  75 111 131 186 212 245 331
#     4  10  18  29  50  80 108 147 168 191 257 306
#     4  10  21  40  62  72  93 138 185 228 270 312
#     4   9  19  31  49  77 115 151 178 194 246 314
#     4  12  19  31  53  78 121 137 171 217 250 313
#     4   9  22  35  49  83 107 142 173 215 269 302
#
# _framework density 17.339918999999998
#
# number of rings (size 3 to 8) (size 9 to 14) (size 15 to 20)
#    0.000    2.857    2.857    2.571    2.000    5.714 
#    0.000    0.714    0.000    1.714    0.000    0.000 
#    0.000    0.000    0.000    0.000    0.000    0.000 
#
# Total GULP energy -78044.111636 kJ/mol
# GULP energy per Si atom -5574.579403 kJ/mol
# Density = 1.730045 g / cm^3
# Si number density = 17.339919 Si / 1000 Ang^3
#
#
#
# Elastic Constant Matrix: (Units=GPa)
#
#
# Indices 1 2 3 4 5 6 
#
# 1 121.0797 38.5544 63.6495 -0.1034 4.8439 -35.9114
# 2 38.5544 37.3403 31.0627 7.2827 -9.5817 -11.0357
# 3 63.6495 31.0627 83.3681 10.3091 -7.3041 -23.3421
# 4 -0.1034 7.2827 10.3091 14.6111 -12.1207 -2.6115
# 5 4.8439 -9.5817 -7.3041 -12.1207 33.4961 -8.2080
# 6 -35.9114 -11.0357 -23.3421 -2.6115 -8.2080 26.3249
#
#
#
# Elastic Compliance Matrix: (Units=1/GPa)
#
#
# Indices 1 2 3 4 5 6 
#
# 1 0.023601 -0.013471 -0.009203 0.019754 0.003097 0.021313
# 2 -0.013471 0.050944 -0.006445 -0.012388 0.010461 -0.000702
# 3 -0.009203 -0.006445 0.024805 -0.011230 0.002393 0.006370
# 4 0.019754 -0.012388 -0.011230 0.129183 0.047561 0.039441
# 5 0.003097 0.010461 0.002393 0.047561 0.058377 0.033652
# 6 0.021313 -0.000702 0.006370 0.039441 0.033652 0.086820
#
#
# Mechanical properties :
#
#
# Convention : Reuss Voigt Hill
#
# Bulk Modulus (GPa) = 24.32460 56.48012 40.40236
# Shear Modulus (GPa) = 11.21902 22.12119 16.67010
#
# Velocity S-wave (km/s) = 2.54639 3.57562 3.10396
# Velocity P-wave (km/s) = 4.76487 7.04910 6.01639
#
# Compressibility (1/GPa) = 0.04111065
#
# Stress axis : x y z
#
# Youngs Moduli (GPa) = 42.37172 19.62934 40.31490
#
# Poissons Ratio (x) = 0.26443 0.37103
# Poissons Ratio (y) = 0.57079 0.25983
# Poissons Ratio (z) = 0.38996 0.12651
#
# Static dielectric constant tensor:
#      x y z
#    x 1.597970 -0.011390 -0.019190 
#    y -0.011390 1.592910 -0.024550 
#    z -0.019190 -0.024550 1.598280 
# 
# From -- ./inp_files/276500.got.cif
#   From: 2010.05.17/outbox.cif.g08.bks.cpg/sg2_139_cif.got.tgz:276500.got - 2010.06.03 11:33:40.
