data_PCOD9071194
_publ_section_title
;
Structure prediction by ZEFSAII (Michael W. Deem and Ramdas Pophale) SiO2 
 PCOD9071194
Probable space group: P -1
;
_chemical_formula_sum "Si O2"
_cell_formula_units_Z 12
_cell_length_a 4.915776
_cell_length_b 18.066449
_cell_length_c 7.041746
_cell_angle_alpha 69.528613
_cell_angle_beta 110.428928
_cell_angle_gamma 89.999953
_cell_volume 543.704458
_symmetry_space_group_name_H-M "P -1"
_symmetry_group_IT_number 2
_symmetry_cell_setting 'triclinic'
loop_
_space_group_symop_operation_xyz
x,y,z
-x,-y,-z
loop_
_atom_site_type_symbol
_atom_site_label
_atom_site_fract_x
_atom_site_fract_y
_atom_site_fract_z
Si Si1 0.295303 0.303819 0.457501
Si Si2 0.162198 0.803819 0.457500
Si Si3 0.855244 0.921901 0.978592
Si Si4 0.201016 0.921740 0.699404
Si Si5 0.501611 0.578260 0.300595
Si Si6 0.876651 0.578099 0.021407
O O1 0.556593 0.231689 0.562613
O O2 0.348683 0.357892 0.601528
O O3 0.993980 0.268311 0.437387
O O4 0.289800 0.358378 0.220108
O O5 0.252845 0.857892 0.601528
O O6 0.930307 0.858377 0.220107
O O7 0.488983 0.058599 0.164928
O O8 0.019145 0.890019 0.854704
O O9 0.000000 0.000000 0.000000
O O10 0.000000 0.000000 0.500000
O O11 0.500000 0.500000 0.500000
O O12 0.675944 0.558599 0.164928
O O13 0.164440 0.609981 0.145296
O O14 0.000000 0.500000 0.000000
#
# Coordination Sequence:
#
# PCOD9071194 Si02
#       6
#     2   2   2   2   2   2
#     4  12  28  46  70 106 147 184 237 302 360 418
#     4  12  28  46  70 106 147 184 237 302 360 418
#     4  12  26  45  76 104 141 188 243 291 358 434
#     4  12  26  45  76 104 141 188 243 291 358 434
#     4  12  26  45  76 104 141 188 243 291 358 434
#     4  12  26  45  76 104 141 188 243 291 358 434
#
# _framework density 22.070817000000002
#
# number of rings (size 3 to 8) (size 9 to 14) (size 15 to 20)
#    0.000    0.000    3.333    6.000    4.667    8.000 
#    0.000    0.000    0.000    0.000    0.000    0.000 
#    0.000    0.000    0.000    0.000    0.000    0.000 
#
# Total GULP energy -67264.466107 kJ/mol
# GULP energy per Si atom -5605.372176 kJ/mol
# Density = 2.202058 g / cm^3
# Si number density = 22.070817 Si / 1000 Ang^3
#
#
#
# Elastic Constant Matrix: (Units=GPa)
#
#
# Indices 1 2 3 4 5 6 
#
# 1 121.6314 1.8247 32.5630 4.3736 1.8306 1.1970
# 2 1.8247 79.0887 19.3103 11.6867 1.3073 0.8499
# 3 32.5630 19.3103 122.3899 0.8884 -1.7972 -0.7047
# 4 4.3736 11.6867 0.8884 28.5306 -0.6192 -0.2436
# 5 1.8306 1.3073 -1.7972 -0.6192 56.6373 5.2295
# 6 1.1970 0.8499 -0.7047 -0.2436 5.2295 31.7463
#
#
#
# Elastic Compliance Matrix: (Units=1/GPa)
#
#
# Indices 1 2 3 4 5 6 
#
# 1 0.008940 0.000640 -0.002476 -0.001566 -0.000366 -0.000361
# 2 0.000640 0.014074 -0.002358 -0.005803 -0.000445 -0.000425
# 3 -0.002476 -0.002358 0.009201 0.001070 0.000410 0.000301
# 4 -0.001566 -0.005803 0.001070 0.037650 0.000590 0.000430
# 5 -0.000366 -0.000445 0.000410 0.000590 0.017967 -0.002920
# 6 -0.000361 -0.000425 0.000301 0.000430 -0.002920 0.032016
#
#
# Mechanical properties :
#
#
# Convention : Reuss Voigt Hill
#
# Bulk Modulus (GPa) = 41.96680 47.83403 44.90042
# Shear Modulus (GPa) = 36.71631 41.34365 39.02998
#
# Velocity S-wave (km/s) = 4.08311 4.33277 4.20979
# Velocity P-wave (km/s) = 6.42534 6.83744 6.63459
#
# Compressibility (1/GPa) = 0.02382836
#
# Stress axis : x y z
#
# Youngs Moduli (GPa) = 111.85541 71.05144 108.68107
#
# Poissons Ratio (x) = -0.04544 0.26905
# Poissons Ratio (y) = -0.07154 0.25623
# Poissons Ratio (z) = 0.27691 0.16751
#
# Static dielectric constant tensor:
#      x y z
#    x 1.778130 -0.000090 0.002340 
#    y -0.000090 1.786150 -0.001010 
#    z 0.002340 -0.001010 1.809390 
# 
# From -- ./inp_files/6386.got.cif
#   From: 2010.05.17/outbox.cif.g08.bks.cpg/sg2_4_cif.got.tgz:6386.got - 2010.06.03 11:33:40.
