data_PCOD9071321
_publ_section_title
;
Structure prediction by ZEFSAII (Michael W. Deem and Ramdas Pophale) SiO2 
 PCOD9071321
Probable space group: P -1
;
_chemical_formula_sum "Si O2"
_cell_formula_units_Z 13
_cell_length_a 13.684686
_cell_length_b 12.201187
_cell_length_c 12.160508
_cell_angle_alpha 157.114028
_cell_angle_beta 138.260246
_cell_angle_gamma 39.778565
_cell_volume 499.250339
_symmetry_space_group_name_H-M "P -1"
_symmetry_group_IT_number 2
_symmetry_cell_setting 'triclinic'
loop_
_space_group_symop_operation_xyz
x,y,z
-x,-y,-z
loop_
_atom_site_type_symbol
_atom_site_label
_atom_site_fract_x
_atom_site_fract_y
_atom_site_fract_z
Si Si1 0.326903 0.087258 0.477993
Si Si2 0.858280 0.745663 0.838385
Si Si3 0.345159 0.673201 0.739076
Si Si4 0.500000 0.000000 0.000000
Si Si5 0.637082 0.154368 0.491633
Si Si6 0.043241 0.763636 0.223068
Si Si7 0.125450 0.701742 0.874934
O O1 0.322143 0.107014 0.625477
O O2 0.500000 0.000000 0.500000
O O3 0.226426 0.395460 0.620690
O O4 0.248776 0.832967 0.155505
O O5 0.767061 0.512947 0.564399
O O6 0.007503 0.593072 0.750276
O O7 0.934214 0.838899 0.095784
O O8 0.735974 0.066565 0.001289
O O9 0.498993 0.422541 0.675226
O O10 0.396910 0.827542 0.820856
O O11 0.425302 0.937794 0.759880
O O12 0.782014 0.270309 0.695401
O O13 0.000000 0.000000 0.500000
O O14 0.000000 0.500000 0.000000
O O15 0.000000 0.000000 0.000000
#
# Coordination Sequence:
#
# PCOD9071321 Si02
#       7
#     2   2   2   1   2   2   2
#     4  12  30  54  84 122 160 215 274 343 411 479
#     4  12  26  50  73 113 154 208 263 324 411 470
#     4  12  28  46  76 110 159 213 261 324 395 493
#     4  12  26  48  74 120 160 220 264 330 402 486
#     4  12  29  49  81 115 169 205 279 327 405 486
#     4  12  28  45  74 109 156 205 256 327 398 472
#     4  12  29  54  85 117 159 207 274 343 411 488
#
# _framework density 26.03904
#
# number of rings (size 3 to 8) (size 9 to 14) (size 15 to 20)
#    0.000    0.000    3.077    5.077   12.923    0.000 
#    0.000    0.000    0.000    0.000    0.000    0.000 
#    0.000    0.000    0.000    0.000    0.000    0.000 
#
# Total GULP energy -72583.703164 kJ/mol
# GULP energy per Si atom -5583.361782 kJ/mol
# Density = 2.597977 g / cm^3
# Si number density = 26.039040 Si / 1000 Ang^3
#
#
#
# Elastic Constant Matrix: (Units=GPa)
#
#
# Indices 1 2 3 4 5 6 
#
# 1 137.4641 61.8020 65.6807 -6.0479 42.1611 -32.7552
# 2 61.8020 92.0450 43.5351 -2.8535 11.9464 -24.0088
# 3 65.6807 43.5351 210.0418 -7.9374 45.5019 -25.6100
# 4 -6.0479 -2.8535 -7.9374 40.9102 -12.6848 -7.5262
# 5 42.1611 11.9464 45.5019 -12.6848 52.9187 -3.1298
# 6 -32.7552 -24.0088 -25.6100 -7.5262 -3.1298 46.5036
#
#
#
# Elastic Compliance Matrix: (Units=1/GPa)
#
#
# Indices 1 2 3 4 5 6 
#
# 1 0.015085 -0.007104 -0.000401 -0.000264 -0.009776 0.006036
# 2 -0.007104 0.016818 -0.001636 0.001606 0.003849 0.003297
# 3 -0.000401 -0.001636 0.006526 0.000000 -0.004796 0.002144
# 4 -0.000264 0.001606 0.000000 0.027653 0.006806 0.005577
# 5 -0.009776 0.003849 -0.004796 0.006806 0.031316 -0.004331
# 6 0.006036 0.003297 0.002144 0.005577 -0.004331 0.029250
#
#
# Mechanical properties :
#
#
# Convention : Reuss Voigt Hill
#
# Bulk Modulus (GPa) = 49.63276 86.84294 68.23785
# Shear Modulus (GPa) = 32.97202 45.96873 39.47038
#
# Velocity S-wave (km/s) = 3.56231 4.20620 3.89757
# Velocity P-wave (km/s) = 6.00186 7.55069 6.82038
#
# Compressibility (1/GPa) = 0.02014798
#
# Stress axis : x y z
#
# Youngs Moduli (GPa) = 66.29006 59.46066 153.24163
#
# Poissons Ratio (x) = 0.42240 0.06143
# Poissons Ratio (y) = 0.47092 0.25064
# Poissons Ratio (z) = 0.02657 0.09725
#
# Static dielectric constant tensor:
#      x y z
#    x 1.963850 -0.190040 -0.032890 
#    y -0.190040 1.794500 0.047910 
#    z -0.032890 0.047910 1.964050 
# 
# From -- ./inp_files/422559.got.cif
#   From: 2010.05.17/outbox.cif.g08.bks.cpg/sg2_212_cif.got.tgz:422559.got - 2010.06.03 11:33:40.
