data_PCOD9071316
_publ_section_title
;
Structure prediction by ZEFSAII (Michael W. Deem and Ramdas Pophale) SiO2 
 PCOD9071316
Probable space group: P -1
;
_chemical_formula_sum "Si O2"
_cell_formula_units_Z 16
_cell_length_a 9.176162
_cell_length_b 27.867887
_cell_length_c 15.104120
_cell_angle_alpha 160.380196
_cell_angle_beta 48.190162
_cell_angle_gamma 142.592894
_cell_volume 722.120169
_symmetry_space_group_name_H-M "P -1"
_symmetry_group_IT_number 2
_symmetry_cell_setting 'triclinic'
loop_
_space_group_symop_operation_xyz
x,y,z
-x,-y,-z
loop_
_atom_site_type_symbol
_atom_site_label
_atom_site_fract_x
_atom_site_fract_y
_atom_site_fract_z
Si Si1 0.928853 0.988931 0.197956
Si Si2 0.022992 0.459437 0.817587
Si Si3 0.915692 0.118324 0.719940
Si Si4 0.537858 0.583546 0.729899
Si Si5 0.446468 0.102852 0.133012
Si Si6 0.805120 0.643917 0.153793
Si Si7 0.388691 0.979079 0.749612
Si Si8 0.785326 0.501586 0.629046
O O1 0.716735 0.949723 0.148281
O O2 0.142856 0.995143 0.074441
O O3 0.097817 0.202784 0.540949
O O4 0.774366 0.813406 0.024509
O O5 0.295934 0.549971 0.816411
O O6 0.852957 0.234412 0.494348
O O7 0.000000 0.500000 0.000000
O O8 0.885473 0.521435 0.929288
O O9 0.018019 0.214017 0.750253
O O10 0.606581 0.991298 0.633519
O O11 0.000000 0.000000 0.500000
O O12 0.065743 0.295994 0.034205
O O13 0.500000 0.500000 0.500000
O O14 0.610464 0.487568 0.598491
O O15 0.619442 0.329662 0.469045
O O16 0.500000 0.000000 0.000000
O O17 0.509846 0.091990 0.988055
O O18 0.500000 0.500000 0.000000
O O19 0.000000 0.500000 0.500000
#
# Coordination Sequence:
#
# PCOD9071316 Si02
#       8
#     2   2   2   2   2   2   2   2
#     4  12  26  48  75 107 145 195 245 308 372 447
#     4  12  28  48  74 110 150 196 244 311 376 447
#     4  12  28  46  77 110 149 194 250 309 374 442
#     4  12  28  49  78 108 149 195 253 305 374 449
#     4  12  27  46  76 108 150 193 251 305 372 448
#     4  12  28  47  76 107 148 193 250 304 378 451
#     4  12  26  48  74 106 150 193 248 307 372 443
#     4  12  26  48  76 109 152 195 249 312 373 442
#
# _framework density 22.156976
#
# number of rings (size 3 to 8) (size 9 to 14) (size 15 to 20)
#    0.000    0.000    2.500    6.375   12.250    1.000 
#    0.000    0.000    0.000    0.000    0.000    0.000 
#    0.000    0.000    0.000    0.000    0.000    0.000 
#
# Total GULP energy -89528.031373 kJ/mol
# GULP energy per Si atom -5595.501961 kJ/mol
# Density = 2.210655 g / cm^3
# Si number density = 22.156976 Si / 1000 Ang^3
#
#
#
# Elastic Constant Matrix: (Units=GPa)
#
#
# Indices 1 2 3 4 5 6 
#
# 1 155.5698 48.3391 22.0248 -10.6300 -41.8552 3.2577
# 2 48.3391 149.9931 17.7770 6.4192 -22.3699 23.4454
# 3 22.0248 17.7770 100.9910 4.6174 -11.0488 0.8455
# 4 -10.6300 6.4192 4.6174 50.3818 -6.0310 -0.8605
# 5 -41.8552 -22.3699 -11.0488 -6.0310 45.5854 -3.4074
# 6 3.2577 23.4454 0.8455 -0.8605 -3.4074 41.6034
#
#
#
# Elastic Compliance Matrix: (Units=1/GPa)
#
#
# Indices 1 2 3 4 5 6 
#
# 1 0.009601 -0.002100 -0.001005 0.003372 0.008076 0.001183
# 2 -0.002100 0.008414 -0.000760 -0.001342 0.001505 -0.004466
# 3 -0.001005 -0.000760 0.010418 -0.000928 0.001135 0.000369
# 4 0.003372 -0.001342 -0.000928 0.021457 0.005155 0.001377
# 5 0.008076 0.001505 0.001135 0.005155 0.031134 0.001153
# 6 0.001183 -0.004466 0.000369 0.001377 0.001153 0.026576
#
#
# Mechanical properties :
#
#
# Convention : Reuss Voigt Hill
#
# Bulk Modulus (GPa) = 48.29896 64.75954 56.52925
# Shear Modulus (GPa) = 40.90648 48.74166 44.82407
#
# Velocity S-wave (km/s) = 4.30142 4.69533 4.50268
# Velocity P-wave (km/s) = 6.82022 7.66067 7.25263
#
# Compressibility (1/GPa) = 0.02070438
#
# Stress axis : x y z
#
# Youngs Moduli (GPa) = 104.15325 118.85250 95.98604
#
# Poissons Ratio (x) = 0.24959 0.09645
# Poissons Ratio (y) = 0.21872 0.07292
# Poissons Ratio (z) = 0.10465 0.09029
#
# Static dielectric constant tensor:
#      x y z
#    x 1.781520 -0.012150 0.111320 
#    y -0.012150 1.800140 -0.042620 
#    z 0.111320 -0.042620 1.977990 
# 
# From -- ./inp_files/347680.got.cif
#   From: 2010.05.17/outbox.cif.g08.bks.cpg/sg2_174_cif.got.tgz:347680.got - 2010.06.03 11:33:40.
