data_PCOD9071183
_publ_section_title
;
Structure prediction by ZEFSAII (Michael W. Deem and Ramdas Pophale) SiO2 
 PCOD9071183
Probable space group: P -1
;
_chemical_formula_sum "Si O2"
_cell_formula_units_Z 16
_cell_length_a 4.902002
_cell_length_b 8.849430
_cell_length_c 16.963916
_cell_angle_alpha 100.324856
_cell_angle_beta 113.065916
_cell_angle_gamma 81.481342
_cell_volume 663.626651
_symmetry_space_group_name_H-M "P -1"
_symmetry_group_IT_number 2
_symmetry_cell_setting 'triclinic'
loop_
_space_group_symop_operation_xyz
x,y,z
-x,-y,-z
loop_
_atom_site_type_symbol
_atom_site_label
_atom_site_fract_x
_atom_site_fract_y
_atom_site_fract_z
Si Si1 0.426055 0.922067 0.146954
Si Si2 0.237548 0.135935 0.963647
Si Si3 0.601434 0.332252 0.766920
Si Si4 0.737126 0.235886 0.216789
Si Si5 0.443073 0.434431 0.074674
Si Si6 0.627249 0.709969 0.666151
Si Si7 0.716460 0.113758 0.496703
Si Si8 0.067115 0.620227 0.344264
O O1 0.647763 0.818067 0.105294
O O2 0.419815 0.841917 0.222887
O O3 0.568612 0.082708 0.175633
O O4 0.082770 0.202335 0.271441
O O5 0.916008 0.071963 0.919423
O O6 0.231446 0.293344 0.027718
O O7 0.500000 0.000000 0.000000
O O8 0.656785 0.432567 0.861121
O O9 0.857256 0.349270 0.735193
O O10 0.287397 0.376811 0.692684
O O11 0.712907 0.340567 0.145034
O O12 0.560063 0.314583 0.278319
O O13 0.500000 0.500000 0.000000
O O14 0.425563 0.804844 0.589382
O O15 0.767682 0.546456 0.633254
O O16 0.806623 0.248286 0.577013
O O17 0.500000 0.000000 0.500000
O O18 0.000000 0.000000 0.500000
#
# Coordination Sequence:
#
# PCOD9071183 Si02
#       8
#     2   2   2   2   2   2   2   2
#     4  12  27  45  68 104 146 197 252 313 385 441
#     4  12  26  45  68  97 142 197 253 317 376 445
#     4  12  27  46  75 111 149 200 257 316 381 454
#     4  12  27  46  78 108 152 204 264 311 384 458
#     4  12  26  48  73 107 151 199 261 324 376 448
#     4  12  26  51  79 113 157 205 251 315 384 464
#     4  12  29  50  80 123 157 198 250 314 386 461
#     4  12  26  51  77 112 157 199 253 309 385 467
#
# _framework density 24.109940999999999
#
# number of rings (size 3 to 8) (size 9 to 14) (size 15 to 20)
#    0.000    0.000    5.000    3.750    5.250    1.500 
#    0.000    3.750    0.000    0.000    0.000    0.000 
#    0.000    0.000    0.000    0.000    0.000    0.000 
#
# Total GULP energy -89608.060638 kJ/mol
# GULP energy per Si atom -5600.503790 kJ/mol
# Density = 2.405507 g / cm^3
# Si number density = 24.109941 Si / 1000 Ang^3
#
#
#
# Elastic Constant Matrix: (Units=GPa)
#
#
# Indices 1 2 3 4 5 6 
#
# 1 131.9990 38.1896 48.1320 2.4918 21.8868 5.2267
# 2 38.1896 148.8622 76.1539 -10.2069 18.5256 11.9101
# 3 48.1320 76.1539 129.2878 4.8478 26.0962 3.6311
# 4 2.4918 -10.2069 4.8478 43.4728 -0.4336 8.3491
# 5 21.8868 18.5256 26.0962 -0.4336 30.0536 -0.1946
# 6 5.2267 11.9101 3.6311 8.3491 -0.1946 42.8118
#
#
#
# Elastic Compliance Matrix: (Units=1/GPa)
#
#
# Indices 1 2 3 4 5 6 
#
# 1 0.009339 -0.000727 -0.002098 -0.000382 -0.004542 -0.000706
# 2 -0.000727 0.010465 -0.005770 0.003722 -0.000877 -0.003063
# 3 -0.002098 -0.005770 0.013304 -0.003032 -0.006503 0.001295
# 4 -0.000382 0.003722 -0.003032 0.025335 0.000945 -0.005668
# 5 -0.004542 -0.000877 -0.006503 0.000945 0.042792 0.001360
# 6 -0.000706 -0.003063 0.001295 -0.005668 0.001360 0.025298
#
#
# Mechanical properties :
#
#
# Convention : Reuss Voigt Hill
#
# Bulk Modulus (GPa) = 62.81772 81.67779 72.24775
# Shear Modulus (GPa) = 33.55023 39.77920 36.66471
#
# Velocity S-wave (km/s) = 3.73440 4.06631 3.90388
# Velocity P-wave (km/s) = 6.68622 7.48313 7.09587
#
# Compressibility (1/GPa) = 0.01591908
#
# Stress axis : x y z
#
# Youngs Moduli (GPa) = 107.07363 95.55217 75.16349
#
# Poissons Ratio (x) = 0.06950 0.15766
# Poissons Ratio (y) = 0.07788 0.43370
# Poissons Ratio (z) = 0.22460 0.55135
#
# Static dielectric constant tensor:
#      x y z
#    x 1.860170 -0.016770 -0.019430 
#    y -0.016770 2.007130 0.034970 
#    z -0.019430 0.034970 1.998300 
# 
# From -- ./inp_files/343920.got.cif
#   From: 2010.05.17/outbox.cif.g08.bks.cpg/sg2_172_cif.got.tgz:343920.got - 2010.06.03 11:33:40.
