data_PCOD9071614
_publ_section_title
;
Structure prediction by ZEFSAII (Michael W. Deem and Ramdas Pophale) SiO2 
 PCOD9071614
Probable space group: P -1
;
_chemical_formula_sum "Si O2"
_cell_formula_units_Z 12
_cell_length_a 8.889751
_cell_length_b 16.283086
_cell_length_c 6.891915
_cell_angle_alpha 102.820540
_cell_angle_beta 110.182682
_cell_angle_gamma 28.620521
_cell_volume 441.193201
_symmetry_space_group_name_H-M "P -1"
_symmetry_group_IT_number 2
_symmetry_cell_setting 'triclinic'
loop_
_space_group_symop_operation_xyz
x,y,z
-x,-y,-z
loop_
_atom_site_type_symbol
_atom_site_label
_atom_site_fract_x
_atom_site_fract_y
_atom_site_fract_z
Si Si1 0.711880 0.231711 0.482711
Si Si2 0.278172 0.015649 0.846398
Si Si3 0.268884 0.164622 0.609821
Si Si4 0.647872 0.490068 0.235801
Si Si5 0.888459 0.965831 0.830093
Si Si6 0.864227 0.618965 0.826333
O O1 0.936814 0.324633 0.422996
O O2 0.386656 0.324758 0.375091
O O3 0.859671 0.174283 0.301550
O O4 0.607757 0.359056 0.636511
O O5 0.042418 0.055514 0.654994
O O6 0.632106 0.804750 0.885679
O O7 0.258802 0.112182 0.772419
O O8 0.124172 0.095348 0.032702
O O9 0.500000 0.000000 0.500000
O O10 0.492338 0.147245 0.700341
O O11 0.824139 0.486789 0.203039
O O12 0.500000 0.500000 0.000000
O O13 0.000000 0.000000 0.000000
O O14 0.000000 0.500000 0.000000
#
# Coordination Sequence:
#
# PCOD9071614 Si02
#       6
#     2   2   2   2   2   2
#     4  12  29  53  87 125 171 227 287 358 429 515
#     4  12  28  53  92 120 178 223 292 344 444 509
#     4  12  27  56  87 125 174 234 290 354 433 522
#     4  12  32  57  88 128 178 227 291 361 437 513
#     4  12  28  52  88 130 169 226 290 353 429 520
#     4  12  29  54  86 128 174 225 288 363 434 508
#
# _framework density 27.198969000000002
#
# number of rings (size 3 to 8) (size 9 to 14) (size 15 to 20)
#    0.000    0.000    5.000    1.500   11.667    2.000 
#    0.000    1.667    0.000    0.000    0.000    0.000 
#    0.000    0.000    0.000    0.000    0.000    0.000 
#
# Total GULP energy -67120.481976 kJ/mol
# GULP energy per Si atom -5593.373498 kJ/mol
# Density = 2.713706 g / cm^3
# Si number density = 27.198969 Si / 1000 Ang^3
#
#
#
# Elastic Constant Matrix: (Units=GPa)
#
#
# Indices 1 2 3 4 5 6 
#
# 1 220.6396 60.2477 102.6650 15.4995 17.0366 -18.8927
# 2 60.2477 149.7338 93.6571 19.7007 -0.9584 -15.4361
# 3 102.6650 93.6571 198.8890 19.3033 -13.9487 0.1840
# 4 15.4995 19.7007 19.3033 68.3888 -1.1234 -9.8169
# 5 17.0366 -0.9584 -13.9487 -1.1234 78.2625 9.1799
# 6 -18.8927 -15.4361 0.1840 -9.8169 9.1799 38.7053
#
#
#
# Elastic Compliance Matrix: (Units=1/GPa)
#
#
# Indices 1 2 3 4 5 6 
#
# 1 0.006788 -0.000053 -0.003668 0.000034 -0.002593 0.003933
# 2 -0.000053 0.010244 -0.004787 -0.001018 -0.001213 0.004112
# 3 -0.003668 -0.004787 0.009495 -0.001100 0.002971 -0.004728
# 4 0.000034 -0.001018 -0.001100 0.015744 -0.000425 0.003710
# 5 -0.002593 -0.001213 0.002971 -0.000425 0.014473 -0.005304
# 6 0.003933 0.004112 -0.004728 0.003710 -0.005304 0.031618
#
#
# Mechanical properties :
#
#
# Convention : Reuss Voigt Hill
#
# Bulk Modulus (GPa) = 105.13032 120.26690 112.69861
# Shear Modulus (GPa) = 46.06353 57.91751 51.99052
#
# Velocity S-wave (km/s) = 4.11977 4.61955 4.37680
# Velocity P-wave (km/s) = 7.83366 8.53036 8.18942
#
# Compressibility (1/GPa) = 0.00951200
#
# Stress axis : x y z
#
# Youngs Moduli (GPa) = 147.31947 97.61988 105.32002
#
# Poissons Ratio (x) = 0.00513 0.38631
# Poissons Ratio (y) = 0.00774 0.50415
# Poissons Ratio (z) = 0.54036 0.46729
#
# Static dielectric constant tensor:
#      x y z
#    x 2.289920 0.005170 0.082930 
#    y 0.005170 2.151070 -0.100510 
#    z 0.082930 -0.100510 2.383870 
# 
# From -- ./inp_files/210347.got.cif
#   From: 2010.05.17/outbox.cif.g08.bks.cpg/sg2_106_cif.got.tgz:210347.got - 2010.06.03 11:33:40.
