data_PCOD9071519
_publ_section_title
;
Structure prediction by ZEFSAII (Michael W. Deem and Ramdas Pophale) SiO2 
 PCOD9071519
Probable space group: P -1
;
_chemical_formula_sum "Si O2"
_cell_formula_units_Z 8
_cell_length_a 14.807204
_cell_length_b 7.262557
_cell_length_c 5.235525
_cell_angle_alpha 71.190204
_cell_angle_beta 81.359610
_cell_angle_gamma 38.703568
_cell_volume 328.323792
_symmetry_space_group_name_H-M "P -1"
_symmetry_group_IT_number 2
_symmetry_cell_setting 'triclinic'
loop_
_space_group_symop_operation_xyz
x,y,z
-x,-y,-z
loop_
_atom_site_type_symbol
_atom_site_label
_atom_site_fract_x
_atom_site_fract_y
_atom_site_fract_z
Si Si1 0.093388 0.887979 0.760172
Si Si2 0.733251 0.035059 0.455715
Si Si3 0.316546 0.255016 0.163167
Si Si4 0.443046 0.365150 0.426924
O O1 0.153976 0.007161 0.699321
O O2 0.230956 0.509058 0.867200
O O3 0.000000 0.000000 0.500000
O O4 0.000000 0.000000 0.000000
O O5 0.587181 0.208309 0.287626
O O6 0.661402 0.290846 0.590858
O O7 0.788184 0.741488 0.681986
O O8 0.354549 0.358118 0.305814
O O9 0.471787 0.880687 0.259397
#
# Coordination Sequence:
#
# PCOD9071519 Si02
#       4
#     2   2   2   2
#     4  12  27  44  64  96 137 186 230 258 314 408
#     4   9  19  40  67  98 130 167 213 284 333 390
#     4   9  19  40  67  98 130 167 213 284 333 390
#     4   8  17  40  68 106 121 160 218 282 350 386
#
# _framework density 24.366191000000001
#
# number of rings (size 3 to 8) (size 9 to 14) (size 15 to 20)
#    1.500    1.000    0.000    1.500    0.000    4.000 
#    0.000    5.000    0.000    0.000    0.000    0.000 
#    0.000    0.000    0.000    0.000    0.000    0.000 
#
# Total GULP energy -44620.038116 kJ/mol
# GULP energy per Si atom -5577.504765 kJ/mol
# Density = 2.431073 g / cm^3
# Si number density = 24.366191 Si / 1000 Ang^3
#
#
#
# Elastic Constant Matrix: (Units=GPa)
#
#
# Indices 1 2 3 4 5 6 
#
# 1 210.7625 52.1771 73.4442 -7.8667 -36.5886 1.9574
# 2 52.1771 66.9753 38.1164 -2.3684 3.1821 -15.5075
# 3 73.4442 38.1164 142.1005 -27.7425 9.7340 -7.7602
# 4 -7.8667 -2.3684 -27.7425 37.2453 -2.7680 -8.9369
# 5 -36.5886 3.1821 9.7340 -2.7680 26.7140 5.5256
# 6 1.9574 -15.5075 -7.7602 -8.9369 5.5256 47.0483
#
#
#
# Elastic Compliance Matrix: (Units=1/GPa)
#
#
# Indices 1 2 3 4 5 6 
#
# 1 0.013966 -0.009966 -0.007352 -0.003408 0.024418 -0.008594
# 2 -0.009966 0.026147 0.000300 0.001128 -0.019145 0.011545
# 3 -0.007352 0.000300 0.013965 0.009221 -0.015538 0.006284
# 4 -0.003408 0.001128 0.009221 0.034846 -0.006499 0.009417
# 5 0.024418 -0.019145 -0.015538 -0.006499 0.082451 -0.020807
# 6 -0.008594 0.011545 0.006284 0.009417 -0.020807 0.030687
#
#
# Mechanical properties :
#
#
# Convention : Reuss Voigt Hill
#
# Bulk Modulus (GPa) = 49.89997 83.03488 66.46742
# Shear Modulus (GPa) = 20.59492 39.27488 29.93490
#
# Velocity S-wave (km/s) = 2.91043 4.01915 3.50886
# Velocity P-wave (km/s) = 5.64073 7.46257 6.61467
#
# Compressibility (1/GPa) = 0.02004009
#
# Stress axis : x y z
#
# Youngs Moduli (GPa) = 71.60450 38.24496 71.60978
#
# Poissons Ratio (x) = 0.38116 0.52648
# Poissons Ratio (y) = 0.71363 -0.02145
# Poissons Ratio (z) = 0.52644 -0.01146
#
# Static dielectric constant tensor:
#      x y z
#    x 1.981430 -0.093230 -0.118060 
#    y -0.093230 1.994490 0.054210 
#    z -0.118060 0.054210 2.000050 
# 
# From -- ./inp_files/25959.got.cif
#   From: 2010.05.17/outbox.cif.g08.bks.cpg/sg2_13_cif.got.tgz:25959.got - 2010.06.03 11:33:40.
