data_PCOD9071077
_publ_section_title
;
Structure prediction by ZEFSAII (Michael W. Deem and Ramdas Pophale) SiO2 
 PCOD9071077
Probable space group: P -1
;
_chemical_formula_sum "Si O2"
_cell_formula_units_Z 14
_cell_length_a 13.696843
_cell_length_b 6.813471
_cell_length_c 10.845616
_cell_angle_alpha 94.312396
_cell_angle_beta 32.503532
_cell_angle_gamma 98.185720
_cell_volume 536.416711
_symmetry_space_group_name_H-M "P -1"
_symmetry_group_IT_number 2
_symmetry_cell_setting 'triclinic'
loop_
_space_group_symop_operation_xyz
x,y,z
-x,-y,-z
loop_
_atom_site_type_symbol
_atom_site_label
_atom_site_fract_x
_atom_site_fract_y
_atom_site_fract_z
Si Si1 0.706547 0.112517 0.775346
Si Si2 0.911948 0.024847 0.305751
Si Si3 0.138985 0.665083 0.057131
Si Si4 0.516050 0.511289 0.225586
Si Si5 0.355984 0.807157 0.594363
Si Si6 0.195552 0.186493 0.174043
Si Si7 0.173932 0.452244 0.430759
O O1 0.742668 0.345047 0.718710
O O2 0.804439 0.027221 0.549532
O O3 0.793613 0.036863 0.804077
O O4 0.500000 0.000000 0.000000
O O5 0.999399 0.826663 0.184990
O O6 0.781647 0.096717 0.345775
O O7 0.098943 0.173653 0.144476
O O8 0.993569 0.532295 0.297465
O O9 0.334253 0.632784 0.913603
O O10 0.229520 0.678754 0.824252
O O11 0.456059 0.643092 0.408836
O O12 0.339582 0.402246 0.337683
O O13 0.608870 0.685308 0.045145
O O14 0.500000 0.000000 0.500000
O O15 0.113097 0.295061 0.380355
#
# Coordination Sequence:
#
# PCOD9071077 Si02
#       7
#     2   2   2   2   2   2   2
#     4  12  25  49  80 118 175 221 274 337 414 508
#     4  12  27  53  80 127 161 226 280 348 425 502
#     4  12  30  51  88 120 171 220 287 352 416 493
#     4  12  28  53  82 127 163 220 284 344 423 497
#     4  12  29  59  85 116 164 225 290 349 426 497
#     4  12  27  50  82 123 177 213 280 343 419 512
#     4  12  28  52  84 129 170 224 277 340 431 501
#
# _framework density 26.099112000000002
#
# number of rings (size 3 to 8) (size 9 to 14) (size 15 to 20)
#    0.000    0.000    4.286    3.429    4.000    1.714 
#    2.571    0.000    0.000    0.000    0.000    0.000 
#    0.000    0.000    0.000    0.000    0.000    0.000 
#
# Total GULP energy -78143.815592 kJ/mol
# GULP energy per Si atom -5581.701114 kJ/mol
# Density = 2.603971 g / cm^3
# Si number density = 26.099112 Si / 1000 Ang^3
#
#
#
# Elastic Constant Matrix: (Units=GPa)
#
#
# Indices 1 2 3 4 5 6 
#
# 1 170.5481 41.3651 36.3102 7.1618 -33.2703 -33.3891
# 2 41.3651 142.1477 24.4976 23.8683 2.5236 -12.7475
# 3 36.3102 24.4976 144.5705 8.0417 0.2370 -14.5027
# 4 7.1618 23.8683 8.0417 40.5557 -6.8387 -12.8539
# 5 -33.2703 2.5236 0.2370 -6.8387 56.0914 -0.6110
# 6 -33.3891 -12.7475 -14.5027 -12.8539 -0.6110 45.2998
#
#
#
# Elastic Compliance Matrix: (Units=1/GPa)
#
#
# Indices 1 2 3 4 5 6 
#
# 1 0.009059 -0.002453 -0.001392 0.003192 0.005950 0.006527
# 2 -0.002453 0.008704 -0.000670 -0.005334 -0.002506 -0.001120
# 3 -0.001392 -0.000670 0.007519 -0.000690 -0.000901 0.000984
# 4 0.003192 -0.005334 -0.000690 0.031448 0.006075 0.009636
# 5 0.005950 -0.002506 -0.000901 0.006075 0.022273 0.005416
# 6 0.006527 -0.001120 0.000984 0.009636 0.005416 0.029693
#
#
# Mechanical properties :
#
#
# Convention : Reuss Voigt Hill
#
# Bulk Modulus (GPa) = 61.53244 73.51245 67.52244
# Shear Modulus (GPa) = 40.60252 52.06229 46.33240
#
# Velocity S-wave (km/s) = 3.94852 4.47115 4.21794
# Velocity P-wave (km/s) = 6.66449 7.40829 7.04621
#
# Compressibility (1/GPa) = 0.01625159
#
# Stress axis : x y z
#
# Youngs Moduli (GPa) = 110.38409 114.89177 132.99736
#
# Poissons Ratio (x) = 0.28177 0.18516
# Poissons Ratio (y) = 0.27072 0.08917
# Poissons Ratio (z) = 0.15368 0.07703
#
# Static dielectric constant tensor:
#      x y z
#    x 2.149300 0.057490 -0.024340 
#    y 0.057490 2.260840 -0.024840 
#    z -0.024340 -0.024840 2.044820 
# 
# From -- ./inp_files/444424.got.cif
#   From: 2010.05.17/outbox.cif.g08.bks.cpg/sg2_223_cif.got.tgz:444424.got - 2010.06.03 11:33:40.
