data_PCOD9071545
_publ_section_title
;
Structure prediction by ZEFSAII (Michael W. Deem and Ramdas Pophale) SiO2 
 PCOD9071545
Probable space group: P -1
;
_chemical_formula_sum "Si O2"
_cell_formula_units_Z 13
_cell_length_a 11.344359
_cell_length_b 8.961442
_cell_length_c 14.294751
_cell_angle_alpha 30.924295
_cell_angle_beta 134.363244
_cell_angle_gamma 124.701238
_cell_volume 532.074714
_symmetry_space_group_name_H-M "P -1"
_symmetry_group_IT_number 2
_symmetry_cell_setting 'triclinic'
loop_
_space_group_symop_operation_xyz
x,y,z
-x,-y,-z
loop_
_atom_site_type_symbol
_atom_site_label
_atom_site_fract_x
_atom_site_fract_y
_atom_site_fract_z
Si Si1 0.665354 0.651111 0.485919
Si Si2 0.690192 0.925945 0.160218
Si Si3 0.996270 0.673152 0.139479
Si Si4 0.500000 0.000000 0.500000
Si Si5 0.421912 0.787540 0.747879
Si Si6 0.179377 0.463311 0.067805
Si Si7 0.148358 0.476000 0.670251
O O1 0.500000 0.500000 0.500000
O O2 0.700166 0.679516 0.378659
O O3 0.823790 0.465398 0.714689
O O4 0.652835 0.977108 0.346468
O O5 0.760757 0.824569 0.153130
O O6 0.500000 0.000000 0.000000
O O7 0.771178 0.207882 0.087634
O O8 0.929035 0.505327 0.281070
O O9 0.872005 0.651392 0.998802
O O10 0.000000 0.000000 0.000000
O O11 0.544216 0.948409 0.662817
O O12 0.659245 0.740757 0.698705
O O13 0.296853 0.689525 0.647570
O O14 0.500000 0.500000 0.000000
O O15 0.000000 0.500000 0.000000
O O16 0.000000 0.500000 0.500000
#
# Coordination Sequence:
#
# PCOD9071545 Si02
#       7
#     2   2   2   1   2   2   2
#     4  12  30  50  80 116 164 222 276 345 427 502
#     4  12  28  51  80 118 165 212 279 347 420 508
#     4  12  29  49  78 118 166 212 281 347 417 507
#     4  12  28  48  86 112 164 214 272 344 428 482
#     4  12  29  52  80 120 161 217 280 340 424 507
#     4  12  29  51  84 125 165 219 285 346 427 515
#     4  12  27  48  78 114 156 209 266 341 415 490
#
# _framework density 24.432659999999998
#
# number of rings (size 3 to 8) (size 9 to 14) (size 15 to 20)
#    0.000    0.000    1.538    6.462   19.385    1.231 
#    0.000    0.000    0.000    0.000    0.000    0.000 
#    0.000    0.000    0.000    0.000    0.000    0.000 
#
# Total GULP energy -72467.635280 kJ/mol
# GULP energy per Si atom -5574.433483 kJ/mol
# Density = 2.437705 g / cm^3
# Si number density = 24.432660 Si / 1000 Ang^3
#
#
#
# Elastic Constant Matrix: (Units=GPa)
#
#
# Indices 1 2 3 4 5 6 
#
# 1 106.6139 13.0535 46.2239 5.2551 28.7823 -13.9621
# 2 13.0535 152.8795 32.6042 -3.3538 14.8956 -0.7319
# 3 46.2239 32.6042 125.0090 5.0629 28.5052 8.9825
# 4 5.2551 -3.3538 5.0629 47.1591 -2.2001 2.7076
# 5 28.7823 14.8956 28.5052 -2.2001 56.2903 6.6625
# 6 -13.9621 -0.7319 8.9825 2.7076 6.6625 36.7276
#
#
#
# Elastic Compliance Matrix: (Units=1/GPa)
#
#
# Indices 1 2 3 4 5 6 
#
# 1 0.013911 0.000316 -0.004338 -0.001775 -0.005965 0.007568
# 2 0.000316 0.007023 -0.001757 0.000546 -0.001212 0.000869
# 3 -0.004338 -0.001757 0.010919 -0.000705 -0.002417 -0.003864
# 4 -0.001775 0.000546 -0.000705 0.021767 0.002267 -0.002507
# 5 -0.005965 -0.001212 -0.002417 0.002267 0.023166 -0.006070
# 6 0.007568 0.000869 -0.003864 -0.002507 -0.006070 0.032353
#
#
# Mechanical properties :
#
#
# Convention : Reuss Voigt Hill
#
# Bulk Modulus (GPa) = 49.27336 63.14063 56.20699
# Shear Modulus (GPa) = 39.22765 47.54345 43.38555
#
# Velocity S-wave (km/s) = 4.01127 4.41602 4.21850
# Velocity P-wave (km/s) = 6.45480 7.20420 6.83977
#
# Compressibility (1/GPa) = 0.02029494
#
# Stress axis : x y z
#
# Youngs Moduli (GPa) = 71.88761 142.38905 91.58502
#
# Poissons Ratio (x) = -0.04497 0.39728
# Poissons Ratio (y) = -0.02270 0.16089
# Poissons Ratio (z) = 0.31184 0.25014
#
# Static dielectric constant tensor:
#      x y z
#    x 3.110700 0.856620 -0.133650 
#    y 0.856620 2.479210 -0.064470 
#    z -0.133650 -0.064470 2.018640 
# 
# From -- ./inp_files/179388.got.cif
#   From: 2010.05.17/outbox.cif.g08.bks.cpg/sg2_90_cif.got.tgz:179388.got - 2010.06.03 11:33:40.
