data_PCOD9071090
_publ_section_title
;
Structure prediction by ZEFSAII (Michael W. Deem and Ramdas Pophale) SiO2 
 PCOD9071090
Probable space group: P -1
;
_chemical_formula_sum "Si O2"
_cell_formula_units_Z 14
_cell_length_a 24.665617
_cell_length_b 13.712358
_cell_length_c 24.651327
_cell_angle_alpha 163.599217
_cell_angle_beta 15.982625
_cell_angle_gamma 156.314619
_cell_volume 645.969294
_symmetry_space_group_name_H-M "P -1"
_symmetry_group_IT_number 2
_symmetry_cell_setting 'triclinic'
loop_
_space_group_symop_operation_xyz
x,y,z
-x,-y,-z
loop_
_atom_site_type_symbol
_atom_site_label
_atom_site_fract_x
_atom_site_fract_y
_atom_site_fract_z
Si Si1 0.638430 0.874159 0.661307
Si Si2 0.658088 0.113490 0.951680
Si Si3 0.054876 0.634682 0.337949
Si Si4 0.121540 0.707760 0.948242
Si Si5 0.284277 0.179160 0.785300
Si Si6 0.386732 0.316643 0.057996
Si Si7 0.098127 0.804396 0.666716
O O1 0.727455 0.556963 0.370723
O O2 0.804963 0.049059 0.628745
O O3 0.456860 0.810518 0.841021
O O4 0.553348 0.153200 0.849688
O O5 0.713660 0.476299 0.068937
O O6 0.840047 0.819985 0.626850
O O7 0.500000 0.000000 0.000000
O O8 0.046984 0.474820 0.320770
O O9 0.152950 0.326568 0.041133
O O10 0.000000 0.500000 0.000000
O O11 0.243871 0.015818 0.018907
O O12 0.989475 0.886324 0.122046
O O13 0.500000 0.000000 0.500000
O O14 0.186593 0.921129 0.700927
O O15 0.259105 0.602228 0.367085
O O16 0.500000 0.500000 0.000000
#
# Coordination Sequence:
#
# PCOD9071090 Si02
#       7
#     2   2   2   2   2   2   2
#     4  12  26  46  77 104 144 191 242 301 370 433
#     4  12  26  46  74 107 148 193 241 296 366 449
#     4  12  25  50  72 110 149 191 237 297 373 448
#     4  12  28  47  74 108 144 195 254 308 367 432
#     4  12  27  44  74 111 150 188 242 294 367 454
#     4  12  26  49  72 105 145 189 251 309 360 434
#     4  12  26  45  75 103 148 190 236 300 372 428
#
# _framework density 21.672857
#
# number of rings (size 3 to 8) (size 9 to 14) (size 15 to 20)
#    0.000    0.000    2.857    6.857    8.000    0.000 
#    0.000    0.000    0.000    0.000    0.000    0.000 
#    0.000    0.000    0.000    0.000    0.000    0.000 
#
# Total GULP energy -78260.746482 kJ/mol
# GULP energy per Si atom -5590.053320 kJ/mol
# Density = 2.162353 g / cm^3
# Si number density = 21.672857 Si / 1000 Ang^3
#
#
#
# Elastic Constant Matrix: (Units=GPa)
#
#
# Indices 1 2 3 4 5 6 
#
# 1 -12.9422 -34.6522 -57.3458 -44.1873 -53.9955 -85.4169
# 2 -34.6522 60.7986 -49.9480 -31.6353 -25.8189 -72.1063
# 3 -57.3458 -49.9480 69.3393 -40.1444 -51.9619 -101.7715
# 4 -44.1873 -31.6353 -40.1444 28.7651 -23.0294 -9.3069
# 5 -53.9955 -25.8189 -51.9619 -23.0294 35.1073 -30.1807
# 6 -85.4169 -72.1063 -101.7715 -9.3069 -30.1807 23.4997
#
#
#
# Elastic Compliance Matrix: (Units=1/GPa)
#
#
# Indices 1 2 3 4 5 6 
#
# 1 0.010877 -0.006216 -0.005518 -0.000885 -0.001506 -0.005719
# 2 -0.006216 0.010400 -0.000725 -0.001939 -0.003754 0.000586
# 3 -0.005518 -0.000725 0.005968 -0.002672 -0.002088 -0.000174
# 4 -0.000885 -0.001939 -0.002672 0.024607 0.000512 -0.010338
# 5 -0.001506 -0.003754 -0.002088 0.000512 0.014989 -0.006586
# 6 -0.005719 0.000586 -0.000174 -0.010338 -0.006586 0.010257
#
#
# Mechanical properties :
#
#
# Convention : Reuss Voigt Hill
#
# Bulk Modulus (GPa) = 429.73413 -18.52183 205.60615
# Shear Modulus (GPa) = 48.64112 34.75054 41.69583
#
# Velocity S-wave (km/s) = 4.74258 4.00861 4.39096
# Velocity P-wave (km/s) = 15.12290 3.58617 10.99006
#
# Compressibility (1/GPa) = 0.00232702
#
# Stress axis : x y z
#
# Youngs Moduli (GPa) = 91.93690 96.14984 167.54885
#
# Poissons Ratio (x) = 0.59771 0.92447
# Poissons Ratio (y) = 0.57152 0.12153
# Poissons Ratio (z) = 0.50727 0.06974
#
# Static dielectric constant tensor:
#      x y z
#    x 1.853430 0.105600 0.034060 
#    y 0.105600 2.258050 0.044860 
#    z 0.034060 0.044860 1.730630 
# 
# From -- ./inp_files/137119.got.cif
#   From: 2010.05.17/outbox.cif.g08.bks.cpg/sg2_69_cif.got.tgz:137119.got - 2010.06.03 11:33:40.
