data_PCOD9071927
_publ_section_title
;
Structure prediction by ZEFSAII (Michael W. Deem and Ramdas Pophale) SiO2 
 PCOD9071927
Probable space group: P -1
;
_chemical_formula_sum "Si O2"
_cell_formula_units_Z 14
_cell_length_a 12.092280
_cell_length_b 14.674166
_cell_length_c 13.880724
_cell_angle_alpha 159.439940
_cell_angle_beta 54.786022
_cell_angle_gamma 123.657948
_cell_volume 705.824350
_symmetry_space_group_name_H-M "P -1"
_symmetry_group_IT_number 2
_symmetry_cell_setting 'triclinic'
loop_
_space_group_symop_operation_xyz
x,y,z
-x,-y,-z
loop_
_atom_site_type_symbol
_atom_site_label
_atom_site_fract_x
_atom_site_fract_y
_atom_site_fract_z
Si Si1 0.661133 0.975790 0.195438
Si Si2 0.304666 0.665358 0.933360
Si Si3 0.084663 0.754821 0.740783
Si Si4 0.387240 0.280960 0.231132
Si Si5 0.648719 0.852617 0.487112
Si Si6 0.755591 0.233249 0.136277
Si Si7 0.597181 0.759966 0.211471
O O1 0.674809 0.813413 0.125551
O O2 0.776025 0.199548 0.343704
O O3 0.513630 0.100298 0.385207
O O4 0.671332 0.783520 0.909345
O O5 0.452601 0.727782 0.872531
O O6 0.314357 0.384706 0.698521
O O7 0.206507 0.690383 0.916270
O O8 0.286135 0.880930 0.238156
O O9 0.124762 0.757435 0.836067
O O10 0.000000 0.500000 0.500000
O O11 0.000000 0.000000 0.000000
O O12 0.345530 0.555347 0.562959
O O13 0.320431 0.050944 0.102224
O O14 0.680233 0.780768 0.289645
O O15 0.500000 0.000000 0.500000
O O16 0.500000 0.500000 0.000000
#
# Coordination Sequence:
#
# PCOD9071927 Si02
#       7
#     2   2   2   2   2   2   2
#     4   9  20  35  53  75 109 140 165 215 260 294
#     4  11  19  31  48  73 105 134 161 201 252 313
#     4  11  23  37  52  74 100 135 183 219 248 296
#     4  10  18  30  48  74 101 131 166 197 249 322
#     4  10  20  32  51  80 106 132 166 200 250 321
#     4  11  21  33  49  70  99 136 168 208 254 298
#     4  10  19  32  52  78 107 138 168 202 256 316
#
# _framework density 19.834962000000001
#
# number of rings (size 3 to 8) (size 9 to 14) (size 15 to 20)
#    0.000    1.714    0.000    8.571    0.000    5.714 
#    0.000    0.000    0.000    0.000    0.000    6.000 
#    0.000    0.000    0.000    0.000    0.000    0.000 
#
# Total GULP energy -78170.392040 kJ/mol
# GULP energy per Si atom -5583.599431 kJ/mol
# Density = 1.978982 g / cm^3
# Si number density = 19.834962 Si / 1000 Ang^3
#
#
#
# Elastic Constant Matrix: (Units=GPa)
#
#
# Indices 1 2 3 4 5 6 
#
# 1 76.7085 32.2823 21.8882 9.2374 4.1197 -33.2057
# 2 32.2823 77.2234 17.5599 8.6417 3.8182 -34.6110
# 3 21.8882 17.5599 99.4967 19.3613 2.8096 -12.4975
# 4 9.2374 8.6417 19.3613 28.1979 -6.9196 3.4682
# 5 4.1197 3.8182 2.8096 -6.9196 21.5804 7.0713
# 6 -33.2057 -34.6110 -12.4975 3.4682 7.0713 38.6588
#
#
#
# Elastic Compliance Matrix: (Units=1/GPa)
#
#
# Indices 1 2 3 4 5 6 
#
# 1 0.037590 0.016476 0.005115 -0.038772 -0.042853 0.060009
# 2 0.016476 0.040347 0.006722 -0.041505 -0.045606 0.064513
# 3 0.005115 0.006722 0.014779 -0.020620 -0.017323 0.020208
# 4 -0.038772 -0.041505 -0.020620 0.108746 0.085917 -0.102599
# 5 -0.042853 -0.045606 -0.017323 0.085917 0.129984 -0.114723
# 6 0.060009 0.064513 0.020208 -0.102599 -0.114723 0.171892
#
#
# Mechanical properties :
#
#
# Convention : Reuss Voigt Hill
#
# Bulk Modulus (GPa) = 6.69598 44.09882 25.39740
# Shear Modulus (GPa) = 10.07065 29.80064 19.93564
#
# Velocity S-wave (km/s) = 2.25571 3.88032 3.17373
# Velocity P-wave (km/s) = 3.18865 6.50823 5.12467
#
# Compressibility (1/GPa) = 0.14934339
#
# Stress axis : x y z
#
# Youngs Moduli (GPa) = 26.60261 24.78487 67.66414
#
# Poissons Ratio (x) = -0.40835 -0.34612
# Poissons Ratio (y) = -0.43830 -0.45486
# Poissons Ratio (z) = -0.13608 -0.16661
#
# Static dielectric constant tensor:
#      x y z
#    x 1.742230 -0.049190 0.020510 
#    y -0.049190 1.725770 -0.021160 
#    z 0.020510 -0.021160 1.703980 
# 
# From -- ./inp_files/82248.got.cif
#   From: 2010.05.17/outbox.cif.g08.bks.cpg/sg2_42_cif.got.tgz:82248.got - 2010.06.03 11:33:40.
