data_PCOD9071908
_publ_section_title
;
Structure prediction by ZEFSAII (Michael W. Deem and Ramdas Pophale) SiO2 
 PCOD9071908
Probable space group: P -1
;
_chemical_formula_sum "Si O2"
_cell_formula_units_Z 16
_cell_length_a 9.000000
_cell_length_b 12.000000
_cell_length_c 12.000000
_cell_angle_alpha 130.000000
_cell_angle_beta 80.000000
_cell_angle_gamma 120.000000
_cell_volume 838.191741
_symmetry_space_group_name_H-M "P -1"
_symmetry_group_IT_number 2
_symmetry_cell_setting 'triclinic'
loop_
_space_group_symop_operation_xyz
x,y,z
-x,-y,-z
loop_
_atom_site_type_symbol
_atom_site_label
_atom_site_fract_x
_atom_site_fract_y
_atom_site_fract_z
Si Si1 0.047349 0.570250 0.398788
Si Si2 0.340417 0.145274 0.184838
Si Si3 0.590342 0.299220 0.661738
Si Si4 0.676540 0.675284 0.914968
Si Si5 0.376453 0.775958 0.623025
Si Si6 0.065715 0.802063 0.882852
Si Si7 0.344215 0.091271 0.754149
Si Si8 0.030385 0.160092 0.335098
O O1 0.821680 0.386168 0.480591
O O2 0.942532 0.376577 0.246033
O O3 0.209860 0.665005 0.349160
O O4 0.950999 0.674752 0.500193
O O5 0.369180 0.274904 0.165561
O O6 0.519807 0.200728 0.262430
O O7 0.204483 0.152058 0.293937
O O8 0.235145 0.958004 0.019701
O O9 0.602243 0.475903 0.801417
O O10 0.522343 0.241804 0.507681
O O11 0.470824 0.161796 0.678157
O O12 0.889460 0.763692 0.946257
O O13 0.616572 0.756977 0.069854
O O14 0.366059 0.943994 0.713485
O O15 0.031799 0.844965 0.789469
O O16 0.138341 0.999268 0.690048
#
# Coordination Sequence:
#
# PCOD9071908 Si02
#       8
#     2   2   2   2   2   2   2   2
#     4   8  19  35  54  78 102 146 188 210 260 319
#     4  11  20  35  55  84 118 130 172 232 282 314
#     4   9  20  35  57  78 106 144 189 220 249 320
#     4  10  19  34  56  83 104 144 182 218 267 318
#     4   9  22  35  53  85 110 141 171 231 276 301
#     4  10  17  34  55  79 109 139 182 217 267 326
#     4  11  18  36  58  80 103 146 194 211 252 331
#     4  10  18  31  56  80 101 146 181 217 264 324
#
# _framework density 19.088711
#
# number of rings (size 3 to 8) (size 9 to 14) (size 15 to 20)
#    0.750    1.500    2.500    1.875    0.000    1.000 
#    0.000    1.875    0.000    3.000    0.000    0.000 
#    0.000    0.000    0.000    0.000    0.000    0.000 
#
# Total GULP energy -89146.198152 kJ/mol
# GULP energy per Si atom -5571.637384 kJ/mol
# Density = 1.904526 g / cm^3
# Si number density = 19.088711 Si / 1000 Ang^3
#
#
#
# Elastic Constant Matrix: (Units=GPa)
#
#
# Indices 1 2 3 4 5 6 
#
# 1 52.6120 21.0546 41.2446 11.2383 5.9832 1.2993
# 2 21.0546 45.2844 10.2848 5.7597 -4.2872 7.1427
# 3 41.2446 10.2848 105.3092 18.9227 -21.3339 -5.9629
# 4 11.2383 5.7597 18.9227 17.8456 -0.3216 -4.6781
# 5 5.9832 -4.2872 -21.3339 -0.3216 33.6427 -2.4372
# 6 1.2993 7.1427 -5.9629 -4.6781 -2.4372 15.9630
#
#
#
# Elastic Compliance Matrix: (Units=1/GPa)
#
#
# Indices 1 2 3 4 5 6 
#
# 1 0.046451 -0.017180 -0.021316 -0.003898 -0.024654 -0.008963
# 2 -0.017180 0.032673 0.006767 -0.009849 0.010549 -0.011969
# 3 -0.021316 0.006767 0.023779 -0.011716 0.020144 0.007232
# 4 -0.003898 -0.009849 -0.011716 0.080007 -0.005564 0.022945
# 5 -0.024654 0.010549 0.020144 -0.005564 0.048946 0.010654
# 6 -0.008963 -0.011969 0.007232 0.022945 0.010654 0.079782
#
#
# Mechanical properties :
#
#
# Convention : Reuss Voigt Hill
#
# Bulk Modulus (GPa) = 25.35290 38.70818 32.03054
# Shear Modulus (GPa) = 12.87843 22.19836 17.53840
#
# Velocity S-wave (km/s) = 2.60024 3.41384 3.03443
# Velocity P-wave (km/s) = 4.72498 5.98842 5.39382
#
# Compressibility (1/GPa) = 0.03944322
#
# Stress axis : x y z
#
# Youngs Moduli (GPa) = 21.52807 30.60644 42.05361
#
# Poissons Ratio (x) = 0.52583 0.89643
# Poissons Ratio (y) = 0.36986 -0.28457
# Poissons Ratio (z) = 0.45890 -0.20711
#
# Static dielectric constant tensor:
#      x y z
#    x 1.680170 0.034400 -0.033090 
#    y 0.034400 1.717400 -0.009540 
#    z -0.033090 -0.009540 1.683850 
# 
# From -- ./inp_files/391345.got.cif
#   From: 2010.05.17/outbox.ucp.g08.bks.cvg/sg2_196_cif.got.tgz:391345.got - 2010.06.11 11:32:03.
