data_PCOD9071053
_publ_section_title
;
Structure prediction by ZEFSAII (Michael W. Deem and Ramdas Pophale) SiO2 
 PCOD9071053
Probable space group: P -1
;
_chemical_formula_sum "Si O2"
_cell_formula_units_Z 16
_cell_length_a 19.042712
_cell_length_b 18.518962
_cell_length_c 9.060034
_cell_angle_alpha 151.246995
_cell_angle_beta 140.950924
_cell_angle_gamma 30.701584
_cell_volume 781.316749
_symmetry_space_group_name_H-M "P -1"
_symmetry_group_IT_number 2
_symmetry_cell_setting 'triclinic'
loop_
_space_group_symop_operation_xyz
x,y,z
-x,-y,-z
loop_
_atom_site_type_symbol
_atom_site_label
_atom_site_fract_x
_atom_site_fract_y
_atom_site_fract_z
Si Si1 0.903446 0.476541 0.695474
Si Si2 0.598181 0.822241 0.739625
Si Si3 0.142956 0.829255 0.865860
Si Si4 0.087924 0.315269 0.410669
Si Si5 0.598004 0.297907 0.739224
Si Si6 0.383156 0.568312 0.309035
Si Si7 0.871258 0.056282 0.289101
Si Si8 0.376579 0.206735 0.613967
O O1 0.754222 0.674670 0.788220
O O2 0.861242 0.347247 0.455912
O O3 0.994436 0.373550 0.510435
O O4 0.000000 0.500000 0.000000
O O5 0.494039 0.766615 0.476232
O O6 0.628180 0.834683 0.640366
O O7 0.500000 0.000000 0.000000
O O8 0.146246 0.882452 0.799863
O O9 0.259480 0.801527 0.116508
O O10 0.000000 0.000000 0.000000
O O11 0.239028 0.269777 0.592686
O O12 0.000000 0.500000 0.500000
O O13 0.117899 0.133876 0.050660
O O14 0.604503 0.337101 0.647761
O O15 0.500000 0.500000 0.000000
O O16 0.500000 0.500000 0.500000
O O17 0.248293 0.750281 0.484845
O O18 0.384159 0.385536 0.952270
O O19 0.000000 0.000000 0.500000
O O20 0.500000 0.000000 0.500000
#
# Coordination Sequence:
#
# PCOD9071053 Si02
#       8
#     2   2   2   2   2   2   2   2
#     4  12  29  49  76 109 149 197 248 309 375 446
#     4  12  30  49  76 110 148 197 252 307 376 445
#     4  12  26  48  76 107 146 195 251 304 368 440
#     4  12  27  50  73 105 154 196 241 304 380 442
#     4  12  25  49  77 100 148 198 250 307 367 437
#     4  12  27  47  74 110 146 193 247 305 370 441
#     4  12  28  45  75 109 145 194 247 303 368 442
#     4  12  28  47  75 108 155 195 242 308 374 445
#
# _framework density 20.478251
#
# number of rings (size 3 to 8) (size 9 to 14) (size 15 to 20)
#    0.000    0.000    5.000    3.000   12.250    0.000 
#    0.000    0.000    0.000    0.000    0.000    0.000 
#    0.000    0.000    0.000    0.000    0.000    0.000 
#
# Total GULP energy -89107.478822 kJ/mol
# GULP energy per Si atom -5569.217426 kJ/mol
# Density = 2.043164 g / cm^3
# Si number density = 20.478251 Si / 1000 Ang^3
#
#
#
# Elastic Constant Matrix: (Units=GPa)
#
#
# Indices 1 2 3 4 5 6 
#
# 1 86.5360 46.8796 -2.6588 -3.3278 -10.3869 1.1094
# 2 46.8796 204.8586 28.6158 -9.5589 -10.3820 -17.5744
# 3 -2.6588 28.6158 64.6926 2.6667 -3.7638 -7.6112
# 4 -3.3278 -9.5589 2.6667 48.1307 -9.9664 -6.1256
# 5 -10.3869 -10.3820 -3.7638 -9.9664 40.9397 3.5812
# 6 1.1094 -17.5744 -7.6112 -6.1256 3.5812 45.8852
#
#
#
# Elastic Compliance Matrix: (Units=1/GPa)
#
#
# Indices 1 2 3 4 5 6 
#
# 1 0.013880 -0.003401 0.002059 0.000633 0.003130 -0.001456
# 2 -0.003401 0.006338 -0.002708 0.001599 0.000691 0.002220
# 3 0.002059 -0.002708 0.017019 -0.000928 0.001041 0.001531
# 4 0.000633 0.001599 -0.000928 0.022768 0.005758 0.003033
# 5 0.003130 0.000691 0.001041 0.005758 0.026978 -0.000975
# 6 -0.001456 0.002220 0.001531 0.003033 -0.000975 0.023414
#
#
# Mechanical properties :
#
#
# Convention : Reuss Voigt Hill
#
# Bulk Modulus (GPa) = 34.31845 55.75116 45.03481
# Shear Modulus (GPa) = 38.99894 45.87450 42.43672
#
# Velocity S-wave (km/s) = 4.36869 4.73816 4.55717
# Velocity P-wave (km/s) = 6.49939 7.56421 7.05193
#
# Compressibility (1/GPa) = 0.02913884
#
# Stress axis : x y z
#
# Youngs Moduli (GPa) = 72.04522 157.77934 58.75770
#
# Poissons Ratio (x) = 0.53657 -0.12101
# Poissons Ratio (y) = 0.24501 0.15910
# Poissons Ratio (z) = -0.14837 0.42724
#
# Static dielectric constant tensor:
#      x y z
#    x 1.699120 -0.018650 0.028680 
#    y -0.018650 1.709450 0.027490 
#    z 0.028680 0.027490 1.716100 
# 
# From -- ./inp_files/190887.got.cif
#   From: 2010.05.17/outbox.cif.g08.bks.cpg/sg2_96_cif.got.tgz:190887.got - 2010.06.03 11:33:40.
