data_PCOD9071887
_publ_section_title
;
Structure prediction by ZEFSAII (Michael W. Deem and Ramdas Pophale) SiO2 
 PCOD9071887
Probable space group: P -1
;
_chemical_formula_sum "Si O2"
_cell_formula_units_Z 16
_cell_length_a 23.229695
_cell_length_b 10.485916
_cell_length_c 5.687156
_cell_angle_alpha 47.562673
_cell_angle_beta 62.578012
_cell_angle_gamma 33.308519
_cell_volume 542.857253
_symmetry_space_group_name_H-M "P -1"
_symmetry_group_IT_number 2
_symmetry_cell_setting 'triclinic'
loop_
_space_group_symop_operation_xyz
x,y,z
-x,-y,-z
loop_
_atom_site_type_symbol
_atom_site_label
_atom_site_fract_x
_atom_site_fract_y
_atom_site_fract_z
Si Si1 0.438489 0.269261 0.441680
Si Si2 0.351680 0.637448 0.549277
Si Si3 0.155546 0.282311 0.552171
Si Si4 0.968044 0.717581 0.973967
Si Si5 0.716181 0.740407 0.921759
Si Si6 0.771888 0.324329 0.977680
Si Si7 0.904610 0.288921 0.500975
Si Si8 0.438738 0.772648 0.031287
O O1 0.406924 0.356041 0.663201
O O2 0.319902 0.524050 0.228532
O O3 0.500000 0.000000 0.500000
O O4 0.526117 0.237616 0.276973
O O5 0.357095 0.785367 0.174889
O O6 0.442172 0.501076 0.737111
O O7 0.237872 0.814224 0.647221
O O8 0.058619 0.514371 0.258689
O O9 0.259329 0.124621 0.408274
O O10 0.135115 0.469855 0.555756
O O11 0.140249 0.127126 0.892240
O O12 0.984165 0.867288 0.623200
O O13 0.000000 0.500000 0.000000
O O14 0.721121 0.593833 0.884504
O O15 0.620288 0.964770 0.010654
O O16 0.817467 0.472208 0.228908
O O17 0.883087 0.164652 0.858524
#
# Coordination Sequence:
#
# PCOD9071887 Si02
#       8
#     2   2   2   2   2   2   2   2
#     4  11  20  32  50  67  87 117 154 197 239 277
#     4  10  21  35  47  64  92 122 159 196 234 281
#     4   8  15  25  41  67  96 124 150 182 228 275
#     4   8  13  24  41  64  98 127 147 179 226 274
#     4  10  18  30  47  69  95 120 156 195 232 275
#     4  10  19  30  46  68  91 119 154 193 232 275
#     4   9  16  26  43  68  96 122 151 188 229 273
#     4  10  21  34  48  66  90 124 157 194 237 278
#
# _framework density 29.473676999999999
#
# number of rings (size 3 to 8) (size 9 to 14) (size 15 to 20)
#    0.000    2.500    0.000    3.375    0.000    3.000 
#    0.000    0.000    0.000    0.000    0.000    0.875 
#    0.000   99.000    0.000   23.125    0.000    5.875 
#
# Total GULP energy -89518.683351 kJ/mol
# GULP energy per Si atom -5594.917709 kJ/mol
# Density = 2.940659 g / cm^3
# Si number density = 29.473677 Si / 1000 Ang^3
#
#
#
# Elastic Constant Matrix: (Units=GPa)
#
#
# Indices 1 2 3 4 5 6 
#
# 1 157.1931 28.6894 59.0474 5.1927 -18.9764 -11.9956
# 2 28.6894 170.4778 61.5558 35.1064 -5.2143 -20.7391
# 3 59.0474 61.5558 123.8091 50.7701 -53.1911 -15.1907
# 4 5.1927 35.1064 50.7701 76.9615 -25.8830 -16.7417
# 5 -18.9764 -5.2143 -53.1911 -25.8830 77.2146 9.1301
# 6 -11.9956 -20.7391 -15.1907 -16.7417 9.1301 26.9836
#
#
#
# Elastic Compliance Matrix: (Units=1/GPa)
#
#
# Indices 1 2 3 4 5 6 
#
# 1 0.008411 0.000260 -0.005541 0.003336 -0.000995 0.003227
# 2 0.000260 0.008144 -0.004814 -0.000779 -0.003479 0.004359
# 3 -0.005541 -0.004814 0.020373 -0.008204 0.009971 -0.003157
# 4 0.003336 -0.000779 -0.008204 0.020807 0.001048 0.008821
# 5 -0.000995 -0.003479 0.009971 0.001048 0.020124 -0.003662
# 6 0.003227 0.004359 -0.003157 0.008821 -0.003662 0.046779
#
#
# Mechanical properties :
#
#
# Convention : Reuss Voigt Hill
#
# Bulk Modulus (GPa) = 59.73417 83.34058 71.53737
# Shear Modulus (GPa) = 33.24313 56.37776 44.81044
#
# Velocity S-wave (km/s) = 3.36205 4.37832 3.90340
# Velocity P-wave (km/s) = 5.94829 7.34148 6.68130
#
# Compressibility (1/GPa) = 0.01674084
#
# Stress axis : x y z
#
# Youngs Moduli (GPa) = 118.88884 122.78261 49.08439
#
# Poissons Ratio (x) = -0.03194 0.27195
# Poissons Ratio (y) = -0.03093 0.23627
# Poissons Ratio (z) = 0.65871 0.59103
#
# Static dielectric constant tensor:
#      x y z
#    x 2.275800 0.127500 -0.187100 
#    y 0.127500 2.279360 -0.021130 
#    z -0.187100 -0.021130 2.546960 
# 
# From -- ./inp_files/43347.got.cif
#   From: 2010.05.17/outbox.cif.g08.bks.cpg/sg2_22_cif.got.tgz:43347.got - 2010.06.03 11:33:40.
