data_PCOD9071042
_publ_section_title
;
Structure prediction by ZEFSAII (Michael W. Deem and Ramdas Pophale) SiO2 
 PCOD9071042
Probable space group: P -1
;
_chemical_formula_sum "Si O2"
_cell_formula_units_Z 14
_cell_length_a 16.775833
_cell_length_b 23.139524
_cell_length_c 8.631263
_cell_angle_alpha 27.631565
_cell_angle_beta 143.467863
_cell_angle_gamma 157.842679
_cell_volume 583.288427
_symmetry_space_group_name_H-M "P -1"
_symmetry_group_IT_number 2
_symmetry_cell_setting 'triclinic'
loop_
_space_group_symop_operation_xyz
x,y,z
-x,-y,-z
loop_
_atom_site_type_symbol
_atom_site_label
_atom_site_fract_x
_atom_site_fract_y
_atom_site_fract_z
Si Si1 0.076060 0.056165 0.307435
Si Si2 0.989806 0.586894 0.922196
Si Si3 0.725195 0.379775 0.271465
Si Si4 0.454515 0.003000 0.598475
Si Si5 0.326798 0.370897 0.398827
Si Si6 0.486681 0.183651 0.669412
Si Si7 0.687175 0.524830 0.403388
O O1 0.276494 0.108357 0.474125
O O2 0.156638 0.253497 0.932716
O O3 0.000000 0.000000 0.500000
O O4 0.877580 0.865819 0.345976
O O5 0.213459 0.816613 0.719053
O O6 0.803246 0.546558 0.679485
O O7 0.000000 0.500000 0.000000
O O8 0.927376 0.485012 0.233606
O O9 0.633980 0.258324 0.576120
O O10 0.536432 0.200174 0.288296
O O11 0.749458 0.543411 0.949862
O O12 0.500000 0.000000 0.500000
O O13 0.573285 0.983338 0.932569
O O14 0.500000 0.500000 0.500000
O O15 0.464397 0.425092 0.338873
O O16 0.629397 0.375499 0.546502
#
# Coordination Sequence:
#
# PCOD9071042 Si02
#       7
#     2   2   2   2   2   2   2
#     4  12  27  44  77 111 150 207 245 307 398 441
#     4  12  26  48  75 108 141 206 254 305 385 447
#     4  12  27  48  73 108 156 190 257 316 372 451
#     4  12  28  51  75 106 150 202 258 312 381 460
#     4  12  27  48  74 115 154 196 254 315 373 463
#     4  12  26  50  74 114 157 196 257 319 382 456
#     4  12  25  49  76 109 154 194 255 313 378 462
#
# _framework density 24.001846
#
# number of rings (size 3 to 8) (size 9 to 14) (size 15 to 20)
#    0.000    0.000    7.143    1.714    6.000    1.143 
#    2.571    0.000    0.000    0.000    0.000    0.000 
#    0.000    0.000    0.000    0.000    0.000    0.000 
#
# Total GULP energy -78341.035693 kJ/mol
# GULP energy per Si atom -5595.788264 kJ/mol
# Density = 2.394722 g / cm^3
# Si number density = 24.001846 Si / 1000 Ang^3
#
#
#
# Elastic Constant Matrix: (Units=GPa)
#
#
# Indices 1 2 3 4 5 6 
#
# 1 140.9927 12.5572 29.4901 -6.2058 -22.4824 4.0554
# 2 12.5572 115.7891 13.4368 -31.8061 -0.4714 7.2862
# 3 29.4901 13.4368 106.5327 -22.0532 -13.0302 3.4498
# 4 -6.2058 -31.8061 -22.0532 46.0072 -3.0893 -2.2946
# 5 -22.4824 -0.4714 -13.0302 -3.0893 49.6982 -8.5412
# 6 4.0554 7.2862 3.4498 -2.2946 -8.5412 30.8741
#
#
#
# Elastic Compliance Matrix: (Units=1/GPa)
#
#
# Indices 1 2 3 4 5 6 
#
# 1 0.008022 -0.000663 -0.001750 0.000008 0.003196 0.000183
# 2 -0.000663 0.010848 0.000443 0.007529 0.000052 -0.001948
# 3 -0.001750 0.000443 0.011295 0.005653 0.002522 -0.000019
# 4 0.000008 0.007529 0.005653 0.029930 0.003555 0.000798
# 5 0.003196 0.000052 0.002522 0.003555 0.023489 0.006049
# 6 0.000183 -0.001948 -0.000019 0.000798 0.006049 0.034560
#
#
# Mechanical properties :
#
#
# Convention : Reuss Voigt Hill
#
# Bulk Modulus (GPa) = 38.13217 52.69808 45.41512
# Shear Modulus (GPa) = 38.21867 45.83794 42.02830
#
# Velocity S-wave (km/s) = 3.99472 4.37483 4.18909
# Velocity P-wave (km/s) = 6.09908 6.89365 6.50850
#
# Compressibility (1/GPa) = 0.02622458
#
# Stress axis : x y z
#
# Youngs Moduli (GPa) = 124.64998 92.18497 88.53751
#
# Poissons Ratio (x) = 0.06113 0.15498
# Poissons Ratio (y) = 0.08266 -0.03925
# Poissons Ratio (z) = 0.21819 -0.04087
#
# Static dielectric constant tensor:
#      x y z
#    x 1.936150 -0.023860 0.007370 
#    y -0.023860 1.960730 0.030790 
#    z 0.007370 0.030790 1.929140 
# 
# From -- ./inp_files/338647.got.cif
#   From: 2010.05.17/outbox.cif.g08.bks.cpg/sg2_170_cif.got.tgz:338647.got - 2010.06.03 11:33:40.
