data_PCOD9071322
_publ_section_title
;
Structure prediction by ZEFSAII (Michael W. Deem and Ramdas Pophale) SiO2 
 PCOD9071322
Probable space group: P -1
;
_chemical_formula_sum "Si O2"
_cell_formula_units_Z 12
_cell_length_a 9.363471
_cell_length_b 9.036964
_cell_length_c 10.924365
_cell_angle_alpha 76.079849
_cell_angle_beta 61.724006
_cell_angle_gamma 34.897136
_cell_volume 445.207028
_symmetry_space_group_name_H-M "P -1"
_symmetry_group_IT_number 2
_symmetry_cell_setting 'triclinic'
loop_
_space_group_symop_operation_xyz
x,y,z
-x,-y,-z
loop_
_atom_site_type_symbol
_atom_site_label
_atom_site_fract_x
_atom_site_fract_y
_atom_site_fract_z
Si Si1 0.063107 0.570414 0.198435
Si Si2 0.500000 0.500000 0.000000
Si Si3 0.231495 0.953352 0.392104
Si Si4 0.378219 0.893210 0.599675
Si Si5 0.000000 0.500000 0.500000
Si Si6 0.302518 0.624976 0.783245
Si Si7 0.181819 0.184909 0.119260
O O1 0.313531 0.487308 0.070032
O O2 0.008349 0.476334 0.146704
O O3 0.148930 0.435459 0.321519
O O4 0.782354 0.888134 0.275080
O O5 0.523030 0.468892 0.147640
O O6 0.244954 0.047549 0.490364
O O7 0.525738 0.633400 0.312976
O O8 0.179457 0.093454 0.265875
O O9 0.000000 0.000000 0.500000
O O10 0.714108 0.657047 0.508853
O O11 0.288610 0.788849 0.676975
O O12 0.983119 0.806539 0.903234
O O13 0.500000 0.000000 0.000000
#
# Coordination Sequence:
#
# PCOD9071322 Si02
#       7
#     2   1   2   2   1   2   2
#     4  12  28  49  80 121 159 212 272 331 400 479
#     4  12  28  52  80 112 166 212 268 326 404 486
#     4  12  26  50  86 117 160 212 270 333 403 478
#     4  12  27  49  85 120 162 209 270 336 402 481
#     4  12  26  48  74 124 156 200 266 326 398 466
#     4  12  28  53  82 119 159 217 269 332 408 479
#     4  12  30  53  81 119 165 213 272 334 402 479
#
# _framework density 26.953752000000001
#
# number of rings (size 3 to 8) (size 9 to 14) (size 15 to 20)
#    0.000    0.000    3.333    5.000    4.667    7.333 
#    0.000    0.000    0.000    0.000    0.000    0.000 
#    0.000    0.000    0.000    0.000    0.000    0.000 
#
# Total GULP energy -66924.921922 kJ/mol
# GULP energy per Si atom -5577.076827 kJ/mol
# Density = 2.689240 g / cm^3
# Si number density = 26.953752 Si / 1000 Ang^3
#
#
#
# Elastic Constant Matrix: (Units=GPa)
#
#
# Indices 1 2 3 4 5 6 
#
# 1 170.2203 25.2019 46.2803 -1.6987 -38.6659 -1.7370
# 2 25.2019 69.1660 19.0279 12.3004 -11.9461 13.0026
# 3 46.2803 19.0279 93.0122 -25.7666 -27.1015 5.6562
# 4 -1.6987 12.3004 -25.7666 49.3158 3.4512 -3.3441
# 5 -38.6659 -11.9461 -27.1015 3.4512 70.3756 -12.9172
# 6 -1.7370 13.0026 5.6562 -3.3441 -12.9172 39.7944
#
#
#
# Elastic Compliance Matrix: (Units=1/GPa)
#
#
# Indices 1 2 3 4 5 6 
#
# 1 0.007675 -0.001701 -0.002907 -0.000904 0.003273 0.002291
# 2 -0.001701 0.018926 -0.004899 -0.007741 -0.000393 -0.006340
# 3 -0.002907 -0.004899 0.016959 0.009791 0.003830 0.001129
# 4 -0.000904 -0.007741 0.009791 0.027461 0.001317 0.003833
# 5 0.003273 -0.000393 0.003830 0.001317 0.018419 0.005816
# 6 0.002291 -0.006340 0.001129 0.003833 0.005816 0.029350
#
#
# Mechanical properties :
#
#
# Convention : Reuss Voigt Hill
#
# Bulk Modulus (GPa) = 40.73789 57.04653 48.89221
# Shear Modulus (GPa) = 34.24998 48.02305 41.13651
#
# Velocity S-wave (km/s) = 3.56855 4.22558 3.91088
# Velocity P-wave (km/s) = 5.66800 6.70954 6.21064
#
# Compressibility (1/GPa) = 0.02454717
#
# Stress axis : x y z
#
# Youngs Moduli (GPa) = 130.29679 52.83667 58.96517
#
# Poissons Ratio (x) = 0.08990 0.17139
# Poissons Ratio (y) = 0.22169 0.28884
# Poissons Ratio (z) = 0.37871 0.25882
#
# Static dielectric constant tensor:
#      x y z
#    x 1.928210 0.918480 0.073410 
#    y 0.918480 -11.876480 -0.579610 
#    z 0.073410 -0.579610 2.100850 
# 
# From -- ./inp_files/58328.got.cif
#   From: 2010.05.17/outbox.cif.g08.bks.cpg/sg2_30_cif.got.tgz:58328.got - 2010.06.03 11:33:40.
