data_PCOD9071174
_publ_section_title
;
Structure prediction by ZEFSAII (Michael W. Deem and Ramdas Pophale) SiO2 
 PCOD9071174
Probable space group: P -1
;
_chemical_formula_sum "Si O2"
_cell_formula_units_Z 12
_cell_length_a 9.076509
_cell_length_b 24.953760
_cell_length_c 21.856517
_cell_angle_alpha 11.750717
_cell_angle_beta 32.663942
_cell_angle_gamma 31.568388
_cell_volume 526.412069
_symmetry_space_group_name_H-M "P -1"
_symmetry_group_IT_number 2
_symmetry_cell_setting 'triclinic'
loop_
_space_group_symop_operation_xyz
x,y,z
-x,-y,-z
loop_
_atom_site_type_symbol
_atom_site_label
_atom_site_fract_x
_atom_site_fract_y
_atom_site_fract_z
Si Si1 0.777946 0.216348 0.296846
Si Si2 0.660607 0.002819 0.790306
Si Si3 0.814055 0.842265 0.586242
Si Si4 0.211467 0.412163 0.694256
Si Si5 0.098746 0.232831 0.805766
Si Si6 0.666317 0.895305 0.336305
O O1 0.482127 0.184232 0.462916
O O2 0.837752 0.069145 0.375432
O O3 0.802330 0.525711 0.952439
O O4 0.000000 0.000000 0.500000
O O5 0.366319 0.064872 0.861333
O O6 0.548018 0.046652 0.710976
O O7 0.883221 0.183988 0.523484
O O8 0.824468 0.716967 0.083065
O O9 0.500000 0.000000 0.500000
O O10 0.500000 0.500000 0.500000
O O11 0.219309 0.229691 0.835483
O O12 0.942087 0.651835 0.502517
O O13 0.000000 0.500000 0.500000
O O14 0.808525 0.143247 0.015587
#
# Coordination Sequence:
#
# PCOD9071174 Si02
#       6
#     2   2   2   2   2   2
#     4  12  28  50  80 111 154 206 262 315 390 455
#     4  12  26  48  75 109 148 198 251 316 384 456
#     4  12  29  52  79 116 153 204 264 324 383 463
#     4  12  26  46  71 111 151 193 251 308 383 457
#     4  12  26  44  76 109 148 195 248 310 386 456
#     4  12  27  48  75 106 153 197 250 316 378 464
#
# _framework density 22.795829999999999
#
# number of rings (size 3 to 8) (size 9 to 14) (size 15 to 20)
#    0.000    0.000    5.000    4.000    7.000    1.333 
#    0.000    0.000    0.000    0.000    0.000    0.000 
#    0.000    0.000    0.000    0.000    0.000    0.000 
#
# Total GULP energy -66804.566635 kJ/mol
# GULP energy per Si atom -5567.047220 kJ/mol
# Density = 2.274395 g / cm^3
# Si number density = 22.795830 Si / 1000 Ang^3
#
#
#
# Elastic Constant Matrix: (Units=GPa)
#
#
# Indices 1 2 3 4 5 6 
#
# 1 102.4058 23.5297 33.3940 -14.2936 11.7898 -41.6019
# 2 23.5297 80.7742 39.2074 25.9971 -11.9366 -20.3064
# 3 33.3940 39.2074 176.2700 26.7631 9.0308 -18.5433
# 4 -14.2936 25.9971 26.7631 44.2219 -12.4095 -2.8362
# 5 11.7898 -11.9366 9.0308 -12.4095 30.2597 1.3881
# 6 -41.6019 -20.3064 -18.5433 -2.8362 1.3881 47.3463
#
#
#
# Elastic Compliance Matrix: (Units=1/GPa)
#
#
# Indices 1 2 3 4 5 6 
#
# 1 0.019900 -0.004924 -0.002332 0.010163 -0.005531 0.015231
# 2 -0.004924 0.019490 -0.001915 -0.010064 0.005936 0.002506
# 3 -0.002332 -0.001915 0.007578 -0.005437 -0.004333 -0.000101
# 4 0.010163 -0.010064 -0.005437 0.037930 0.009042 0.004492
# 5 -0.005531 0.005936 -0.004333 0.009042 0.042762 -0.004723
# 6 0.015231 0.002506 -0.000101 0.004492 -0.004723 0.035947
#
#
# Mechanical properties :
#
#
# Convention : Reuss Voigt Hill
#
# Bulk Modulus (GPa) = 34.93376 61.30136 48.11756
# Shear Modulus (GPa) = 26.11098 41.92018 34.01558
#
# Velocity S-wave (km/s) = 3.38809 4.29294 3.86707
# Velocity P-wave (km/s) = 5.53746 7.17790 6.41037
#
# Compressibility (1/GPa) = 0.02862561
#
# Stress axis : x y z
#
# Youngs Moduli (GPa) = 50.25173 51.30754 131.96753
#
# Poissons Ratio (x) = 0.25264 0.30777
# Poissons Ratio (y) = 0.24744 0.25269
# Poissons Ratio (z) = 0.11720 0.09824
#
# Static dielectric constant tensor:
#      x y z
#    x 1.878500 0.002490 -0.026790 
#    y 0.002490 1.830250 -0.296500 
#    z -0.026790 -0.296500 1.620430 
# 
# From -- ./inp_files/26391.got.cif
#   From: 2010.05.17/outbox.cif.g08.bks.cpg/sg2_14_cif.got.tgz:26391.got - 2010.06.03 11:33:40.
