data_PCOD9071721
_publ_section_title
;
Structure prediction by ZEFSAII (Michael W. Deem and Ramdas Pophale) SiO2 
 PCOD9071721
Probable space group: P -1
;
_chemical_formula_sum "Si O2"
_cell_formula_units_Z 16
_cell_length_a 9.212626
_cell_length_b 11.222812
_cell_length_c 15.860741
_cell_angle_alpha 75.074488
_cell_angle_beta 46.096708
_cell_angle_gamma 113.480226
_cell_volume 638.758965
_symmetry_space_group_name_H-M "P -1"
_symmetry_group_IT_number 2
_symmetry_cell_setting 'triclinic'
loop_
_space_group_symop_operation_xyz
x,y,z
-x,-y,-z
loop_
_atom_site_type_symbol
_atom_site_label
_atom_site_fract_x
_atom_site_fract_y
_atom_site_fract_z
Si Si1 0.589054 0.777444 0.821956
Si Si2 0.949150 0.096051 0.264500
Si Si3 0.245654 0.615872 0.522023
Si Si4 0.537279 0.000792 0.599879
Si Si5 0.108525 0.210326 0.458303
Si Si6 0.835366 0.274783 0.887901
Si Si7 0.848084 0.004743 0.908137
Si Si8 0.576952 0.360324 0.727329
O O1 0.669434 0.722433 0.875752
O O2 0.639252 0.732974 0.720885
O O3 0.953220 0.049058 0.625416
O O4 0.243599 0.682068 0.005414
O O5 0.677260 0.989664 0.469106
O O6 0.880855 0.933399 0.272842
O O7 0.877812 0.174018 0.215037
O O8 0.282436 0.771876 0.514870
O O9 0.510198 0.717065 0.319945
O O10 0.151117 0.477200 0.661195
O O11 0.890834 0.442525 0.634658
O O12 0.718285 0.037693 0.602519
O O13 0.295381 0.433448 0.362615
O O14 0.900203 0.164055 0.901342
O O15 0.476112 0.121013 0.004426
O O16 0.736733 0.841418 0.047860
#
# Coordination Sequence:
#
# PCOD9071721 Si02
#       8
#     2   2   2   2   2   2   2   2
#     4   9  18  31  52  78 100 129 167 207 251 295
#     4   9  18  33  52  73 101 134 167 204 247 298
#     4   9  18  30  48  75  98 134 167 202 250 297
#     4   9  18  33  52  73 101 134 167 204 247 298
#     4   9  18  31  52  78 100 129 167 207 251 295
#     4   9  18  29  49  73 103 129 163 210 250 291
#     4   9  18  30  48  75  98 134 167 202 250 297
#     4   9  18  29  49  73 103 129 163 210 250 291
#
# _framework density 25.048573000000001
#
# number of rings (size 3 to 8) (size 9 to 14) (size 15 to 20)
#    0.000    3.000    0.000    0.000   10.500    1.000 
#    0.000    6.250    0.000    0.000    0.000    7.000 
#    0.000    0.000    0.000    0.000    0.000    0.000 
#
# Total GULP energy -89096.255293 kJ/mol
# GULP energy per Si atom -5568.515956 kJ/mol
# Density = 2.499156 g / cm^3
# Si number density = 25.048573 Si / 1000 Ang^3
#
#
#
# Elastic Constant Matrix: (Units=GPa)
#
#
# Indices 1 2 3 4 5 6 
#
# 1 65.9046 41.5808 20.9162 14.4948 6.5467 -12.2537
# 2 41.5808 75.8491 30.4583 25.9175 18.7396 -6.6135
# 3 20.9162 30.4583 79.8026 20.8752 11.1884 -7.8237
# 4 14.4948 25.9175 20.8752 36.6703 -3.8058 -0.2754
# 5 6.5467 18.7396 11.1884 -3.8058 34.5422 8.3634
# 6 -12.2537 -6.6135 -7.8237 -0.2754 8.3634 41.7515
#
#
#
# Elastic Compliance Matrix: (Units=1/GPa)
#
#
# Indices 1 2 3 4 5 6 
#
# 1 0.024384 -0.013137 -0.001395 0.000678 0.001961 0.004426
# 2 -0.013137 0.031841 -0.000957 -0.018559 -0.017587 0.004409
# 3 -0.001395 -0.000957 0.016951 -0.009083 -0.006649 0.003887
# 4 0.000678 -0.018559 -0.009083 0.047311 0.020068 -0.008151
# 5 0.001961 -0.017587 -0.006649 0.020068 0.045496 -0.012437
# 6 0.004426 0.004409 0.003887 -0.008151 -0.012437 0.029115
#
#
# Mechanical properties :
#
#
# Convention : Reuss Voigt Hill
#
# Bulk Modulus (GPa) = 23.69783 45.27410 34.48596
# Shear Modulus (GPa) = 20.82097 31.16619 25.99358
#
# Velocity S-wave (km/s) = 2.88622 3.53119 3.22487
# Velocity P-wave (km/s) = 4.53744 5.89402 5.25965
#
# Compressibility (1/GPa) = 0.04219796
#
# Stress axis : x y z
#
# Youngs Moduli (GPa) = 41.01067 31.40564 58.99349
#
# Poissons Ratio (x) = 0.41258 0.08231
# Poissons Ratio (y) = 0.53876 0.05645
# Poissons Ratio (z) = 0.05722 0.03005
#
# Static dielectric constant tensor:
#      x y z
#    x 2.162540 0.040270 -0.091350 
#    y 0.040270 1.969250 0.013430 
#    z -0.091350 0.013430 2.050060 
# 
# From -- ./inp_files/567405.got.cif
#   From: 2010.05.17/outbox.cif.g08.bks.cpg/sg2_284_cif.got.tgz:567405.got - 2010.06.03 11:33:40.
