data_PCOD9071333
_publ_section_title
;
Structure prediction by ZEFSAII (Michael W. Deem and Ramdas Pophale) SiO2 
 PCOD9071333
Probable space group: P -1
;
_chemical_formula_sum "Si O2"
_cell_formula_units_Z 10
_cell_length_a 12.254525
_cell_length_b 12.622209
_cell_length_c 12.226950
_cell_angle_alpha 157.835078
_cell_angle_beta 142.285413
_cell_angle_gamma 35.933991
_cell_volume 411.414777
_symmetry_space_group_name_H-M "P -1"
_symmetry_group_IT_number 2
_symmetry_cell_setting 'triclinic'
loop_
_space_group_symop_operation_xyz
x,y,z
-x,-y,-z
loop_
_atom_site_type_symbol
_atom_site_label
_atom_site_fract_x
_atom_site_fract_y
_atom_site_fract_z
Si Si1 0.139533 0.666819 0.806515
Si Si2 0.481227 0.327008 0.599647
Si Si3 0.274440 0.326255 0.809572
Si Si4 0.324010 0.178573 0.105057
Si Si5 0.927821 0.183980 0.509384
O O1 0.321788 0.552903 0.764327
O O2 0.211637 0.553140 0.875776
O O3 0.000000 0.500000 0.500000
O O4 0.000000 0.000000 0.000000
O O5 0.392505 0.252578 0.347363
O O6 0.580214 0.000325 0.419182
O O7 0.630653 0.500787 0.866908
O O8 0.097337 0.252490 0.647849
O O9 0.219127 0.496151 0.271556
O O10 0.500000 0.000000 0.000000
O O11 0.178659 0.994288 0.818227
O O12 0.000000 0.000000 0.500000
#
# Coordination Sequence:
#
# PCOD9071333 Si02
#       5
#     2   2   2   2   2
#     4  12  26  48  76 112 149 192 245 306 370 442
#     4  12  26  48  76 110 149 196 245 305 371 441
#     4  12  26  48  76 110 149 196 245 305 371 441
#     4  12  27  49  74 108 149 198 250 306 366 437
#     4  12  27  49  74 108 149 198 250 306 366 437
#
# _framework density 24.306370000000001
#
# number of rings (size 3 to 8) (size 9 to 14) (size 15 to 20)
#    0.000    0.000    0.000    9.600    0.000    6.400 
#    0.000    0.000    0.000    0.000    0.000    0.000 
#    0.000    0.000    0.000    0.000    0.000    0.000 
#
# Total GULP energy -56110.780018 kJ/mol
# GULP energy per Si atom -5611.078002 kJ/mol
# Density = 2.425105 g / cm^3
# Si number density = 24.306370 Si / 1000 Ang^3
#
#
#
# Elastic Constant Matrix: (Units=GPa)
#
#
# Indices 1 2 3 4 5 6 
#
# 1 155.0014 105.8062 77.2084 -6.9482 -9.7348 9.7534
# 2 105.8062 179.6037 89.1259 42.5623 -5.1765 -17.7345
# 3 77.2084 89.1259 233.0325 -1.4332 21.5782 -15.4373
# 4 -6.9482 42.5623 -1.4332 80.5455 -21.8481 -1.1434
# 5 -9.7348 -5.1765 21.5782 -21.8481 32.4962 7.4738
# 6 9.7534 -17.7345 -15.4373 -1.1434 7.4738 22.3014
#
#
#
# Elastic Compliance Matrix: (Units=1/GPa)
#
#
# Indices 1 2 3 4 5 6 
#
# 1 0.051396 -0.040075 -0.012926 0.041762 0.064728 -0.082845
# 2 -0.040075 0.039851 0.007189 -0.037387 -0.051564 0.069557
# 3 -0.012926 0.007189 0.009374 -0.010221 -0.021465 0.024529
# 4 0.041762 -0.037387 -0.010221 0.052341 0.065641 -0.074385
# 5 0.064728 -0.051564 -0.021465 0.065641 0.128851 -0.123988
# 6 -0.082845 0.069557 0.024529 -0.074385 -0.123988 0.191102
#
#
# Mechanical properties :
#
#
# Convention : Reuss Voigt Hill
#
# Bulk Modulus (GPa) = 111.15447 123.54652 117.35050
# Shear Modulus (GPa) = 8.80995 46.76841 27.78918
#
# Velocity S-wave (km/s) = 1.90589 4.39124 3.38492
# Velocity P-wave (km/s) = 7.11850 8.75499 7.97881
#
# Compressibility (1/GPa) = 0.00899649
#
# Stress axis : x y z
#
# Youngs Moduli (GPa) = 19.45666 25.09353 106.67491
#
# Poissons Ratio (x) = 1.00562 1.37892
# Poissons Ratio (y) = 0.77972 -0.76687
# Poissons Ratio (z) = 0.25150 -0.18039
#
# Static dielectric constant tensor:
#      x y z
#    x 1.840480 -0.043050 0.017120 
#    y -0.043050 1.945960 -0.025640 
#    z 0.017120 -0.025640 1.890860 
# 
# From -- ./inp_files/164537.got.cif
#   From: 2010.05.17/outbox.cif.g08.bks.cpg/sg2_83_cif.got.tgz:164537.got - 2010.06.03 11:33:40.
