data_PCOD9071584
_publ_section_title
;
Structure prediction by ZEFSAII (Michael W. Deem and Ramdas Pophale) SiO2 
 PCOD9071584
Probable space group: P -1
;
_chemical_formula_sum "Si O2"
_cell_formula_units_Z 13
_cell_length_a 8.911965
_cell_length_b 9.097959
_cell_length_c 11.572221
_cell_angle_alpha 104.486623
_cell_angle_beta 135.885962
_cell_angle_gamma 53.561944
_cell_volume 498.730514
_symmetry_space_group_name_H-M "P -1"
_symmetry_group_IT_number 2
_symmetry_cell_setting 'triclinic'
loop_
_space_group_symop_operation_xyz
x,y,z
-x,-y,-z
loop_
_atom_site_type_symbol
_atom_site_label
_atom_site_fract_x
_atom_site_fract_y
_atom_site_fract_z
Si Si1 0.433468 0.885135 0.020305
Si Si2 0.708761 0.173921 0.421171
Si Si3 0.527865 0.456918 0.773229
Si Si4 0.331091 0.067426 0.251548
Si Si5 0.000000 0.500000 0.500000
Si Si6 0.809219 0.442306 0.142730
Si Si7 0.830502 0.128057 0.718627
O O1 0.687818 0.664189 0.105838
O O2 0.143067 0.941155 0.833811
O O3 0.500000 0.000000 0.000000
O O4 0.373066 0.951708 0.133898
O O5 0.540902 0.346262 0.272428
O O6 0.575322 0.077045 0.370829
O O7 0.739212 0.246053 0.573358
O O8 0.000000 0.000000 0.500000
O O9 0.793436 0.271941 0.823168
O O10 0.280700 0.453799 0.595131
O O11 0.581629 0.440148 0.937542
O O12 0.068670 0.285880 0.174593
O O13 0.319678 0.951896 0.326092
O O14 0.952639 0.399483 0.341269
#
# Coordination Sequence:
#
# PCOD9071584 Si02
#       7
#     2   2   2   2   1   2   2
#     4  12  28  49  84 121 165 214 274 344 410 497
#     4  12  29  50  79 121 164 214 283 342 414 492
#     4  12  28  52  82 116 170 213 279 344 415 491
#     4  12  28  51  81 117 164 220 269 346 411 498
#     4  12  30  46  86 122 160 220 272 340 416 502
#     4  12  29  52  83 118 167 217 275 333 425 483
#     4  12  27  50  80 118 164 216 279 337 415 494
#
# _framework density 26.066179999999999
#
# number of rings (size 3 to 8) (size 9 to 14) (size 15 to 20)
#    0.000    0.000    1.538    6.462   15.077    1.231 
#    0.000    0.000    0.000    0.000    0.000    0.000 
#    0.000    0.000    0.000    0.000    0.000    0.000 
#
# Total GULP energy -72370.661013 kJ/mol
# GULP energy per Si atom -5566.973924 kJ/mol
# Density = 2.600685 g / cm^3
# Si number density = 26.066180 Si / 1000 Ang^3
#
#
#
# Elastic Constant Matrix: (Units=GPa)
#
#
# Indices 1 2 3 4 5 6 
#
# 1 233.8508 52.1036 37.1721 -15.8872 35.3151 -50.8500
# 2 52.1036 158.8394 26.9620 -20.4772 -14.4301 -28.0197
# 3 37.1721 26.9620 105.5944 30.9650 -22.0135 1.4512
# 4 -15.8872 -20.4772 30.9650 52.9470 -10.6389 -2.9007
# 5 35.3151 -14.4301 -22.0135 -10.6389 64.4379 -10.1644
# 6 -50.8500 -28.0197 1.4512 -2.9007 -10.1644 81.7316
#
#
#
# Elastic Compliance Matrix: (Units=1/GPa)
#
#
# Indices 1 2 3 4 5 6 
#
# 1 0.006755 -0.000811 -0.004104 0.003479 -0.004143 0.003606
# 2 -0.000811 0.008565 -0.002997 0.005536 0.002729 0.003021
# 3 -0.004104 -0.002997 0.015911 -0.010969 0.004623 -0.003678
# 4 0.003479 0.005536 -0.010969 0.029033 0.001238 0.005441
# 5 -0.004143 0.002729 0.004623 0.001238 0.020318 0.000847
# 6 0.003606 0.003021 -0.003678 0.005441 0.000847 0.015878
#
#
# Mechanical properties :
#
#
# Convention : Reuss Voigt Hill
#
# Bulk Modulus (GPa) = 64.91019 81.19555 73.05287
# Shear Modulus (GPa) = 42.58154 65.29309 53.93732
#
# Velocity S-wave (km/s) = 4.04616 5.01032 4.55383
# Velocity P-wave (km/s) = 6.83993 8.04292 7.46569
#
# Compressibility (1/GPa) = 0.01540590
#
# Stress axis : x y z
#
# Youngs Moduli (GPa) = 148.02811 116.75438 62.84876
#
# Poissons Ratio (x) = 0.09469 0.25796
# Poissons Ratio (y) = 0.12006 0.18838
# Poissons Ratio (z) = 0.60757 0.34996
#
# Static dielectric constant tensor:
#      x y z
#    x 1.879790 -0.409020 -0.248610 
#    y -0.409020 1.278540 -0.457690 
#    z -0.248610 -0.457690 1.926960 
# 
# From -- ./inp_files/382791.got.cif
#   From: 2010.05.17/outbox.cif.g08.bks.cpg/sg2_192_cif.got.tgz:382791.got - 2010.06.03 11:33:40.
