data_PCOD9071272
_publ_section_title
;
Structure prediction by ZEFSAII (Michael W. Deem and Ramdas Pophale) SiO2 
 PCOD9071272
Probable space group: P -1
;
_chemical_formula_sum "Si O2"
_cell_formula_units_Z 16
_cell_length_a 11.305892
_cell_length_b 13.905351
_cell_length_c 10.006358
_cell_angle_alpha 105.094390
_cell_angle_beta 87.278022
_cell_angle_gamma 148.161378
_cell_volume 753.179340
_symmetry_space_group_name_H-M "P -1"
_symmetry_group_IT_number 2
_symmetry_cell_setting 'triclinic'
loop_
_space_group_symop_operation_xyz
x,y,z
-x,-y,-z
loop_
_atom_site_type_symbol
_atom_site_label
_atom_site_fract_x
_atom_site_fract_y
_atom_site_fract_z
Si Si1 0.189777 0.575039 0.600645
Si Si2 0.946009 0.718158 0.343341
Si Si3 0.495163 0.765871 0.141308
Si Si4 0.498528 0.475746 0.648678
Si Si5 0.290581 0.766859 0.936101
Si Si6 0.063091 0.333658 0.975555
Si Si7 0.994666 0.107739 0.094207
Si Si8 0.412170 0.179557 0.549584
O O1 0.082089 0.390871 0.587734
O O2 0.262045 0.686354 0.771123
O O3 0.416378 0.722123 0.546933
O O4 0.000000 0.500000 0.500000
O O5 0.695050 0.592201 0.300996
O O6 0.003831 0.716287 0.193990
O O7 0.151017 0.944888 0.454613
O O8 0.491527 0.793818 0.306121
O O9 0.363174 0.745752 0.042869
O O10 0.346639 0.555248 0.056464
O O11 0.766287 0.953559 0.145944
O O12 0.500000 0.500000 0.500000
O O13 0.761148 0.687022 0.768754
O O14 0.418764 0.303535 0.609877
O O15 0.056259 0.659093 0.943203
O O16 0.500000 0.000000 0.000000
O O17 0.974889 0.170502 0.995242
O O18 0.000000 0.000000 0.000000
#
# Coordination Sequence:
#
# PCOD9071272 Si02
#       8
#     2   2   2   2   2   2   2   2
#     4  12  29  49  73 109 152 187 245 304 358 432
#     4  12  28  47  76 108 146 194 244 298 366 435
#     4  12  26  47  75 107 144 193 244 294 365 428
#     4  12  26  49  74 102 152 191 239 302 363 434
#     4  12  26  48  78 104 149 196 241 303 362 431
#     4  12  26  49  74 107 146 191 247 300 364 430
#     4  12  29  46  75 108 147 188 247 306 360 427
#     4  12  28  47  76 110 147 195 240 297 369 435
#
# _framework density 21.243281
#
# number of rings (size 3 to 8) (size 9 to 14) (size 15 to 20)
#    0.000    0.000    5.000    3.750    7.000    1.500 
#    0.000    0.000    0.000    0.000    0.000    0.000 
#    0.000    0.000    0.000    0.000    0.000    0.000 
#
# Total GULP energy -89627.632543 kJ/mol
# GULP energy per Si atom -5601.727034 kJ/mol
# Density = 2.119493 g / cm^3
# Si number density = 21.243281 Si / 1000 Ang^3
#
#
#
# Elastic Constant Matrix: (Units=GPa)
#
#
# Indices 1 2 3 4 5 6 
#
# 1 119.7931 55.1304 38.2551 -9.9742 -3.5807 -4.9717
# 2 55.1304 160.1192 56.3012 8.2795 -3.4805 -11.0011
# 3 38.2551 56.3012 114.2792 -9.9568 10.3491 -13.3663
# 4 -9.9742 8.2795 -9.9568 48.3603 -1.9842 2.0550
# 5 -3.5807 -3.4805 10.3491 -1.9842 31.0822 4.7482
# 6 -4.9717 -11.0011 -13.3663 2.0550 4.7482 22.6123
#
#
#
# Elastic Compliance Matrix: (Units=1/GPa)
#
#
# Indices 1 2 3 4 5 6 
#
# 1 0.010659 -0.003072 -0.002139 0.002406 0.001908 -0.001035
# 2 -0.003072 0.008823 -0.003519 -0.002875 0.001392 0.001506
# 3 -0.002139 -0.003519 0.012644 0.002266 -0.005665 0.006276
# 4 0.002406 -0.002875 0.002266 0.022243 0.000886 -0.001738
# 5 0.001908 0.001392 -0.005665 0.000886 0.036002 -0.009892
# 6 -0.001035 0.001506 0.006276 -0.001738 -0.009892 0.050674
#
#
# Mechanical properties :
#
#
# Convention : Reuss Voigt Hill
#
# Bulk Modulus (GPa) = 68.17972 77.06276 72.62124
# Shear Modulus (GPa) = 30.60102 36.71126 33.65614
#
# Velocity S-wave (km/s) = 3.79951 4.16159 3.98467
# Velocity P-wave (km/s) = 7.17027 7.71018 7.44512
#
# Compressibility (1/GPa) = 0.01466712
#
# Stress axis : x y z
#
# Youngs Moduli (GPa) = 93.81819 113.34378 79.08651
#
# Poissons Ratio (x) = 0.34819 0.16915
# Poissons Ratio (y) = 0.28820 0.27828
# Poissons Ratio (z) = 0.20065 0.39883
#
# Static dielectric constant tensor:
#      x y z
#    x 1.771910 -0.017610 0.004870 
#    y -0.017610 2.058870 -0.042710 
#    z 0.004870 -0.042710 1.741150 
# 
# From -- ./inp_files/273731.got.cif
#   From: 2010.05.17/outbox.cif.g08.bks.cpg/sg2_137_cif.got.tgz:273731.got - 2010.06.03 11:33:40.
