data_PCOD9071444
_publ_section_title
;
Structure prediction by ZEFSAII (Michael W. Deem and Ramdas Pophale) SiO2 
 PCOD9071444
Probable space group: P -1
;
_chemical_formula_sum "Si O2"
_cell_formula_units_Z 13
_cell_length_a 15.315580
_cell_length_b 9.349259
_cell_length_c 8.999785
_cell_angle_alpha 148.500533
_cell_angle_beta 121.876971
_cell_angle_gamma 58.732073
_cell_volume 564.864262
_symmetry_space_group_name_H-M "P -1"
_symmetry_group_IT_number 2
_symmetry_cell_setting 'triclinic'
loop_
_space_group_symop_operation_xyz
x,y,z
-x,-y,-z
loop_
_atom_site_type_symbol
_atom_site_label
_atom_site_fract_x
_atom_site_fract_y
_atom_site_fract_z
Si Si1 0.000000 0.000000 0.000000
Si Si2 0.154294 0.224396 0.119608
Si Si3 0.176815 0.877114 0.270349
Si Si4 0.686472 0.637499 0.186189
Si Si5 0.495062 0.832534 0.999016
Si Si6 0.618917 0.665097 0.481958
Si Si7 0.107458 0.808065 0.466934
O O1 0.096319 0.135343 0.133269
O O2 0.060625 0.977688 0.196355
O O3 0.267496 0.291711 0.322163
O O4 0.092356 0.510379 0.252523
O O5 0.161843 0.979022 0.789135
O O6 0.171477 0.766837 0.335174
O O7 0.249515 0.109852 0.538385
O O8 0.228724 0.634690 0.994177
O O9 0.605556 0.667077 0.004239
O O10 0.625733 0.633581 0.282754
O O11 0.458281 0.063275 0.295456
O O12 0.417574 0.607261 0.723512
O O13 0.500000 0.000000 0.000000
O O14 0.000000 0.000000 0.500000
#
# Coordination Sequence:
#
# PCOD9071444 Si02
#       7
#     1   2   2   2   2   2   2
#     4  12  28  50  74 116 150 196 252 306 370 440
#     4  12  28  47  78 107 153 195 254 303 371 451
#     4  12  28  46  77 108 152 191 254 302 368 448
#     4  12  27  49  75 111 143 200 242 310 373 440
#     4  12  28  49  77 110 150 189 252 311 371 443
#     4  12  26  50  76 108 146 198 242 305 376 441
#     4  12  27  48  70 107 153 205 241 310 375 438
#
# _framework density 23.014377
#
# number of rings (size 3 to 8) (size 9 to 14) (size 15 to 20)
#    0.000    0.000    3.077    5.538   10.769    1.231 
#    0.000    0.000    0.000    0.000    0.000    0.000 
#    0.000    0.000    0.000    0.000    0.000    0.000 
#
# Total GULP energy -72644.034468 kJ/mol
# GULP energy per Si atom -5588.002651 kJ/mol
# Density = 2.296200 g / cm^3
# Si number density = 23.014377 Si / 1000 Ang^3
#
#
#
# Elastic Constant Matrix: (Units=GPa)
#
#
# Indices 1 2 3 4 5 6 
#
# 1 87.8011 24.5529 37.1504 1.7383 24.4757 14.6718
# 2 24.5529 67.9734 8.1964 -12.4567 14.0203 19.8232
# 3 37.1504 8.1964 113.4984 7.1273 21.1426 14.9129
# 4 1.7383 -12.4567 7.1273 39.5522 -4.9254 2.3325
# 5 24.4757 14.0203 21.1426 -4.9254 51.8588 -5.4909
# 6 14.6718 19.8232 14.9129 2.3325 -5.4909 36.8624
#
#
#
# Elastic Compliance Matrix: (Units=1/GPa)
#
#
# Indices 1 2 3 4 5 6 
#
# 1 0.016069 -0.003296 -0.003274 -0.001654 -0.005947 -0.004080
# 2 -0.003296 0.021687 0.001778 0.006672 -0.005705 -0.012342
# 3 -0.003274 0.001778 0.011250 -0.001564 -0.004171 -0.004727
# 4 -0.001654 0.006672 -0.001564 0.028198 0.001891 -0.003799
# 5 -0.005947 -0.005705 -0.004171 0.001891 0.026675 0.010977
# 6 -0.004080 -0.012342 -0.004727 -0.003799 0.010977 0.039176
#
#
# Mechanical properties :
#
#
# Convention : Reuss Voigt Hill
#
# Bulk Modulus (GPa) = 25.36651 45.45248 35.40949
# Shear Modulus (GPa) = 30.16059 38.94623 34.55341
#
# Velocity S-wave (km/s) = 3.62403 4.11817 3.87897
# Velocity P-wave (km/s) = 5.34391 6.51190 5.95660
#
# Compressibility (1/GPa) = 0.03942206
#
# Stress axis : x y z
#
# Youngs Moduli (GPa) = 62.23282 46.11144 88.88726
#
# Poissons Ratio (x) = 0.15199 0.29100
# Poissons Ratio (y) = 0.20513 -0.15807
# Poissons Ratio (z) = 0.20374 -0.08200
#
# Static dielectric constant tensor:
#      x y z
#    x 1.828300 -0.027950 -0.034590 
#    y -0.027950 1.843590 0.000100 
#    z -0.034590 0.000100 1.828460 
# 
# From -- ./inp_files/201710.got.cif
#   From: 2010.05.17/outbox.cif.g08.bks.cpg/sg2_101_cif.got.tgz:201710.got - 2010.06.03 11:33:40.
