data_PCOD9071367
_publ_section_title
;
Structure prediction by ZEFSAII (Michael W. Deem and Ramdas Pophale) SiO2 
 PCOD9071367
Probable space group: P -1
;
_chemical_formula_sum "Si O2"
_cell_formula_units_Z 11
_cell_length_a 12.639659
_cell_length_b 9.339895
_cell_length_c 15.848789
_cell_angle_alpha 30.862820
_cell_angle_beta 25.399425
_cell_angle_gamma 38.455683
_cell_volume 411.430359
_symmetry_space_group_name_H-M "P -1"
_symmetry_group_IT_number 2
_symmetry_cell_setting 'triclinic'
loop_
_space_group_symop_operation_xyz
x,y,z
-x,-y,-z
loop_
_atom_site_type_symbol
_atom_site_label
_atom_site_fract_x
_atom_site_fract_y
_atom_site_fract_z
Si Si1 0.048655 0.255304 0.020343
Si Si2 0.500000 0.000000 0.500000
Si Si3 0.468211 0.947308 0.146879
Si Si4 0.252744 0.358998 0.218767
Si Si5 0.803764 0.756541 0.506278
Si Si6 0.786410 0.632094 0.345445
O O1 0.262557 0.048050 0.007185
O O2 0.129237 0.336318 0.828340
O O3 0.000000 0.500000 0.000000
O O4 0.817054 0.048340 0.292416
O O5 0.434054 0.321205 0.336315
O O6 0.372597 0.117243 0.626704
O O7 0.365665 0.647612 0.395090
O O8 0.290482 0.176697 0.201537
O O9 0.500000 0.000000 0.000000
O O10 0.200147 0.155652 0.438227
O O11 0.033765 0.582773 0.247733
O O12 0.500000 0.500000 0.000000
O O13 0.000000 0.500000 0.500000
#
# Coordination Sequence:
#
# PCOD9071367 Si02
#       6
#     2   1   2   2   2   2
#     4  12  26  49  80 114 160 210 274 339 412 487
#     4  12  28  46  80 110 170 204 272 328 408 478
#     4  12  26  48  79 115 158 211 270 333 411 489
#     4  12  27  48  81 116 163 210 270 338 410 487
#     4  12  26  49  75 116 161 208 268 328 410 483
#     4  12  27  50  78 120 162 214 272 335 411 487
#
# _framework density 26.735993000000001
#
# number of rings (size 3 to 8) (size 9 to 14) (size 15 to 20)
#    0.000    0.000    1.818    7.636    5.091    0.727 
#    0.000    0.000    0.000    0.000    0.000    0.000 
#    0.000    0.000    0.000    0.000    0.000    0.000 
#
# Total GULP energy -61533.192807 kJ/mol
# GULP energy per Si atom -5593.926619 kJ/mol
# Density = 2.667514 g / cm^3
# Si number density = 26.735993 Si / 1000 Ang^3
#
#
#
# Elastic Constant Matrix: (Units=GPa)
#
#
# Indices 1 2 3 4 5 6 
#
# 1 198.2142 74.6737 65.2423 18.6022 54.1426 -10.9535
# 2 74.6737 190.1766 50.9255 20.5652 16.1116 1.8098
# 3 65.2423 50.9255 156.5130 -3.0241 23.7785 25.5987
# 4 18.6022 20.5652 -3.0241 36.5531 3.4220 -6.0579
# 5 54.1426 16.1116 23.7785 3.4220 72.6591 13.7070
# 6 -10.9535 1.8098 25.5987 -6.0579 13.7070 82.0222
#
#
#
# Elastic Compliance Matrix: (Units=1/GPa)
#
#
# Indices 1 2 3 4 5 6 
#
# 1 0.008495 -0.001942 -0.002572 -0.002484 -0.005452 0.002708
# 2 -0.001942 0.006690 -0.001477 -0.003003 0.000641 -0.000275
# 3 -0.002572 -0.001477 0.008456 0.002394 -0.000117 -0.002754
# 4 -0.002484 -0.003003 0.002394 0.030711 0.000052 0.001247
# 5 -0.005452 0.000641 -0.000117 0.000052 0.018432 -0.003782
# 6 0.002708 -0.000275 -0.002754 0.001247 -0.003782 0.014143
#
#
# Mechanical properties :
#
#
# Convention : Reuss Voigt Hill
#
# Bulk Modulus (GPa) = 85.77674 102.95407 94.36540
# Shear Modulus (GPa) = 48.63962 61.85103 55.24533
#
# Velocity S-wave (km/s) = 4.26990 4.81500 4.55062
# Velocity P-wave (km/s) = 7.51412 8.33688 7.93617
#
# Compressibility (1/GPa) = 0.01165817
#
# Stress axis : x y z
#
# Youngs Moduli (GPa) = 117.71375 149.48577 118.25348
#
# Poissons Ratio (x) = 0.29034 0.30413
# Poissons Ratio (y) = 0.22863 0.17471
# Poissons Ratio (z) = 0.30274 0.22085
#
# Static dielectric constant tensor:
#      x y z
#    x 2.144860 -0.102580 -0.114730 
#    y -0.102580 2.154180 0.324880 
#    z -0.114730 0.324880 2.667600 
# 
# From -- ./inp_files/181733.got.cif
#   From: 2010.05.17/outbox.cif.g08.bks.cpg/sg2_91_cif.got.tgz:181733.got - 2010.06.03 11:33:40.
