data_PCOD9071360
_publ_section_title
;
Structure prediction by ZEFSAII (Michael W. Deem and Ramdas Pophale) SiO2 
 PCOD9071360
Probable space group: P -1
;
_chemical_formula_sum "Si O2"
_cell_formula_units_Z 11
_cell_length_a 5.539579
_cell_length_b 13.012821
_cell_length_c 21.506618
_cell_angle_alpha 159.177892
_cell_angle_beta 58.874059
_cell_angle_gamma 125.069781
_cell_volume 449.958426
_symmetry_space_group_name_H-M "P -1"
_symmetry_group_IT_number 2
_symmetry_cell_setting 'triclinic'
loop_
_space_group_symop_operation_xyz
x,y,z
-x,-y,-z
loop_
_atom_site_type_symbol
_atom_site_label
_atom_site_fract_x
_atom_site_fract_y
_atom_site_fract_z
Si Si1 0.231160 0.325679 0.888952
Si Si2 0.553979 0.557163 0.385529
Si Si3 0.065870 0.863182 0.749713
Si Si4 0.500000 0.500000 0.500000
Si Si5 0.395129 0.860877 0.368944
Si Si6 0.922616 0.220912 0.084898
O O1 0.373115 0.252388 0.765662
O O2 0.051130 0.012827 0.769686
O O3 0.500000 0.500000 0.000000
O O4 0.000000 0.500000 0.000000
O O5 0.666109 0.562692 0.443873
O O6 0.621776 0.290726 0.184822
O O7 0.200277 0.444263 0.380065
O O8 0.664316 0.876651 0.517186
O O9 0.372958 0.792822 0.673923
O O10 0.997401 0.093039 0.937702
O O11 0.133283 0.563202 0.250696
O O12 0.500000 0.000000 0.500000
O O13 0.000000 0.000000 0.000000
#
# Coordination Sequence:
#
# PCOD9071360 Si02
#       6
#     2   2   2   1   2   2
#     4  12  30  51  82 120 165 215 281 346 416 495
#     4  12  28  48  78 113 160 205 272 337 419 493
#     4  12  27  49  81 113 154 217 270 342 409 499
#     4  12  26  48  78 114 160 202 276 334 424 480
#     4  12  29  49  77 120 162 219 268 346 418 493
#     4  12  26  49  78 109 158 209 272 331 410 491
#
# _framework density 24.446704
#
# number of rings (size 3 to 8) (size 9 to 14) (size 15 to 20)
#    0.000    0.000    5.455    2.727    7.636    1.455 
#    0.000    0.000    0.000    0.000    0.000    0.000 
#    0.000    0.000    0.000    0.000    0.000    0.000 
#
# Total GULP energy -61346.074790 kJ/mol
# GULP energy per Si atom -5576.915890 kJ/mol
# Density = 2.439106 g / cm^3
# Si number density = 24.446704 Si / 1000 Ang^3
#
#
#
# Elastic Constant Matrix: (Units=GPa)
#
#
# Indices 1 2 3 4 5 6 
#
# 1 81.2565 31.8405 55.3855 -4.2016 -22.5363 -6.1177
# 2 31.8405 134.1840 51.0436 -6.8959 -10.9200 -21.8765
# 3 55.3855 51.0436 163.8222 -15.7982 -30.8963 -0.1205
# 4 -4.2016 -6.8959 -15.7982 77.0802 -1.9837 -8.6188
# 5 -22.5363 -10.9200 -30.8963 -1.9837 59.6911 -0.3269
# 6 -6.1177 -21.8765 -0.1205 -8.6188 -0.3269 40.6973
#
#
#
# Elastic Compliance Matrix: (Units=1/GPa)
#
#
# Indices 1 2 3 4 5 6 
#
# 1 0.017317 -0.001778 -0.004556 0.000140 0.003868 0.001695
# 2 -0.001778 0.009625 -0.002323 0.000855 -0.000056 0.005081
# 3 -0.004556 -0.002323 0.008966 0.001266 0.002529 -0.001618
# 4 0.000140 0.000855 0.001266 0.013732 0.001339 0.003403
# 5 0.003868 -0.000056 0.002529 0.001339 0.019562 0.001000
# 6 0.001695 0.005081 -0.001618 0.003403 0.001000 0.028281
#
#
# Mechanical properties :
#
#
# Convention : Reuss Voigt Hill
#
# Bulk Modulus (GPa) = 53.77702 72.86689 63.32195
# Shear Modulus (GPa) = 41.32412 51.55991 46.44201
#
# Velocity S-wave (km/s) = 4.11588 4.59745 4.36331
# Velocity P-wave (km/s) = 6.68077 7.61926 7.16540
#
# Compressibility (1/GPa) = 0.01859530
#
# Stress axis : x y z
#
# Youngs Moduli (GPa) = 57.74813 103.89179 111.53177
#
# Poissons Ratio (x) = 0.18467 0.50817
# Poissons Ratio (y) = 0.10265 0.25904
# Poissons Ratio (z) = 0.26312 0.24129
#
# Static dielectric constant tensor:
#      x y z
#    x 2.114990 0.088760 0.078010 
#    y 0.088760 1.968600 -0.021900 
#    z 0.078010 -0.021900 1.969960 
# 
# From -- ./inp_files/17210.got.cif
#   From: 2010.05.17/outbox.cif.g08.bks.cpg/sg2_9_cif.got.tgz:17210.got - 2010.06.03 11:33:40.
