data_PCOD9071696
_publ_section_title
;
Structure prediction by ZEFSAII (Michael W. Deem and Ramdas Pophale) SiO2 
 PCOD9071696
Probable space group: P -1
;
_chemical_formula_sum "Si O2"
_cell_formula_units_Z 16
_cell_length_a 18.524980
_cell_length_b 8.310921
_cell_length_c 8.487507
_cell_angle_alpha 51.628596
_cell_angle_beta 134.292664
_cell_angle_gamma 119.887489
_cell_volume 728.400310
_symmetry_space_group_name_H-M "P -1"
_symmetry_group_IT_number 2
_symmetry_cell_setting 'triclinic'
loop_
_space_group_symop_operation_xyz
x,y,z
-x,-y,-z
loop_
_atom_site_type_symbol
_atom_site_label
_atom_site_fract_x
_atom_site_fract_y
_atom_site_fract_z
Si Si1 0.524893 0.095646 0.733646
Si Si2 0.554762 0.696381 0.194633
Si Si3 0.386686 0.319759 0.197242
Si Si4 0.307066 0.526915 0.264241
Si Si5 0.812885 0.810291 0.220737
Si Si6 0.985895 0.059936 0.762195
Si Si7 0.138986 0.784984 0.756043
Si Si8 0.053975 0.325895 0.268872
O O1 0.482849 0.191840 0.772681
O O2 0.440150 0.123290 0.456895
O O3 0.621479 0.256621 0.739754
O O4 0.551460 0.868020 0.951079
O O5 0.473047 0.497206 0.160382
O O6 0.661168 0.615474 0.457196
O O7 0.342735 0.418556 0.227328
O O8 0.292694 0.260024 0.978228
O O9 0.197011 0.594880 0.016893
O O10 0.849447 0.632364 0.497605
O O11 0.805744 0.005750 0.208036
O O12 0.902421 0.871502 0.188142
O O13 0.935113 0.847485 0.736418
O O14 0.899364 0.208040 0.488756
O O15 0.000000 0.000000 0.000000
O O16 0.031136 0.774329 0.681386
O O17 0.000000 0.500000 0.000000
#
# Coordination Sequence:
#
# PCOD9071696 Si02
#       8
#     2   2   2   2   2   2   2   2
#     4   8  15  31  50  74 109 141 172 222 276 308
#     4   8  15  31  50  74 110 140 174 223 270 315
#     4   9  17  31  53  79 105 140 183 222 261 317
#     4   9  17  31  53  79 105 140 183 222 261 317
#     4   9  19  37  54  75 114 146 169 220 280 319
#     4   9  19  37  56  78 106 140 183 221 262 321
#     4   9  19  37  54  75 114 146 169 220 280 319
#     4   9  19  37  56  74 108 149 174 212 278 327
#
# _framework density 21.965942999999999
#
# number of rings (size 3 to 8) (size 9 to 14) (size 15 to 20)
#    0.000    3.250    0.000    3.000    0.000    2.000 
#   18.000    5.000    0.000    1.500    0.000    0.000 
#    0.000    0.000    0.000    0.000    0.000    0.000 
#
# Total GULP energy -89129.182646 kJ/mol
# GULP energy per Si atom -5570.573915 kJ/mol
# Density = 2.191595 g / cm^3
# Si number density = 21.965943 Si / 1000 Ang^3
#
#
#
# Elastic Constant Matrix: (Units=GPa)
#
#
# Indices 1 2 3 4 5 6 
#
# 1 53.1113 15.6955 48.3543 4.8491 5.9381 -1.3943
# 2 15.6955 60.3507 75.9024 7.2423 -3.5595 7.1058
# 3 48.3543 75.9024 264.9818 6.8883 3.0412 5.8358
# 4 4.8491 7.2423 6.8883 47.2419 -0.9139 2.2758
# 5 5.9381 -3.5595 3.0412 -0.9139 28.5190 -2.6434
# 6 -1.3943 7.1058 5.8358 2.2758 -2.6434 12.8603
#
#
#
# Elastic Compliance Matrix: (Units=1/GPa)
#
#
# Indices 1 2 3 4 5 6 
#
# 1 0.023619 -0.002053 -0.003729 -0.001883 -0.004390 0.004818
# 2 -0.002053 0.028340 -0.007472 -0.002429 0.003635 -0.011313
# 3 -0.003729 -0.007472 0.006579 0.000530 -0.000796 0.000481
# 4 -0.001883 -0.002429 0.000530 0.021803 0.000465 -0.002865
# 5 -0.004390 0.003635 -0.000796 0.000465 0.037033 0.005407
# 6 0.004818 -0.011313 0.000481 -0.002865 0.005407 0.085932
#
#
# Mechanical properties :
#
#
# Convention : Reuss Voigt Hill
#
# Bulk Modulus (GPa) = 31.22143 73.14982 52.18562
# Shear Modulus (GPa) = 20.79073 33.62371 27.20722
#
# Velocity S-wave (km/s) = 3.07986 3.91669 3.52321
# Velocity P-wave (km/s) = 5.18573 7.33673 6.35293
#
# Compressibility (1/GPa) = 0.03202929
#
# Stress axis : x y z
#
# Youngs Moduli (GPa) = 42.33853 35.28603 151.98853
#
# Poissons Ratio (x) = 0.07246 0.56671
# Poissons Ratio (y) = 0.08694 1.13573
# Poissons Ratio (z) = 0.15786 0.26367
#
# Static dielectric constant tensor:
#      x y z
#    x 1.889070 0.012830 -0.020480 
#    y 0.012830 1.797820 -0.032050 
#    z -0.020480 -0.032050 1.918420 
# 
# From -- ./inp_files/342470.got.cif
#   From: 2010.05.17/outbox.cif.g08.bks.cpg/sg2_172_cif.got.tgz:342470.got - 2010.06.03 11:33:40.
