data_PCOD9071375
_publ_section_title
;
Structure prediction by ZEFSAII (Michael W. Deem and Ramdas Pophale) SiO2 
 PCOD9071375
Probable space group: P -1
;
_chemical_formula_sum "Si O2"
_cell_formula_units_Z 15
_cell_length_a 9.457413
_cell_length_b 5.006763
_cell_length_c 17.067938
_cell_angle_alpha 56.276533
_cell_angle_beta 126.680830
_cell_angle_gamma 104.899188
_cell_volume 535.703627
_symmetry_space_group_name_H-M "P -1"
_symmetry_group_IT_number 2
_symmetry_cell_setting 'triclinic'
loop_
_space_group_symop_operation_xyz
x,y,z
-x,-y,-z
loop_
_atom_site_type_symbol
_atom_site_label
_atom_site_fract_x
_atom_site_fract_y
_atom_site_fract_z
Si Si1 0.453334 0.335150 0.383464
Si Si2 0.919334 0.828161 0.750975
Si Si3 0.500000 0.000000 0.000000
Si Si4 0.499521 0.181283 0.149104
Si Si5 0.215392 0.395391 0.827688
Si Si6 0.027234 0.523030 0.412779
Si Si7 0.641657 0.931223 0.388283
Si Si8 0.898711 0.850931 0.918710
O O1 0.248478 0.369006 0.286645
O O2 0.513644 0.644903 0.395965
O O3 0.500000 0.000000 0.500000
O O4 0.564706 0.253882 0.354327
O O5 0.903882 0.970048 0.810662
O O6 0.093462 0.600741 0.816425
O O7 0.898422 0.140830 0.637259
O O8 0.510431 0.012504 0.098499
O O9 0.729936 0.976309 0.075957
O O10 0.573146 0.532921 0.105549
O O11 0.306806 0.171907 0.123029
O O12 0.644027 0.009919 0.284569
O O13 0.132153 0.471359 0.702944
O O14 0.172629 0.221825 0.491507
O O15 0.000000 0.500000 0.500000
O O16 0.000000 0.500000 0.000000
O O17 0.000000 0.000000 0.000000
#
# Coordination Sequence:
#
# PCOD9071375 Si02
#       8
#     2   2   1   2   2   2   2   2
#     4  12  26  48  80 117 163 212 270 335 414 488
#     4  12  28  51  81 124 164 221 281 352 422 503
#     4  12  28  52  82 114 162 216 288 336 426 498
#     4  12  30  52  82 118 168 220 283 343 430 502
#     4  12  29  51  83 117 166 225 281 349 426 506
#     4  12  29  50  81 123 171 221 284 341 420 512
#     4  12  28  50  81 121 166 219 271 347 412 501
#     4  12  32  53  85 119 165 216 286 356 418 492
#
# _framework density 28.000554999999999
#
# number of rings (size 3 to 8) (size 9 to 14) (size 15 to 20)
#    0.000    0.000    2.667    4.800   14.933    1.067 
#    0.000    0.000    0.000    0.000    0.000    0.000 
#    0.000    0.000    0.000    0.000    0.000    0.000 
#
# Total GULP energy -84063.078012 kJ/mol
# GULP energy per Si atom -5604.205201 kJ/mol
# Density = 2.793682 g / cm^3
# Si number density = 28.000555 Si / 1000 Ang^3
#
#
#
# Elastic Constant Matrix: (Units=GPa)
#
#
# Indices 1 2 3 4 5 6 
#
# 1 135.1360 60.1837 56.6938 18.4571 11.4871 -28.5680
# 2 60.1837 134.3534 41.5795 26.1463 12.0081 -26.4111
# 3 56.6938 41.5795 200.6609 18.6009 8.2833 -21.1277
# 4 18.4571 26.1463 18.6009 57.4146 -2.8314 1.8377
# 5 11.4871 12.0081 8.2833 -2.8314 75.7851 4.2942
# 6 -28.5680 -26.4111 -21.1277 1.8377 4.2942 58.6312
#
#
#
# Elastic Compliance Matrix: (Units=1/GPa)
#
#
# Indices 1 2 3 4 5 6 
#
# 1 0.010534 -0.003130 -0.001800 -0.001537 -0.001143 0.003206
# 2 -0.003130 0.010517 -0.000543 -0.003783 -0.001458 0.003242
# 3 -0.001800 -0.000543 0.005834 -0.001116 -0.000380 0.001043
# 4 -0.001537 -0.003783 -0.001116 0.020206 0.001915 -0.003629
# 5 -0.001143 -0.001458 -0.000380 0.001915 0.013850 -0.002425
# 6 0.003206 0.003242 0.001043 -0.003629 -0.002425 0.020745
#
#
# Mechanical properties :
#
#
# Convention : Reuss Voigt Hill
#
# Bulk Modulus (GPa) = 62.74272 87.45158 75.09715
# Shear Modulus (GPa) = 51.04890 59.14575 55.09733
#
# Velocity S-wave (km/s) = 4.27446 4.60097 4.44071
# Velocity P-wave (km/s) = 6.84234 7.71525 7.29187
#
# Compressibility (1/GPa) = 0.01593811
#
# Stress axis : x y z
#
# Youngs Moduli (GPa) = 94.93002 95.08447 171.41937
#
# Poissons Ratio (x) = 0.29763 0.30864
# Poissons Ratio (y) = 0.29715 0.09302
# Poissons Ratio (z) = 0.17092 0.05160
#
# Static dielectric constant tensor:
#      x y z
#    x 2.304430 0.121130 0.027240 
#    y 0.121130 2.417820 -0.196420 
#    z 0.027240 -0.196420 2.208310 
# 
# From -- ./inp_files/553301.got.cif
#   From: 2010.05.17/outbox.cif.g08.bks.cpg/sg2_277_cif.got.tgz:553301.got - 2010.06.03 11:33:40.
