data_PCOD9071876
_publ_section_title
;
Structure prediction by ZEFSAII (Michael W. Deem and Ramdas Pophale) SiO2 
 PCOD9071876
Probable space group: P -1
;
_chemical_formula_sum "Si O2"
_cell_formula_units_Z 16
_cell_length_a 27.279276
_cell_length_b 13.743050
_cell_length_c 5.161891
_cell_angle_alpha 109.949149
_cell_angle_beta 117.403788
_cell_angle_gamma 31.958222
_cell_volume 904.337207
_symmetry_space_group_name_H-M "P -1"
_symmetry_group_IT_number 2
_symmetry_cell_setting 'triclinic'
loop_
_space_group_symop_operation_xyz
x,y,z
-x,-y,-z
loop_
_atom_site_type_symbol
_atom_site_label
_atom_site_fract_x
_atom_site_fract_y
_atom_site_fract_z
Si Si1 0.848740 0.856989 0.852931
Si Si2 0.003909 0.922158 0.689255
Si Si3 0.772811 0.780784 0.312596
Si Si4 0.380102 0.219188 0.601367
Si Si5 0.579602 0.977707 0.977277
Si Si6 0.166976 0.523787 0.522025
Si Si7 0.056199 0.552938 0.889327
Si Si8 0.112529 0.095324 0.506921
O O1 0.790061 0.848517 0.608517
O O2 0.837109 0.964433 0.702356
O O3 0.966044 0.649047 0.925714
O O4 0.831156 0.931394 0.157110
O O5 0.915118 0.977030 0.543303
O O6 0.000000 0.000000 0.500000
O O7 0.103540 0.700576 0.698124
O O8 0.000000 0.000000 0.000000
O O9 0.799531 0.630126 0.377854
O O10 0.853934 0.659607 0.169584
O O11 0.659562 0.943760 0.102428
O O12 0.389536 0.158010 0.281021
O O13 0.266934 0.420287 0.565262
O O14 0.464380 0.173958 0.813870
O O15 0.409180 0.084897 0.761565
O O16 0.101078 0.580811 0.177869
O O17 0.994415 0.684276 0.605727
#
# Coordination Sequence:
#
# PCOD9071876 Si02
#       8
#     2   2   2   2   2   2   2   2
#     4  10  21  31  48  68 102 133 163 189 227 289
#     4  12  23  36  53  68  94 128 170 212 248 280
#     4  11  20  29  50  72 103 135 165 185 234 291
#     4   9  18  31  48  64  97 129 160 202 236 275
#     4   9  18  30  45  71  94 129 166 193 228 282
#     4  11  20  33  50  72 100 133 168 197 247 289
#     4  10  18  30  46  65 101 130 165 189 219 286
#     4  10  21  37  44  68  99 126 167 200 234 279
#
# _framework density 17.692513000000002
#
# number of rings (size 3 to 8) (size 9 to 14) (size 15 to 20)
#    0.750    1.000    3.750    1.875    1.750    1.000 
#    0.000    0.000    0.000    0.000    0.000    0.000 
#    0.000    6.000    0.000    0.000    0.000    0.250 
#
# Total GULP energy -89135.236623 kJ/mol
# GULP energy per Si atom -5570.952289 kJ/mol
# Density = 1.765224 g / cm^3
# Si number density = 17.692513 Si / 1000 Ang^3
#
#
#
# Elastic Constant Matrix: (Units=GPa)
#
#
# Indices 1 2 3 4 5 6 
#
# 1 38.5563 17.7280 22.1695 -5.2348 3.6866 7.3144
# 2 17.7280 31.8110 23.3613 7.4553 12.6262 -2.7718
# 3 22.1695 23.3613 109.5450 11.9506 12.7357 -2.9443
# 4 -5.2348 7.4553 11.9506 21.5909 -8.0704 5.8034
# 5 3.6866 12.6262 12.7357 -8.0704 43.9777 -7.8176
# 6 7.3144 -2.7718 -2.9443 5.8034 -7.8176 25.3496
#
#
#
# Elastic Compliance Matrix: (Units=1/GPa)
#
#
# Indices 1 2 3 4 5 6 
#
# 1 0.071600 -0.055095 -0.012296 0.059614 0.017873 -0.036248
# 2 -0.055095 0.088833 0.003442 -0.065108 -0.028098 0.032251
# 3 -0.012296 0.003442 0.013409 -0.015592 -0.005388 0.007390
# 4 0.059614 -0.065108 -0.015592 0.115236 0.031765 -0.042717
# 5 0.017873 -0.028098 -0.005388 0.031765 0.035792 -0.005089
# 6 -0.036248 0.032251 0.007390 -0.042717 -0.005089 0.062502
#
#
# Mechanical properties :
#
#
# Convention : Reuss Voigt Hill
#
# Bulk Modulus (GPa) = 21.76608 34.04776 27.90692
# Shear Modulus (GPa) = 9.42353 25.96055 17.69204
#
# Velocity S-wave (km/s) = 2.31038 3.83471 3.16567
# Velocity P-wave (km/s) = 4.40979 6.23640 5.40088
#
# Compressibility (1/GPa) = 0.04594305
#
# Stress axis : x y z
#
# Youngs Moduli (GPa) = 13.96647 11.25704 74.57561
#
# Poissons Ratio (x) = 0.62021 0.91701
# Poissons Ratio (y) = 0.76949 -0.25669
# Poissons Ratio (z) = 0.17174 -0.03875
#
# Static dielectric constant tensor:
#      x y z
#    x 1.690330 -0.029970 -0.022420 
#    y -0.029970 1.596430 -0.015810 
#    z -0.022420 -0.015810 1.633950 
# 
# From -- ./inp_files/128555.got.cif
#   From: 2010.05.17/outbox.cif.g08.bks.cpg/sg2_65_cif.got.tgz:128555.got - 2010.06.03 11:33:40.
