data_PCOD9071110
_publ_section_title
;
Structure prediction by ZEFSAII (Michael W. Deem and Ramdas Pophale) SiO2 
 PCOD9071110
Probable space group: P -1
;
_chemical_formula_sum "Si O2"
_cell_formula_units_Z 12
_cell_length_a 8.681894
_cell_length_b 5.394634
_cell_length_c 18.638500
_cell_angle_alpha 56.210098
_cell_angle_beta 137.723425
_cell_angle_gamma 104.098479
_cell_volume 465.513845
_symmetry_space_group_name_H-M "P -1"
_symmetry_group_IT_number 2
_symmetry_cell_setting 'triclinic'
loop_
_space_group_symop_operation_xyz
x,y,z
-x,-y,-z
loop_
_atom_site_type_symbol
_atom_site_label
_atom_site_fract_x
_atom_site_fract_y
_atom_site_fract_z
Si Si1 0.153987 0.784722 0.697262
Si Si2 0.702989 0.519505 0.782653
Si Si3 0.788684 0.530641 0.087337
Si Si4 0.411932 0.748250 0.073797
Si Si5 0.731836 0.646531 0.416762
Si Si6 0.397229 0.108981 0.527257
O O1 0.177548 0.736908 0.798086
O O2 0.306912 0.433156 0.783021
O O3 0.872434 0.923707 0.562148
O O4 0.289985 0.996249 0.670228
O O5 0.733492 0.346681 0.896049
O O6 0.480869 0.441196 0.681261
O O7 0.952259 0.426903 0.843084
O O8 0.609402 0.894589 0.684582
O O9 0.678386 0.412754 0.999057
O O10 0.638739 0.880405 0.004073
O O11 0.688183 0.588548 0.496208
O O12 0.000000 0.500000 0.500000
O O13 0.500000 0.000000 0.500000
#
# Coordination Sequence:
#
# PCOD9071110 Si02
#       6
#     2   2   2   2   2   2
#     4  12  25  50  77 114 158 200 268 327 398 473
#     4  12  26  49  77 111 155 204 263 329 396 473
#     4  12  29  49  78 114 157 210 264 325 388 477
#     4  12  27  49  78 113 155 213 267 319 391 470
#     4  12  26  47  80 116 158 207 256 327 406 477
#     4  12  26  49  77 117 155 201 264 334 406 462
#
# _framework density 25.777964999999998
#
# number of rings (size 3 to 8) (size 9 to 14) (size 15 to 20)
#    0.000    0.000    5.000    4.500    2.333    3.333 
#    0.000    0.000    0.000    0.000    0.000    0.000 
#    0.000    0.000    0.000    0.000    0.000    0.000 
#
# Total GULP energy -66917.669167 kJ/mol
# GULP energy per Si atom -5576.472431 kJ/mol
# Density = 2.571929 g / cm^3
# Si number density = 25.777965 Si / 1000 Ang^3
#
#
#
# Elastic Constant Matrix: (Units=GPa)
#
#
# Indices 1 2 3 4 5 6 
#
# 1 159.7264 27.4903 37.4310 11.7571 12.0879 -29.5085
# 2 27.4903 102.4148 44.5544 4.8372 8.9239 -26.0164
# 3 37.4310 44.5544 94.8233 -9.5316 17.1426 -3.6767
# 4 11.7571 4.8372 -9.5316 47.0767 -4.9215 -2.0241
# 5 12.0879 8.9239 17.1426 -4.9215 71.5804 5.1633
# 6 -29.5085 -26.0164 -3.6767 -2.0241 5.1633 27.2310
#
#
#
# Elastic Compliance Matrix: (Units=1/GPa)
#
#
# Indices 1 2 3 4 5 6 
#
# 1 0.009605 0.003061 -0.004699 -0.003325 -0.002033 0.012837
# 2 0.003061 0.018232 -0.008979 -0.003853 -0.002324 0.019678
# 3 -0.004699 -0.008979 0.016879 0.004942 -0.001008 -0.010833
# 4 -0.003325 -0.003853 0.004942 0.023437 0.001847 -0.005225
# 5 -0.002033 -0.002324 -0.001008 0.001847 0.015503 -0.007362
# 6 0.012837 0.019678 -0.010833 -0.005225 -0.007362 0.068979
#
#
# Mechanical properties :
#
#
# Convention : Reuss Voigt Hill
#
# Bulk Modulus (GPa) = 42.58540 63.99066 53.28803
# Shear Modulus (GPa) = 27.51839 45.67686 36.59763
#
# Velocity S-wave (km/s) = 3.27083 4.21400 3.77201
# Velocity P-wave (km/s) = 5.55161 6.96812 6.29981
#
# Compressibility (1/GPa) = 0.02348223
#
# Stress axis : x y z
#
# Youngs Moduli (GPa) = 104.11001 54.84820 59.24558
#
# Poissons Ratio (x) = -0.16790 0.27839
# Poissons Ratio (y) = -0.31870 0.53198
# Poissons Ratio (z) = 0.48921 0.49250
#
# Static dielectric constant tensor:
#      x y z
#    x 2.126750 -0.086870 -0.060930 
#    y -0.086870 2.319610 -0.092450 
#    z -0.060930 -0.092450 2.040220 
# 
# From -- ./inp_files/23317.got.cif
#   From: 2010.05.17/outbox.cif.g08.bks.cpg/sg2_12_cif.got.tgz:23317.got - 2010.06.03 11:33:40.
