data_PCOD9071851
_publ_section_title
;
Structure prediction by ZEFSAII (Michael W. Deem and Ramdas Pophale) SiO2 
 PCOD9071851
Probable space group: P -1
;
_chemical_formula_sum "Si O2"
_cell_formula_units_Z 14
_cell_length_a 21.604495
_cell_length_b 12.005699
_cell_length_c 18.718209
_cell_angle_alpha 36.244873
_cell_angle_beta 19.975483
_cell_angle_gamma 24.930173
_cell_volume 662.858861
_symmetry_space_group_name_H-M "P -1"
_symmetry_group_IT_number 2
_symmetry_cell_setting 'triclinic'
loop_
_space_group_symop_operation_xyz
x,y,z
-x,-y,-z
loop_
_atom_site_type_symbol
_atom_site_label
_atom_site_fract_x
_atom_site_fract_y
_atom_site_fract_z
Si Si1 0.212943 0.155999 0.651837
Si Si2 0.229245 0.812379 0.147718
Si Si3 0.462464 0.344873 0.327135
Si Si4 0.249794 0.487552 0.914310
Si Si5 0.806883 0.208555 0.501737
Si Si6 0.089196 0.306101 0.068594
Si Si7 0.992441 0.954907 0.182397
O O1 0.338487 0.267487 0.457005
O O2 0.148114 0.112036 0.669332
O O3 0.399989 0.870106 0.642999
O O4 0.943193 0.373496 0.879538
O O5 0.020836 0.926492 0.251198
O O6 0.500000 0.500000 0.000000
O O7 0.079009 0.895603 0.343277
O O8 0.289250 0.990098 0.989452
O O9 0.254107 0.654291 0.426164
O O10 0.705547 0.256022 0.067470
O O11 0.551766 0.283397 0.717634
O O12 0.198674 0.346630 0.993266
O O13 0.158928 0.740091 0.836783
O O14 0.841001 0.369676 0.332123
O O15 0.000000 0.500000 0.000000
#
# Coordination Sequence:
#
# PCOD9071851 Si02
#       7
#     2   2   2   2   2   2   2
#     4  10  18  29  55  89 127 140 181 239 304 333
#     4  10  24  43  57  79 123 160 190 239 288 339
#     4  10  18  32  55  88 116 152 179 238 294 346
#     4  11  17  34  58  93 113 146 187 247 288 342
#     4  10  20  36  59  81 120 148 192 233 297 332
#     4  10  21  35  59  83 114 151 195 234 282 341
#     4  11  20  33  57  86 122 144 193 236 291 338
#
# _framework density 21.120635
#
# number of rings (size 3 to 8) (size 9 to 14) (size 15 to 20)
#    0.857    0.857    5.714    0.857    0.000    2.286 
#    2.571    1.429    0.000    1.714    0.000    0.000 
#    0.000    0.000    0.000    0.000    0.000    0.000 
#
# Total GULP energy -78121.894724 kJ/mol
# GULP energy per Si atom -5580.135337 kJ/mol
# Density = 2.107256 g / cm^3
# Si number density = 21.120635 Si / 1000 Ang^3
#
#
#
# Elastic Constant Matrix: (Units=GPa)
#
#
# Indices 1 2 3 4 5 6 
#
# 1 131.9036 37.8247 15.2146 -8.2158 -16.6040 37.3307
# 2 37.8247 89.1923 21.1045 25.9799 1.1886 36.8842
# 3 15.2146 21.1045 59.9790 11.7593 -12.5462 15.3088
# 4 -8.2158 25.9799 11.7593 21.9680 11.7092 2.9698
# 5 -16.6040 1.1886 -12.5462 11.7092 35.0689 -10.3387
# 6 37.3307 36.8842 15.3088 2.9698 -10.3387 33.2733
#
#
#
# Elastic Compliance Matrix: (Units=1/GPa)
#
#
# Indices 1 2 3 4 5 6 
#
# 1 0.012579 -0.005039 -0.002306 0.014403 -0.002298 -0.009465
# 2 -0.005039 0.044865 0.008442 -0.057197 0.006138 -0.040951
# 3 -0.002306 0.008442 0.026653 -0.031782 0.015405 -0.011410
# 4 0.014403 -0.057197 -0.031782 0.154366 -0.044007 0.034415
# 5 -0.002298 0.006138 0.015405 -0.044007 0.049809 0.008091
# 6 -0.009465 -0.040951 -0.011410 0.034415 0.008091 0.090761
#
#
# Mechanical properties :
#
#
# Convention : Reuss Voigt Hill
#
# Bulk Modulus (GPa) = 11.58894 47.70694 29.64794
# Shear Modulus (GPa) = 12.32734 31.85744 22.09239
#
# Velocity S-wave (km/s) = 2.41853 3.88797 3.23772
# Velocity P-wave (km/s) = 3.64664 6.54156 5.29575
#
# Compressibility (1/GPa) = 0.08628917
#
# Stress axis : x y z
#
# Youngs Moduli (GPa) = 79.49720 22.28932 37.51977
#
# Poissons Ratio (x) = 0.11232 0.08653
# Poissons Ratio (y) = 0.40060 -0.31674
# Poissons Ratio (z) = 0.18335 -0.18817
#
# Static dielectric constant tensor:
#      x y z
#    x 1.758140 -0.001360 0.015500 
#    y -0.001360 1.782960 0.028600 
#    z 0.015500 0.028600 1.746670 
# 
# From -- ./inp_files/476547.got.cif
#   From: 2010.05.17/outbox.cif.g08.bks.cpg/sg2_239_cif.got.tgz:476547.got - 2010.06.03 11:33:40.
