data_PCOD9071524
_publ_section_title
;
Structure prediction by ZEFSAII (Michael W. Deem and Ramdas Pophale) SiO2 
 PCOD9071524
Probable space group: P -1
;
_chemical_formula_sum "Si O2"
_cell_formula_units_Z 14
_cell_length_a 6.422952
_cell_length_b 9.185483
_cell_length_c 13.008634
_cell_angle_alpha 59.718405
_cell_angle_beta 63.787188
_cell_angle_gamma 88.549768
_cell_volume 574.977207
_symmetry_space_group_name_H-M "P -1"
_symmetry_group_IT_number 2
_symmetry_cell_setting 'triclinic'
loop_
_space_group_symop_operation_xyz
x,y,z
-x,-y,-z
loop_
_atom_site_type_symbol
_atom_site_label
_atom_site_fract_x
_atom_site_fract_y
_atom_site_fract_z
Si Si1 0.605900 0.549895 0.075373
Si Si2 0.029277 0.845883 0.971949
Si Si3 0.146670 0.641004 0.211126
Si Si4 0.656857 0.374282 0.471222
Si Si5 0.810564 0.110420 0.692841
Si Si6 0.671252 0.869676 0.520597
Si Si7 0.541689 0.172604 0.212430
O O1 0.808326 0.720134 0.004551
O O2 0.378850 0.566816 0.185338
O O3 0.680734 0.370273 0.139577
O O4 0.500000 0.500000 0.000000
O O5 0.121012 0.719675 0.076622
O O6 0.237928 0.916670 0.817079
O O7 0.000000 0.000000 0.000000
O O8 0.162982 0.788835 0.241024
O O9 0.916973 0.487400 0.342656
O O10 0.500000 0.500000 0.500000
O O11 0.697293 0.227916 0.595354
O O12 0.502246 0.295003 0.435431
O O13 0.068566 0.099841 0.597029
O O14 0.623707 0.920948 0.812849
O O15 0.671787 0.858647 0.646552
O O16 0.500000 0.000000 0.500000
#
# Coordination Sequence:
#
# PCOD9071524 Si02
#       7
#     2   2   2   2   2   2   2
#     4  12  28  49  75 111 149 199 252 310 377 441
#     4  12  30  51  77 111 152 203 252 306 383 453
#     4  12  28  48  78 106 156 196 252 311 380 455
#     4  12  27  48  76 111 151 200 252 313 383 456
#     4  12  28  49  74 117 151 202 251 315 382 461
#     4  12  27  46  74 110 151 198 250 311 386 441
#     4  12  27  48  78 107 156 188 257 315 374 452
#
# _framework density 24.348793000000001
#
# number of rings (size 3 to 8) (size 9 to 14) (size 15 to 20)
#    0.000    0.000    4.286    3.857   14.000    1.143 
#    0.000    0.000    0.000    0.000    0.000    0.000 
#    0.000    0.000    0.000    0.000    0.000    0.000 
#
# Total GULP energy -78111.546508 kJ/mol
# GULP energy per Si atom -5579.396179 kJ/mol
# Density = 2.429337 g / cm^3
# Si number density = 24.348793 Si / 1000 Ang^3
#
#
#
# Elastic Constant Matrix: (Units=GPa)
#
#
# Indices 1 2 3 4 5 6 
#
# 1 123.9653 68.9596 58.5536 2.4684 -27.6147 13.6041
# 2 68.9596 204.7823 53.3779 18.5166 -41.5614 21.1483
# 3 58.5536 53.3779 89.0937 18.0117 -34.3388 5.1694
# 4 2.4684 18.5166 18.0117 45.3314 -7.9852 -14.4753
# 5 -27.6147 -41.5614 -34.3388 -7.9852 66.5402 -6.9650
# 6 13.6041 21.1483 5.1694 -14.4753 -6.9650 63.8162
#
#
#
# Elastic Compliance Matrix: (Units=1/GPa)
#
#
# Indices 1 2 3 4 5 6 
#
# 1 0.013182 -0.002645 -0.007620 0.003252 0.000218 -0.000555
# 2 -0.002645 0.006898 -0.000903 -0.002556 0.002230 -0.001985
# 3 -0.007620 -0.000903 0.020411 -0.006446 0.005977 -0.000540
# 4 0.003252 -0.002556 -0.006446 0.027825 0.000503 0.007042
# 5 0.000218 0.002230 0.005977 0.000503 0.019762 0.001001
# 6 -0.000555 -0.001985 -0.000540 0.007042 0.001001 0.018197
#
#
# Mechanical properties :
#
#
# Convention : Reuss Voigt Hill
#
# Bulk Modulus (GPa) = 55.07865 86.62482 70.85174
# Shear Modulus (GPa) = 37.12995 50.93424 44.03210
#
# Velocity S-wave (km/s) = 3.90926 4.57865 4.25713
# Velocity P-wave (km/s) = 6.56096 7.97533 7.30247
#
# Compressibility (1/GPa) = 0.01815585
#
# Stress axis : x y z
#
# Youngs Moduli (GPa) = 75.86029 144.96647 48.99361
#
# Poissons Ratio (x) = 0.38348 0.37331
# Poissons Ratio (y) = 0.20067 0.04423
# Poissons Ratio (z) = 0.57803 0.13086
#
# Static dielectric constant tensor:
#      x y z
#    x 2.023830 -0.045370 0.181180 
#    y -0.045370 1.828740 -0.096730 
#    z 0.181180 -0.096730 2.107500 
# 
# From -- ./inp_files/47831.got.cif
#   From: 2010.05.17/outbox.cif.g08.bks.cpg/sg2_24_cif.got.tgz:47831.got - 2010.06.03 11:33:40.
