data_PCOD9071991
_publ_section_title
;
Structure prediction by ZEFSAII (Michael W. Deem and Ramdas Pophale) SiO2 
 PCOD9071991
Probable space group: P -1
;
_chemical_formula_sum "Si O2"
_cell_formula_units_Z 16
_cell_length_a 9.118221
_cell_length_b 20.044476
_cell_length_c 12.383142
_cell_angle_alpha 99.732758
_cell_angle_beta 113.407530
_cell_angle_gamma 138.016704
_cell_volume 908.695591
_symmetry_space_group_name_H-M "P -1"
_symmetry_group_IT_number 2
_symmetry_cell_setting 'triclinic'
loop_
_space_group_symop_operation_xyz
x,y,z
-x,-y,-z
loop_
_atom_site_type_symbol
_atom_site_label
_atom_site_fract_x
_atom_site_fract_y
_atom_site_fract_z
Si Si1 0.489399 0.797301 0.810148
Si Si2 0.673014 0.531155 0.454174
Si Si3 0.591068 0.068899 0.809505
Si Si4 0.998160 0.251321 0.562491
Si Si5 0.175949 0.217063 0.163455
Si Si6 0.892654 0.152084 0.713312
Si Si7 0.190305 0.009614 0.832967
Si Si8 0.708380 0.941539 0.687739
O O1 0.607306 0.763923 0.820221
O O2 0.686282 0.911887 0.799878
O O3 0.068006 0.651373 0.630201
O O4 0.603319 0.872073 0.978430
O O5 0.500000 0.500000 0.500000
O O6 0.430429 0.377570 0.299990
O O7 0.726512 0.607769 0.397550
O O8 0.834737 0.178247 0.806203
O O9 0.452001 0.078971 0.839480
O O10 0.247311 0.895205 0.617783
O O11 0.834431 0.113264 0.967295
O O12 0.137259 0.269189 0.718080
O O13 0.703946 0.196641 0.497318
O O14 0.017466 0.130108 0.206531
O O15 0.500000 0.000000 0.500000
O O16 0.937516 0.094795 0.763294
O O17 0.889859 0.947105 0.684405
#
# Coordination Sequence:
#
# PCOD9071991 Si02
#       8
#     2   2   2   2   2   2   2   2
#     4  10  19  32  48  70 100 130 157 189 236 290
#     4  11  21  33  49  73  99 125 156 196 238 279
#     4  10  18  30  50  74  95 122 160 201 236 272
#     4   9  18  35  51  67  95 130 159 191 234 287
#     4  11  20  31  48  72 100 131 158 188 235 290
#     4   8  15  31  50  67  91 126 161 193 232 282
#     4  11  18  28  49  77 100 121 155 202 237 272
#     4   8  15  28  48  70  93 123 157 190 231 278
#
# _framework density 17.607655999999999
#
# number of rings (size 3 to 8) (size 9 to 14) (size 15 to 20)
#    0.000    2.500    0.000    7.500    0.000    0.000 
#    0.000    6.250    0.000    0.000    0.000    3.500 
#    0.000    0.000    0.000    0.000    0.000    0.000 
#
# Total GULP energy -89086.704346 kJ/mol
# GULP energy per Si atom -5567.919022 kJ/mol
# Density = 1.756758 g / cm^3
# Si number density = 17.607656 Si / 1000 Ang^3
#
#
#
# Elastic Constant Matrix: (Units=GPa)
#
#
# Indices 1 2 3 4 5 6 
#
# 1 124.5979 58.6273 34.1817 -13.6058 -3.4872 12.1868
# 2 58.6273 126.0852 26.4688 -12.1205 -17.1195 3.8620
# 3 34.1817 26.4688 31.6770 -0.2529 -9.3754 -1.1429
# 4 -13.6058 -12.1205 -0.2529 22.2361 -7.0102 -0.9208
# 5 -3.4872 -17.1195 -9.3754 -7.0102 19.8182 6.2525
# 6 12.1868 3.8620 -1.1429 -0.9208 6.2525 20.6170
#
#
#
# Elastic Compliance Matrix: (Units=1/GPa)
#
#
# Indices 1 2 3 4 5 6 
#
# 1 0.014897 -0.003479 -0.014136 0.005952 -0.002466 -0.007924
# 2 -0.003479 0.013108 -0.003195 0.009154 0.013812 -0.004356
# 3 -0.014136 -0.003195 0.054767 -0.004095 0.017126 0.006613
# 4 0.005952 0.009154 -0.004095 0.063605 0.033553 -0.012795
# 5 -0.002466 0.013812 0.017126 0.033553 0.090134 -0.026017
# 6 -0.007924 -0.004356 0.006613 -0.012795 -0.026017 0.061688
#
#
# Mechanical properties :
#
#
# Convention : Reuss Voigt Hill
#
# Bulk Modulus (GPa) = 24.30028 57.87952 41.08990
# Shear Modulus (GPa) = 14.14280 23.40641 18.77461
#
# Velocity S-wave (km/s) = 2.83719 3.64996 3.26893
# Velocity P-wave (km/s) = 4.95618 7.12082 6.13473
#
# Compressibility (1/GPa) = 0.04115179
#
# Stress axis : x y z
#
# Youngs Moduli (GPa) = 67.12847 76.28730 18.25929
#
# Poissons Ratio (x) = 0.26542 0.25811
# Poissons Ratio (y) = 0.23355 0.05834
# Poissons Ratio (z) = 0.94891 0.24374
#
# Static dielectric constant tensor:
#      x y z
#    x 1.619850 -0.004820 0.006660 
#    y -0.004820 1.649830 -0.017760 
#    z 0.006660 -0.017760 1.633520 
# 
# From -- ./inp_files/220515.got.cif
#   From: 2010.05.17/outbox.cif.g08.bks.cpg/sg2_111_cif.got.tgz:220515.got - 2010.06.03 11:33:40.
