data_PCOD9071804
_publ_section_title
;
Structure prediction by ZEFSAII (Michael W. Deem and Ramdas Pophale) SiO2 
 PCOD9071804
Probable space group: P -1
;
_chemical_formula_sum "Si O2"
_cell_formula_units_Z 16
_cell_length_a 15.852703
_cell_length_b 16.570632
_cell_length_c 12.198665
_cell_angle_alpha 130.294988
_cell_angle_beta 152.970389
_cell_angle_gamma 40.200873
_cell_volume 933.776905
_symmetry_space_group_name_H-M "P -1"
_symmetry_group_IT_number 2
_symmetry_cell_setting 'triclinic'
loop_
_space_group_symop_operation_xyz
x,y,z
-x,-y,-z
loop_
_atom_site_type_symbol
_atom_site_label
_atom_site_fract_x
_atom_site_fract_y
_atom_site_fract_z
Si Si1 0.654394 0.197312 0.505090
Si Si2 0.306162 0.128164 0.446387
Si Si3 0.682238 0.086698 0.218070
Si Si4 0.911517 0.921349 0.654262
Si Si5 0.052683 0.218342 0.020903
Si Si6 0.176693 0.170100 0.741396
Si Si7 0.696515 0.077271 0.979555
Si Si8 0.871780 0.648746 0.972507
O O1 0.718824 0.161447 0.420367
O O2 0.392261 0.290237 0.289407
O O3 0.726042 0.064085 0.527300
O O4 0.810352 0.240805 0.771161
O O5 0.154506 0.103227 0.326796
O O6 0.156992 0.222344 0.260636
O O7 0.448705 0.157442 0.718234
O O8 0.500000 0.000000 0.500000
O O9 0.819639 0.939788 0.280737
O O10 0.429340 0.126080 0.970990
O O11 0.718342 0.112121 0.158788
O O12 0.920638 0.829246 0.489191
O O13 0.140816 0.912840 0.905598
O O14 0.057611 0.306612 0.013119
O O15 0.212441 0.071460 0.039583
O O16 0.084405 0.291190 0.817365
O O17 0.000000 0.500000 0.000000
#
# Coordination Sequence:
#
# PCOD9071804 Si02
#       8
#     2   2   2   2   2   2   2   2
#     4   9  20  32  51  80 105 132 167 210 257 311
#     4  10  20  32  48  75 115 142 165 196 249 319
#     4   9  15  28  51  78 108 132 157 210 262 309
#     4  10  19  30  53  83 105 137 164 204 258 314
#     4  10  21  33  51  72 108 141 166 204 254 303
#     4   9  17  30  52  74 107 130 169 211 259 306
#     4  10  18  29  51  82 110 135 166 199 257 315
#     4  11  22  36  53  74 101 137 176 217 258 294
#
# _framework density 17.134713000000001
#
# number of rings (size 3 to 8) (size 9 to 14) (size 15 to 20)
#    0.000    2.250    2.500    2.250    1.750    7.500 
#    0.000    0.000    0.000    0.750    0.000    1.750 
#    0.000    0.000    0.000    0.000    0.000    0.000 
#
# Total GULP energy -89205.622248 kJ/mol
# GULP energy per Si atom -5575.351390 kJ/mol
# Density = 1.709571 g / cm^3
# Si number density = 17.134713 Si / 1000 Ang^3
#
#
#
# Elastic Constant Matrix: (Units=GPa)
#
#
# Indices 1 2 3 4 5 6 
#
# 1 107.0804 29.2069 16.1653 1.9199 0.9826 13.5872
# 2 29.2069 68.7345 24.2111 2.0539 1.4861 4.7475
# 3 16.1653 24.2111 65.3103 -0.9918 5.5179 9.3256
# 4 1.9199 2.0539 -0.9918 9.6133 -3.2657 0.4987
# 5 0.9826 1.4861 5.5179 -3.2657 22.6570 0.1814
# 6 13.5872 4.7475 9.3256 0.4987 0.1814 12.7220
#
#
#
# Elastic Compliance Matrix: (Units=1/GPa)
#
#
# Indices 1 2 3 4 5 6 
#
# 1 0.011937 -0.004358 0.000288 -0.000956 -0.000349 -0.011291
# 2 -0.004358 0.018531 -0.006188 -0.003887 -0.000099 0.002429
# 3 0.000288 -0.006188 0.019687 0.002610 -0.003925 -0.012476
# 4 -0.000956 -0.003887 0.002610 0.110845 0.015670 -0.004010
# 5 -0.000349 -0.000099 -0.003925 0.015670 0.047357 0.001998
# 6 -0.011291 0.002429 -0.012476 -0.004010 0.001998 0.099031
#
#
# Mechanical properties :
#
#
# Convention : Reuss Voigt Hill
#
# Bulk Modulus (GPa) = 33.73964 42.25466 37.99715
# Shear Modulus (GPa) = 14.80242 20.43458 17.61850
#
# Velocity S-wave (km/s) = 2.94238 3.45713 3.21009
# Velocity P-wave (km/s) = 5.59259 6.37569 5.99694
#
# Compressibility (1/GPa) = 0.02963873
#
# Stress axis : x y z
#
# Youngs Moduli (GPa) = 83.77323 53.96427 50.79492
#
# Poissons Ratio (x) = 0.23516 -0.01464
# Poissons Ratio (y) = 0.36507 0.31434
# Poissons Ratio (z) = -0.02414 0.33395
#
# Static dielectric constant tensor:
#      x y z
#    x 1.602670 -0.012550 -0.008460 
#    y -0.012550 1.536850 0.012230 
#    z -0.008460 0.012230 1.645730 
# 
# From -- ./inp_files/426309.got.cif
#   From: 2010.05.17/outbox.cif.g08.bks.cpg/sg2_214_cif.got.tgz:426309.got - 2010.06.03 11:33:40.
