data_PCOD9071915
_publ_section_title
;
Structure prediction by ZEFSAII (Michael W. Deem and Ramdas Pophale) SiO2 
 PCOD9071915
Probable space group: P -1
;
_chemical_formula_sum "Si O2"
_cell_formula_units_Z 16
_cell_length_a 9.000000
_cell_length_b 12.000000
_cell_length_c 12.000000
_cell_angle_alpha 130.000000
_cell_angle_beta 80.000000
_cell_angle_gamma 120.000000
_cell_volume 838.191741
_symmetry_space_group_name_H-M "P -1"
_symmetry_group_IT_number 2
_symmetry_cell_setting 'triclinic'
loop_
_space_group_symop_operation_xyz
x,y,z
-x,-y,-z
loop_
_atom_site_type_symbol
_atom_site_label
_atom_site_fract_x
_atom_site_fract_y
_atom_site_fract_z
Si Si1 0.324475 0.765855 0.964976
Si Si2 0.366345 0.061942 0.595679
Si Si3 0.828017 0.262072 0.454198
Si Si4 0.280277 0.316602 0.182273
Si Si5 0.049856 0.633908 0.732430
Si Si6 0.489463 0.300836 0.536011
Si Si7 0.479976 0.331439 0.952071
Si Si8 0.385645 0.133303 0.203202
O O1 0.141220 0.667532 0.861284
O O2 0.460006 0.802302 0.868432
O O3 0.365636 0.668877 0.993752
O O4 0.345020 0.944540 0.115864
O O5 0.355026 0.165696 0.557892
O O6 0.440970 0.197340 0.773344
O O7 0.500000 0.000000 0.500000
O O8 0.202496 0.894032 0.565163
O O9 0.836718 0.244342 0.307730
O O10 0.663404 0.286639 0.513567
O O11 0.995793 0.443306 0.581035
O O12 0.445740 0.502674 0.319230
O O13 0.249643 0.167323 0.174773
O O14 0.115833 0.342310 0.219871
O O15 0.327130 0.277755 0.029606
O O16 0.427709 0.241865 0.380159
O O17 0.500000 0.500000 0.000000
#
# Coordination Sequence:
#
# PCOD9071915 Si02
#       8
#     2   2   2   2   2   2   2   2
#     4  10  21  36  61  85 118 157 196 248 293 353
#     4  10  20  35  63  87 116 159 203 244 288 352
#     4   9  19  34  58  85 120 158 200 241 290 363
#     4  10  22  35  60  90 122 152 193 251 302 347
#     4  10  20  38  57  87 121 160 195 239 306 355
#     4  10  17  35  59  87 115 154 204 248 289 348
#     4  11  22  41  62  92 119 151 201 252 298 342
#     4  10  20  35  58  93 115 149 207 252 287 339
#
# _framework density 19.088711
#
# number of rings (size 3 to 8) (size 9 to 14) (size 15 to 20)
#    0.000    2.000    2.500    1.875    3.500    0.500 
#    0.000    0.625    0.000    1.500    0.000    0.000 
#    0.000    0.000    0.000    0.000    0.000    0.000 
#
# Total GULP energy -89122.443732 kJ/mol
# GULP energy per Si atom -5570.152733 kJ/mol
# Density = 1.904526 g / cm^3
# Si number density = 19.088711 Si / 1000 Ang^3
#
#
#
# Elastic Constant Matrix: (Units=GPa)
#
#
# Indices 1 2 3 4 5 6 
#
# 1 59.7798 25.4670 20.6220 6.4139 -2.0781 -26.5683
# 2 25.4670 107.6515 23.3102 -4.8764 1.5112 -23.4597
# 3 20.6220 23.3102 113.6499 -11.9484 -12.3573 -8.6407
# 4 6.4139 -4.8764 -11.9484 26.8636 -3.9555 -2.9659
# 5 -2.0781 1.5112 -12.3573 -3.9555 23.5911 -2.5376
# 6 -26.5683 -23.4597 -8.6407 -2.9659 -2.5376 28.1853
#
#
#
# Elastic Compliance Matrix: (Units=1/GPa)
#
#
# Indices 1 2 3 4 5 6 
#
# 1 0.031189 -0.000978 -0.003714 -0.005875 0.002793 0.027080
# 2 -0.000978 0.011853 -0.001305 0.002762 -0.000117 0.008824
# 3 -0.003714 -0.001305 0.011182 0.006632 0.006741 0.000146
# 4 -0.005875 0.002762 0.006632 0.044133 0.010652 0.004397
# 5 0.002793 -0.000117 0.006741 0.010652 0.049050 0.010139
# 6 0.027080 0.008824 0.000146 0.004397 0.010139 0.069770
#
#
# Mechanical properties :
#
#
# Convention : Reuss Voigt Hill
#
# Bulk Modulus (GPa) = 23.68026 46.65329 35.16677
# Shear Modulus (GPa) = 20.55529 29.84016 25.19772
#
# Velocity S-wave (km/s) = 3.28507 3.95807 3.63717
# Velocity P-wave (km/s) = 5.17892 6.73659 6.00845
#
# Compressibility (1/GPa) = 0.04222926
#
# Stress axis : x y z
#
# Youngs Moduli (GPa) = 32.06305 84.36819 89.43090
#
# Poissons Ratio (x) = 0.08252 0.33212
# Poissons Ratio (y) = 0.03136 0.11672
# Poissons Ratio (z) = 0.11907 0.11011
#
# Static dielectric constant tensor:
#      x y z
#    x 1.686140 0.014330 0.026350 
#    y 0.014330 1.701310 0.019430 
#    z 0.026350 0.019430 1.674600 
# 
# From -- ./inp_files/189458.got.cif
#   From: 2010.05.17/outbox.ucp.g08.bks.cvg/sg2_95_cif.got.tgz:189458.got - 2010.06.11 11:32:03.
