data_PCOD9071428
_publ_section_title
;
Structure prediction by ZEFSAII (Michael W. Deem and Ramdas Pophale) SiO2 
 PCOD9071428
Probable space group: P -1
;
_chemical_formula_sum "Si O2"
_cell_formula_units_Z 11
_cell_length_a 8.622940
_cell_length_b 14.381689
_cell_length_c 18.716659
_cell_angle_alpha 157.076551
_cell_angle_beta 149.267217
_cell_angle_gamma 32.810153
_cell_volume 447.915025
_symmetry_space_group_name_H-M "P -1"
_symmetry_group_IT_number 2
_symmetry_cell_setting 'triclinic'
loop_
_space_group_symop_operation_xyz
x,y,z
-x,-y,-z
loop_
_atom_site_type_symbol
_atom_site_label
_atom_site_fract_x
_atom_site_fract_y
_atom_site_fract_z
Si Si1 0.487221 0.935356 0.668442
Si Si2 0.700203 0.554092 0.968857
Si Si3 0.853448 0.317394 0.265532
Si Si4 0.249211 0.517556 0.349326
Si Si5 0.500000 0.000000 0.000000
Si Si6 0.556474 0.816237 0.325034
O O1 0.493008 0.016599 0.646478
O O2 0.314272 0.721250 0.463550
O O3 0.332811 0.178202 0.822778
O O4 0.845847 0.844379 0.770283
O O5 0.405195 0.551695 0.800379
O O6 0.691216 0.352270 0.882943
O O7 0.000000 0.500000 0.000000
O O8 0.690003 0.161865 0.142765
O O9 0.000000 0.500000 0.500000
O O10 0.500000 0.500000 0.500000
O O11 0.322736 0.253057 0.154461
O O12 0.901125 0.633017 0.323750
O O13 0.500000 0.000000 0.500000
#
# Coordination Sequence:
#
# PCOD9071428 Si02
#       6
#     2   2   2   2   1   2
#     4  12  26  49  80 116 164 211 275 342 418 494
#     4  12  28  49  78 119 164 217 275 339 418 496
#     4  12  26  49  80 115 161 212 274 331 410 491
#     4  12  27  51  82 121 162 217 282 341 421 501
#     4  12  28  46  86 112 164 210 280 330 418 482
#     4  12  28  48  78 117 167 213 274 345 417 491
#
# _framework density 24.558229000000001
#
# number of rings (size 3 to 8) (size 9 to 14) (size 15 to 20)
#    0.000    0.000    1.818    7.091    7.636    0.000 
#    0.000    0.000    0.000    0.000    0.000    0.000 
#    0.000    0.000    0.000    0.000    0.000    0.000 
#
# Total GULP energy -61489.388045 kJ/mol
# GULP energy per Si atom -5589.944368 kJ/mol
# Density = 2.450233 g / cm^3
# Si number density = 24.558229 Si / 1000 Ang^3
#
#
#
# Elastic Constant Matrix: (Units=GPa)
#
#
# Indices 1 2 3 4 5 6 
#
# 1 177.0612 71.7955 79.1193 20.0542 14.5235 -26.7950
# 2 71.7955 111.8710 53.9404 1.8432 -20.0932 -9.5717
# 3 79.1193 53.9404 160.2100 50.5766 -2.4085 12.8810
# 4 20.0542 1.8432 50.5766 46.6051 -3.7168 -4.8569
# 5 14.5235 -20.0932 -2.4085 -3.7168 68.1097 16.2053
# 6 -26.7950 -9.5717 12.8810 -4.8569 16.2053 51.3629
#
#
#
# Elastic Compliance Matrix: (Units=1/GPa)
#
#
# Indices 1 2 3 4 5 6 
#
# 1 0.011889 -0.005606 -0.005082 0.001004 -0.006343 0.008528
# 2 -0.005606 0.015860 -0.004870 0.007561 0.006105 0.000041
# 3 -0.005082 -0.004870 0.016310 -0.016200 0.001648 -0.009700
# 4 0.001004 0.007561 -0.016200 0.039384 0.001384 0.009283
# 5 -0.006343 0.006105 0.001648 0.001384 0.020059 -0.008782
# 6 0.008528 0.000041 -0.009700 0.009283 -0.008782 0.030007
#
#
# Mechanical properties :
#
#
# Convention : Reuss Voigt Hill
#
# Bulk Modulus (GPa) = 77.25624 95.42805 86.34215
# Shear Modulus (GPa) = 29.59656 49.50134 39.54895
#
# Velocity S-wave (km/s) = 3.47531 4.49449 4.01735
# Velocity P-wave (km/s) = 6.90147 8.11642 7.53348
#
# Compressibility (1/GPa) = 0.01294394
#
# Stress axis : x y z
#
# Youngs Moduli (GPa) = 84.11366 63.05156 61.31259
#
# Poissons Ratio (x) = 0.35345 0.31157
# Poissons Ratio (y) = 0.47152 0.29859
# Poissons Ratio (z) = 0.42743 0.30706
#
# Static dielectric constant tensor:
#      x y z
#    x 1.957900 0.039550 -0.001190 
#    y 0.039550 2.012760 -0.001710 
#    z -0.001190 -0.001710 1.924300 
# 
# From -- ./inp_files/204906.got.cif
#   From: 2010.05.17/outbox.cif.g08.bks.cpg/sg2_103_cif.got.tgz:204906.got - 2010.06.03 11:33:40.
