data_PCOD9071239
_publ_section_title
;
Structure prediction by ZEFSAII (Michael W. Deem and Ramdas Pophale) SiO2 
 PCOD9071239
Probable space group: P -1
;
_chemical_formula_sum "Si O2"
_cell_formula_units_Z 12
_cell_length_a 18.362087
_cell_length_b 12.756576
_cell_length_c 8.970066
_cell_angle_alpha 45.160274
_cell_angle_beta 132.296080
_cell_angle_gamma 158.298195
_cell_volume 549.645040
_symmetry_space_group_name_H-M "P -1"
_symmetry_group_IT_number 2
_symmetry_cell_setting 'triclinic'
loop_
_space_group_symop_operation_xyz
x,y,z
-x,-y,-z
loop_
_atom_site_type_symbol
_atom_site_label
_atom_site_fract_x
_atom_site_fract_y
_atom_site_fract_z
Si Si1 0.955540 0.857692 0.733699
Si Si2 0.687119 0.172547 0.665635
Si Si3 0.915489 0.291773 0.452619
Si Si4 0.350139 0.336384 0.321251
Si Si5 0.362060 0.225242 0.984012
Si Si6 0.288097 0.755538 0.020741
O O1 0.828518 0.792635 0.737383
O O2 0.826599 0.546747 0.834731
O O3 0.000000 0.000000 0.500000
O O4 0.164216 0.063117 0.863464
O O5 0.689477 0.172770 0.847684
O O6 0.883016 0.509515 0.540232
O O7 0.500000 0.000000 0.500000
O O8 0.690540 0.004258 0.797809
O O9 0.000000 0.500000 0.500000
O O10 0.756088 0.952390 0.596928
O O11 0.822673 0.274507 0.211753
O O12 0.500000 0.500000 0.500000
O O13 0.500174 0.608350 0.139772
O O14 0.500000 0.500000 0.000000
O O15 0.500000 0.000000 0.000000
#
# Coordination Sequence:
#
# PCOD9071239 Si02
#       6
#     2   2   2   2   2   2
#     4  12  26  46  77 107 144 195 240 302 373 437
#     4  12  27  48  75 105 146 197 246 305 368 436
#     4  12  26  48  75 110 147 191 247 306 368 442
#     4  12  26  47  77 108 148 194 246 302 372 444
#     4  12  28  48  72 109 150 188 246 305 368 442
#     4  12  26  47  73 105 146 189 247 302 367 438
#
# _framework density 21.832272
#
# number of rings (size 3 to 8) (size 9 to 14) (size 15 to 20)
#    0.000    0.000    3.333    6.500    4.667    0.667 
#    0.000    0.000    0.000    0.000    0.000    0.000 
#    0.000    0.000    0.000    0.000    0.000    0.000 
#
# Total GULP energy -67088.660504 kJ/mol
# GULP energy per Si atom -5590.721709 kJ/mol
# Density = 2.178258 g / cm^3
# Si number density = 21.832272 Si / 1000 Ang^3
#
#
#
# Elastic Constant Matrix: (Units=GPa)
#
#
# Indices 1 2 3 4 5 6 
#
# 1 115.4349 51.3652 32.3904 17.2084 1.9601 9.5279
# 2 51.3652 185.5559 54.7075 5.9529 11.7117 7.3947
# 3 32.3904 54.7075 97.9490 14.9341 17.3208 3.8831
# 4 17.2084 5.9529 14.9341 53.5547 5.1486 3.3240
# 5 1.9601 11.7117 17.3208 5.1486 40.4797 0.4999
# 6 9.5279 7.3947 3.8831 3.3240 0.4999 60.2295
#
#
#
# Elastic Compliance Matrix: (Units=1/GPa)
#
#
# Indices 1 2 3 4 5 6 
#
# 1 0.010743 -0.002327 -0.002042 -0.002686 0.001383 -0.001145
# 2 -0.002327 0.006986 -0.003141 0.000933 -0.000679 -0.000333
# 3 -0.002042 -0.003141 0.013820 -0.002405 -0.004600 -0.000011
# 4 -0.002686 0.000933 -0.002405 0.020304 -0.001685 -0.000641
# 5 0.001383 -0.000679 -0.004600 -0.001685 0.027015 0.000030
# 6 -0.001145 -0.000333 -0.000011 -0.000641 0.000030 0.016861
#
#
# Mechanical properties :
#
#
# Convention : Reuss Voigt Hill
#
# Bulk Modulus (GPa) = 60.50729 75.09621 67.80175
# Shear Modulus (GPa) = 43.00725 48.21789 45.61257
#
# Velocity S-wave (km/s) = 4.44316 4.70463 4.57576
# Velocity P-wave (km/s) = 7.35507 7.99893 7.68375
#
# Compressibility (1/GPa) = 0.01652694
#
# Stress axis : x y z
#
# Youngs Moduli (GPa) = 93.08481 143.14947 72.36000
#
# Poissons Ratio (x) = 0.33313 0.14779
# Poissons Ratio (y) = 0.21662 0.22730
# Poissons Ratio (z) = 0.19012 0.44966
#
# Static dielectric constant tensor:
#      x y z
#    x 2.010370 0.080860 -0.186800 
#    y 0.080860 1.874480 -0.025450 
#    z -0.186800 -0.025450 1.937120 
# 
# From -- ./inp_files/148916.got.cif
#   From: 2010.05.17/outbox.cif.g08.bks.cpg/sg2_75_cif.got.tgz:148916.got - 2010.06.03 11:33:40.
