data_PCOD9071789
_publ_section_title
;
Structure prediction by ZEFSAII (Michael W. Deem and Ramdas Pophale) SiO2 
 PCOD9071789
Probable space group: P -1
;
_chemical_formula_sum "Si O2"
_cell_formula_units_Z 16
_cell_length_a 13.543485
_cell_length_b 9.419649
_cell_length_c 5.572147
_cell_angle_alpha 66.087374
_cell_angle_beta 96.458416
_cell_angle_gamma 77.681962
_cell_volume 618.934427
_symmetry_space_group_name_H-M "P -1"
_symmetry_group_IT_number 2
_symmetry_cell_setting 'triclinic'
loop_
_space_group_symop_operation_xyz
x,y,z
-x,-y,-z
loop_
_atom_site_type_symbol
_atom_site_label
_atom_site_fract_x
_atom_site_fract_y
_atom_site_fract_z
Si Si1 0.074073 0.766462 0.882683
Si Si2 0.963521 0.343709 0.550424
Si Si3 0.828137 0.953098 0.228725
Si Si4 0.831903 0.855072 0.788676
Si Si5 0.332175 0.503640 0.414579
Si Si6 0.250100 0.413195 0.959278
Si Si7 0.446591 0.104705 0.194840
Si Si8 0.453579 0.761486 0.226356
O O1 0.092085 0.659506 0.718793
O O2 0.950930 0.864748 0.785147
O O3 0.143945 0.885659 0.809009
O O4 0.092472 0.684686 0.203779
O O5 0.000000 0.500000 0.500000
O O6 0.066430 0.193733 0.662158
O O7 0.774430 0.908433 0.482147
O O8 0.788785 0.957658 0.943515
O O9 0.844501 0.665396 0.968179
O O10 0.277143 0.498410 0.146838
O O11 0.370351 0.665736 0.322120
O O12 0.437641 0.350059 0.555062
O O13 0.269499 0.479874 0.654948
O O14 0.337859 0.236662 0.106532
O O15 0.500000 0.000000 0.500000
O O16 0.430765 0.952504 0.142274
O O17 0.517765 0.221368 0.055768
#
# Coordination Sequence:
#
# PCOD9071789 Si02
#       8
#     2   2   2   2   2   2   2   2
#     4  10  19  34  56  80 103 139 182 226 259 313
#     4  10  18  29  50  81 107 127 166 218 272 304
#     4  10  19  35  58  78 103 137 185 225 260 312
#     4  10  19  33  54  80 105 140 179 223 266 312
#     4  10  21  35  55  81 104 142 183 220 265 315
#     4  11  22  35  55  79 111 144 182 221 269 328
#     4  10  19  34  56  83 109 137 179 224 274 311
#     4   9  20  34  55  81 108 136 180 229 262 315
#
# _framework density 25.85088
#
# number of rings (size 3 to 8) (size 9 to 14) (size 15 to 20)
#    0.000    2.000    1.250    4.875    1.750    1.500 
#    0.000    0.000    0.000   24.000    0.000    0.000 
#    0.000    0.000    0.000    0.000    0.000    0.000 
#
# Total GULP energy -89350.073856 kJ/mol
# GULP energy per Si atom -5584.379616 kJ/mol
# Density = 2.579204 g / cm^3
# Si number density = 25.850880 Si / 1000 Ang^3
#
#
#
# Elastic Constant Matrix: (Units=GPa)
#
#
# Indices 1 2 3 4 5 6 
#
# 1 51.6442 26.9072 -35.8618 24.9869 -29.4047 -41.7733
# 2 26.9072 180.6067 -11.9134 41.8215 -56.2457 -48.6704
# 3 -35.8618 -11.9134 552.6209 -94.1710 101.1814 244.2228
# 4 24.9869 41.8215 -94.1710 98.5492 -34.1810 -74.9123
# 5 -29.4047 -56.2457 101.1814 -34.1810 88.5015 72.2825
# 6 -41.7733 -48.6704 244.2228 -74.9123 72.2825 188.5720
#
#
#
# Elastic Compliance Matrix: (Units=1/GPa)
#
#
# Indices 1 2 3 4 5 6 
#
# 1 0.026992 -0.000273 -0.002178 -0.002652 0.005810 0.005449
# 2 -0.000273 0.007896 -0.001818 -0.002086 0.004861 0.001639
# 3 -0.002178 -0.001818 0.004856 0.000487 -0.002164 -0.006218
# 4 -0.002652 -0.002086 0.000487 0.015479 -0.000543 0.004601
# 5 0.005810 0.004861 -0.002164 -0.000543 0.020955 -0.002903
# 6 0.005449 0.001639 -0.006218 0.004601 -0.002903 0.017927
#
#
# Mechanical properties :
#
#
# Convention : Reuss Voigt Hill
#
# Bulk Modulus (GPa) = 32.04424 82.57065 57.30745
# Shear Modulus (GPa) = 44.22992 128.84053 86.53523
#
# Velocity S-wave (km/s) = 4.14087 7.06740 5.79202
# Velocity P-wave (km/s) = 5.94013 9.93015 8.18209
#
# Compressibility (1/GPa) = 0.03120685
#
# Stress axis : x y z
#
# Youngs Moduli (GPa) = 37.04817 126.63975 205.92268
#
# Poissons Ratio (x) = 0.03458 0.44855
# Poissons Ratio (y) = 0.01012 0.37427
# Poissons Ratio (z) = 0.08070 0.23017
#
# Static dielectric constant tensor:
#      x y z
#    x 2.103410 0.109090 0.348470 
#    y 0.109090 1.842390 -0.324720 
#    z 0.348470 -0.324720 1.946770 
# 
# From -- ./inp_files/43626.got.cif
#   From: 2010.05.17/outbox.cif.g08.bks.cpg/sg2_22_cif.got.tgz:43626.got - 2010.06.03 11:33:40.
