data_PCOD9071026
_publ_section_title
;
Structure prediction by ZEFSAII (Michael W. Deem and Ramdas Pophale) SiO2 
 PCOD9071026
Probable space group: P -1
;
_chemical_formula_sum "Si O2"
_cell_formula_units_Z 16
_cell_length_a 19.937782
_cell_length_b 23.247125
_cell_length_c 8.730451
_cell_angle_alpha 31.754872
_cell_angle_beta 43.939529
_cell_angle_gamma 21.931416
_cell_volume 745.249415
_symmetry_space_group_name_H-M "P -1"
_symmetry_group_IT_number 2
_symmetry_cell_setting 'triclinic'
loop_
_space_group_symop_operation_xyz
x,y,z
-x,-y,-z
loop_
_atom_site_type_symbol
_atom_site_label
_atom_site_fract_x
_atom_site_fract_y
_atom_site_fract_z
Si Si1 0.696159 0.757694 0.787066
Si Si2 0.235181 0.031858 0.239363
Si Si3 0.708691 0.314929 0.511493
Si Si4 0.130027 0.631315 0.729975
Si Si5 0.960414 0.680308 0.385955
Si Si6 0.010492 0.846576 0.123097
Si Si7 0.295708 0.722780 0.755694
Si Si8 0.612664 0.791454 0.204266
O O1 0.866558 0.673067 0.651208
O O2 0.500000 0.000000 0.500000
O O3 0.739840 0.600962 0.986014
O O4 0.671876 0.762590 0.997501
O O5 0.081641 0.196471 0.255031
O O6 0.232159 0.907892 0.479024
O O7 0.453078 0.851982 0.325889
O O8 0.158333 0.180370 0.888641
O O9 0.500000 0.500000 0.500000
O O10 0.783098 0.364583 0.306696
O O11 0.706117 0.290867 0.391388
O O12 0.842231 0.095565 0.871728
O O13 0.111641 0.709272 0.421442
O O14 0.945369 0.803114 0.236974
O O15 0.184996 0.437897 0.531708
O O16 0.151429 0.777247 0.941756
O O17 0.500000 0.500000 0.000000
O O18 0.500000 0.000000 0.000000
#
# Coordination Sequence:
#
# PCOD9071026 Si02
#       8
#     2   2   2   2   2   2   2   2
#     4  12  28  50  75 108 151 195 246 310 372 439
#     4  12  27  49  75 109 151 194 248 307 372 442
#     4  12  27  45  75 111 146 194 248 304 372 441
#     4  12  28  48  74 109 149 195 248 308 372 441
#     4  12  26  50  78 104 152 199 244 310 371 443
#     4  12  25  49  74 105 152 191 244 304 374 439
#     4  12  26  48  73 109 150 197 244 301 372 444
#     4  12  28  49  76 110 144 197 253 304 371 442
#
# _framework density 21.469322999999999
#
# number of rings (size 3 to 8) (size 9 to 14) (size 15 to 20)
#    0.000    0.000    5.000    4.125    8.750    1.000 
#    0.000    0.000    0.000    0.000    0.000    0.000 
#    0.000    0.000    0.000    0.000    0.000    0.000 
#
# Total GULP energy -89649.929183 kJ/mol
# GULP energy per Si atom -5603.120574 kJ/mol
# Density = 2.142046 g / cm^3
# Si number density = 21.469323 Si / 1000 Ang^3
#
#
#
# Elastic Constant Matrix: (Units=GPa)
#
#
# Indices 1 2 3 4 5 6 
#
# 1 75.5308 23.4897 28.9245 -9.7523 -30.3009 -1.1666
# 2 23.4897 120.1914 38.4313 -17.3471 -15.9702 -5.6187
# 3 28.9245 38.4313 101.8577 -21.2682 -22.3178 3.6533
# 4 -9.7523 -17.3471 -21.2682 45.3120 1.7475 2.1577
# 5 -30.3009 -15.9702 -22.3178 1.7475 38.1906 -6.0171
# 6 -1.1666 -5.6187 3.6533 2.1577 -6.0171 40.1203
#
#
#
# Elastic Compliance Matrix: (Units=1/GPa)
#
#
# Indices 1 2 3 4 5 6 
#
# 1 0.020737 -0.000959 -0.001725 0.002560 0.015366 0.002793
# 2 -0.000959 0.010039 -0.002665 0.002220 0.002064 0.001811
# 3 -0.001725 -0.002665 0.013442 0.004781 0.004971 -0.001159
# 4 0.002560 0.002220 0.004781 0.025578 0.004465 -0.000756
# 5 0.015366 0.002064 0.004971 0.004465 0.042962 0.006486
# 6 0.002793 0.001811 -0.001159 -0.000756 0.006486 0.026379
#
#
# Mechanical properties :
#
#
# Convention : Reuss Voigt Hill
#
# Bulk Modulus (GPa) = 29.83331 53.25231 41.54281
# Shear Modulus (GPa) = 31.05438 38.50687 34.78063
#
# Velocity S-wave (km/s) = 3.80735 4.23966 4.02931
# Velocity P-wave (km/s) = 5.76662 6.98742 6.40616
#
# Compressibility (1/GPa) = 0.03351958
#
# Stress axis : x y z
#
# Youngs Moduli (GPa) = 48.22299 99.61362 74.39409
#
# Poissons Ratio (x) = 0.09555 0.12836
# Poissons Ratio (y) = 0.04625 0.19822
# Poissons Ratio (z) = 0.08320 0.26542
#
# Static dielectric constant tensor:
#      x y z
#    x 1.715090 -0.033630 0.190690 
#    y -0.033630 1.729030 0.066340 
#    z 0.190690 0.066340 1.133600 
# 
# From -- ./inp_files/349957.got.cif
#   From: 2010.05.17/outbox.cif.g08.bks.cpg/sg2_175_cif.got.tgz:349957.got - 2010.06.03 11:33:40.
