data_PCOD9071864
_publ_section_title
;
Structure prediction by ZEFSAII (Michael W. Deem and Ramdas Pophale) SiO2 
 PCOD9071864
Probable space group: P -1
;
_chemical_formula_sum "Si O2"
_cell_formula_units_Z 16
_cell_length_a 28.162248
_cell_length_b 5.102133
_cell_length_c 20.828345
_cell_angle_alpha 128.136079
_cell_angle_beta 22.665649
_cell_angle_gamma 129.185191
_cell_volume 887.929024
_symmetry_space_group_name_H-M "P -1"
_symmetry_group_IT_number 2
_symmetry_cell_setting 'triclinic'
loop_
_space_group_symop_operation_xyz
x,y,z
-x,-y,-z
loop_
_atom_site_type_symbol
_atom_site_label
_atom_site_fract_x
_atom_site_fract_y
_atom_site_fract_z
Si Si1 0.726376 0.370547 0.613756
Si Si2 0.770521 0.303720 0.358386
Si Si3 0.449623 0.320797 0.300962
Si Si4 0.884996 0.214488 0.073597
Si Si5 0.410253 0.065724 0.178545
Si Si6 0.335126 0.668875 0.709243
Si Si7 0.553302 0.536929 0.334129
Si Si8 0.904747 0.069305 0.277052
O O1 0.686089 0.705399 0.690109
O O2 0.866951 0.336427 0.415066
O O3 0.645000 0.044441 0.627801
O O4 0.673804 0.273250 0.735914
O O5 0.630478 0.378687 0.551180
O O6 0.791083 0.133132 0.238968
O O7 0.830707 0.117247 0.311037
O O8 0.852940 0.691511 0.312786
O O9 0.489299 0.272669 0.170654
O O10 0.542021 0.366881 0.252619
O O11 0.808013 0.369665 0.139530
O O12 0.000000 0.500000 0.000000
O O13 0.950724 0.921126 0.919840
O O14 0.500000 0.000000 0.000000
O O15 0.415200 0.479656 0.531815
O O16 0.360245 0.580514 0.737443
O O17 0.396156 0.065782 0.681962
#
# Coordination Sequence:
#
# PCOD9071864 Si02
#       8
#     2   2   2   2   2   2   2   2
#     4   9  18  30  47  73 100 130 158 196 255 314
#     4  10  18  30  44  70  95 131 172 196 237 291
#     4   9  19  30  53  67 101 135 169 197 252 297
#     4  10  21  34  51  72 102 138 177 218 249 294
#     4  10  19  31  49  74 104 128 157 206 256 321
#     4  10  22  35  47  73  97 137 182 215 241 283
#     4  10  21  35  51  66 102 138 177 215 242 290
#     4  10  18  30  45  69  95 132 162 202 242 294
#
# _framework density 18.019456999999999
#
# number of rings (size 3 to 8) (size 9 to 14) (size 15 to 20)
#    0.750    1.500    2.500    0.750    1.750    4.000 
#    0.000    0.000    0.000    0.000    0.000    0.000 
#    0.000    6.000    0.000    0.000    0.000    0.000 
#
# Total GULP energy -89130.803013 kJ/mol
# GULP energy per Si atom -5570.675188 kJ/mol
# Density = 1.797844 g / cm^3
# Si number density = 18.019457 Si / 1000 Ang^3
#
#
#
# Elastic Constant Matrix: (Units=GPa)
#
#
# Indices 1 2 3 4 5 6 
#
# 1 113.4023 18.4979 61.3926 3.3906 6.1093 -19.1040
# 2 18.4979 33.2988 -7.1768 2.7562 -1.7622 -11.8483
# 3 61.3926 -7.1768 97.7047 6.5042 16.9490 -0.5636
# 4 3.3906 2.7562 6.5042 11.8409 -5.0249 -2.0410
# 5 6.1093 -1.7622 16.9490 -5.0249 32.5665 -1.7999
# 6 -19.1040 -11.8483 -0.5636 -2.0410 -1.7999 25.2580
#
#
#
# Elastic Compliance Matrix: (Units=1/GPa)
#
#
# Indices 1 2 3 4 5 6 
#
# 1 0.019768 -0.010817 -0.014679 0.009017 0.005326 0.010658
# 2 -0.010817 0.043362 0.011377 -0.012528 -0.002860 0.011197
# 3 -0.014679 0.011377 0.023520 -0.017768 -0.012029 -0.007534
# 4 0.009017 -0.012528 -0.017768 0.106571 0.023921 0.010863
# 5 0.005326 -0.002860 -0.012029 0.023921 0.039902 0.007195
# 6 0.010658 0.011197 -0.007534 0.010863 0.007195 0.054127
#
#
# Mechanical properties :
#
#
# Convention : Reuss Voigt Hill
#
# Bulk Modulus (GPa) = 17.11981 43.31480 30.21731
# Shear Modulus (GPa) = 14.92723 25.37922 20.15323
#
# Velocity S-wave (km/s) = 2.88131 3.75698 3.34790
# Velocity P-wave (km/s) = 4.53769 6.55056 5.63474
#
# Compressibility (1/GPa) = 0.05841185
#
# Stress axis : x y z
#
# Youngs Moduli (GPa) = 50.58654 23.06174 42.51713
#
# Poissons Ratio (x) = 0.24946 0.62409
# Poissons Ratio (y) = 0.54721 -0.48371
# Poissons Ratio (z) = 0.74254 -0.26237
#
# Static dielectric constant tensor:
#      x y z
#    x 1.628290 -0.023760 0.011430 
#    y -0.023760 1.667630 -0.020720 
#    z 0.011430 -0.020720 1.690620 
# 
# From -- ./inp_files/578605.got.cif
#   From: 2010.05.17/outbox.cif.g08.bks.cpg/sg2_290_cif.got.tgz:578605.got - 2010.06.03 11:33:40.
