data_PCOD9071256
_publ_section_title
;
Structure prediction by ZEFSAII (Michael W. Deem and Ramdas Pophale) SiO2 
 PCOD9071256
Probable space group: P -1
;
_chemical_formula_sum "Si O2"
_cell_formula_units_Z 13
_cell_length_a 24.819176
_cell_length_b 11.355785
_cell_length_c 5.243934
_cell_angle_alpha 108.698512
_cell_angle_beta 112.911484
_cell_angle_gamma 22.261270
_cell_volume 512.374511
_symmetry_space_group_name_H-M "P -1"
_symmetry_group_IT_number 2
_symmetry_cell_setting 'triclinic'
loop_
_space_group_symop_operation_xyz
x,y,z
-x,-y,-z
loop_
_atom_site_type_symbol
_atom_site_label
_atom_site_fract_x
_atom_site_fract_y
_atom_site_fract_z
Si Si1 0.380835 0.487107 0.057289
Si Si2 0.003495 0.309297 0.399186
Si Si3 0.604150 0.891235 0.763800
Si Si4 0.802944 0.716757 0.805081
Si Si5 0.500000 0.500000 0.500000
Si Si6 0.713720 0.118074 0.200227
Si Si7 0.852397 0.208759 0.865049
O O1 0.426004 0.501215 0.360070
O O2 0.231159 0.708153 0.013706
O O3 0.345002 0.639321 0.850048
O O4 0.510107 0.138856 0.986476
O O5 0.885734 0.543829 0.571811
O O6 0.920200 0.475848 0.088387
O O7 0.127966 0.170593 0.579291
O O8 0.095501 0.002042 0.373950
O O9 0.678935 0.855303 0.713522
O O10 0.735524 0.544634 0.838639
O O11 0.500000 0.000000 0.500000
O O12 0.729199 0.996868 0.895864
O O13 0.603692 0.262991 0.283349
O O14 0.000000 0.000000 0.000000
#
# Coordination Sequence:
#
# PCOD9071256 Si02
#       7
#     2   2   2   2   1   2   2
#     4  12  28  52  80 119 163 214 279 345 420 497
#     4  12  27  50  79 119 160 215 274 345 409 498
#     4  12  29  48  79 119 164 222 273 344 412 504
#     4  12  29  49  82 120 164 214 275 342 425 493
#     4  12  26  46  82 112 160 204 274 336 428 484
#     4  12  27  49  80 117 161 207 274 345 424 489
#     4  12  27  52  82 114 163 221 278 337 406 497
#
# _framework density 25.372064000000002
#
# number of rings (size 3 to 8) (size 9 to 14) (size 15 to 20)
#    0.000    0.000    4.615    3.692    4.308    1.846 
#    0.000    0.000    0.000    0.000    0.000    0.000 
#    0.000    0.000    0.000    0.000    0.000    0.000 
#
# Total GULP energy -72651.748865 kJ/mol
# GULP energy per Si atom -5588.596067 kJ/mol
# Density = 2.531432 g / cm^3
# Si number density = 25.372064 Si / 1000 Ang^3
#
#
#
# Elastic Constant Matrix: (Units=GPa)
#
#
# Indices 1 2 3 4 5 6 
#
# 1 153.0420 76.6959 43.9987 -5.3283 13.7735 -31.0063
# 2 76.6959 169.9241 53.0703 24.6481 0.1821 -18.7467
# 3 43.9987 53.0703 77.6131 11.1512 6.2090 5.7791
# 4 -5.3283 24.6481 11.1512 60.2619 -10.6513 10.7824
# 5 13.7735 0.1821 6.2090 -10.6513 49.4496 10.1604
# 6 -31.0063 -18.7467 5.7791 10.7824 10.1604 63.5280
#
#
#
# Elastic Compliance Matrix: (Units=1/GPa)
#
#
# Indices 1 2 3 4 5 6 
#
# 1 0.010663 -0.003192 -0.004210 0.001612 -0.003082 0.004865
# 2 -0.003192 0.009455 -0.004297 -0.003731 0.000131 0.002236
# 3 -0.004210 -0.004297 0.018791 -0.001332 -0.000487 -0.004728
# 4 0.001612 -0.003731 -0.001332 0.020181 0.004986 -0.004416
# 5 -0.003082 0.000131 -0.000487 0.004986 0.023452 -0.006019
# 6 0.004865 0.002236 -0.004728 -0.004416 -0.006019 0.020917
#
#
# Mechanical properties :
#
#
# Convention : Reuss Voigt Hill
#
# Bulk Modulus (GPa) = 64.46119 83.12322 73.79220
# Shear Modulus (GPa) = 37.87081 49.76884 43.81982
#
# Velocity S-wave (km/s) = 3.86763 4.43376 4.16034
# Velocity P-wave (km/s) = 6.73842 7.68399 7.22669
#
# Compressibility (1/GPa) = 0.01551321
#
# Stress axis : x y z
#
# Youngs Moduli (GPa) = 93.78124 105.76002 53.21648
#
# Poissons Ratio (x) = 0.33758 0.22402
# Poissons Ratio (y) = 0.29935 0.22865
# Poissons Ratio (z) = 0.39478 0.45441
#
# Static dielectric constant tensor:
#      x y z
#    x 2.030620 -0.138960 0.139420 
#    y -0.138960 1.902350 0.201940 
#    z 0.139420 0.201940 1.693990 
# 
# From -- ./inp_files/89608.got.cif
#   From: 2010.05.17/outbox.cif.g08.bks.cpg/sg2_45_cif.got.tgz:89608.got - 2010.06.03 11:33:40.
