data_PCOD9071155
_publ_section_title
;
Structure prediction by ZEFSAII (Michael W. Deem and Ramdas Pophale) SiO2 
 PCOD9071155
Probable space group: P -1
;
_chemical_formula_sum "Si O2"
_cell_formula_units_Z 12
_cell_length_a 9.878958
_cell_length_b 16.852907
_cell_length_c 7.793400
_cell_angle_alpha 142.116770
_cell_angle_beta 41.626208
_cell_angle_gamma 144.087134
_cell_volume 445.723371
_symmetry_space_group_name_H-M "P -1"
_symmetry_group_IT_number 2
_symmetry_cell_setting 'triclinic'
loop_
_space_group_symop_operation_xyz
x,y,z
-x,-y,-z
loop_
_atom_site_type_symbol
_atom_site_label
_atom_site_fract_x
_atom_site_fract_y
_atom_site_fract_z
Si Si1 0.259575 0.527054 0.330010
Si Si2 0.901746 0.596034 0.353873
Si Si3 0.736293 0.840199 0.343796
Si Si4 0.139230 0.296492 0.754024
Si Si5 0.606669 0.073119 0.838027
Si Si6 0.121343 0.919803 0.844270
O O1 0.249604 0.487443 0.473598
O O2 0.462522 0.697115 0.370818
O O3 0.000000 0.500000 0.500000
O O4 0.105728 0.773527 0.517208
O O5 0.762193 0.629036 0.395736
O O6 0.000000 0.500000 0.000000
O O7 0.708676 0.970019 0.507041
O O8 0.825424 0.840271 0.454916
O O9 0.937964 0.836582 0.035622
O O10 0.853770 0.235268 0.913164
O O11 0.269416 0.418565 0.990946
O O12 0.390519 0.041425 0.865493
O O13 0.500000 0.000000 0.000000
O O14 0.000000 0.000000 0.000000
#
# Coordination Sequence:
#
# PCOD9071155 Si02
#       6
#     2   2   2   2   2   2
#     4  12  25  52  77 116 163 210 272 345 408 484
#     4  12  27  48  81 119 160 212 277 335 412 481
#     4  12  27  50  82 114 169 214 270 343 416 486
#     4  12  26  48  80 117 160 215 274 332 412 492
#     4  12  26  49  83 116 162 218 277 334 411 495
#     4  12  29  54  83 122 167 216 278 344 412 494
#
# _framework density 26.922528
#
# number of rings (size 3 to 8) (size 9 to 14) (size 15 to 20)
#    0.000    0.000    5.000    4.000    2.333    4.667 
#    0.000    0.000    0.000    0.000    0.000    0.000 
#    0.000    0.000    0.000    0.000    0.000    0.000 
#
# Total GULP energy -67128.623851 kJ/mol
# GULP energy per Si atom -5594.051988 kJ/mol
# Density = 2.686125 g / cm^3
# Si number density = 26.922528 Si / 1000 Ang^3
#
#
#
# Elastic Constant Matrix: (Units=GPa)
#
#
# Indices 1 2 3 4 5 6 
#
# 1 200.9724 54.8195 25.9599 -1.0530 3.1004 10.5205
# 2 54.8195 140.3206 30.3893 -6.6453 13.3555 9.9218
# 3 25.9599 30.3893 133.4686 1.8385 17.3784 6.3507
# 4 -1.0530 -6.6453 1.8385 51.3508 -8.7831 -1.7939
# 5 3.1004 13.3555 17.3784 -8.7831 45.3547 -9.0891
# 6 10.5205 9.9218 6.3507 -1.7939 -9.0891 65.2742
#
#
#
# Elastic Compliance Matrix: (Units=1/GPa)
#
#
# Indices 1 2 3 4 5 6 
#
# 1 0.005643 -0.002068 -0.000649 -0.000084 0.000359 -0.000484
# 2 -0.002068 0.008501 -0.001235 0.000727 -0.001967 -0.001093
# 3 -0.000649 -0.001235 0.008380 -0.001057 -0.003207 -0.000999
# 4 -0.000084 0.000727 -0.001057 0.020395 0.004382 0.001176
# 5 0.000359 -0.001967 -0.003207 0.004382 0.025528 0.004228
# 6 -0.000484 -0.001093 -0.000999 0.001176 0.004228 0.016282
#
#
# Mechanical properties :
#
#
# Convention : Reuss Voigt Hill
#
# Bulk Modulus (GPa) = 68.40544 77.45546 72.93045
# Shear Modulus (GPa) = 51.27878 56.63546 53.95712
#
# Velocity S-wave (km/s) = 4.36900 4.59153 4.48164
# Velocity P-wave (km/s) = 7.13542 7.54597 7.34357
#
# Compressibility (1/GPa) = 0.01461872
#
# Stress axis : x y z
#
# Youngs Moduli (GPa) = 177.20718 117.63595 119.33705
#
# Poissons Ratio (x) = 0.24326 0.07748
# Poissons Ratio (y) = 0.36644 0.14742
# Poissons Ratio (z) = 0.11505 0.14532
#
# Static dielectric constant tensor:
#      x y z
#    x 2.106550 -0.015790 0.047850 
#    y -0.015790 2.219090 0.114630 
#    z 0.047850 0.114630 2.326660 
# 
# From -- ./inp_files/197433.got.cif
#   From: 2010.05.17/outbox.cif.g08.bks.cpg/sg2_99_cif.got.tgz:197433.got - 2010.06.03 11:33:40.
