data_PCOD9071184
_publ_section_title
;
Structure prediction by ZEFSAII (Michael W. Deem and Ramdas Pophale) SiO2 
 PCOD9071184
Probable space group: P -1
;
_chemical_formula_sum "Si O2"
_cell_formula_units_Z 10
_cell_length_a 12.537709
_cell_length_b 9.304481
_cell_length_c 9.433360
_cell_angle_alpha 29.706581
_cell_angle_beta 132.426782
_cell_angle_gamma 131.650629
_cell_volume 393.137166
_symmetry_space_group_name_H-M "P -1"
_symmetry_group_IT_number 2
_symmetry_cell_setting 'triclinic'
loop_
_space_group_symop_operation_xyz
x,y,z
-x,-y,-z
loop_
_atom_site_type_symbol
_atom_site_label
_atom_site_fract_x
_atom_site_fract_y
_atom_site_fract_z
Si Si1 0.896545 0.725448 0.220431
Si Si2 0.693859 0.490158 0.989754
Si Si3 0.768638 0.548187 0.556318
Si Si4 0.854935 0.141893 0.221450
Si Si5 0.492379 0.072698 0.597642
O O1 0.755227 0.598574 0.106116
O O2 0.852893 0.722699 0.347022
O O3 0.000000 0.500000 0.500000
O O4 0.000000 0.000000 0.000000
O O5 0.810226 0.345496 0.131888
O O6 0.545665 0.237876 0.089563
O O7 0.646810 0.773124 0.639042
O O8 0.636165 0.296870 0.591624
O O9 0.731561 0.832892 0.359232
O O10 0.855621 0.358890 0.899348
O O11 0.000000 0.000000 0.500000
O O12 0.500000 0.000000 0.500000
#
# Coordination Sequence:
#
# PCOD9071184 Si02
#       5
#     2   2   2   2   2
#     4  12  26  45  73 111 148 200 263 310 375 458
#     4  12  27  48  76 111 156 202 251 322 383 449
#     4  12  27  47  80 110 153 210 252 317 392 450
#     4  12  28  51  75 113 162 201 257 319 384 465
#     4  12  26  48  79 114 155 193 263 322 376 459
#
# _framework density 25.436415
#
# number of rings (size 3 to 8) (size 9 to 14) (size 15 to 20)
#    0.000    0.000    2.000    7.200    2.800    8.000 
#    0.000    0.000    0.000    0.000    0.000    0.000 
#    0.000    0.000    0.000    0.000    0.000    0.000 
#
# Total GULP energy -55956.691326 kJ/mol
# GULP energy per Si atom -5595.669133 kJ/mol
# Density = 2.537852 g / cm^3
# Si number density = 25.436415 Si / 1000 Ang^3
#
#
#
# Elastic Constant Matrix: (Units=GPa)
#
#
# Indices 1 2 3 4 5 6 
#
# 1 109.9381 28.4926 53.2454 10.0097 -10.8187 -31.0177
# 2 28.4926 128.2358 52.4333 -1.8304 -15.4319 -7.5537
# 3 53.2454 52.4333 189.2006 -6.2643 -11.5541 -13.9234
# 4 10.0097 -1.8304 -6.2643 52.0301 0.7394 -5.5112
# 5 -10.8187 -15.4319 -11.5541 0.7394 49.1279 -5.0443
# 6 -31.0177 -7.5537 -13.9234 -5.5112 -5.0443 42.9058
#
#
#
# Elastic Compliance Matrix: (Units=1/GPa)
#
#
# Indices 1 2 3 4 5 6 
#
# 1 0.013725 -0.001050 -0.002804 -0.002114 0.002979 0.008906
# 2 -0.001050 0.009175 -0.002067 0.000296 0.002210 0.000483
# 3 -0.002804 -0.002067 0.006706 0.001268 0.000289 -0.000018
# 4 -0.002114 0.000296 0.001268 0.019948 -0.000224 0.001471
# 5 0.002979 0.002210 0.000289 -0.000224 0.022314 0.005231
# 6 0.008906 0.000483 -0.000018 0.001471 0.005231 0.030628
#
#
# Mechanical properties :
#
#
# Convention : Reuss Voigt Hill
#
# Bulk Modulus (GPa) = 56.29542 77.30190 66.79866
# Shear Modulus (GPa) = 41.57691 48.35966 44.96829
#
# Velocity S-wave (km/s) = 4.04733 4.36500 4.20917
# Velocity P-wave (km/s) = 6.63484 7.47399 7.06688
#
# Compressibility (1/GPa) = 0.01776344
#
# Stress axis : x y z
#
# Youngs Moduli (GPa) = 72.86231 108.98963 149.12764
#
# Poissons Ratio (x) = 0.11443 0.41817
# Poissons Ratio (y) = 0.07650 0.30824
# Poissons Ratio (z) = 0.20431 0.22527
#
# Static dielectric constant tensor:
#      x y z
#    x 1.864950 0.106850 0.077260 
#    y 0.106850 2.007810 -0.042640 
#    z 0.077260 -0.042640 1.861070 
# 
# From -- ./inp_files/150909.got.cif
#   From: 2010.05.17/outbox.cif.g08.bks.cpg/sg2_76_cif.got.tgz:150909.got - 2010.06.03 11:33:40.
