data_PCOD9071337
_publ_section_title
;
Structure prediction by ZEFSAII (Michael W. Deem and Ramdas Pophale) SiO2 
 PCOD9071337
Probable space group: P -1
;
_chemical_formula_sum "Si O2"
_cell_formula_units_Z 15
_cell_length_a 8.951180
_cell_length_b 10.803167
_cell_length_c 7.737890
_cell_angle_alpha 119.976622
_cell_angle_beta 79.796400
_cell_angle_gamma 125.294442
_cell_volume 522.404838
_symmetry_space_group_name_H-M "P -1"
_symmetry_group_IT_number 2
_symmetry_cell_setting 'triclinic'
loop_
_space_group_symop_operation_xyz
x,y,z
-x,-y,-z
loop_
_atom_site_type_symbol
_atom_site_label
_atom_site_fract_x
_atom_site_fract_y
_atom_site_fract_z
Si Si1 0.041451 0.729916 0.995763
Si Si2 0.624915 0.442720 0.502814
Si Si3 0.646873 0.879300 0.070603
Si Si4 0.564052 0.944837 0.722367
Si Si5 0.347842 0.536437 0.073735
Si Si6 0.014983 0.417189 0.616928
Si Si7 0.148235 0.970092 0.539300
Si Si8 0.000000 0.000000 0.000000
O O1 0.042658 0.562647 0.841109
O O2 0.847640 0.628539 0.071011
O O3 0.002875 0.825113 0.921265
O O4 0.240189 0.884580 0.134619
O O5 0.500000 0.500000 0.500000
O O6 0.666543 0.444935 0.702233
O O7 0.806368 0.575626 0.452779
O O8 0.546364 0.248989 0.315065
O O9 0.589157 0.013922 0.188746
O O10 0.454211 0.711800 0.062244
O O11 0.827823 0.955522 0.219535
O O12 0.770377 0.871612 0.892464
O O13 0.646491 0.919264 0.510325
O O14 0.500000 0.500000 0.000000
O O15 0.000000 0.500000 0.500000
O O16 0.880347 0.217437 0.564011
O O17 0.000000 0.000000 0.500000
#
# Coordination Sequence:
#
# PCOD9071337 Si02
#       8
#     2   2   2   2   2   2   2   1
#     4  12  28  49  78 118 157 212 264 335 404 482
#     4  12  28  49  79 116 161 210 266 327 404 488
#     4  12  27  49  78 112 161 210 265 328 410 476
#     4  12  28  49  80 118 160 207 268 332 407 483
#     4  12  27  50  78 115 157 207 267 328 399 480
#     4  12  26  48  78 113 161 207 265 324 402 475
#     4  12  26  48  80 115 157 216 272 328 403 489
#     4  12  26  48  76 112 160 206 266 328 404 478
#
# _framework density 28.713363999999999
#
# number of rings (size 3 to 8) (size 9 to 14) (size 15 to 20)
#    0.000    0.000    4.000    5.200    1.867    5.333 
#    0.000    0.000    0.000    0.000    0.000    0.000 
#    0.000    0.000    0.000    0.000    0.000    0.000 
#
# Total GULP energy -83557.240033 kJ/mol
# GULP energy per Si atom -5570.482669 kJ/mol
# Density = 2.864801 g / cm^3
# Si number density = 28.713364 Si / 1000 Ang^3
#
#
#
# Elastic Constant Matrix: (Units=GPa)
#
#
# Indices 1 2 3 4 5 6 
#
# 1 180.3703 30.7263 23.2334 -2.7679 -10.7075 0.3973
# 2 30.7263 156.6551 30.5666 -4.7813 6.2858 -12.2895
# 3 23.2334 30.5666 75.3551 20.8852 3.7813 -7.3556
# 4 -2.7679 -4.7813 20.8852 47.5254 4.9637 -13.7989
# 5 -10.7075 6.2858 3.7813 4.9637 47.8086 10.6014
# 6 0.3973 -12.2895 -7.3556 -13.7989 10.6014 73.4731
#
#
#
# Elastic Compliance Matrix: (Units=1/GPa)
#
#
# Indices 1 2 3 4 5 6 
#
# 1 0.006045 -0.000907 -0.001835 0.000762 0.001642 -0.000462
# 2 -0.000907 0.007484 -0.003288 0.002800 -0.001591 0.001683
# 3 -0.001835 -0.003288 0.017418 -0.008118 -0.000457 -0.000255
# 4 0.000762 0.002800 -0.008118 0.026806 -0.003489 0.005189
# 5 0.001642 -0.001591 -0.000457 -0.003489 0.022839 -0.004271
# 6 -0.000462 0.001683 -0.000255 0.005189 -0.004271 0.015460
#
#
# Mechanical properties :
#
#
# Convention : Reuss Voigt Hill
#
# Bulk Modulus (GPa) = 52.94230 64.60367 58.77299
# Shear Modulus (GPa) = 43.70339 55.61836 49.66088
#
# Velocity S-wave (km/s) = 3.90559 4.40593 4.16328
# Velocity P-wave (km/s) = 6.23028 6.95926 6.60484
#
# Compressibility (1/GPa) = 0.01888849
#
# Stress axis : x y z
#
# Youngs Moduli (GPa) = 165.42465 133.61488 57.41162
#
# Poissons Ratio (x) = 0.12113 0.10533
# Poissons Ratio (y) = 0.14997 0.18878
# Poissons Ratio (z) = 0.30349 0.43936
#
# Static dielectric constant tensor:
#      x y z
#    x 2.601910 -0.511160 -0.028310 
#    y -0.511160 1.535170 0.534580 
#    z -0.028310 0.534580 2.469750 
# 
# From -- ./inp_files/190050.got.cif
#   From: 2010.05.17/outbox.cif.g08.bks.cpg/sg2_96_cif.got.tgz:190050.got - 2010.06.03 11:33:40.
