data_PCOD9071805
_publ_section_title
;
Structure prediction by ZEFSAII (Michael W. Deem and Ramdas Pophale) SiO2 
 PCOD9071805
Probable space group: P -1
;
_chemical_formula_sum "Si O2"
_cell_formula_units_Z 12
_cell_length_a 7.648845
_cell_length_b 20.535707
_cell_length_c 6.885358
_cell_angle_alpha 47.319268
_cell_angle_beta 78.733589
_cell_angle_gamma 47.285985
_cell_volume 509.351831
_symmetry_space_group_name_H-M "P -1"
_symmetry_group_IT_number 2
_symmetry_cell_setting 'triclinic'
loop_
_space_group_symop_operation_xyz
x,y,z
-x,-y,-z
loop_
_atom_site_type_symbol
_atom_site_label
_atom_site_fract_x
_atom_site_fract_y
_atom_site_fract_z
Si Si1 0.832397 0.280373 0.498647
Si Si2 0.341681 0.170361 0.752859
Si Si3 0.267969 0.959801 0.390005
Si Si4 0.689708 0.660370 0.866700
Si Si5 0.257057 0.500774 0.119015
Si Si6 0.144318 0.018548 0.711910
O O1 0.523184 0.383811 0.427724
O O2 0.059250 0.224348 0.719450
O O3 0.953630 0.153633 0.607077
O O4 0.804412 0.373898 0.166928
O O5 0.519705 0.068006 0.734582
O O6 0.274168 0.293111 0.432402
O O7 0.557847 0.099606 0.019182
O O8 0.436383 0.806174 0.722519
O O9 0.015788 0.014454 0.213779
O O10 0.181662 0.039383 0.442704
O O11 0.661971 0.574551 0.954961
O O12 0.969442 0.567527 0.109576
#
# Coordination Sequence:
#
# PCOD9071805 Si02
#       6
#     2   2   2   2   2   2
#     4  10  18  29  51  82  98 136 165 204 259 295
#     4   9  19  33  51  80 101 132 163 208 260 291
#     4   9  20  33  51  80  97 136 168 204 257 288
#     4   8  16  33  52  77  94 136 173 203 246 290
#     4   9  16  30  53  74 101 132 178 199 236 315
#     4  11  19  33  53  79 104 126 170 211 251 302
#
# _framework density 23.559353000000002
#
# number of rings (size 3 to 8) (size 9 to 14) (size 15 to 20)
#    1.000    1.667    1.667    1.000    0.000    0.667 
#    0.000    0.000    0.000   10.000    8.667    0.000 
#    0.000    0.000    0.000    0.000    0.000    0.000 
#
# Total GULP energy -66889.215394 kJ/mol
# GULP energy per Si atom -5574.101283 kJ/mol
# Density = 2.350573 g / cm^3
# Si number density = 23.559353 Si / 1000 Ang^3
#
#
#
# Elastic Constant Matrix: (Units=GPa)
#
#
# Indices 1 2 3 4 5 6 
#
# 1 81.6422 14.8662 50.8467 6.2203 37.6951 -1.8392
# 2 14.8662 48.2998 39.3909 -4.1783 -1.4405 3.8205
# 3 50.8467 39.3909 137.3913 -14.0259 49.2682 2.1928
# 4 6.2203 -4.1783 -14.0259 21.1987 -3.7833 3.0635
# 5 37.6951 -1.4405 49.2682 -3.7833 55.1934 -6.4921
# 6 -1.8392 3.8205 2.1928 3.0635 -6.4921 19.3984
#
#
#
# Elastic Compliance Matrix: (Units=1/GPa)
#
#
# Indices 1 2 3 4 5 6 
#
# 1 0.022404 -0.005993 -0.003010 -0.012309 -0.013488 0.001075
# 2 -0.005993 0.034345 -0.013499 0.002732 0.017168 -0.000492
# 3 -0.003010 -0.013499 0.018665 0.008772 -0.015082 -0.006170
# 4 -0.012309 0.002732 0.008772 0.059317 0.003430 -0.010916
# 5 -0.013488 0.017168 -0.015082 0.003430 0.042747 0.010810
# 6 0.001075 -0.000492 -0.006170 -0.010916 0.010810 0.057789
#
#
# Mechanical properties :
#
#
# Convention : Reuss Voigt Hill
#
# Bulk Modulus (GPa) = 32.88372 53.06011 42.97191
# Shear Modulus (GPa) = 17.21717 29.97339 23.59528
#
# Velocity S-wave (km/s) = 2.70626 3.57073 3.16812
# Velocity P-wave (km/s) = 4.87373 6.29054 5.62691
#
# Compressibility (1/GPa) = 0.03041019
#
# Stress axis : x y z
#
# Youngs Moduli (GPa) = 44.63441 29.11652 53.57563
#
# Poissons Ratio (x) = 0.17449 0.16129
# Poissons Ratio (y) = 0.26749 0.72320
# Poissons Ratio (z) = 0.13437 0.39304
#
# Static dielectric constant tensor:
#      x y z
#    x 1.981620 0.014040 -0.001520 
#    y 0.014040 1.845570 -0.039830 
#    z -0.001520 -0.039830 1.977360 
# 
# From -- ./inp_files/191520.got.cif
#   From: 2010.05.17/outbox.cif.g08.bks.cpg/sg2_96_cif.got.tgz:191520.got - 2010.06.03 11:33:40.
