data_PCOD9071309
_publ_section_title
;
Structure prediction by ZEFSAII (Michael W. Deem and Ramdas Pophale) SiO2 
 PCOD9071309
Probable space group: P -1
;
_chemical_formula_sum "Si O2"
_cell_formula_units_Z 13
_cell_length_a 9.620181
_cell_length_b 12.518530
_cell_length_c 9.293238
_cell_angle_alpha 39.190628
_cell_angle_beta 48.369203
_cell_angle_gamma 49.388943
_cell_volume 506.204412
_symmetry_space_group_name_H-M "P -1"
_symmetry_group_IT_number 2
_symmetry_cell_setting 'triclinic'
loop_
_space_group_symop_operation_xyz
x,y,z
-x,-y,-z
loop_
_atom_site_type_symbol
_atom_site_label
_atom_site_fract_x
_atom_site_fract_y
_atom_site_fract_z
Si Si1 0.600024 0.791885 0.127089
Si Si2 0.610152 0.653300 0.585550
Si Si3 0.018953 0.811566 0.756357
Si Si4 0.920644 0.681884 0.565008
Si Si5 0.000000 0.500000 0.000000
Si Si6 0.255213 0.914470 0.713586
Si Si7 0.664656 0.288935 0.850681
O O1 0.623618 0.698364 0.361875
O O2 0.467685 0.730319 0.169677
O O3 0.816587 0.757428 0.947783
O O4 0.500000 0.000000 0.000000
O O5 0.805254 0.637017 0.556332
O O6 0.443277 0.811648 0.603053
O O7 0.564961 0.466790 0.820953
O O8 0.136736 0.646883 0.753131
O O9 0.088237 0.836979 0.842287
O O10 0.000000 0.000000 0.500000
O O11 0.934308 0.552463 0.823113
O O12 0.130300 0.693140 0.361547
O O13 0.801728 0.878908 0.490111
O O14 0.291340 0.872882 0.899600
#
# Coordination Sequence:
#
# PCOD9071309 Si02
#       7
#     2   2   2   2   1   2   2
#     4  12  27  47  76 111 157 206 258 323 395 473
#     4  12  27  48  77 118 161 201 267 324 401 466
#     4  12  26  48  75 111 157 204 262 316 395 460
#     4  12  26  50  79 114 161 210 263 324 394 472
#     4  12  28  44  82 110 156 200 270 312 394 458
#     4  12  26  47  80 115 160 204 263 325 394 468
#     4  12  27  49  77 117 159 207 264 323 397 473
#
# _framework density 25.681325000000001
#
# number of rings (size 3 to 8) (size 9 to 14) (size 15 to 20)
#    0.000    0.000    1.538    7.846    6.462    0.000 
#    0.000    0.000    0.000    0.000    0.000    0.000 
#    0.000    0.000    0.000    0.000    0.000    0.000 
#
# Total GULP energy -72797.192274 kJ/mol
# GULP energy per Si atom -5599.784021 kJ/mol
# Density = 2.562287 g / cm^3
# Si number density = 25.681325 Si / 1000 Ang^3
#
#
#
# Elastic Constant Matrix: (Units=GPa)
#
#
# Indices 1 2 3 4 5 6 
#
# 1 244.0969 49.3591 69.0152 5.3692 12.5399 35.8544
# 2 49.3591 96.4321 27.3303 -15.9635 3.5391 -0.7564
# 3 69.0152 27.3303 133.1099 -7.0426 35.0140 5.7017
# 4 5.3692 -15.9635 -7.0426 57.4371 6.4303 -4.8809
# 5 12.5399 3.5391 35.0140 6.4303 51.4333 -0.9757
# 6 35.8544 -0.7564 5.7017 -4.8809 -0.9757 50.0047
#
#
#
# Elastic Compliance Matrix: (Units=1/GPa)
#
#
# Indices 1 2 3 4 5 6 
#
# 1 0.006047 -0.002740 -0.002693 -0.002101 0.000729 -0.004261
# 2 -0.002740 0.012753 -0.001143 0.003872 0.000135 0.002668
# 3 -0.002693 -0.001143 0.011085 0.002146 -0.007065 0.000721
# 4 -0.002101 0.003872 0.002146 0.019619 -0.003608 0.003165
# 5 0.000729 0.000135 -0.007065 -0.003608 0.024524 0.000411
# 6 -0.004261 0.002668 0.000721 0.003165 0.000411 0.023328
#
#
# Mechanical properties :
#
#
# Convention : Reuss Voigt Hill
#
# Bulk Modulus (GPa) = 59.76173 85.00534 72.38353
# Shear Modulus (GPa) = 43.07174 53.63729 48.35452
#
# Velocity S-wave (km/s) = 4.09976 4.57505 4.34391
# Velocity P-wave (km/s) = 6.76252 7.81537 7.30793
#
# Compressibility (1/GPa) = 0.01673312
#
# Stress axis : x y z
#
# Youngs Moduli (GPa) = 165.37730 78.41149 90.21410
#
# Poissons Ratio (x) = 0.21483 0.24296
# Poissons Ratio (y) = 0.45309 0.10311
# Poissons Ratio (z) = 0.44538 0.08962
#
# Static dielectric constant tensor:
#      x y z
#    x 2.012150 0.015340 -0.013430 
#    y 0.015340 1.757610 -0.015420 
#    z -0.013430 -0.015420 1.998870 
# 
# From -- ./inp_files/183679.got.cif
#   From: 2010.05.17/outbox.cif.g08.bks.cpg/sg2_92_cif.got.tgz:183679.got - 2010.06.03 11:33:40.
