data_PCOD9071105
_publ_section_title
;
Structure prediction by ZEFSAII (Michael W. Deem and Ramdas Pophale) SiO2 
 PCOD9071105
Probable space group: P -1
;
_chemical_formula_sum "Si O2"
_cell_formula_units_Z 14
_cell_length_a 11.646391
_cell_length_b 9.182159
_cell_length_c 11.474584
_cell_angle_alpha 61.516236
_cell_angle_beta 141.409164
_cell_angle_gamma 129.356806
_cell_volume 591.366663
_symmetry_space_group_name_H-M "P -1"
_symmetry_group_IT_number 2
_symmetry_cell_setting 'triclinic'
loop_
_space_group_symop_operation_xyz
x,y,z
-x,-y,-z
loop_
_atom_site_type_symbol
_atom_site_label
_atom_site_fract_x
_atom_site_fract_y
_atom_site_fract_z
Si Si1 0.766597 0.085713 0.986566
Si Si2 0.860275 0.545662 0.456746
Si Si3 0.501069 0.800476 0.564510
Si Si4 0.064388 0.184944 0.404928
Si Si5 0.712488 0.688565 0.083856
Si Si6 0.452596 0.688591 0.300018
Si Si7 0.156799 0.306774 0.069393
O O1 0.931748 0.135411 0.202226
O O2 0.916621 0.207729 0.953882
O O3 0.676158 0.867220 0.973349
O O4 0.592876 0.148492 0.849279
O O5 0.657392 0.356971 0.410739
O O6 0.976507 0.662458 0.617499
O O7 0.817661 0.690760 0.289522
O O8 0.000000 0.500000 0.500000
O O9 0.436421 0.709998 0.418290
O O10 0.731285 0.820748 0.761983
O O11 0.500000 0.000000 0.500000
O O12 0.313797 0.276776 0.548690
O O13 0.000000 0.000000 0.500000
O O14 0.500000 0.500000 0.000000
O O15 0.824694 0.669047 0.064333
O O16 0.288800 0.497061 0.177783
#
# Coordination Sequence:
#
# PCOD9071105 Si02
#       7
#     2   2   2   2   2   2   2
#     4  12  28  47  82 113 147 204 256 309 381 456
#     4  12  29  47  74 110 156 198 247 316 384 445
#     4  12  26  47  77 109 151 203 250 310 378 447
#     4  12  26  51  76 114 154 196 255 315 379 450
#     4  12  26  49  70 112 154 197 250 312 380 448
#     4  12  27  50  81 111 152 200 259 317 374 446
#     4  12  25  50  77 109 156 196 257 317 372 456
#
# _framework density 23.673977000000001
#
# number of rings (size 3 to 8) (size 9 to 14) (size 15 to 20)
#    0.000    0.000    5.714    3.000    8.000    0.571 
#    0.000    0.000    0.000    0.000    0.000    0.000 
#    0.000    0.000    0.000    0.000    0.000    0.000 
#
# Total GULP energy -78419.503369 kJ/mol
# GULP energy per Si atom -5601.393098 kJ/mol
# Density = 2.362009 g / cm^3
# Si number density = 23.673977 Si / 1000 Ang^3
#
#
#
# Elastic Constant Matrix: (Units=GPa)
#
#
# Indices 1 2 3 4 5 6 
#
# 1 111.7514 53.5170 16.9512 -1.0991 -12.2641 -13.9914
# 2 53.5170 126.9150 30.2390 1.4700 -17.3403 -30.5055
# 3 16.9512 30.2390 52.7524 -3.4171 -2.3741 2.4219
# 4 -1.0991 1.4700 -3.4171 34.2207 -4.3893 -2.5427
# 5 -12.2641 -17.3403 -2.3741 -4.3893 36.7824 -8.3897
# 6 -13.9914 -30.5055 2.4219 -2.5427 -8.3897 34.7683
#
#
#
# Elastic Compliance Matrix: (Units=1/GPa)
#
#
# Indices 1 2 3 4 5 6 
#
# 1 0.011484 -0.003545 -0.001587 0.000882 0.002693 0.002336
# 2 -0.003545 0.016713 -0.008691 0.000788 0.009948 0.016301
# 3 -0.001587 -0.008691 0.024801 0.001269 -0.005431 -0.011209
# 4 0.000882 0.000788 0.001269 0.030368 0.005393 0.004480
# 5 0.002693 0.009948 -0.005431 0.005393 0.037549 0.019645
# 6 0.002336 0.016301 -0.011209 0.004480 0.019645 0.049853
#
#
# Mechanical properties :
#
#
# Convention : Reuss Voigt Hill
#
# Bulk Modulus (GPa) = 39.44517 54.75926 47.10221
# Shear Modulus (GPa) = 24.17063 33.86838 29.01950
#
# Velocity S-wave (km/s) = 3.19874 3.78645 3.50494
# Velocity P-wave (km/s) = 5.50823 6.50362 6.02651
#
# Compressibility (1/GPa) = 0.02535165
#
# Stress axis : x y z
#
# Youngs Moduli (GPa) = 87.08142 59.83358 40.32153
#
# Poissons Ratio (x) = 0.21212 0.06398
# Poissons Ratio (y) = 0.30871 0.35043
# Poissons Ratio (z) = 0.13818 0.52000
#
# Static dielectric constant tensor:
#      x y z
#    x 1.878210 -0.004230 -0.003350 
#    y -0.004230 1.890010 -0.003810 
#    z -0.003350 -0.003810 1.754890 
# 
# From -- ./inp_files/189947.got.cif
#   From: 2010.05.17/outbox.cif.g08.bks.cpg/sg2_95_cif.got.tgz:189947.got - 2010.06.03 11:33:40.
