data_PCOD9071164
_publ_section_title
;
Structure prediction by ZEFSAII (Michael W. Deem and Ramdas Pophale) SiO2 
 PCOD9071164
Probable space group: P -1
;
_chemical_formula_sum "Si O2"
_cell_formula_units_Z 12
_cell_length_a 10.145985
_cell_length_b 9.253152
_cell_length_c 21.776813
_cell_angle_alpha 37.862329
_cell_angle_beta 156.125098
_cell_angle_gamma 139.036597
_cell_volume 503.321905
_symmetry_space_group_name_H-M "P -1"
_symmetry_group_IT_number 2
_symmetry_cell_setting 'triclinic'
loop_
_space_group_symop_operation_xyz
x,y,z
-x,-y,-z
loop_
_atom_site_type_symbol
_atom_site_label
_atom_site_fract_x
_atom_site_fract_y
_atom_site_fract_z
Si Si1 0.178402 0.462493 0.831120
Si Si2 0.358395 0.518788 0.176376
Si Si3 0.341648 0.934439 0.586594
Si Si4 0.787898 0.677502 0.687513
Si Si5 0.374912 0.991178 0.712206
Si Si6 0.485222 0.045807 0.081815
O O1 0.870108 0.486256 0.735789
O O2 0.232094 0.711037 0.735296
O O3 0.500000 0.500000 0.000000
O O4 0.230793 0.228032 0.894538
O O5 0.538958 0.315548 0.291402
O O6 0.484683 0.797649 0.131138
O O7 0.357328 0.449559 0.271158
O O8 0.000000 0.500000 0.000000
O O9 0.496484 0.053813 0.675031
O O10 0.399321 0.125221 0.491564
O O11 0.947689 0.897516 0.442087
O O12 0.147228 0.816063 0.811781
O O13 0.594779 0.007775 0.861350
#
# Coordination Sequence:
#
# PCOD9071164 Si02
#       6
#     2   2   2   2   2   2
#     4   7  14  31  60  83 109 142 191 235 280 332
#     4  12  26  36  56  91 122 154 190 239 292 347
#     4   9  19  38  61  85 121 147 194 241 287 343
#     4   9  20  40  61  83 117 156 188 245 288 333
#     4   8  16  36  68  85 105 158 197 239 282 340
#     4   9  20  38  62  85 116 155 193 236 293 339
#
# _framework density 23.841598999999999
#
# number of rings (size 3 to 8) (size 9 to 14) (size 15 to 20)
#    0.000    3.667    0.000    0.500    7.000    4.000 
#    0.000    0.833    7.333    0.000    0.000    0.000 
#    0.000    0.000    0.000    0.000    0.000    0.000 
#
# Total GULP energy -66917.746069 kJ/mol
# GULP energy per Si atom -5576.478839 kJ/mol
# Density = 2.378733 g / cm^3
# Si number density = 23.841599 Si / 1000 Ang^3
#
#
#
# Elastic Constant Matrix: (Units=GPa)
#
#
# Indices 1 2 3 4 5 6 
#
# 1 63.4913 14.7209 28.2627 -17.8152 8.5058 -14.4129
# 2 14.7209 101.0359 33.3040 -36.0326 27.6569 -15.4152
# 3 28.2627 33.3040 140.6327 -45.2170 36.9177 -21.8229
# 4 -17.8152 -36.0326 -45.2170 31.7466 -23.2176 10.9681
# 5 8.5058 27.6569 36.9177 -23.2176 31.7281 -5.5223
# 6 -14.4129 -15.4152 -21.8229 10.9681 -5.5223 15.3995
#
#
#
# Elastic Compliance Matrix: (Units=1/GPa)
#
#
# Indices 1 2 3 4 5 6 
#
# 1 0.021709 0.003007 0.001019 0.014007 0.003412 0.016019
# 2 0.003007 0.019176 0.005505 0.024583 -0.004050 0.010850
# 3 0.001019 0.005505 0.015661 0.020450 -0.006269 0.011845
# 4 0.014007 0.024583 0.020450 0.136428 0.048584 -0.013050
# 5 0.003412 -0.004050 -0.006269 0.048584 0.073871 -0.017857
# 6 0.016019 0.010850 0.011845 -0.013050 -0.017857 0.110468
#
#
# Mechanical properties :
#
#
# Convention : Reuss Voigt Hill
#
# Bulk Modulus (GPa) = 13.22620 50.85946 32.04283
# Shear Modulus (GPa) = 13.03939 31.03299 22.03619
#
# Velocity S-wave (km/s) = 2.34116 3.61173 3.04349
# Velocity P-wave (km/s) = 3.58715 6.22666 5.08129
#
# Compressibility (1/GPa) = 0.07560749
#
# Stress axis : x y z
#
# Youngs Moduli (GPa) = 46.06358 52.14947 63.85307
#
# Poissons Ratio (x) = -0.15679 -0.06506
# Poissons Ratio (y) = -0.13849 -0.35154
# Poissons Ratio (z) = -0.04693 -0.28711
#
# Static dielectric constant tensor:
#      x y z
#    x 1.986550 -0.004230 -0.022900 
#    y -0.004230 2.003160 -0.042490 
#    z -0.022900 -0.042490 1.960550 
# 
# From -- ./inp_files/467276.got.cif
#   From: 2010.05.17/outbox.cif.g08.bks.cpg/sg2_234_cif.got.tgz:467276.got - 2010.06.03 11:33:40.
