data_PCOD9071753
_publ_section_title
;
Structure prediction by ZEFSAII (Michael W. Deem and Ramdas Pophale) SiO2 
 PCOD9071753
Probable space group: P -1
;
_chemical_formula_sum "Si O2"
_cell_formula_units_Z 16
_cell_length_a 11.712547
_cell_length_b 12.393317
_cell_length_c 13.815696
_cell_angle_alpha 123.527433
_cell_angle_beta 129.246898
_cell_angle_gamma 96.961908
_cell_volume 886.169141
_symmetry_space_group_name_H-M "P -1"
_symmetry_group_IT_number 2
_symmetry_cell_setting 'triclinic'
loop_
_space_group_symop_operation_xyz
x,y,z
-x,-y,-z
loop_
_atom_site_type_symbol
_atom_site_label
_atom_site_fract_x
_atom_site_fract_y
_atom_site_fract_z
Si Si1 0.095188 0.785725 0.574942
Si Si2 0.060205 0.725063 0.733790
Si Si3 0.445648 0.793345 0.935044
Si Si4 0.642556 0.720788 0.688145
Si Si5 0.068636 0.035907 0.428627
Si Si6 0.371734 0.294932 0.871484
Si Si7 0.705730 0.334536 0.431312
Si Si8 0.022307 0.028265 0.175748
O O1 0.990237 0.654645 0.549166
O O2 0.165998 0.717534 0.506832
O O3 0.962975 0.829073 0.500695
O O4 0.322134 0.990445 0.832524
O O5 0.278611 0.785233 0.890026
O O6 0.885823 0.560332 0.632515
O O7 0.069290 0.884005 0.826369
O O8 0.386037 0.733547 0.761594
O O9 0.474548 0.685393 0.963235
O O10 0.500000 0.500000 0.500000
O O11 0.484988 0.738872 0.639842
O O12 0.770473 0.832989 0.713698
O O13 0.830201 0.826195 0.922116
O O14 0.281065 0.146043 0.661058
O O15 0.079855 0.025957 0.314851
O O16 0.851075 0.827833 0.247502
O O17 0.500000 0.500000 0.000000
#
# Coordination Sequence:
#
# PCOD9071753 Si02
#       8
#     2   2   2   2   2   2   2   2
#     4   9  17  30  49  71 105 136 163 206 259 317
#     4  10  18  29  49  77 104 138 164 203 266 314
#     4  10  19  31  48  78 106 138 167 203 263 310
#     4  11  21  34  49  80 105 139 178 202 257 309
#     4   9  20  37  50  79 105 137 173 206 263 303
#     4  10  21  31  52  76 107 137 173 210 250 311
#     4  11  19  29  50  77 110 136 166 206 255 317
#     4  10  21  36  55  72 112 138 166 220 250 310
#
# _framework density 18.055243000000001
#
# number of rings (size 3 to 8) (size 9 to 14) (size 15 to 20)
#    0.000    2.000    1.250    6.000    5.250    1.000 
#    0.000    0.000    0.000    0.000    0.000   24.500 
#    0.000    0.250    0.000    0.000    0.000    0.000 
#
# Total GULP energy -89160.806581 kJ/mol
# GULP energy per Si atom -5572.550411 kJ/mol
# Density = 1.801415 g / cm^3
# Si number density = 18.055243 Si / 1000 Ang^3
#
#
#
# Elastic Constant Matrix: (Units=GPa)
#
#
# Indices 1 2 3 4 5 6 
#
# 1 104.0188 26.3784 20.9516 3.7053 12.9619 19.4158
# 2 26.3784 68.7762 14.7961 5.4062 0.6628 13.7037
# 3 20.9516 14.7961 71.9613 8.0625 -1.6067 15.4910
# 4 3.7053 5.4062 8.0625 32.5597 2.5936 -0.2781
# 5 12.9619 0.6628 -1.6067 2.5936 27.5287 1.0680
# 6 19.4158 13.7037 15.4910 -0.2781 1.0680 29.4600
#
#
#
# Elastic Compliance Matrix: (Units=1/GPa)
#
#
# Indices 1 2 3 4 5 6 
#
# 1 0.012578 -0.003247 -0.001925 -0.000006 -0.005740 -0.005559
# 2 -0.003247 0.017275 -0.001152 -0.002377 0.001478 -0.005366
# 3 -0.001925 -0.001152 0.016733 -0.003998 0.002564 -0.007124
# 4 -0.000006 -0.002377 -0.003998 0.032397 -0.003367 0.003640
# 5 -0.005740 0.001478 0.002564 -0.003367 0.039449 0.000286
# 6 -0.005559 -0.005366 -0.007124 0.003640 0.000286 0.043874
#
#
# Mechanical properties :
#
#
# Convention : Reuss Voigt Hill
#
# Bulk Modulus (GPa) = 29.46626 41.00093 35.23359
# Shear Modulus (GPa) = 26.84327 30.08503 28.46415
#
# Velocity S-wave (km/s) = 3.86000 4.08643 3.97483
# Velocity P-wave (km/s) = 6.01844 6.70993 6.37357
#
# Compressibility (1/GPa) = 0.03393712
#
# Stress axis : x y z
#
# Youngs Moduli (GPa) = 79.50471 57.88790 59.76324
#
# Poissons Ratio (x) = 0.18793 0.11507
# Poissons Ratio (y) = 0.25811 0.06886
# Poissons Ratio (z) = 0.15308 0.06670
#
# Static dielectric constant tensor:
#      x y z
#    x 1.648560 -0.016110 0.002640 
#    y -0.016110 1.683690 0.005820 
#    z 0.002640 0.005820 1.674020 
# 
# From -- ./inp_files/453511.got.cif
#   From: 2010.05.17/outbox.cif.g08.bks.cpg/sg2_227_cif.got.tgz:453511.got - 2010.06.03 11:33:40.
