data_PCOD9071284
_publ_section_title
;
Structure prediction by ZEFSAII (Michael W. Deem and Ramdas Pophale) SiO2 
 PCOD9071284
Probable space group: P -1
;
_chemical_formula_sum "Si O2"
_cell_formula_units_Z 14
_cell_length_a 19.750747
_cell_length_b 8.719862
_cell_length_c 15.800638
_cell_angle_alpha 28.718048
_cell_angle_beta 155.465592
_cell_angle_gamma 144.382807
_cell_volume 541.390021
_symmetry_space_group_name_H-M "P -1"
_symmetry_group_IT_number 2
_symmetry_cell_setting 'triclinic'
loop_
_space_group_symop_operation_xyz
x,y,z
-x,-y,-z
loop_
_atom_site_type_symbol
_atom_site_label
_atom_site_fract_x
_atom_site_fract_y
_atom_site_fract_z
Si Si1 0.119971 0.724728 0.891212
Si Si2 0.581775 0.173672 0.261410
Si Si3 0.921093 0.520624 0.493567
Si Si4 0.378573 0.645482 0.359632
Si Si5 0.239196 0.599089 0.405567
Si Si6 0.492772 0.740453 0.045666
Si Si7 0.780293 0.645526 0.975836
O O1 0.227124 0.573652 0.011284
O O2 0.936955 0.575227 0.735102
O O3 0.118599 0.111392 0.710380
O O4 0.204163 0.626213 0.122321
O O5 0.770664 0.252393 0.452747
O O6 0.473596 0.994089 0.295848
O O7 0.500000 0.500000 0.000000
O O8 0.552476 0.066131 0.183292
O O9 0.000000 0.500000 0.500000
O O10 0.046992 0.417355 0.756050
O O11 0.500000 0.500000 0.500000
O O12 0.348024 0.570754 0.458309
O O13 0.335142 0.422744 0.673469
O O14 0.228243 0.975163 0.230882
O O15 0.350187 0.483586 0.039623
O O16 0.500000 0.000000 0.000000
#
# Coordination Sequence:
#
# PCOD9071284 Si02
#       7
#     2   2   2   2   2   2   2
#     4  12  27  48  74 112 150 202 256 311 381 452
#     4  12  26  47  77 109 148 199 253 308 375 451
#     4  12  26  48  77 109 153 199 257 312 378 452
#     4  12  27  48  76 111 153 198 251 311 384 452
#     4  12  28  50  77 111 159 198 250 320 378 451
#     4  12  26  49  78 110 153 200 253 308 378 454
#     4  12  26  48  74 113 152 199 254 317 380 445
#
# _framework density 25.859359999999999
#
# number of rings (size 3 to 8) (size 9 to 14) (size 15 to 20)
#    0.000    0.000    2.857    6.857    6.000    1.143 
#    0.000    0.000    0.000    0.000    0.000    0.000 
#    0.000    0.000    0.000    0.000    0.000    0.000 
#
# Total GULP energy -78403.722854 kJ/mol
# GULP energy per Si atom -5600.265918 kJ/mol
# Density = 2.580050 g / cm^3
# Si number density = 25.859360 Si / 1000 Ang^3
#
#
#
# Elastic Constant Matrix: (Units=GPa)
#
#
# Indices 1 2 3 4 5 6 
#
# 1 166.7125 50.8197 11.0474 0.1909 -5.7547 -8.8380
# 2 50.8197 124.5201 32.0369 4.0922 8.7447 -11.1822
# 3 11.0474 32.0369 111.0945 17.3801 -6.8684 -11.8254
# 4 0.1909 4.0922 17.3801 66.0219 -9.9660 19.3057
# 5 -5.7547 8.7447 -6.8684 -9.9660 38.5151 3.5136
# 6 -8.8380 -11.1822 -11.8254 19.3057 3.5136 61.9723
#
#
#
# Elastic Compliance Matrix: (Units=1/GPa)
#
#
# Indices 1 2 3 4 5 6 
#
# 1 0.006983 -0.003032 0.000283 0.000277 0.001825 0.000313
# 2 -0.003032 0.010354 -0.002615 -0.000911 -0.003636 0.001427
# 3 0.000283 -0.002615 0.010571 -0.003120 0.001488 0.002473
# 4 0.000277 -0.000911 -0.003120 0.018817 0.005188 -0.006876
# 5 0.001825 -0.003636 0.001488 0.005188 0.028977 -0.003371
# 6 0.000313 0.001427 0.002473 -0.006876 -0.003371 0.019243
#
#
# Mechanical properties :
#
#
# Convention : Reuss Voigt Hill
#
# Bulk Modulus (GPa) = 58.20751 65.57058 61.88905
# Shear Modulus (GPa) = 44.88274 53.86341 49.37307
#
# Velocity S-wave (km/s) = 4.17063 4.56887 4.37429
# Velocity P-wave (km/s) = 6.76390 7.29688 7.03544
#
# Compressibility (1/GPa) = 0.01717991
#
# Stress axis : x y z
#
# Youngs Moduli (GPa) = 143.20211 96.57708 94.60147
#
# Poissons Ratio (x) = 0.29282 -0.02674
# Poissons Ratio (y) = 0.43418 0.24737
# Poissons Ratio (z) = -0.04048 0.25254
#
# Static dielectric constant tensor:
#      x y z
#    x 1.044340 0.727710 0.340050 
#    y 0.727710 1.496670 -0.319290 
#    z 0.340050 -0.319290 1.946530 
# 
# From -- ./inp_files/579037.got.cif
#   From: 2010.05.17/outbox.cif.g08.bks.cpg/sg2_290_cif.got.tgz:579037.got - 2010.06.03 11:33:40.
