data_PCOD9071844
_publ_section_title
;
Structure prediction by ZEFSAII (Michael W. Deem and Ramdas Pophale) SiO2 
 PCOD9071844
Probable space group: P -1
;
_chemical_formula_sum "Si O2"
_cell_formula_units_Z 16
_cell_length_a 14.625271
_cell_length_b 15.104402
_cell_length_c 8.007152
_cell_angle_alpha 37.180920
_cell_angle_beta 139.015627
_cell_angle_gamma 147.490110
_cell_volume 555.430561
_symmetry_space_group_name_H-M "P -1"
_symmetry_group_IT_number 2
_symmetry_cell_setting 'triclinic'
loop_
_space_group_symop_operation_xyz
x,y,z
-x,-y,-z
loop_
_atom_site_type_symbol
_atom_site_label
_atom_site_fract_x
_atom_site_fract_y
_atom_site_fract_z
Si Si1 0.898643 0.855447 0.429822
Si Si2 0.266571 0.285768 0.127005
Si Si3 0.924260 0.235119 0.408273
Si Si4 0.724094 0.340413 0.779418
Si Si5 0.559579 0.701989 0.322310
Si Si6 0.496032 0.269869 0.248787
Si Si7 0.259369 0.766663 0.529506
Si Si8 0.033590 0.327343 0.935366
O O1 0.710978 0.815346 0.218693
O O2 0.008874 0.881348 0.381339
O O3 0.892192 0.693148 0.761168
O O4 0.000000 0.000000 0.500000
O O5 0.326077 0.232279 0.450029
O O6 0.311512 0.219409 0.128222
O O7 0.396009 0.511308 0.970278
O O8 0.084996 0.247674 0.976541
O O9 0.793239 0.165464 0.489788
O O10 0.107931 0.447335 0.356648
O O11 0.810479 0.241999 0.096151
O O12 0.607735 0.312695 0.824571
O O13 0.589918 0.267353 0.550456
O O14 0.500000 0.500000 0.500000
O O15 0.549579 0.181835 0.318544
O O16 0.138101 0.544796 0.729372
O O17 0.171231 0.775891 0.225929
#
# Coordination Sequence:
#
# PCOD9071844 Si02
#       8
#     2   2   2   2   2   2   2   2
#     4  11  23  39  56  78 115 154 182 218 278 344
#     4   8  16  26  46  71 109 140 167 210 271 332
#     4  11  20  31  51  83 111 141 183 230 279 319
#     4  10  19  31  54  83 111 138 179 240 278 314
#     4  10  19  34  54  83 109 139 185 237 273 311
#     4   9  16  28  43  76 112 140 163 215 288 321
#     4  10  18  29  54  82 111 136 180 236 276 312
#     4   9  17  33  52  79 109 141 179 225 276 324
#
# _framework density 28.806481999999999
#
# number of rings (size 3 to 8) (size 9 to 14) (size 15 to 20)
#    0.000    2.250    1.250    4.500    3.500    0.000 
#    0.000    1.250    0.000    0.000    0.000    8.750 
#    0.000    0.000    0.000    0.000    0.000    0.000 
#
# Total GULP energy -89413.644327 kJ/mol
# GULP energy per Si atom -5588.352770 kJ/mol
# Density = 2.874092 g / cm^3
# Si number density = 28.806482 Si / 1000 Ang^3
#
#
#
# Elastic Constant Matrix: (Units=GPa)
#
#
# Indices 1 2 3 4 5 6 
#
# 1 295.6579 32.7216 35.6111 0.6364 55.0978 -2.8082
# 2 32.7216 52.2045 8.3125 -11.4881 15.0920 -7.7575
# 3 35.6111 8.3125 97.7897 20.3215 20.9535 6.8093
# 4 0.6364 -11.4881 20.3215 33.7898 -1.8626 11.0263
# 5 55.0978 15.0920 20.9535 -1.8626 68.6889 5.0684
# 6 -2.8082 -7.7575 6.8093 11.0263 5.0684 45.6566
#
#
#
# Elastic Compliance Matrix: (Units=1/GPa)
#
#
# Indices 1 2 3 4 5 6 
#
# 1 0.004191 -0.001754 -0.000687 -0.000587 -0.002821 0.000517
# 2 -0.001754 0.023867 -0.002770 0.008816 -0.002941 0.002558
# 3 -0.000687 -0.002770 0.013272 -0.009101 -0.003140 0.000054
# 4 -0.000587 0.008816 -0.009101 0.040628 0.002952 -0.007320
# 5 -0.002821 -0.002941 -0.003140 0.002952 0.018726 -0.002997
# 6 0.000517 0.002558 0.000054 -0.007320 -0.002997 0.024461
#
#
# Mechanical properties :
#
#
# Convention : Reuss Voigt Hill
#
# Bulk Modulus (GPa) = 32.35445 66.54917 49.45181
# Shear Modulus (GPa) = 34.27704 54.22754 44.25229
#
# Velocity S-wave (km/s) = 3.45325 4.34346 3.92368
# Velocity P-wave (km/s) = 5.21113 6.95029 6.14257
#
# Compressibility (1/GPa) = 0.03090765
#
# Stress axis : x y z
#
# Youngs Moduli (GPa) = 238.60522 41.89952 75.34695
#
# Poissons Ratio (x) = 0.07351 0.05174
# Poissons Ratio (y) = 0.41859 0.20870
# Poissons Ratio (z) = 0.16386 0.11606
#
# Static dielectric constant tensor:
#      x y z
#    x 2.379330 0.052200 -0.140480 
#    y 0.052200 2.324850 -0.109480 
#    z -0.140480 -0.109480 2.408510 
# 
# From -- ./inp_files/312588.got.cif
#   From: 2010.05.17/outbox.cif.g08.bks.cpg/sg2_157_cif.got.tgz:312588.got - 2010.06.03 11:33:40.
