data_PCOD9071920
_publ_section_title
;
Structure prediction by ZEFSAII (Michael W. Deem and Ramdas Pophale) SiO2 
 PCOD9071920
Probable space group: P -1
;
_chemical_formula_sum "Si O2"
_cell_formula_units_Z 16
_cell_length_a 9.000000
_cell_length_b 9.000000
_cell_length_c 12.000000
_cell_angle_alpha 70.000000
_cell_angle_beta 110.000000
_cell_angle_gamma 110.000000
_cell_volume 829.956063
_symmetry_space_group_name_H-M "P -1"
_symmetry_group_IT_number 2
_symmetry_cell_setting 'triclinic'
loop_
_space_group_symop_operation_xyz
x,y,z
-x,-y,-z
loop_
_atom_site_type_symbol
_atom_site_label
_atom_site_fract_x
_atom_site_fract_y
_atom_site_fract_z
Si Si1 0.223652 0.561214 0.470927
Si Si2 0.952849 0.765411 0.363788
Si Si3 0.142632 0.772672 0.054451
Si Si4 0.675324 0.893235 0.863645
Si Si5 0.038150 0.131341 0.225838
Si Si6 0.732877 0.521980 0.748178
Si Si7 0.210106 0.335136 0.880681
Si Si8 0.574866 0.361507 0.266507
O O1 0.135832 0.370699 0.531854
O O2 0.297558 0.545575 0.370239
O O3 0.330302 0.633286 0.590989
O O4 0.103812 0.683822 0.393853
O O5 0.834957 0.743171 0.232094
O O6 0.995587 0.965358 0.335175
O O7 0.215619 0.615141 0.127398
O O8 0.965058 0.708008 0.088033
O O9 0.267937 0.928452 0.107411
O O10 0.099777 0.832962 0.904647
O O11 0.823462 0.901739 0.813255
O O12 0.510199 0.814019 0.769376
O O13 0.682367 0.756838 0.994187
O O14 0.124086 0.306243 0.260744
O O15 0.575979 0.562907 0.755579
O O16 0.305472 0.520779 0.822961
#
# Coordination Sequence:
#
# PCOD9071920 Si02
#       8
#     2   2   2   2   2   2   2   2
#     4  10  21  37  59  81 119 154 194 234 281 340
#     4  10  18  36  63  88 105 147 205 244 271 329
#     4  11  19  36  65  86 115 147 199 237 285 336
#     4  10  18  34  60  88 111 151 189 239 283 342
#     4  10  19  34  58  91 113 145 193 246 286 334
#     4  11  22  37  55  86 121 156 184 234 299 341
#     4  10  17  35  63  84 110 147 194 244 279 328
#     4  10  23  36  56  85 123 153 187 230 296 342
#
# _framework density 19.278129
#
# number of rings (size 3 to 8) (size 9 to 14) (size 15 to 20)
#    0.000    1.750    3.750    1.875    0.000    0.500 
#    0.000    7.500    5.500    0.000    0.000    0.000 
#    0.000    0.000    0.000    0.000    0.000    0.000 
#
# Total GULP energy -89089.187309 kJ/mol
# GULP energy per Si atom -5568.074207 kJ/mol
# Density = 1.923425 g / cm^3
# Si number density = 19.278129 Si / 1000 Ang^3
#
#
#
# Elastic Constant Matrix: (Units=GPa)
#
#
# Indices 1 2 3 4 5 6 
#
# 1 27.1013 14.4271 8.6007 -1.3134 -1.6733 9.3177
# 2 14.4271 127.2297 36.4296 -1.0497 23.1838 15.0373
# 3 8.6007 36.4296 99.2127 -8.1369 8.0046 3.4196
# 4 -1.3134 -1.0497 -8.1369 40.5387 3.9727 3.6262
# 5 -1.6733 23.1838 8.0046 3.9727 21.0254 0.5286
# 6 9.3177 15.0373 3.4196 3.6262 0.5286 26.9667
#
#
#
# Elastic Compliance Matrix: (Units=1/GPa)
#
#
# Indices 1 2 3 4 5 6 
#
# 1 0.045321 -0.004667 -0.002470 0.001059 0.009822 -0.013079
# 2 -0.004667 0.012059 -0.002727 0.001283 -0.012754 -0.004688
# 3 -0.002470 -0.002727 0.011632 0.002331 -0.002074 0.000626
# 4 0.001059 0.001283 0.002331 0.026324 -0.007072 -0.004778
# 5 0.009822 -0.012754 -0.002074 -0.007072 0.064440 0.003669
# 6 -0.013079 -0.004688 0.000626 -0.004778 0.003669 0.044707
#
#
# Mechanical properties :
#
#
# Convention : Reuss Voigt Hill
#
# Bulk Modulus (GPa) = 20.29104 41.38426 30.83765
# Shear Modulus (GPa) = 20.77792 30.64523 25.71158
#
# Velocity S-wave (km/s) = 3.28654 3.99135 3.65597
# Velocity P-wave (km/s) = 4.99501 6.53871 5.81828
#
# Compressibility (1/GPa) = 0.04928284
#
# Stress axis : x y z
#
# Youngs Moduli (GPa) = 22.06464 82.92732 85.97081
#
# Poissons Ratio (x) = 0.38704 0.21235
# Poissons Ratio (y) = 0.10298 0.23447
# Poissons Ratio (z) = 0.05450 0.22617
#
# Static dielectric constant tensor:
#      x y z
#    x 1.701350 0.028800 0.006940 
#    y 0.028800 1.713730 0.015750 
#    z 0.006940 0.015750 1.683520 
# 
# From -- ./inp_files/285027.got.cif
#   From: 2010.05.17/outbox.ucp.g08.bks.cvg/sg2_143_cif.got.tgz:285027.got - 2010.06.11 11:32:03.
