data_PCOD9071355
_publ_section_title
;
Structure prediction by ZEFSAII (Michael W. Deem and Ramdas Pophale) SiO2 
 PCOD9071355
Probable space group: P -1
;
_chemical_formula_sum "Si O2"
_cell_formula_units_Z 12
_cell_length_a 8.121278
_cell_length_b 11.485559
_cell_length_c 6.448076
_cell_angle_alpha 90.360729
_cell_angle_beta 89.468775
_cell_angle_gamma 57.099327
_cell_volume 504.926120
_symmetry_space_group_name_H-M "P -1"
_symmetry_group_IT_number 2
_symmetry_cell_setting 'triclinic'
loop_
_space_group_symop_operation_xyz
x,y,z
-x,-y,-z
loop_
_atom_site_type_symbol
_atom_site_label
_atom_site_fract_x
_atom_site_fract_y
_atom_site_fract_z
Si Si1 0.202010 0.863927 0.080772
Si Si2 0.539029 0.720971 0.771469
Si Si3 0.183372 0.364392 0.890279
Si Si4 0.000224 0.767645 0.385445
Si Si5 0.691850 0.501828 0.448114
Si Si6 0.648362 0.045492 0.560007
O O1 0.318433 0.918299 0.210353
O O2 0.144710 0.781683 0.233163
O O3 0.350926 0.755035 0.907958
O O4 0.000000 0.000000 0.000000
O O5 0.694335 0.575354 0.661046
O O6 0.435791 0.820457 0.579862
O O7 0.675100 0.737890 0.931306
O O8 0.297158 0.417094 0.748142
O O9 0.117630 0.284381 0.742875
O O10 0.000000 0.500000 0.000000
O O11 0.121642 0.653829 0.557633
O O12 0.500000 0.000000 0.500000
O O13 0.857235 0.918429 0.482041
O O14 0.500000 0.500000 0.500000
#
# Coordination Sequence:
#
# PCOD9071355 Si02
#       6
#     2   2   2   2   2   2
#     4  12  28  48  76 116 150 199 259 310 382 455
#     4  12  26  50  74 106 158 194 256 314 380 460
#     4  12  28  48  76 116 150 199 259 310 382 455
#     4  12  26  48  78 110 154 194 254 326 376 450
#     4  12  28  48  76 110 153 202 253 318 383 448
#     4  12  28  48  76 110 153 202 253 318 383 448
#
# _framework density 23.765854999999998
#
# number of rings (size 3 to 8) (size 9 to 14) (size 15 to 20)
#    0.000    0.000    3.333    6.000    9.333    2.667 
#    0.000    0.000    0.000    0.000    0.000    0.000 
#    0.000    0.000    0.000    0.000    0.000    0.000 
#
# Total GULP energy -67121.413436 kJ/mol
# GULP energy per Si atom -5593.451120 kJ/mol
# Density = 2.371176 g / cm^3
# Si number density = 23.765855 Si / 1000 Ang^3
#
#
#
# Elastic Constant Matrix: (Units=GPa)
#
#
# Indices 1 2 3 4 5 6 
#
# 1 84.8967 -7.9537 28.7485 -2.3846 9.6029 2.1171
# 2 -7.9537 101.5455 21.7777 -3.1204 6.0424 -21.0732
# 3 28.7485 21.7777 82.3569 5.2399 7.4804 -8.3900
# 4 -2.3846 -3.1204 5.2399 38.9994 -21.1322 -1.1841
# 5 9.6029 6.0424 7.4804 -21.1322 46.2572 -2.3976
# 6 2.1171 -21.0732 -8.3900 -1.1841 -2.3976 32.2105
#
#
#
# Elastic Compliance Matrix: (Units=1/GPa)
#
#
# Indices 1 2 3 4 5 6 
#
# 1 0.014118 0.002205 -0.005463 0.000594 -0.002118 -0.001044
# 2 0.002205 0.012274 -0.003355 0.001536 -0.000452 0.007034
# 3 -0.005463 -0.003355 0.015641 -0.004137 -0.002749 0.001881
# 4 0.000594 0.001536 -0.004137 0.035465 0.016673 0.002433
# 5 -0.002118 -0.000452 -0.002749 0.016673 0.030282 0.001994
# 6 -0.001044 0.007034 0.001881 0.002433 0.001994 0.036444
#
#
# Mechanical properties :
#
#
# Convention : Reuss Voigt Hill
#
# Bulk Modulus (GPa) = 34.71500 39.32714 37.02107
# Shear Modulus (GPa) = 29.93074 38.57518 34.25296
#
# Velocity S-wave (km/s) = 3.55265 4.03319 3.80052
# Velocity P-wave (km/s) = 5.60957 6.18647 5.90507
#
# Compressibility (1/GPa) = 0.02880599
#
# Stress axis : x y z
#
# Youngs Moduli (GPa) = 70.83233 81.47331 63.93417
#
# Poissons Ratio (x) = -0.17965 0.34927
# Poissons Ratio (y) = -0.15619 0.21453
# Poissons Ratio (z) = 0.38696 0.27338
#
# Static dielectric constant tensor:
#      x y z
#    x 2.031100 0.022820 0.061990 
#    y 0.022820 1.970480 -0.036290 
#    z 0.061990 -0.036290 1.964020 
# 
# From -- ./inp_files/37878.got.cif
#   From: 2010.05.17/outbox.cif.g08.bks.cpg/sg2_19_cif.got.tgz:37878.got - 2010.06.03 11:33:40.
