data_PCOD9071141
_publ_section_title
;
Structure prediction by ZEFSAII (Michael W. Deem and Ramdas Pophale) SiO2 
 PCOD9071141
Probable space group: P -1
;
_chemical_formula_sum "Si O2"
_cell_formula_units_Z 13
_cell_length_a 10.327464
_cell_length_b 8.940936
_cell_length_c 9.833900
_cell_angle_alpha 111.194251
_cell_angle_beta 140.257062
_cell_angle_gamma 55.289843
_cell_volume 472.176997
_symmetry_space_group_name_H-M "P -1"
_symmetry_group_IT_number 2
_symmetry_cell_setting 'triclinic'
loop_
_space_group_symop_operation_xyz
x,y,z
-x,-y,-z
loop_
_atom_site_type_symbol
_atom_site_label
_atom_site_fract_x
_atom_site_fract_y
_atom_site_fract_z
Si Si1 0.720756 0.202992 0.616266
Si Si2 0.301498 0.198121 0.120874
Si Si3 0.500000 0.500000 0.000000
Si Si4 0.352588 0.506270 0.131203
Si Si5 0.903713 0.880330 0.306458
Si Si6 0.915376 0.817219 0.777571
Si Si7 0.231764 0.307059 0.628073
O O1 0.538251 0.168342 0.372697
O O2 0.614589 0.372626 0.689637
O O3 0.873882 0.246979 0.650061
O O4 0.875653 0.014603 0.763973
O O5 0.236671 0.390099 0.055521
O O6 0.147756 0.199018 0.124062
O O7 0.289984 0.066009 0.952523
O O8 0.571423 0.392305 0.176200
O O9 0.564944 0.653532 0.160268
O O10 0.180429 0.646800 0.918559
O O11 0.818700 0.800103 0.330716
O O12 0.000000 0.000000 0.500000
O O13 0.748207 0.782524 0.532045
O O14 0.000000 0.500000 0.500000
#
# Coordination Sequence:
#
# PCOD9071141 Si02
#       7
#     2   2   1   2   2   2   2
#     4  12  28  48  79 115 157 203 257 320 393 461
#     4  12  27  49  78 113 152 208 263 315 379 468
#     4  12  26  46  74 114 150 194 262 316 380 444
#     4  12  26  48  81 113 151 206 260 323 381 461
#     4  12  27  50  74 113 159 203 254 318 389 455
#     4  12  25  51  78 112 158 200 258 319 394 454
#     4  12  26  47  75 113 152 204 252 322 376 459
#
# _framework density 27.532050000000002
#
# number of rings (size 3 to 8) (size 9 to 14) (size 15 to 20)
#    0.000    0.000    6.154    2.769    4.308    0.615 
#    2.769    0.000    0.000    0.000    0.000    0.000 
#    0.000    0.000    0.000    0.000    0.000    0.000 
#
# Total GULP energy -72622.995246 kJ/mol
# GULP energy per Si atom -5586.384250 kJ/mol
# Density = 2.746939 g / cm^3
# Si number density = 27.532050 Si / 1000 Ang^3
#
#
#
# Elastic Constant Matrix: (Units=GPa)
#
#
# Indices 1 2 3 4 5 6 
#
# 1 119.4120 46.1246 67.8873 17.3359 -26.8018 44.0221
# 2 46.1246 128.4990 83.8825 23.3258 -2.9935 32.0261
# 3 67.8873 83.8825 219.5478 46.2460 -26.2241 21.4271
# 4 17.3359 23.3258 46.2460 56.8516 -6.1230 5.5627
# 5 -26.8018 -2.9935 -26.2241 -6.1230 64.8307 8.3153
# 6 44.0221 32.0261 21.4271 5.5627 8.3153 53.3062
#
#
#
# Elastic Compliance Matrix: (Units=1/GPa)
#
#
# Indices 1 2 3 4 5 6 
#
# 1 0.016963 -0.000691 -0.002608 -0.000609 0.007622 -0.013670
# 2 -0.000691 0.011832 -0.003653 -0.001278 -0.000719 -0.004824
# 3 -0.002608 -0.003653 0.007577 -0.003882 0.001258 0.001512
# 4 -0.000609 -0.001278 -0.003882 0.021407 0.000065 0.000587
# 5 0.007622 -0.000719 0.001258 0.000065 0.020281 -0.009538
# 6 -0.013670 -0.004824 0.001512 0.000587 -0.009538 0.033766
#
#
# Mechanical properties :
#
#
# Convention : Reuss Voigt Hill
#
# Bulk Modulus (GPa) = 44.50756 95.91641 70.21199
# Shear Modulus (GPa) = 37.53165 52.96865 45.25015
#
# Velocity S-wave (km/s) = 3.69616 4.39098 4.05846
# Velocity P-wave (km/s) = 5.86654 7.78597 6.89339
#
# Compressibility (1/GPa) = 0.02246809
#
# Stress axis : x y z
#
# Youngs Moduli (GPa) = 58.95248 84.51350 131.97011
#
# Poissons Ratio (x) = 0.05839 0.34423
# Poissons Ratio (y) = 0.04073 0.48209
# Poissons Ratio (z) = 0.15377 0.30873
#
# Static dielectric constant tensor:
#      x y z
#    x 1.540230 0.081340 -0.014520 
#    y 0.081340 2.117700 -0.087770 
#    z -0.014520 -0.087770 2.186020 
# 
# From -- ./inp_files/240069.got.cif
#   From: 2010.05.17/outbox.cif.g08.bks.cpg/sg2_121_cif.got.tgz:240069.got - 2010.06.03 11:33:40.
