data_PCOD9071229
_publ_section_title
;
Structure prediction by ZEFSAII (Michael W. Deem and Ramdas Pophale) SiO2 
 PCOD9071229
Probable space group: P -1
;
_chemical_formula_sum "Si O2"
_cell_formula_units_Z 12
_cell_length_a 20.776402
_cell_length_b 8.403542
_cell_length_c 9.808686
_cell_angle_alpha 31.102786
_cell_angle_beta 40.479480
_cell_angle_gamma 42.086134
_cell_volume 552.825072
_symmetry_space_group_name_H-M "P -1"
_symmetry_group_IT_number 2
_symmetry_cell_setting 'triclinic'
loop_
_space_group_symop_operation_xyz
x,y,z
-x,-y,-z
loop_
_atom_site_type_symbol
_atom_site_label
_atom_site_fract_x
_atom_site_fract_y
_atom_site_fract_z
Si Si1 0.888575 0.152483 0.996983
Si Si2 0.769071 0.154707 0.706845
Si Si3 0.462093 0.879326 0.284367
Si Si4 0.558359 0.137012 0.186411
Si Si5 0.233392 0.112227 0.396951
Si Si6 0.115495 0.297808 0.929373
O O1 0.816331 0.110133 0.268312
O O2 0.880882 0.935582 0.035911
O O3 0.845002 0.528415 0.748216
O O4 0.000000 0.000000 0.000000
O O5 0.806936 0.477019 0.389304
O O6 0.747523 0.030196 0.682912
O O7 0.675869 0.149706 0.965855
O O8 0.858044 0.900632 0.827978
O O9 0.500000 0.500000 0.500000
O O10 0.528479 0.960601 0.237011
O O11 0.341152 0.067481 0.337173
O O12 0.500000 0.000000 0.000000
O O13 0.500000 0.000000 0.500000
O O14 0.500000 0.500000 0.000000
O O15 0.000000 0.500000 0.000000
#
# Coordination Sequence:
#
# PCOD9071229 Si02
#       6
#     2   2   2   2   2   2
#     4  12  27  48  74 107 142 186 240 300 359 429
#     4  12  26  47  73 106 143 192 237 293 365 424
#     4  12  26  48  72 105 145 193 241 290 356 426
#     4  12  28  46  72 105 150 188 240 298 354 428
#     4  12  26  46  76 104 144 189 243 293 357 429
#     4  12  27  48  75 105 146 185 237 298 365 431
#
# _framework density 21.706686999999999
#
# number of rings (size 3 to 8) (size 9 to 14) (size 15 to 20)
#    0.000    0.000    1.667    8.000    9.333    0.000 
#    0.000    0.000    0.000    0.000    0.000    0.000 
#    0.000    0.000    0.000    0.000    0.000    0.000 
#
# Total GULP energy -66905.496615 kJ/mol
# GULP energy per Si atom -5575.458051 kJ/mol
# Density = 2.165728 g / cm^3
# Si number density = 21.706687 Si / 1000 Ang^3
#
#
#
# Elastic Constant Matrix: (Units=GPa)
#
#
# Indices 1 2 3 4 5 6 
#
# 1 33.4824 -9.6715 2.4641 -11.4744 -14.1484 3.6880
# 2 -9.6715 60.4572 -4.6268 -20.2923 -8.3735 4.7959
# 3 2.4641 -4.6268 121.1597 -10.8548 12.8900 25.4921
# 4 -11.4744 -20.2923 -10.8548 60.2228 -0.5282 -1.2744
# 5 -14.1484 -8.3735 12.8900 -0.5282 38.0241 -2.6281
# 6 3.6880 4.7959 25.4921 -1.2744 -2.6281 42.3551
#
#
#
# Elastic Compliance Matrix: (Units=1/GPa)
#
#
# Indices 1 2 3 4 5 6 
#
# 1 0.049511 0.016267 -0.000563 0.014923 0.022127 -0.003992
# 2 0.016267 0.025049 0.001362 0.011797 0.010992 -0.004036
# 3 -0.000563 0.001362 0.010263 0.002032 -0.003806 -0.006457
# 4 0.014923 0.011797 0.002032 0.023800 0.007608 -0.002670
# 5 0.022127 0.010992 -0.003806 0.007608 0.038469 0.001736
# 6 -0.003992 -0.004036 -0.006457 -0.002670 0.001736 0.028328
#
#
# Mechanical properties :
#
#
# Convention : Reuss Voigt Hill
#
# Bulk Modulus (GPa) = 8.40646 21.27010 14.83828
# Shear Modulus (GPa) = 27.63385 43.24928 35.44156
#
# Velocity S-wave (km/s) = 3.57186 4.46852 4.04511
# Velocity P-wave (km/s) = 4.57079 6.03686 5.35424
#
# Compressibility (1/GPa) = 0.11895614
#
# Stress axis : x y z
#
# Youngs Moduli (GPa) = 20.19772 39.92125 97.44152
#
# Poissons Ratio (x) = -0.64942 0.05484
# Poissons Ratio (y) = -0.32857 -0.13274
# Poissons Ratio (z) = 0.01137 -0.05438
#
# Static dielectric constant tensor:
#      x y z
#    x 1.952080 -0.049230 -0.190860 
#    y -0.049230 1.685780 0.069040 
#    z -0.190860 0.069040 1.871680 
# 
# From -- ./inp_files/46111.got.cif
#   From: 2010.05.17/outbox.cif.g08.bks.cpg/sg2_24_cif.got.tgz:46111.got - 2010.06.03 11:33:40.
