data_PCOD9071973
_publ_section_title
;
Structure prediction by ZEFSAII (Michael W. Deem and Ramdas Pophale) SiO2 
 PCOD9071973
Probable space group: P -1
;
_chemical_formula_sum "Si O2"
_cell_formula_units_Z 16
_cell_length_a 14.258223
_cell_length_b 23.587413
_cell_length_c 11.263719
_cell_angle_alpha 48.317931
_cell_angle_beta 148.743376
_cell_angle_gamma 152.626089
_cell_volume 830.435556
_symmetry_space_group_name_H-M "P -1"
_symmetry_group_IT_number 2
_symmetry_cell_setting 'triclinic'
loop_
_space_group_symop_operation_xyz
x,y,z
-x,-y,-z
loop_
_atom_site_type_symbol
_atom_site_label
_atom_site_fract_x
_atom_site_fract_y
_atom_site_fract_z
Si Si1 0.183176 0.364559 0.780043
Si Si2 0.803710 0.113613 0.315107
Si Si3 0.237297 0.245118 0.822739
Si Si4 0.735210 0.010132 0.765242
Si Si5 0.885919 0.859021 0.609963
Si Si6 0.304627 0.723060 0.780086
Si Si7 0.123832 0.843594 0.073455
Si Si8 0.495472 0.834287 0.096922
O O1 0.253520 0.317220 0.836219
O O2 0.024304 0.371707 0.511100
O O3 0.952745 0.255189 0.790251
O O4 0.500000 0.500000 0.000000
O O5 0.950312 0.110779 0.378006
O O6 0.062032 0.213586 0.559141
O O7 0.476933 0.967656 0.223724
O O8 0.709577 0.163282 0.091665
O O9 0.991047 0.098023 0.815900
O O10 0.561877 0.313999 0.050485
O O11 0.897217 0.093265 0.945795
O O12 0.500000 0.000000 0.500000
O O13 0.534892 0.866292 0.770749
O O14 0.559095 0.788769 0.322106
O O15 0.143594 0.005734 0.744602
O O16 0.876018 0.780859 0.789899
O O17 0.348528 0.754449 0.924721
#
# Coordination Sequence:
#
# PCOD9071973 Si02
#       8
#     2   2   2   2   2   2   2   2
#     4  11  24  42  58  73 106 150 193 242 272 305
#     4  11  17  33  54  84 118 141 170 211 277 345
#     4  11  21  32  56  85 106 143 183 226 280 333
#     4  11  16  32  52  80 119 142 170 213 285 344
#     4  10  20  30  50  86 121 142 169 206 268 345
#     4  12  19  34  57  82 111 143 178 228 274 336
#     4  10  18  33  55  78 116 145 175 218 270 332
#     4  10  18  30  49  81 118 147 167 201 269 341
#
# _framework density 19.266997
#
# number of rings (size 3 to 8) (size 9 to 14) (size 15 to 20)
#    0.000    1.250    8.750    1.875    0.000    0.500 
#    0.000    2.500    0.000    1.500    0.000    0.000 
#    0.000    0.000    0.000    0.000    0.000    0.000 
#
# Total GULP energy -89142.072761 kJ/mol
# GULP energy per Si atom -5571.379548 kJ/mol
# Density = 1.922314 g / cm^3
# Si number density = 19.266997 Si / 1000 Ang^3
#
#
#
# Elastic Constant Matrix: (Units=GPa)
#
#
# Indices 1 2 3 4 5 6 
#
# 1 60.8378 9.6768 31.0575 -1.9244 -6.0061 -8.1560
# 2 9.6768 13.1918 28.3868 0.6088 -3.8231 -5.2115
# 3 31.0575 28.3868 133.1760 -5.6773 -14.5132 -14.2493
# 4 -1.9244 0.6088 -5.6773 24.3754 -6.1223 -3.2552
# 5 -6.0061 -3.8231 -14.5132 -6.1223 37.5035 -4.6922
# 6 -8.1560 -5.2115 -14.2493 -3.2552 -4.6922 9.6941
#
#
#
# Elastic Compliance Matrix: (Units=1/GPa)
#
#
# Indices 1 2 3 4 5 6 
#
# 1 0.020846 -0.004240 -0.001213 0.005253 0.005536 0.017919
# 2 -0.004240 0.157636 -0.026467 -0.001447 0.010794 0.047012
# 3 -0.001213 -0.026467 0.015908 0.007669 0.006233 0.013726
# 4 0.005253 -0.001447 0.007669 0.053165 0.017500 0.041237
# 5 0.005536 0.010794 0.006233 0.017500 0.039503 0.044619
# 6 0.017919 0.047012 0.013726 0.041237 0.044619 0.199125
#
#
# Mechanical properties :
#
#
# Convention : Reuss Voigt Hill
#
# Bulk Modulus (GPa) = 7.65991 38.38309 23.02150
# Shear Modulus (GPa) = 8.42406 23.52023 15.97215
#
# Velocity S-wave (km/s) = 2.09327 3.49772 2.88234
# Velocity P-wave (km/s) = 3.13475 6.02304 4.80123
#
# Compressibility (1/GPa) = 0.13054982
#
# Stress axis : x y z
#
# Youngs Moduli (GPa) = 47.97124 6.34375 62.86082
#
# Poissons Ratio (x) = 0.02690 0.07626
# Poissons Ratio (y) = 0.20339 1.66373
# Poissons Ratio (z) = 0.05820 0.16790
#
# Static dielectric constant tensor:
#      x y z
#    x 1.679530 -0.000130 -0.023400 
#    y -0.000130 1.704330 -0.029210 
#    z -0.023400 -0.029210 1.751680 
# 
# From -- ./inp_files/454879.got.cif
#   From: 2010.05.17/outbox.cif.g08.bks.cpg/sg2_228_cif.got.tgz:454879.got - 2010.06.03 11:33:40.
