data_PCOD9071012
_publ_section_title
;
Structure prediction by ZEFSAII (Michael W. Deem and Ramdas Pophale) SiO2 
 PCOD9071012
Probable space group: P -1
;
_chemical_formula_sum "Si O2"
_cell_formula_units_Z 10
_cell_length_a 8.942720
_cell_length_b 12.169263
_cell_length_c 9.414210
_cell_angle_alpha 133.152381
_cell_angle_beta 149.392217
_cell_angle_gamma 60.470219
_cell_volume 367.688438
_symmetry_space_group_name_H-M "P -1"
_symmetry_group_IT_number 2
_symmetry_cell_setting 'triclinic'
loop_
_space_group_symop_operation_xyz
x,y,z
-x,-y,-z
loop_
_atom_site_type_symbol
_atom_site_label
_atom_site_fract_x
_atom_site_fract_y
_atom_site_fract_z
Si Si1 0.218709 0.633665 0.637206
Si Si2 0.609067 0.422106 0.832783
Si Si3 0.838887 0.859830 0.641013
Si Si4 0.573870 0.745876 0.743032
Si Si5 0.185784 0.944115 0.476705
O O1 0.407474 0.544071 0.809325
O O2 0.435858 0.715211 0.759231
O O3 0.069392 0.755514 0.699792
O O4 0.944255 0.503851 0.227891
O O5 0.450501 0.255488 0.623475
O O6 0.569971 0.393185 0.605476
O O7 0.749028 0.932769 0.487401
O O8 0.000000 0.000000 0.000000
O O9 0.471226 0.894665 0.729321
O O10 0.937373 0.790069 0.081257
O O11 0.000000 0.000000 0.500000
#
# Coordination Sequence:
#
# PCOD9071012 Si02
#       5
#     2   2   2   2   2
#     4  12  27  50  77 109 155 200 249 308 376 452
#     4  12  27  50  76 113 151 199 250 310 380 444
#     4  12  28  51  79 112 155 200 251 316 374 447
#     4  12  25  48  80 111 149 201 255 306 372 454
#     4  12  26  47  78 113 152 197 254 311 375 442
#
# _framework density 27.196940000000001
#
# number of rings (size 3 to 8) (size 9 to 14) (size 15 to 20)
#    0.000    0.000    4.000    5.400    0.000    2.400 
#    0.000    0.000    0.000    0.000    0.000    0.000 
#    0.000    0.000    0.000    0.000    0.000    0.000 
#
# Total GULP energy -56296.865720 kJ/mol
# GULP energy per Si atom -5629.686572 kJ/mol
# Density = 2.713504 g / cm^3
# Si number density = 27.196940 Si / 1000 Ang^3
#
#
#
# Elastic Constant Matrix: (Units=GPa)
#
#
# Indices 1 2 3 4 5 6 
#
# 1 126.6529 39.2339 33.8908 20.3950 -3.3988 28.1817
# 2 39.2339 142.8514 37.3888 3.6532 -1.9077 17.0020
# 3 33.8908 37.3888 147.4342 0.8364 17.1206 8.6761
# 4 20.3950 3.6532 0.8364 45.8534 -2.1149 -7.0745
# 5 -3.3988 -1.9077 17.1206 -2.1149 52.8682 13.1168
# 6 28.1817 17.0020 8.6761 -7.0745 13.1168 63.4705
#
#
#
# Elastic Compliance Matrix: (Units=1/GPa)
#
#
# Indices 1 2 3 4 5 6 
#
# 1 0.011099 -0.001708 -0.002056 -0.005469 0.002413 -0.005298
# 2 -0.001708 0.008097 -0.001704 -0.000021 0.001082 -0.001404
# 3 -0.002056 -0.001704 0.007970 0.000921 -0.002986 0.000999
# 4 -0.005469 -0.000021 0.000921 0.024998 -0.000964 0.005294
# 5 0.002413 0.001082 -0.002986 -0.000964 0.021398 -0.005483
# 6 -0.005298 -0.001404 0.000999 0.005294 -0.005483 0.020070
#
#
# Mechanical properties :
#
#
# Convention : Reuss Voigt Hill
#
# Bulk Modulus (GPa) = 61.60664 70.88505 66.24585
# Shear Modulus (GPa) = 45.46379 52.86674 49.16527
#
# Velocity S-wave (km/s) = 4.09302 4.41369 4.25638
# Velocity P-wave (km/s) = 6.71106 7.21765 6.96896
#
# Compressibility (1/GPa) = 0.01623202
#
# Stress axis : x y z
#
# Youngs Moduli (GPa) = 90.09812 123.49829 125.47074
#
# Poissons Ratio (x) = 0.21089 0.25794
# Poissons Ratio (y) = 0.15385 0.21377
# Poissons Ratio (z) = 0.18522 0.21041
#
# Static dielectric constant tensor:
#      x y z
#    x 2.075210 -0.032280 -0.062070 
#    y -0.032280 2.087720 0.067950 
#    z -0.062070 0.067950 2.079160 
# 
# From -- ./inp_files/15552.got.cif
#   From: 2010.05.17/outbox.cif.g08.bks.cpg/sg2_8_cif.got.tgz:15552.got - 2010.06.03 11:33:40.
