data_PCOD9071856
_publ_section_title
;
Structure prediction by ZEFSAII (Michael W. Deem and Ramdas Pophale) SiO2 
 PCOD9071856
Probable space group: P -1
;
_chemical_formula_sum "Si O2"
_cell_formula_units_Z 16
_cell_length_a 9.251176
_cell_length_b 17.919832
_cell_length_c 11.158484
_cell_angle_alpha 30.117742
_cell_angle_beta 57.789099
_cell_angle_gamma 49.014816
_cell_volume 697.813864
_symmetry_space_group_name_H-M "P -1"
_symmetry_group_IT_number 2
_symmetry_cell_setting 'triclinic'
loop_
_space_group_symop_operation_xyz
x,y,z
-x,-y,-z
loop_
_atom_site_type_symbol
_atom_site_label
_atom_site_fract_x
_atom_site_fract_y
_atom_site_fract_z
Si Si1 0.669054 0.387419 0.489258
Si Si2 0.183815 0.597447 0.198801
Si Si3 0.077783 0.124556 0.747091
Si Si4 0.768240 0.763148 0.267264
Si Si5 0.432777 0.225349 0.874525
Si Si6 0.801003 0.757548 0.675532
Si Si7 0.973215 0.596609 0.067652
Si Si8 0.490648 0.712298 0.985963
O O1 0.500000 0.500000 0.500000
O O2 0.874192 0.292451 0.590543
O O3 0.587428 0.255940 0.683872
O O4 0.650575 0.515653 0.214271
O O5 0.267634 0.397602 0.463794
O O6 0.117699 0.624740 0.052221
O O7 0.315471 0.682332 0.061241
O O8 0.990959 0.683666 0.241662
O O9 0.231099 0.137209 0.752617
O O10 0.164201 0.105490 0.602022
O O11 0.000000 0.000000 0.000000
O O12 0.645768 0.859455 0.071082
O O13 0.529563 0.194020 0.007568
O O14 0.215270 0.367661 0.816253
O O15 0.909526 0.586747 0.787290
O O16 0.583812 0.788194 0.746044
O O17 0.891272 0.721978 0.817649
#
# Coordination Sequence:
#
# PCOD9071856 Si02
#       8
#     2   2   2   2   2   2   2   2
#     4  10  18  32  59  87 108 139 190 234 276 320
#     4  10  18  29  57  91 115 133 186 250 282 322
#     4  12  25  40  56  79 118 159 190 225 284 349
#     4  10  19  32  54  83 115 144 187 235 280 323
#     4   9  17  30  54  83 112 135 181 236 278 324
#     4  10  19  34  50  75 119 154 183 219 294 347
#     4   9  17  31  54  85 114 141 181 241 284 327
#     4  10  19  29  54  90 116 143 178 241 294 329
#
# _framework density 22.928750000000001
#
# number of rings (size 3 to 8) (size 9 to 14) (size 15 to 20)
#    0.000    2.000    2.500    4.500    5.250    0.500 
#    0.000    0.625    0.000   18.750    0.000    0.000 
#    0.000    0.000    0.000    0.000    0.000    0.000 
#
# Total GULP energy -89098.712843 kJ/mol
# GULP energy per Si atom -5568.669553 kJ/mol
# Density = 2.287656 g / cm^3
# Si number density = 22.928750 Si / 1000 Ang^3
#
#
#
# Elastic Constant Matrix: (Units=GPa)
#
#
# Indices 1 2 3 4 5 6 
#
# 1 196.8228 32.4741 45.8630 16.5229 -4.8483 18.5242
# 2 32.4741 70.0849 31.7557 8.2565 -6.0767 9.1983
# 3 45.8630 31.7557 122.2732 25.6444 -13.1834 -0.2168
# 4 16.5229 8.2565 25.6444 29.0308 -7.5036 0.7780
# 5 -4.8483 -6.0767 -13.1834 -7.5036 30.5436 6.2239
# 6 18.5242 9.1983 -0.2168 0.7780 6.2239 22.9165
#
#
#
# Elastic Compliance Matrix: (Units=1/GPa)
#
#
# Indices 1 2 3 4 5 6 
#
# 1 0.006257 -0.001319 -0.001642 -0.001452 0.000615 -0.004661
# 2 -0.001319 0.017783 -0.003811 0.000051 0.003113 -0.006955
# 3 -0.001642 -0.003811 0.011611 -0.007936 0.001465 0.002838
# 4 -0.001452 0.000051 -0.007936 0.044343 0.007765 -0.002536
# 5 0.000615 0.003113 0.001465 0.007765 0.038537 -0.012463
# 6 -0.004661 -0.006955 0.002838 -0.002536 -0.012463 0.053694
#
#
# Mechanical properties :
#
#
# Convention : Reuss Voigt Hill
#
# Bulk Modulus (GPa) = 45.23305 67.70740 56.47022
# Shear Modulus (GPa) = 25.88828 35.10407 30.49618
#
# Velocity S-wave (km/s) = 3.36382 3.91705 3.65093
# Velocity P-wave (km/s) = 5.90402 7.07470 6.51570
#
# Compressibility (1/GPa) = 0.02210773
#
# Stress axis : x y z
#
# Youngs Moduli (GPa) = 159.83103 56.23306 86.12260
#
# Poissons Ratio (x) = 0.07417 0.14138
# Poissons Ratio (y) = 0.21082 0.32821
# Poissons Ratio (z) = 0.26239 0.21430
#
# Static dielectric constant tensor:
#      x y z
#    x 1.899840 -0.018220 0.009670 
#    y -0.018220 1.939450 -0.092410 
#    z 0.009670 -0.092410 2.051940 
# 
# From -- ./inp_files/404492.got.cif
#   From: 2010.05.17/outbox.cif.g08.bks.cpg/sg2_203_cif.got.tgz:404492.got - 2010.06.03 11:33:40.
