data_PCOD9071378
_publ_section_title
;
Structure prediction by ZEFSAII (Michael W. Deem and Ramdas Pophale) SiO2 
 PCOD9071378
Probable space group: P -1
;
_chemical_formula_sum "Si O2"
_cell_formula_units_Z 13
_cell_length_a 8.356815
_cell_length_b 10.973040
_cell_length_c 9.675539
_cell_angle_alpha 117.732693
_cell_angle_beta 134.072641
_cell_angle_gamma 87.018289
_cell_volume 510.148036
_symmetry_space_group_name_H-M "P -1"
_symmetry_group_IT_number 2
_symmetry_cell_setting 'triclinic'
loop_
_space_group_symop_operation_xyz
x,y,z
-x,-y,-z
loop_
_atom_site_type_symbol
_atom_site_label
_atom_site_fract_x
_atom_site_fract_y
_atom_site_fract_z
Si Si1 0.613517 0.624050 0.324820
Si Si2 0.000000 0.500000 0.000000
Si Si3 0.463093 0.686965 0.781553
Si Si4 0.033002 0.690108 0.395561
Si Si5 0.829938 0.689044 0.789139
Si Si6 0.372931 0.845453 0.257019
Si Si7 0.721816 0.965329 0.275510
O O1 0.511629 0.442762 0.177347
O O2 0.779565 0.680467 0.591621
O O3 0.400763 0.690299 0.243899
O O4 0.788512 0.676176 0.322928
O O5 0.001549 0.369205 0.813360
O O6 0.864054 0.558354 0.828990
O O7 0.171131 0.620969 0.544525
O O8 0.595100 0.695911 0.720365
O O9 0.618445 0.852636 0.026772
O O10 0.243105 0.863045 0.620061
O O11 0.097825 0.821638 0.050150
O O12 0.500000 0.000000 0.500000
O O13 0.525604 0.878317 0.227355
O O14 0.000000 0.000000 0.500000
#
# Coordination Sequence:
#
# PCOD9071378 Si02
#       7
#     2   1   2   2   2   2   2
#     4  12  28  52  83 119 158 214 273 335 404 477
#     4  12  26  48  82 112 168 206 268 328 400 480
#     4  12  27  49  81 117 163 207 272 336 402 480
#     4  12  27  51  83 118 163 213 270 330 407 478
#     4  12  28  48  78 118 159 211 269 330 403 475
#     4  12  28  49  80 113 164 211 271 333 404 478
#     4  12  26  51  75 116 159 215 265 334 403 477
#
# _framework density 25.482800000000001
#
# number of rings (size 3 to 8) (size 9 to 14) (size 15 to 20)
#    0.000    0.000    3.077    6.000    6.462    1.231 
#    0.000    0.000    0.000    0.000    0.000    0.000 
#    0.000    0.000    0.000    0.000    0.000    0.000 
#
# Total GULP energy -72479.691947 kJ/mol
# GULP energy per Si atom -5575.360919 kJ/mol
# Density = 2.542480 g / cm^3
# Si number density = 25.482800 Si / 1000 Ang^3
#
#
#
# Elastic Constant Matrix: (Units=GPa)
#
#
# Indices 1 2 3 4 5 6 
#
# 1 103.7807 0.7887 39.2288 -10.4874 -1.7332 -3.0488
# 2 0.7887 65.5948 38.5356 8.1545 -13.7698 -5.8447
# 3 39.2288 38.5356 208.4940 0.3560 -16.0345 -8.2286
# 4 -10.4874 8.1545 0.3560 42.4230 -8.8023 2.7972
# 5 -1.7332 -13.7698 -16.0345 -8.8023 49.1825 -10.0122
# 6 -3.0488 -5.8447 -8.2286 2.7972 -10.0122 40.1952
#
#
#
# Elastic Compliance Matrix: (Units=1/GPa)
#
#
# Indices 1 2 3 4 5 6 
#
# 1 0.010718 0.000957 -0.002141 0.002557 0.000499 0.000460
# 2 0.000957 0.018649 -0.003144 -0.002623 0.004460 0.003434
# 3 -0.002141 -0.003144 0.005905 0.000214 0.001185 0.000870
# 4 0.002557 -0.002623 0.000214 0.025560 0.003801 -0.000975
# 5 0.000499 0.004460 0.001185 0.003801 0.024018 0.006647
# 6 0.000460 0.003434 0.000870 -0.000975 0.006647 0.027314
#
#
# Mechanical properties :
#
#
# Convention : Reuss Voigt Hill
#
# Bulk Modulus (GPa) = 37.57190 59.44176 48.50683
# Shear Modulus (GPa) = 38.55255 46.31457 42.43356
#
# Velocity S-wave (km/s) = 3.89380 4.26782 4.08509
# Velocity P-wave (km/s) = 5.91537 6.90381 6.42862
#
# Compressibility (1/GPa) = 0.02661564
#
# Stress axis : x y z
#
# Youngs Moduli (GPa) = 93.30032 53.62282 169.33739
#
# Poissons Ratio (x) = -0.05132 0.36261
# Poissons Ratio (y) = -0.08929 0.53238
# Poissons Ratio (z) = 0.19979 0.16858
#
# Static dielectric constant tensor:
#      x y z
#    x 1.967710 -0.233970 0.020390 
#    y -0.233970 1.941700 -0.090050 
#    z 0.020390 -0.090050 1.846070 
# 
# From -- ./inp_files/182923.got.cif
#   From: 2010.05.17/outbox.cif.g08.bks.cpg/sg2_92_cif.got.tgz:182923.got - 2010.06.03 11:33:40.
