data_PCOD9071530
_publ_section_title
;
Structure prediction by ZEFSAII (Michael W. Deem and Ramdas Pophale) SiO2 
 PCOD9071530
Probable space group: P -1
;
_chemical_formula_sum "Si O2"
_cell_formula_units_Z 14
_cell_length_a 12.294696
_cell_length_b 5.619215
_cell_length_c 18.372889
_cell_angle_alpha 80.506592
_cell_angle_beta 26.557321
_cell_angle_gamma 84.212257
_cell_volume 556.585434
_symmetry_space_group_name_H-M "P -1"
_symmetry_group_IT_number 2
_symmetry_cell_setting 'triclinic'
loop_
_space_group_symop_operation_xyz
x,y,z
-x,-y,-z
loop_
_atom_site_type_symbol
_atom_site_label
_atom_site_fract_x
_atom_site_fract_y
_atom_site_fract_z
Si Si1 0.543986 0.291071 0.752807
Si Si2 0.349966 0.323539 0.448539
Si Si3 0.362282 0.236610 0.089105
Si Si4 0.713213 0.010222 0.191416
Si Si5 0.918288 0.070490 0.624069
Si Si6 0.778265 0.759738 0.301039
Si Si7 0.938110 0.701956 0.874774
O O1 0.668169 0.445614 0.604442
O O2 0.441280 0.040155 0.787362
O O3 0.729678 0.267519 0.708955
O O4 0.292329 0.371689 0.930993
O O5 0.325726 0.300875 0.552214
O O6 0.126289 0.146697 0.555171
O O7 0.618093 0.248154 0.270534
O O8 0.164779 0.256699 0.144944
O O9 0.237924 0.168351 0.242515
O O10 0.500000 0.500000 0.000000
O O11 0.500000 0.000000 0.000000
O O12 0.626221 0.809721 0.316385
O O13 0.000000 0.000000 0.000000
O O14 0.000000 0.000000 0.500000
O O15 0.913310 0.529167 0.209589
O O16 0.930152 0.028685 0.199726
#
# Coordination Sequence:
#
# PCOD9071530 Si02
#       7
#     2   2   2   2   2   2   2
#     4  12  28  47  81 113 158 215 262 327 400 480
#     4  12  29  50  78 117 157 209 266 333 405 468
#     4  12  27  47  80 113 158 212 259 318 388 476
#     4  12  27  52  80 112 158 208 274 327 396 475
#     4  12  27  49  76 119 162 204 260 331 405 473
#     4  12  29  50  82 114 160 206 266 332 392 465
#     4  12  27  50  79 117 158 208 266 319 399 472
#
# _framework density 25.153371
#
# number of rings (size 3 to 8) (size 9 to 14) (size 15 to 20)
#    0.000    0.000    5.714    2.571    8.000    1.714 
#    0.000    0.000    0.000    0.000    0.000    0.000 
#    0.000    0.000    0.000    0.000    0.000    0.000 
#
# Total GULP energy -78212.438348 kJ/mol
# GULP energy per Si atom -5586.602739 kJ/mol
# Density = 2.509612 g / cm^3
# Si number density = 25.153371 Si / 1000 Ang^3
#
#
#
# Elastic Constant Matrix: (Units=GPa)
#
#
# Indices 1 2 3 4 5 6 
#
# 1 134.4832 29.4453 40.2604 -4.2682 17.3217 -14.7846
# 2 29.4453 131.8741 45.3141 -7.6997 -1.9785 1.4902
# 3 40.2604 45.3141 133.0261 -12.0802 31.2081 10.7691
# 4 -4.2682 -7.6997 -12.0802 52.5418 -9.5314 10.1807
# 5 17.3217 -1.9785 31.2081 -9.5314 53.6582 -1.6990
# 6 -14.7846 1.4902 10.7691 10.1807 -1.6990 36.9920
#
#
#
# Elastic Compliance Matrix: (Units=1/GPa)
#
#
# Indices 1 2 3 4 5 6 
#
# 1 0.009143 -0.001367 -0.002396 -0.001216 -0.001677 0.004664
# 2 -0.001367 0.009110 -0.003256 0.001014 0.002848 -0.000114
# 3 -0.002396 -0.003256 0.011254 0.001820 -0.005722 -0.004866
# 4 -0.001216 0.001014 0.001820 0.021353 0.002949 -0.006798
# 5 -0.001677 0.002848 -0.005722 0.002949 0.023171 0.001134
# 6 0.004664 -0.000114 -0.004866 -0.006798 0.001134 0.032241
#
#
# Mechanical properties :
#
#
# Convention : Reuss Voigt Hill
#
# Bulk Modulus (GPa) = 64.65173 69.93590 67.29382
# Shear Modulus (GPa) = 39.85125 47.59597 43.72361
#
# Velocity S-wave (km/s) = 3.98468 4.35470 4.17379
# Velocity P-wave (km/s) = 6.85048 7.29031 7.07382
#
# Compressibility (1/GPa) = 0.01546749
#
# Stress axis : x y z
#
# Youngs Moduli (GPa) = 109.37768 109.76476 88.86067
#
# Poissons Ratio (x) = 0.15004 0.21292
# Poissons Ratio (y) = 0.14951 0.28937
# Poissons Ratio (z) = 0.26208 0.35745
#
# Static dielectric constant tensor:
#      x y z
#    x 2.644440 0.905940 -0.350580 
#    y 0.905940 3.310080 -0.414960 
#    z -0.350580 -0.414960 2.234920 
# 
# From -- ./inp_files/549618.got.cif
#   From: 2010.05.17/outbox.cif.g08.bks.cpg/sg2_275_cif.got.tgz:549618.got - 2010.06.03 11:33:40.
