data_PCOD9071916
_publ_section_title
;
Structure prediction by ZEFSAII (Michael W. Deem and Ramdas Pophale) SiO2 
 PCOD9071916
Probable space group: P -1
;
_chemical_formula_sum "Si O2"
_cell_formula_units_Z 16
_cell_length_a 9.000000
_cell_length_b 15.000000
_cell_length_c 30.000000
_cell_angle_alpha 20.000000
_cell_angle_beta 140.000000
_cell_angle_gamma 130.000000
_cell_volume 833.890543
_symmetry_space_group_name_H-M "P -1"
_symmetry_group_IT_number 2
_symmetry_cell_setting 'triclinic'
loop_
_space_group_symop_operation_xyz
x,y,z
-x,-y,-z
loop_
_atom_site_type_symbol
_atom_site_label
_atom_site_fract_x
_atom_site_fract_y
_atom_site_fract_z
Si Si1 0.256125 0.535685 0.526674
Si Si2 0.022604 0.698770 0.304685
Si Si3 0.447761 0.487664 0.823727
Si Si4 0.795124 0.221567 0.947304
Si Si5 0.496699 0.085408 0.863057
Si Si6 0.048532 0.186437 0.489489
Si Si7 0.491762 0.039869 0.594281
Si Si8 0.760476 0.803911 0.629572
O O1 0.232192 0.587396 0.443445
O O2 0.461845 0.268431 0.723708
O O3 0.305975 0.812015 0.424857
O O4 0.000000 0.500000 0.500000
O O5 0.040131 0.438229 0.400930
O O6 0.763656 0.787842 0.230179
O O7 0.993741 0.966335 0.140263
O O8 0.565862 0.337516 0.875052
O O9 0.165796 0.679726 0.659481
O O10 0.583074 0.707729 0.762322
O O11 0.462680 0.243148 0.976748
O O12 0.701634 0.115518 0.930506
O O13 0.851781 0.498120 0.816218
O O14 0.313643 0.078833 0.577625
O O15 0.959060 0.960352 0.600795
O O16 0.320552 0.199654 0.438655
O O17 0.500000 0.000000 0.500000
#
# Coordination Sequence:
#
# PCOD9071916 Si02
#       8
#     2   2   2   2   2   2   2   2
#     4  10  23  38  59  83 116 154 199 238 277 346
#     4  10  20  36  57  83 117 153 189 237 291 336
#     4  10  18  33  59  87 120 144 189 243 292 333
#     4  11  17  32  62  90 111 143 201 244 276 324
#     4  10  17  35  59  90 110 147 198 247 275 328
#     4  11  21  36  57  86 124 153 182 237 299 348
#     4  11  23  37  55  86 124 155 183 234 304 343
#     4  11  19  33  61  90 114 146 194 241 280 336
#
# _framework density 19.187169999999998
#
# number of rings (size 3 to 8) (size 9 to 14) (size 15 to 20)
#    0.000    1.500    6.250    2.250    1.750    0.500 
#    0.000   10.625    0.000    1.500    0.000    0.000 
#    0.000    0.000    0.000    0.000    0.000    0.000 
#
# Total GULP energy -89180.217082 kJ/mol
# GULP energy per Si atom -5573.763568 kJ/mol
# Density = 1.914350 g / cm^3
# Si number density = 19.187170 Si / 1000 Ang^3
#
#
#
# Elastic Constant Matrix: (Units=GPa)
#
#
# Indices 1 2 3 4 5 6 
#
# 1 59.9787 21.7916 32.2487 -6.2838 -22.6970 8.7958
# 2 21.7916 102.4899 55.3519 -21.5212 -22.8944 6.9665
# 3 32.2487 55.3519 126.3929 -13.3235 -58.8579 -3.8595
# 4 -6.2838 -21.5212 -13.3235 31.3405 4.1132 -13.4573
# 5 -22.6970 -22.8944 -58.8579 4.1132 39.1648 0.9494
# 6 8.7958 6.9665 -3.8595 -13.4573 0.9494 19.9271
#
#
#
# Elastic Compliance Matrix: (Units=1/GPa)
#
#
# Indices 1 2 3 4 5 6 
#
# 1 0.024064 -0.002232 0.000861 -0.003829 0.014651 -0.012959
# 2 -0.002232 0.014587 -0.006911 0.006866 -0.003858 -0.000632
# 3 0.000861 -0.006911 0.032627 0.008685 0.044285 0.012110
# 4 -0.003829 0.006866 0.008685 0.054531 0.008213 0.037407
# 5 0.014651 -0.003858 0.044285 0.008213 0.097354 0.004367
# 6 -0.012959 -0.000632 0.012110 0.037407 0.004367 0.083523
#
#
# Mechanical properties :
#
#
# Convention : Reuss Voigt Hill
#
# Bulk Modulus (GPa) = 18.27679 56.40509 37.34094
# Shear Modulus (GPa) = 14.64187 30.05113 22.34650
#
# Velocity S-wave (km/s) = 2.76544 3.96183 3.41641
# Velocity P-wave (km/s) = 4.44332 7.09854 5.92167
#
# Compressibility (1/GPa) = 0.05471421
#
# Stress axis : x y z
#
# Youngs Moduli (GPa) = 41.55578 68.55504 30.64992
#
# Poissons Ratio (x) = 0.15301 -0.02638
# Poissons Ratio (y) = 0.09275 0.21181
# Poissons Ratio (z) = -0.03577 0.47375
#
# Static dielectric constant tensor:
#      x y z
#    x 1.692560 -0.009930 -0.010500 
#    y -0.009930 1.714770 -0.003700 
#    z -0.010500 -0.003700 1.685680 
# 
# From -- ./inp_files/387873.got.cif
#   From: 2010.05.17/outbox.ucp.g08.bks.cvg/sg2_194_cif.got.tgz:387873.got - 2010.06.11 11:32:03.
