data_PCOD9071815
_publ_section_title
;
Structure prediction by ZEFSAII (Michael W. Deem and Ramdas Pophale) SiO2 
 PCOD9071815
Probable space group: P -1
;
_chemical_formula_sum "Si O2"
_cell_formula_units_Z 16
_cell_length_a 9.000000
_cell_length_b 15.000000
_cell_length_c 12.000000
_cell_angle_alpha 50.000000
_cell_angle_beta 130.000000
_cell_angle_gamma 140.000000
_cell_volume 759.581896
_symmetry_space_group_name_H-M "P -1"
_symmetry_group_IT_number 2
_symmetry_cell_setting 'triclinic'
loop_
_space_group_symop_operation_xyz
x,y,z
-x,-y,-z
loop_
_atom_site_type_symbol
_atom_site_label
_atom_site_fract_x
_atom_site_fract_y
_atom_site_fract_z
Si Si1 0.622298 0.028067 0.155175
Si Si2 0.236638 0.850456 0.504575
Si Si3 0.796349 0.834311 0.007133
Si Si4 0.646148 0.699826 0.815337
Si Si5 0.125809 0.455245 0.865938
Si Si6 0.058441 0.024298 0.378527
Si Si7 0.161653 0.765185 0.281789
Si Si8 0.741797 0.287562 0.146077
O O1 0.410449 0.913751 0.233788
O O2 0.821293 0.004580 0.239031
O O3 0.763855 0.190693 0.145436
O O4 0.500000 0.000000 0.000000
O O5 0.183060 0.767213 0.426394
O O6 0.248714 0.772371 0.680577
O O7 0.500000 0.000000 0.500000
O O8 0.081692 0.908021 0.422472
O O9 0.755117 0.821061 0.866612
O O10 0.524943 0.758399 0.979408
O O11 0.921472 0.759179 0.159419
O O12 0.000000 0.000000 0.000000
O O13 0.367709 0.574705 0.813560
O O14 0.709749 0.804003 0.658479
O O15 0.793146 0.632825 0.958138
O O16 0.093369 0.541015 0.878514
O O17 0.911864 0.358645 0.748688
O O18 0.000000 0.000000 0.500000
#
# Coordination Sequence:
#
# PCOD9071815 Si02
#       8
#     2   2   2   2   2   2   2   2
#     4  12  25  40  62 100 133 170 219 272 330 388
#     4  12  22  40  66  98 126 168 224 274 322 377
#     4  10  16  31  60  94 118 154 213 280 306 350
#     4   9  19  36  61  93 130 166 212 269 329 379
#     4   9  20  39  65  99 128 167 222 272 324 381
#     4  12  24  42  65  96 136 172 211 274 337 388
#     4  11  22  39  67  99 126 170 225 273 323 385
#     4  11  22  38  62  95 132 169 214 267 331 383
#
# _framework density 21.064219999999999
#
# number of rings (size 3 to 8) (size 9 to 14) (size 15 to 20)
#    0.000    1.250    3.750    4.500    1.750    0.500 
#    0.000    2.500    0.000    1.500    0.000    0.000 
#    0.000    0.000    0.000    0.000    0.000    0.000 
#
# Total GULP energy -89084.968205 kJ/mol
# GULP energy per Si atom -5567.810513 kJ/mol
# Density = 2.101628 g / cm^3
# Si number density = 21.064220 Si / 1000 Ang^3
#
#
#
# Elastic Constant Matrix: (Units=GPa)
#
#
# Indices 1 2 3 4 5 6 
#
# 1 95.7406 22.1047 22.7705 3.9460 8.6188 -12.7740
# 2 22.1047 117.2903 9.3537 11.4474 -7.6547 -31.6276
# 3 22.7705 9.3537 47.6523 1.5978 1.3735 -6.3435
# 4 3.9460 11.4474 1.5978 36.4244 0.7631 -6.5654
# 5 8.6188 -7.6547 1.3735 0.7631 45.7603 4.1333
# 6 -12.7740 -31.6276 -6.3435 -6.5654 4.1333 43.9076
#
#
#
# Elastic Compliance Matrix: (Units=1/GPa)
#
#
# Indices 1 2 3 4 5 6 
#
# 1 0.012593 -0.001563 -0.005363 -0.000226 -0.002647 0.001979
# 2 -0.001563 0.011041 -0.000468 -0.002055 0.001559 0.006977
# 3 -0.005363 -0.000468 0.023843 -0.000043 0.000078 0.001534
# 4 -0.000226 -0.002055 -0.000043 0.028658 -0.001034 0.002830
# 5 -0.002647 0.001559 0.000078 -0.001034 0.022802 -0.001937
# 6 0.001979 0.006977 0.001534 0.002830 -0.001937 0.029203
#
#
# Mechanical properties :
#
#
# Convention : Reuss Voigt Hill
#
# Bulk Modulus (GPa) = 30.59073 41.01566 35.80319
# Shear Modulus (GPa) = 32.50421 38.98209 35.74315
#
# Velocity S-wave (km/s) = 3.93249 4.30656 4.12377
# Velocity P-wave (km/s) = 5.93072 6.65151 6.30143
#
# Compressibility (1/GPa) = 0.03268964
#
# Stress axis : x y z
#
# Youngs Moduli (GPa) = 79.40967 90.56809 41.94031
#
# Poissons Ratio (x) = 0.14154 0.22495
# Poissons Ratio (y) = 0.12410 0.01962
# Poissons Ratio (z) = 0.42591 0.04237
#
# Static dielectric constant tensor:
#      x y z
#    x 1.848670 -0.036840 -0.016920 
#    y -0.036840 1.819510 -0.065220 
#    z -0.016920 -0.065220 1.753340 
# 
# From -- ./inp_files/398669.got.cif
#   From: 2010.05.17/outbox.ucp.g08.bks.cvg/sg2_200_cif.got.tgz:398669.got - 2010.06.11 11:32:03.
