data_PCOD9071326
_publ_section_title
;
Structure prediction by ZEFSAII (Michael W. Deem and Ramdas Pophale) SiO2 
 PCOD9071326
Probable space group: P -1
;
_chemical_formula_sum "Si O2"
_cell_formula_units_Z 16
_cell_length_a 14.216884
_cell_length_b 12.014716
_cell_length_c 9.355471
_cell_angle_alpha 132.976292
_cell_angle_beta 110.466335
_cell_angle_gamma 106.742871
_cell_volume 701.514183
_symmetry_space_group_name_H-M "P -1"
_symmetry_group_IT_number 2
_symmetry_cell_setting 'triclinic'
loop_
_space_group_symop_operation_xyz
x,y,z
-x,-y,-z
loop_
_atom_site_type_symbol
_atom_site_label
_atom_site_fract_x
_atom_site_fract_y
_atom_site_fract_z
Si Si1 0.564660 0.873141 0.209732
Si Si2 0.145949 0.066638 0.163061
Si Si3 0.501842 0.130388 0.308601
Si Si4 0.440694 0.566200 0.624544
Si Si5 0.810043 0.939276 0.492166
Si Si6 0.329072 0.559221 0.058302
Si Si7 0.861242 0.250884 0.291710
Si Si8 0.013715 0.373192 0.787289
O O1 0.696317 0.953537 0.447472
O O2 0.409345 0.686599 0.060405
O O3 0.576151 0.053332 0.310008
O O4 0.566300 0.762859 0.979434
O O5 0.296777 0.340571 0.442601
O O6 0.135522 0.010099 0.272567
O O7 0.144148 0.922483 0.930787
O O8 0.000000 0.000000 0.000000
O O9 0.585834 0.320449 0.392633
O O10 0.541452 0.267749 0.596020
O O11 0.317406 0.899089 0.966136
O O12 0.500000 0.500000 0.500000
O O13 0.939355 0.140125 0.623075
O O14 0.731271 0.685409 0.189344
O O15 0.188809 0.518062 0.969606
O O16 0.916314 0.303025 0.531399
O O17 0.000000 0.500000 0.500000
O O18 0.000000 0.500000 0.000000
#
# Coordination Sequence:
#
# PCOD9071326 Si02
#       8
#     2   2   2   2   2   2   2   2
#     4  12  26  48  75 112 154 201 260 320 394 460
#     4  12  28  49  79 113 154 203 262 323 395 470
#     4  12  27  46  81 115 155 206 262 324 387 468
#     4  12  26  49  76 113 156 200 258 322 391 465
#     4  12  26  49  78 114 158 206 265 325 393 468
#     4  12  26  48  79 113 155 206 265 325 386 467
#     4  12  27  50  78 112 161 206 254 321 398 469
#     4  12  28  50  77 115 161 211 261 322 397 472
#
# _framework density 22.807808000000001
#
# number of rings (size 3 to 8) (size 9 to 14) (size 15 to 20)
#    0.000    0.000    2.500    6.750    5.250    1.000 
#    0.000    0.000    0.000    0.000    0.000    0.000 
#    0.000    0.000    0.000    0.000    0.000    0.000 
#
# Total GULP energy -89558.132480 kJ/mol
# GULP energy per Si atom -5597.383280 kJ/mol
# Density = 2.275590 g / cm^3
# Si number density = 22.807808 Si / 1000 Ang^3
#
#
#
# Elastic Constant Matrix: (Units=GPa)
#
#
# Indices 1 2 3 4 5 6 
#
# 1 100.7860 27.4171 27.6630 -18.1837 15.9226 -16.5391
# 2 27.4171 147.3110 50.2087 -26.7714 -6.7835 -12.9879
# 3 27.6630 50.2087 112.4988 -32.6119 -9.2067 -6.3976
# 4 -18.1837 -26.7714 -32.6119 49.3313 -0.3817 -0.8515
# 5 15.9226 -6.7835 -9.2067 -0.3817 33.8311 -3.6098
# 6 -16.5391 -12.9879 -6.3976 -0.8515 -3.6098 46.4963
#
#
#
# Elastic Compliance Matrix: (Units=1/GPa)
#
#
# Indices 1 2 3 4 5 6 
#
# 1 0.012937 -0.001153 -0.002222 0.002684 -0.006519 0.003517
# 2 -0.001153 0.008586 -0.002545 0.002598 0.001796 0.001825
# 3 -0.002222 -0.002545 0.012774 0.006289 0.004157 0.000694
# 4 0.002684 0.002598 0.006289 0.026895 0.001610 0.003163
# 5 -0.006519 0.001796 0.004157 0.001610 0.034290 0.001446
# 6 0.003517 0.001825 0.000694 0.003163 0.001446 0.023534
#
#
# Mechanical properties :
#
#
# Convention : Reuss Voigt Hill
#
# Bulk Modulus (GPa) = 44.52820 63.46371 53.99595
# Shear Modulus (GPa) = 36.14287 42.95221 39.54754
#
# Velocity S-wave (km/s) = 3.98511 4.34432 4.16859
# Velocity P-wave (km/s) = 6.38282 7.28354 6.84801
#
# Compressibility (1/GPa) = 0.02245768
#
# Stress axis : x y z
#
# Youngs Moduli (GPa) = 77.29882 116.46984 78.28572
#
# Poissons Ratio (x) = 0.13425 0.17395
# Poissons Ratio (y) = 0.08910 0.19921
# Poissons Ratio (z) = 0.17176 0.29638
#
# Static dielectric constant tensor:
#      x y z
#    x 1.739980 -0.264840 0.062040 
#    y -0.264840 1.072690 0.077340 
#    z 0.062040 0.077340 1.967630 
# 
# From -- ./inp_files/308568.got.cif
#   From: 2010.05.17/outbox.cif.g08.bks.cpg/sg2_155_cif.got.tgz:308568.got - 2010.06.03 11:33:40.
