data_PCOD9071078
_publ_section_title
;
Structure prediction by ZEFSAII (Michael W. Deem and Ramdas Pophale) SiO2 
 PCOD9071078
Probable space group: P -1
;
_chemical_formula_sum "Si O2"
_cell_formula_units_Z 14
_cell_length_a 5.463549
_cell_length_b 11.329313
_cell_length_c 15.917486
_cell_angle_alpha 133.429359
_cell_angle_beta 119.183748
_cell_angle_gamma 48.957082
_cell_volume 538.478519
_symmetry_space_group_name_H-M "P -1"
_symmetry_group_IT_number 2
_symmetry_cell_setting 'triclinic'
loop_
_space_group_symop_operation_xyz
x,y,z
-x,-y,-z
loop_
_atom_site_type_symbol
_atom_site_label
_atom_site_fract_x
_atom_site_fract_y
_atom_site_fract_z
Si Si1 0.839257 0.308390 0.978188
Si Si2 0.796379 0.011049 0.597769
Si Si3 0.299207 0.573416 0.243354
Si Si4 0.297728 0.213108 0.847405
Si Si5 0.745171 0.849377 0.681493
Si Si6 0.433313 0.632919 0.474128
Si Si7 0.918084 0.210743 0.113348
O O1 0.653756 0.188588 0.898219
O O2 0.082991 0.264382 0.920368
O O3 0.500000 0.500000 0.000000
O O4 0.040234 0.268531 0.078727
O O5 0.702724 0.230654 0.682664
O O6 0.500000 0.000000 0.500000
O O7 0.835505 0.947106 0.670529
O O8 0.103840 0.836593 0.518596
O O9 0.399702 0.534636 0.337729
O O10 0.548952 0.387994 0.143213
O O11 0.933187 0.635520 0.185978
O O12 0.386791 0.007986 0.730783
O O13 0.711724 0.687453 0.550649
O O14 0.941224 0.785379 0.770076
O O15 0.500000 0.500000 0.500000
O O16 0.000000 0.000000 0.000000
#
# Coordination Sequence:
#
# PCOD9071078 Si02
#       7
#     2   2   2   2   2   2   2
#     4  12  27  51  77 117 153 216 277 333 396 484
#     4  12  25  49  81 113 160 208 272 330 401 498
#     4  12  26  49  81 119 153 215 274 332 409 488
#     4  12  26  49  84 112 157 208 275 333 399 478
#     4  12  27  50  77 114 164 206 263 336 411 482
#     4  12  28  47  75 120 159 204 261 336 417 491
#     4  12  29  49  77 115 162 212 271 338 410 480
#
# _framework density 25.999181
#
# number of rings (size 3 to 8) (size 9 to 14) (size 15 to 20)
#    0.000    0.000    5.714    3.429    2.000    4.000 
#    2.571    0.000    0.000    0.000    0.000    0.000 
#    0.000    0.000    0.000    0.000    0.000    0.000 
#
# Total GULP energy -78236.196270 kJ/mol
# GULP energy per Si atom -5588.299734 kJ/mol
# Density = 2.594001 g / cm^3
# Si number density = 25.999181 Si / 1000 Ang^3
#
#
#
# Elastic Constant Matrix: (Units=GPa)
#
#
# Indices 1 2 3 4 5 6 
#
# 1 72.7009 12.8536 32.8485 5.1121 -4.1458 15.5295
# 2 12.8536 136.3471 39.4177 -1.1412 -1.2868 6.4696
# 3 32.8485 39.4177 125.7667 -19.9970 -22.4450 -9.3790
# 4 5.1121 -1.1412 -19.9970 72.1409 -3.1772 -23.4961
# 5 -4.1458 -1.2868 -22.4450 -3.1772 42.2392 -0.3174
# 6 15.5295 6.4696 -9.3790 -23.4961 -0.3174 44.3207
#
#
#
# Elastic Compliance Matrix: (Units=1/GPa)
#
#
# Indices 1 2 3 4 5 6 
#
# 1 0.020943 0.001139 -0.008837 -0.008612 -0.003358 -0.013964
# 2 0.001139 0.008512 -0.003964 -0.002348 -0.001940 -0.003739
# 3 -0.008837 -0.003964 0.015191 0.008923 0.007843 0.011676
# 4 -0.008612 -0.002348 0.008923 0.022821 0.005672 0.017387
# 5 -0.003358 -0.001940 0.007843 0.005672 0.027928 0.006326
# 6 -0.013964 -0.003739 0.011676 0.017387 0.006326 0.039735
#
#
# Mechanical properties :
#
#
# Convention : Reuss Voigt Hill
#
# Bulk Modulus (GPa) = 46.89786 56.11715 51.50750
# Shear Modulus (GPa) = 30.20024 48.38648 39.29336
#
# Velocity S-wave (km/s) = 3.41190 4.31870 3.89180
# Velocity P-wave (km/s) = 5.79645 6.81904 6.32843
#
# Compressibility (1/GPa) = 0.02132293
#
# Stress axis : x y z
#
# Youngs Moduli (GPa) = 47.74775 117.47790 65.82917
#
# Poissons Ratio (x) = -0.13384 0.58174
# Poissons Ratio (y) = -0.05440 0.26094
# Poissons Ratio (z) = 0.42195 0.46567
#
# Static dielectric constant tensor:
#      x y z
#    x 2.163500 0.040900 0.138350 
#    y 0.040900 2.045310 0.052070 
#    z 0.138350 0.052070 2.222820 
# 
# From -- ./inp_files/483054.got.cif
#   From: 2010.05.17/outbox.cif.g08.bks.cpg/sg2_242_cif.got.tgz:483054.got - 2010.06.03 11:33:40.
