data_PCOD9071036
_publ_section_title
;
Structure prediction by ZEFSAII (Michael W. Deem and Ramdas Pophale) SiO2 
 PCOD9071036
Probable space group: P -1
;
_chemical_formula_sum "Si O2"
_cell_formula_units_Z 16
_cell_length_a 9.007635
_cell_length_b 5.390294
_cell_length_c 18.324997
_cell_angle_alpha 76.207843
_cell_angle_beta 54.258329
_cell_angle_gamma 59.695272
_cell_volume 621.470846
_symmetry_space_group_name_H-M "P -1"
_symmetry_group_IT_number 2
_symmetry_cell_setting 'triclinic'
loop_
_space_group_symop_operation_xyz
x,y,z
-x,-y,-z
loop_
_atom_site_type_symbol
_atom_site_label
_atom_site_fract_x
_atom_site_fract_y
_atom_site_fract_z
Si Si1 0.293333 0.001008 0.086275
Si Si2 0.136130 0.724945 0.526326
Si Si3 0.790106 0.088170 0.099676
Si Si4 0.111526 0.519814 0.308939
Si Si5 0.535323 0.753297 0.171789
Si Si6 0.092600 0.628203 0.137565
Si Si7 0.564446 0.553747 0.663537
Si Si8 0.318498 0.920713 0.579890
O O1 0.127980 0.339310 0.104858
O O2 0.336916 0.896006 0.165516
O O3 0.247563 0.769071 0.072817
O O4 0.500000 0.000000 0.000000
O O5 0.255597 0.505091 0.442803
O O6 0.305396 0.738257 0.528580
O O7 0.979747 0.689002 0.626738
O O8 0.000000 0.000000 0.500000
O O9 0.680392 0.429236 0.122077
O O10 0.645549 0.956933 0.119147
O O11 0.875336 0.896601 0.162040
O O12 0.000000 0.000000 0.000000
O O13 0.123863 0.536884 0.218440
O O14 0.329120 0.407420 0.295976
O O15 0.916823 0.821688 0.368134
O O16 0.484764 0.698586 0.273301
O O17 0.372830 0.772734 0.654525
O O18 0.500000 0.000000 0.500000
#
# Coordination Sequence:
#
# PCOD9071036 Si02
#       8
#     2   2   2   2   2   2   2   2
#     4  12  25  49  75 110 149 196 248 306 379 463
#     4  12  26  44  75 100 147 201 242 309 374 447
#     4  12  26  50  77 111 151 196 248 315 387 455
#     4  12  27  48  70 108 151 194 249 315 374 446
#     4  12  27  46  76 113 149 196 251 312 377 459
#     4  12  27  45  77 110 150 198 248 312 382 451
#     4  12  26  48  71 109 149 193 254 311 376 447
#     4  12  26  47  72 105 143 199 257 302 376 446
#
# _framework density 25.745376
#
# number of rings (size 3 to 8) (size 9 to 14) (size 15 to 20)
#    0.000    0.000    3.750    6.000    5.250    1.000 
#    0.000    0.000    0.000    0.000    0.000    0.000 
#    0.000    0.000    0.000    0.000    0.000    0.000 
#
# Total GULP energy -89445.332745 kJ/mol
# GULP energy per Si atom -5590.333297 kJ/mol
# Density = 2.568678 g / cm^3
# Si number density = 25.745376 Si / 1000 Ang^3
#
#
#
# Elastic Constant Matrix: (Units=GPa)
#
#
# Indices 1 2 3 4 5 6 
#
# 1 117.0221 19.9918 14.4935 -25.3797 13.4385 -12.4701
# 2 19.9918 138.7104 10.4731 -11.5423 10.9952 -13.8004
# 3 14.4935 10.4731 104.1365 -25.8078 2.0591 6.8332
# 4 -25.3797 -11.5423 -25.8078 49.7173 -4.7329 1.5548
# 5 13.4385 10.9952 2.0591 -4.7329 43.4608 -20.0522
# 6 -12.4701 -13.8004 6.8332 1.5548 -20.0522 34.5366
#
#
#
# Elastic Compliance Matrix: (Units=1/GPa)
#
#
# Indices 1 2 3 4 5 6 
#
# 1 0.010123 -0.000699 -0.000327 0.004635 -0.001286 0.002485
# 2 -0.000699 0.007737 -0.000601 0.001009 -0.000354 0.002707
# 3 -0.000327 -0.000601 0.011356 0.005573 -0.001360 -0.003646
# 4 0.004635 0.001009 0.005573 0.025693 0.001040 0.000421
# 5 -0.001286 -0.000354 -0.001360 0.001040 0.032095 0.018251
# 6 0.002485 0.002707 -0.003646 0.000421 0.018251 0.042233
#
#
# Mechanical properties :
#
#
# Convention : Reuss Voigt Hill
#
# Bulk Modulus (GPa) = 38.52175 49.97620 44.24898
# Shear Modulus (GPa) = 35.42429 46.53698 40.98064
#
# Velocity S-wave (km/s) = 3.71340 4.25618 3.99402
# Velocity P-wave (km/s) = 5.77762 6.60358 6.20436
#
# Compressibility (1/GPa) = 0.02595936
#
# Stress axis : x y z
#
# Youngs Moduli (GPa) = 98.78260 129.25268 88.05920
#
# Poissons Ratio (x) = 0.09040 0.02884
# Poissons Ratio (y) = 0.06909 0.05296
# Poissons Ratio (z) = 0.03235 0.07774
#
# Static dielectric constant tensor:
#      x y z
#    x 1.788010 0.182480 0.169280 
#    y 0.182480 2.049050 -0.083870 
#    z 0.169280 -0.083870 1.930490 
# 
# From -- ./inp_files/46980.got.cif
#   From: 2010.05.17/outbox.cif.g08.bks.cpg/sg2_24_cif.got.tgz:46980.got - 2010.06.03 11:33:40.
