data_PCOD9071236
_publ_section_title
;
Structure prediction by ZEFSAII (Michael W. Deem and Ramdas Pophale) SiO2 
 PCOD9071236
Probable space group: P -1
;
_chemical_formula_sum "Si O2"
_cell_formula_units_Z 14
_cell_length_a 14.746840
_cell_length_b 15.475810
_cell_length_c 5.167138
_cell_angle_alpha 72.687066
_cell_angle_beta 77.922194
_cell_angle_gamma 28.871847
_cell_volume 540.216852
_symmetry_space_group_name_H-M "P -1"
_symmetry_group_IT_number 2
_symmetry_cell_setting 'triclinic'
loop_
_space_group_symop_operation_xyz
x,y,z
-x,-y,-z
loop_
_atom_site_type_symbol
_atom_site_label
_atom_site_fract_x
_atom_site_fract_y
_atom_site_fract_z
Si Si1 0.058658 0.157551 0.789124
Si Si2 0.500000 0.500000 0.500000
Si Si3 0.998206 0.594438 0.575827
Si Si4 0.500000 0.500000 0.000000
Si Si5 0.911329 0.176216 0.360428
Si Si6 0.404120 0.303764 0.579024
Si Si7 0.464906 0.732393 0.963615
Si Si8 0.394068 0.050717 0.265274
O O1 0.034108 0.286633 0.678960
O O2 0.982300 0.178139 0.551152
O O3 0.281083 0.949221 0.856007
O O4 0.975290 0.174105 0.067617
O O5 0.609544 0.451153 0.718315
O O6 0.682451 0.356683 0.310972
O O7 0.827069 0.739819 0.753805
O O8 0.000000 0.500000 0.500000
O O9 0.211691 0.425668 0.695501
O O10 0.412205 0.675074 0.991729
O O11 0.000000 0.000000 0.500000
O O12 0.386433 0.356721 0.252957
O O13 0.563604 0.091422 0.656194
O O14 0.469470 0.320924 0.733114
O O15 0.500000 0.000000 0.500000
O O16 0.500000 0.000000 0.000000
#
# Coordination Sequence:
#
# PCOD9071236 Si02
#       8
#     2   1   2   1   2   2   2   2
#     4  12  28  52  82 119 167 211 278 338 409 496
#     4  12  26  46  76 114 156 206 266 320 412 476
#     4  12  30  55  84 128 164 224 285 349 418 505
#     4  12  26  46  78 112 160 212 266 322 408 494
#     4  12  27  52  80 117 158 212 264 338 405 493
#     4  12  28  50  83 117 166 211 276 341 412 490
#     4  12  27  52  79 120 162 219 266 344 412 496
#     4  12  27  53  84 115 162 213 271 342 422 488
#
# _framework density 25.915517000000001
#
# number of rings (size 3 to 8) (size 9 to 14) (size 15 to 20)
#    0.000    0.000    2.857    5.571    6.000    1.714 
#    0.000    0.000    0.000    0.000    0.000    0.000 
#    0.000    0.000    0.000    0.000    0.000    0.000 
#
# Total GULP energy -78178.099729 kJ/mol
# GULP energy per Si atom -5584.149981 kJ/mol
# Density = 2.585653 g / cm^3
# Si number density = 25.915517 Si / 1000 Ang^3
#
#
#
# Elastic Constant Matrix: (Units=GPa)
#
#
# Indices 1 2 3 4 5 6 
#
# 1 85.6032 32.3700 90.3856 21.7874 -2.8606 30.3958
# 2 32.3700 147.9116 72.7112 23.6505 -24.3346 0.3993
# 3 90.3856 72.7112 200.4079 31.3448 -1.8603 13.9817
# 4 21.7874 23.6505 31.3448 46.8733 4.4745 -15.9766
# 5 -2.8606 -24.3346 -1.8603 4.4745 59.7309 3.0269
# 6 30.3958 0.3993 13.9817 -15.9766 3.0269 73.0994
#
#
#
# Elastic Compliance Matrix: (Units=1/GPa)
#
#
# Indices 1 2 3 4 5 6 
#
# 1 0.032185 0.001537 -0.012065 -0.012776 0.003459 -0.014019
# 2 0.001537 0.009401 -0.003369 -0.003972 0.004151 -0.001086
# 3 -0.012065 -0.003369 0.011250 0.001047 -0.001840 0.003188
# 4 -0.012776 -0.003972 0.001047 0.033400 -0.005341 0.012655
# 5 0.003459 0.004151 -0.001840 -0.005341 0.019097 -0.003067
# 6 -0.014019 -0.001086 0.003188 0.012655 -0.003067 0.021798
#
#
# Mechanical properties :
#
#
# Convention : Reuss Voigt Hill
#
# Bulk Modulus (GPa) = 39.93037 91.65071 65.79054
# Shear Modulus (GPa) = 30.62371 51.83778 41.23075
#
# Velocity S-wave (km/s) = 3.44128 4.47728 3.99302
# Velocity P-wave (km/s) = 5.58849 7.88480 6.83378
#
# Compressibility (1/GPa) = 0.02504359
#
# Stress axis : x y z
#
# Youngs Moduli (GPa) = 31.07067 106.36665 88.88769
#
# Poissons Ratio (x) = -0.16351 1.07242
# Poissons Ratio (y) = -0.04776 0.29944
# Poissons Ratio (z) = 0.37486 0.35832
#
# Static dielectric constant tensor:
#      x y z
#    x 2.881900 0.154630 0.324220 
#    y 0.154630 2.350150 -0.393930 
#    z 0.324220 -0.393930 3.160670 
# 
# From -- ./inp_files/97683.got.cif
#   From: 2010.05.17/outbox.cif.g08.bks.cpg/sg2_49_cif.got.tgz:97683.got - 2010.06.03 11:33:40.
