data_PCOD9071861
_publ_section_title
;
Structure prediction by ZEFSAII (Michael W. Deem and Ramdas Pophale) SiO2 
 PCOD9071861
Probable space group: P -1
;
_chemical_formula_sum "Si O2"
_cell_formula_units_Z 16
_cell_length_a 15.087332
_cell_length_b 15.075717
_cell_length_c 15.565566
_cell_angle_alpha 79.917136
_cell_angle_beta 18.913453
_cell_angle_gamma 70.389143
_cell_volume 956.194550
_symmetry_space_group_name_H-M "P -1"
_symmetry_group_IT_number 2
_symmetry_cell_setting 'triclinic'
loop_
_space_group_symop_operation_xyz
x,y,z
-x,-y,-z
loop_
_atom_site_type_symbol
_atom_site_label
_atom_site_fract_x
_atom_site_fract_y
_atom_site_fract_z
Si Si1 0.282676 0.713530 0.657358
Si Si2 0.467871 0.614929 0.335855
Si Si3 0.974144 0.394865 0.980156
Si Si4 0.853769 0.394948 0.799612
Si Si5 0.030983 0.240029 0.813020
Si Si6 0.792625 0.126319 0.162146
Si Si7 0.108959 0.575817 0.425293
Si Si8 0.939660 0.571560 0.759879
O O1 0.301164 0.714526 0.536989
O O2 0.105810 0.651409 0.855484
O O3 0.144040 0.821641 0.820505
O O4 0.652095 0.646152 0.362954
O O5 0.754982 0.519379 0.144313
O O6 0.221384 0.577937 0.546240
O O7 0.635096 0.622000 0.094740
O O8 0.892929 0.339804 0.987415
O O9 0.922874 0.359819 0.642333
O O10 0.029939 0.451904 0.671247
O O11 0.929819 0.295592 0.804241
O O12 0.482850 0.495853 0.122363
O O13 0.414389 0.171075 0.490518
O O14 0.890517 0.169854 0.983429
O O15 0.000000 0.000000 0.000000
O O16 0.000000 0.500000 0.500000
O O17 0.903463 0.626902 0.690974
#
# Coordination Sequence:
#
# PCOD9071861 Si02
#       8
#     2   2   2   2   2   2   2   2
#     4  10  21  32  46  68  91 131 165 207 251 291
#     4  12  20  29  46  66 101 131 171 196 232 299
#     4  10  18  30  44  66  98 125 163 201 242 285
#     4  10  19  33  48  75 102 140 171 196 238 299
#     4  10  20  31  56  73  96 132 171 201 249 304
#     4  10  22  38  53  71  98 129 170 224 261 282
#     4   9  19  31  49  69 107 142 162 198 238 286
#     4  11  20  30  45  67 103 138 162 193 235 276
#
# _framework density 16.732996
#
# number of rings (size 3 to 8) (size 9 to 14) (size 15 to 20)
#    0.000    1.750    2.500    2.625    7.000    0.000 
#    0.000    0.000    0.000    0.000    0.000    0.000 
#    0.000    6.000    0.000    0.000    0.000    0.000 
#
# Total GULP energy -89153.187560 kJ/mol
# GULP energy per Si atom -5572.074223 kJ/mol
# Density = 1.669491 g / cm^3
# Si number density = 16.732996 Si / 1000 Ang^3
#
#
#
# Elastic Constant Matrix: (Units=GPa)
#
#
# Indices 1 2 3 4 5 6 
#
# 1 79.0675 28.0705 24.8573 8.7869 27.4867 -5.2319
# 2 28.0705 61.4629 25.4344 5.3150 18.1209 -1.3338
# 3 24.8573 25.4344 67.7793 -13.1465 16.9830 -0.3800
# 4 8.7869 5.3150 -13.1465 17.8243 -0.8784 -0.4301
# 5 27.4867 18.1209 16.9830 -0.8784 35.1662 -15.2825
# 6 -5.2319 -1.3338 -0.3800 -0.4301 -15.2825 19.4370
#
#
#
# Elastic Compliance Matrix: (Units=1/GPa)
#
#
# Indices 1 2 3 4 5 6 
#
# 1 0.022796 -0.000906 -0.006786 -0.017091 -0.018355 -0.008869
# 2 -0.000906 0.024890 -0.008872 -0.014301 -0.011798 -0.008302
# 3 -0.006786 -0.008872 0.026544 0.025235 -0.004410 -0.004826
# 4 -0.017091 -0.014301 0.025235 0.088302 0.014255 0.008074
# 5 -0.018355 -0.011798 -0.004410 0.014255 0.074356 0.052942
# 6 -0.008869 -0.008302 -0.004826 0.008074 0.052942 0.090202
#
#
# Mechanical properties :
#
#
# Convention : Reuss Voigt Hill
#
# Bulk Modulus (GPa) = 24.32940 40.55935 32.44438
# Shear Modulus (GPa) = 13.37193 23.14867 18.26030
#
# Velocity S-wave (km/s) = 2.82996 3.72346 3.30703
# Velocity P-wave (km/s) = 5.02490 6.54044 5.83211
#
# Compressibility (1/GPa) = 0.04110253
#
# Stress axis : x y z
#
# Youngs Moduli (GPa) = 43.86808 40.17685 37.67296
#
# Poissons Ratio (x) = 0.03640 0.25564
# Poissons Ratio (y) = 0.03974 0.33423
# Poissons Ratio (z) = 0.29768 0.35645
#
# Static dielectric constant tensor:
#      x y z
#    x 1.666760 0.003240 0.035840 
#    y 0.003240 1.561880 -0.059070 
#    z 0.035840 -0.059070 1.630310 
# 
# From -- ./inp_files/96121.got.cif
#   From: 2010.05.17/outbox.cif.g08.bks.cpg/sg2_49_cif.got.tgz:96121.got - 2010.06.03 11:33:40.
