data_PCOD9071188
_publ_section_title
;
Structure prediction by ZEFSAII (Michael W. Deem and Ramdas Pophale) SiO2 
 PCOD9071188
Probable space group: P -1
;
_chemical_formula_sum "Si O2"
_cell_formula_units_Z 16
_cell_length_a 23.332401
_cell_length_b 23.675078
_cell_length_c 5.485203
_cell_angle_alpha 90.200741
_cell_angle_beta 90.368838
_cell_angle_gamma 12.137448
_cell_volume 637.012563
_symmetry_space_group_name_H-M "P -1"
_symmetry_group_IT_number 2
_symmetry_cell_setting 'triclinic'
loop_
_space_group_symop_operation_xyz
x,y,z
-x,-y,-z
loop_
_atom_site_type_symbol
_atom_site_label
_atom_site_fract_x
_atom_site_fract_y
_atom_site_fract_z
Si Si1 0.609747 0.776708 0.504602
Si Si2 0.907243 0.985077 0.489555
Si Si3 0.715545 0.742184 0.009294
Si Si4 0.393884 0.472777 0.793644
Si Si5 0.778550 0.257317 0.897469
Si Si6 0.329889 0.419314 0.016891
Si Si7 0.839710 0.936551 0.308896
Si Si8 0.970858 0.712652 0.631588
O O1 0.649930 0.768758 0.764723
O O2 0.791712 0.544602 0.525434
O O3 0.297907 0.064826 0.421848
O O4 0.714053 0.710462 0.267406
O O5 0.669711 0.232000 0.673183
O O6 0.767000 0.073220 0.314358
O O7 0.138249 0.724830 0.613843
O O8 0.087131 0.859875 0.364984
O O9 0.000000 0.500000 0.000000
O O10 0.500000 0.000000 0.000000
O O11 0.437193 0.365053 0.837316
O O12 0.281662 0.620434 0.010407
O O13 0.500000 0.500000 0.000000
O O14 0.000000 0.000000 0.000000
O O15 0.133293 0.563491 0.886288
O O16 0.599884 0.137844 0.151601
O O17 0.127617 0.649049 0.186588
O O18 0.871205 0.871150 0.556734
#
# Coordination Sequence:
#
# PCOD9071188 Si02
#       8
#     2   2   2   2   2   2   2   2
#     4  12  28  47  80 118 162 201 266 336 386 458
#     4  12  26  46  73 104 139 188 247 299 375 472
#     4  12  26  52  80 112 154 216 272 322 386 456
#     4  12  26  46  73 104 139 188 247 299 375 472
#     4  12  28  48  70 102 136 180 242 320 386 438
#     4  12  26  45  74 104 150 201 245 298 374 474
#     4  12  26  45  74 104 150 201 245 298 374 474
#     4  12  28  47  70 120 158 195 248 312 392 444
#
# _framework density 25.117243999999999
#
# number of rings (size 3 to 8) (size 9 to 14) (size 15 to 20)
#    0.000    0.000    2.500    6.750    8.750    3.000 
#    0.000    0.000    0.000    0.000    0.000    0.000 
#    0.000    0.000    0.000    0.000    0.000    0.000 
#
# Total GULP energy -89377.142446 kJ/mol
# GULP energy per Si atom -5586.071403 kJ/mol
# Density = 2.506008 g / cm^3
# Si number density = 25.117244 Si / 1000 Ang^3
#
#
#
# Elastic Constant Matrix: (Units=GPa)
#
#
# Indices 1 2 3 4 5 6 
#
# 1 72.4833 26.2338 28.4104 6.4188 2.3198 -4.0350
# 2 26.2338 190.0165 29.4619 7.8837 -3.5193 -9.2462
# 3 28.4104 29.4619 86.7437 7.9871 5.2161 -6.0128
# 4 6.4188 7.8837 7.9871 52.8469 3.7008 3.7828
# 5 2.3198 -3.5193 5.2161 3.7008 46.8956 6.7192
# 6 -4.0350 -9.2462 -6.0128 3.7828 6.7192 62.5637
#
#
#
# Elastic Compliance Matrix: (Units=1/GPa)
#
#
# Indices 1 2 3 4 5 6 
#
# 1 0.016296 -0.001462 -0.004686 -0.001061 -0.000381 0.000490
# 2 -0.001462 0.005747 -0.001419 -0.000551 0.000621 0.000585
# 3 -0.004686 -0.001419 0.013824 -0.001281 -0.001462 0.001051
# 4 -0.001061 -0.000551 -0.001281 0.019506 -0.001196 -0.001324
# 5 -0.000381 0.000621 -0.001462 -0.001196 0.021985 -0.002362
# 6 0.000490 0.000585 0.001051 -0.001324 -0.002362 0.016537
#
#
# Mechanical properties :
#
#
# Convention : Reuss Voigt Hill
#
# Bulk Modulus (GPa) = 48.23510 57.49509 52.86509
# Shear Modulus (GPa) = 43.12585 50.13706 46.63146
#
# Velocity S-wave (km/s) = 4.14814 4.47264 4.31345
# Velocity P-wave (km/s) = 6.49526 7.04366 6.77501
#
# Compressibility (1/GPa) = 0.02073179
#
# Stress axis : x y z
#
# Youngs Moduli (GPa) = 61.36585 173.98923 72.33957
#
# Poissons Ratio (x) = 0.25445 0.33898
# Poissons Ratio (y) = 0.08974 0.10266
# Poissons Ratio (z) = 0.28755 0.24692
#
# Static dielectric constant tensor:
#      x y z
#    x 2.115700 -0.066620 0.043370 
#    y -0.066620 1.880890 -0.018390 
#    z 0.043370 -0.018390 2.114800 
# 
# From -- ./inp_files/127763.got.cif
#   From: 2010.05.17/outbox.cif.g08.bks.cpg/sg2_64_cif.got.tgz:127763.got - 2010.06.03 11:33:40.
