data_PCOD9071171
_publ_section_title
;
Structure prediction by ZEFSAII (Michael W. Deem and Ramdas Pophale) SiO2 
 PCOD9071171
Probable space group: P -1
;
_chemical_formula_sum "Si O2"
_cell_formula_units_Z 12
_cell_length_a 8.161911
_cell_length_b 11.892663
_cell_length_c 5.197789
_cell_angle_alpha 100.823499
_cell_angle_beta 86.211616
_cell_angle_gamma 90.676695
_cell_volume 494.474616
_symmetry_space_group_name_H-M "P -1"
_symmetry_group_IT_number 2
_symmetry_cell_setting 'triclinic'
loop_
_space_group_symop_operation_xyz
x,y,z
-x,-y,-z
loop_
_atom_site_type_symbol
_atom_site_label
_atom_site_fract_x
_atom_site_fract_y
_atom_site_fract_z
Si Si1 0.285499 0.187965 0.257540
Si Si2 0.388193 0.523170 0.776240
Si Si3 0.830003 0.689191 0.175638
Si Si4 0.182182 0.972881 0.382988
Si Si5 0.608020 0.074996 0.227133
Si Si6 0.809729 0.247975 0.007701
O O1 0.183599 0.242241 0.526056
O O2 0.471556 0.173505 0.328288
O O3 0.206631 0.061473 0.181799
O O4 0.277999 0.256979 0.022371
O O5 0.500000 0.500000 0.500000
O O6 0.237761 0.434031 0.786221
O O7 0.500000 0.500000 0.000000
O O8 0.311163 0.648652 0.872233
O O9 0.011374 0.699882 0.040141
O O10 0.324560 0.003401 0.585209
O O11 0.217423 0.839864 0.264127
O O12 0.000000 0.000000 0.500000
O O13 0.771611 0.149577 0.177981
O O14 0.500000 0.000000 0.000000
#
# Coordination Sequence:
#
# PCOD9071171 Si02
#       6
#     2   2   2   2   2   2
#     4  12  26  46  77 111 160 201 260 315 388 465
#     4  12  29  54  82 111 151 205 269 329 388 463
#     4  12  27  50  78 114 154 208 258 323 391 463
#     4  12  26  46  74 116 162 208 256 322 395 470
#     4  12  26  44  73 114 160 209 262 313 388 470
#     4  12  28  46  80 112 160 204 262 323 394 466
#
# _framework density 24.268180000000001
#
# number of rings (size 3 to 8) (size 9 to 14) (size 15 to 20)
#    0.000    0.000    3.333    6.000    7.000    1.333 
#    0.000    3.333    0.000    0.000    0.000    0.000 
#    0.000    0.000    0.000    0.000    0.000    0.000 
#
# Total GULP energy -66933.305171 kJ/mol
# GULP energy per Si atom -5577.775431 kJ/mol
# Density = 2.421294 g / cm^3
# Si number density = 24.268180 Si / 1000 Ang^3
#
#
#
# Elastic Constant Matrix: (Units=GPa)
#
#
# Indices 1 2 3 4 5 6 
#
# 1 94.1014 46.1169 38.9212 8.3620 -20.8662 9.1501
# 2 46.1169 185.8472 55.1935 6.1929 -13.6844 12.2651
# 3 38.9212 55.1935 139.5512 -1.5287 -9.4081 -14.6852
# 4 8.3620 6.1929 -1.5287 42.5376 -1.1010 -13.7183
# 5 -20.8662 -13.6844 -9.4081 -1.1010 42.2548 -10.9316
# 6 9.1501 12.2651 -14.6852 -13.7183 -10.9316 44.6730
#
#
#
# Elastic Compliance Matrix: (Units=1/GPa)
#
#
# Indices 1 2 3 4 5 6 
#
# 1 0.014759 -0.001915 -0.003451 -0.003782 0.004869 -0.003601
# 2 -0.001915 0.006829 -0.002484 -0.001614 -0.000056 -0.002808
# 3 -0.003451 -0.002484 0.009867 0.003360 0.001325 0.005988
# 4 -0.003782 -0.001614 0.003360 0.028387 0.002086 0.011550
# 5 0.004869 -0.000056 0.001325 0.002086 0.028212 0.006998
# 6 -0.003601 -0.002808 0.005988 0.011550 0.006998 0.031121
#
#
# Mechanical properties :
#
#
# Convention : Reuss Voigt Hill
#
# Bulk Modulus (GPa) = 63.47250 77.77367 70.62308
# Shear Modulus (GPa) = 35.68243 44.51093 40.09668
#
# Velocity S-wave (km/s) = 3.83866 4.28732 4.06918
# Velocity P-wave (km/s) = 6.77189 7.52498 7.15834
#
# Compressibility (1/GPa) = 0.01575485
#
# Stress axis : x y z
#
# Youngs Moduli (GPa) = 67.75649 146.44314 101.34928
#
# Poissons Ratio (x) = 0.28047 0.34975
# Poissons Ratio (y) = 0.12977 0.25171
# Poissons Ratio (z) = 0.23382 0.36370
#
# Static dielectric constant tensor:
#      x y z
#    x 2.030960 -0.043020 -0.070360 
#    y -0.043020 1.919370 0.113430 
#    z -0.070360 0.113430 2.168230 
# 
# From -- ./inp_files/28187.got.cif
#   From: 2010.05.17/outbox.cif.g08.bks.cpg/sg2_15_cif.got.tgz:28187.got - 2010.06.03 11:33:40.
