data_PCOD9071659
_publ_section_title
;
Structure prediction by ZEFSAII (Michael W. Deem and Ramdas Pophale) SiO2 
 PCOD9071659
Probable space group: P -1
;
_chemical_formula_sum "Si O2"
_cell_formula_units_Z 16
_cell_length_a 14.269038
_cell_length_b 10.318858
_cell_length_c 7.018144
_cell_angle_alpha 130.023947
_cell_angle_beta 79.586907
_cell_angle_gamma 131.475157
_cell_volume 536.026872
_symmetry_space_group_name_H-M "P -1"
_symmetry_group_IT_number 2
_symmetry_cell_setting 'triclinic'
loop_
_space_group_symop_operation_xyz
x,y,z
-x,-y,-z
loop_
_atom_site_type_symbol
_atom_site_label
_atom_site_fract_x
_atom_site_fract_y
_atom_site_fract_z
Si Si1 0.034488 0.284964 0.805172
Si Si2 0.524959 0.010849 0.771820
Si Si3 0.781416 0.660670 0.718903
Si Si4 0.029655 0.792373 0.684023
Si Si5 0.268777 0.865476 0.729137
Si Si6 0.785195 0.174239 0.853820
Si Si7 0.286368 0.422737 0.788397
Si Si8 0.535084 0.547711 0.758982
O O1 0.125327 0.573491 0.055751
O O2 0.141413 0.272683 0.805827
O O3 0.004299 0.218284 0.531574
O O4 0.881517 0.131771 0.794125
O O5 0.372084 0.854787 0.601865
O O6 0.625161 0.979714 0.663455
O O7 0.620719 0.291984 0.947064
O O8 0.500000 0.000000 0.000000
O O9 0.745791 0.618509 0.466258
O O10 0.634262 0.515339 0.731087
O O11 0.881566 0.628318 0.687940
O O12 0.875902 0.942765 0.004565
O O13 0.122405 0.744187 0.593397
O O14 0.231043 0.782353 0.884355
O O15 0.368699 0.161711 0.972331
O O16 0.387803 0.396751 0.770521
O O17 0.500000 0.500000 0.500000
#
# Coordination Sequence:
#
# PCOD9071659 Si02
#       8
#     2   2   2   2   2   2   2   2
#     4   9  17  28  42  61  86 117 136 162 209 255
#     4   8  14  25  41  62  83 104 136 176 206 233
#     4   8  14  24  40  60  82 106 134 171 207 243
#     4   9  16  26  41  62  86 108 137 170 210 249
#     4   9  16  26  43  66  84 104 138 179 206 237
#     4   9  17  29  43  60  86 112 141 170 203 245
#     4   8  13  23  41  63  81 104 140 173 200 239
#     4   8  13  23  42  65  81 101 137 177 206 234
#
# _framework density 29.849247999999999
#
# number of rings (size 3 to 8) (size 9 to 14) (size 15 to 20)
#    0.000    3.500    0.000    0.000    0.000    0.500 
#    0.000    0.625    0.000   27.000    0.000   22.750 
#    0.000    0.000    0.000    0.000    0.000    0.000 
#
# Total GULP energy -89495.653741 kJ/mol
# GULP energy per Si atom -5593.478359 kJ/mol
# Density = 2.978131 g / cm^3
# Si number density = 29.849248 Si / 1000 Ang^3
#
#
#
# Elastic Constant Matrix: (Units=GPa)
#
#
# Indices 1 2 3 4 5 6 
#
# 1 305.5915 117.3680 34.7930 20.0853 -18.5023 112.0402
# 2 117.3680 145.8875 66.1338 17.3688 7.0039 68.8090
# 3 34.7930 66.1338 99.7036 -7.4383 -5.3032 19.7685
# 4 20.0853 17.3688 -7.4383 50.2125 12.9353 11.9109
# 5 -18.5023 7.0039 -5.3032 12.9353 39.6334 5.6054
# 6 112.0402 68.8090 19.7685 11.9109 5.6054 101.1834
#
#
#
# Elastic Compliance Matrix: (Units=1/GPa)
#
#
# Indices 1 2 3 4 5 6 
#
# 1 0.007024 -0.003635 0.001268 -0.001394 0.005350 -0.005686
# 2 -0.003635 0.017178 -0.009599 -0.003637 -0.004105 -0.005126
# 3 0.001268 -0.009599 0.016157 0.004144 0.002911 0.001318
# 4 -0.001394 -0.003637 0.004144 0.024070 -0.007421 0.000785
# 5 0.005350 -0.004105 0.002911 -0.007421 0.031916 -0.004596
# 6 -0.005686 -0.005126 0.001318 0.000785 -0.004596 0.019570
#
#
# Mechanical properties :
#
#
# Convention : Reuss Voigt Hill
#
# Bulk Modulus (GPa) = 60.87499 109.75248 85.31374
# Shear Modulus (GPa) = 34.40580 60.39837 47.40209
#
# Velocity S-wave (km/s) = 3.39876 4.50315 3.98936
# Velocity P-wave (km/s) = 5.98669 7.99291 7.06141
#
# Compressibility (1/GPa) = 0.01642711
#
# Stress axis : x y z
#
# Youngs Moduli (GPa) = 142.36207 58.21339 61.89203
#
# Poissons Ratio (x) = 0.21159 -0.07846
# Poissons Ratio (y) = 0.51745 0.59412
# Poissons Ratio (z) = -0.18047 0.55880
#
# Static dielectric constant tensor:
#      x y z
#    x 2.439110 0.009990 0.027810 
#    y 0.009990 2.272130 -0.013060 
#    z 0.027810 -0.013060 2.423850 
# 
# From -- ./inp_files/198102.got.cif
#   From: 2010.05.17/outbox.cif.g08.bks.cpg/sg2_100_cif.got.tgz:198102.got - 2010.06.03 11:33:40.
