data_PCOD9071424
_publ_section_title
;
Structure prediction by ZEFSAII (Michael W. Deem and Ramdas Pophale) SiO2 
 PCOD9071424
Probable space group: P -1
;
_chemical_formula_sum "Si O2"
_cell_formula_units_Z 13
_cell_length_a 14.086379
_cell_length_b 8.099813
_cell_length_c 8.868406
_cell_angle_alpha 33.888077
_cell_angle_beta 90.078657
_cell_angle_gamma 103.285320
_cell_volume 514.558445
_symmetry_space_group_name_H-M "P -1"
_symmetry_group_IT_number 2
_symmetry_cell_setting 'triclinic'
loop_
_space_group_symop_operation_xyz
x,y,z
-x,-y,-z
loop_
_atom_site_type_symbol
_atom_site_label
_atom_site_fract_x
_atom_site_fract_y
_atom_site_fract_z
Si Si1 0.339556 0.461627 0.806444
Si Si2 0.224524 0.855650 0.468215
Si Si3 0.885829 0.878006 0.517349
Si Si4 0.616431 0.588011 0.488251
Si Si5 0.500000 0.500000 0.000000
Si Si6 0.671336 0.298777 0.988648
Si Si7 0.928609 0.693497 0.325700
O O1 0.327764 0.804460 0.555376
O O2 0.324867 0.368153 0.702791
O O3 0.451275 0.488600 0.840157
O O4 0.255427 0.170927 0.123706
O O5 0.160731 0.548817 0.598069
O O6 0.159749 0.877583 0.596007
O O7 0.792486 0.536836 0.823715
O O8 0.896668 0.821491 0.382514
O O9 0.000000 0.000000 0.500000
O O10 0.500000 0.500000 0.500000
O O11 0.637803 0.338118 0.786464
O O12 0.655957 0.937916 0.299364
O O13 0.405986 0.599432 0.989465
O O14 0.000000 0.500000 0.500000
O O15 0.000000 0.000000 0.000000
#
# Coordination Sequence:
#
# PCOD9071424 Si02
#       7
#     2   2   2   2   1   2   2
#     4  12  27  49  78 110 156 203 258 323 399 475
#     4  12  28  51  79 115 155 210 261 329 401 468
#     4  12  28  54  82 116 165 214 268 334 398 473
#     4  12  26  49  80 111 158 208 260 327 399 475
#     4  12  28  48  80 112 164 192 266 326 400 474
#     4  12  29  49  78 119 153 211 265 322 397 484
#     4  12  27  50  81 113 154 211 270 328 391 474
#
# _framework density 25.264379999999999
#
# number of rings (size 3 to 8) (size 9 to 14) (size 15 to 20)
#    0.000    0.000    4.615    4.154    4.308    4.308 
#    0.000    0.000    0.000    0.000    0.000    0.000 
#    0.000    0.000    0.000    0.000    0.000    0.000 
#
# Total GULP energy -72590.678617 kJ/mol
# GULP energy per Si atom -5583.898355 kJ/mol
# Density = 2.520688 g / cm^3
# Si number density = 25.264380 Si / 1000 Ang^3
#
#
#
# Elastic Constant Matrix: (Units=GPa)
#
#
# Indices 1 2 3 4 5 6 
#
# 1 120.7181 34.2207 11.6411 4.3504 -2.0584 -14.1203
# 2 34.2207 175.1048 23.9484 23.2807 -14.2443 -22.8306
# 3 11.6411 23.9484 91.8985 21.0129 8.9247 -27.2398
# 4 4.3504 23.2807 21.0129 30.0635 -3.9851 -3.2102
# 5 -2.0584 -14.2443 8.9247 -3.9851 36.8716 9.3726
# 6 -14.1203 -22.8306 -27.2398 -3.2102 9.3726 59.5817
#
#
#
# Elastic Compliance Matrix: (Units=1/GPa)
#
#
# Indices 1 2 3 4 5 6 
#
# 1 0.008913 -0.001576 -0.000314 0.000254 -0.000373 0.001437
# 2 -0.001576 0.007031 -0.000246 -0.004632 0.001760 0.001682
# 3 -0.000314 -0.000246 0.016744 -0.011598 -0.007461 0.008035
# 4 0.000254 -0.004632 -0.011598 0.045286 0.007386 -0.005739
# 5 -0.000373 0.001760 -0.007461 0.007386 0.032293 -0.007507
# 6 0.001437 0.001682 0.008035 -0.005739 -0.007507 0.022314
#
#
# Mechanical properties :
#
#
# Convention : Reuss Voigt Hill
#
# Bulk Modulus (GPa) = 35.19140 58.59352 46.89246
# Shear Modulus (GPa) = 34.17080 46.49744 40.33412
#
# Velocity S-wave (km/s) = 3.68166 4.29468 3.99993
# Velocity P-wave (km/s) = 5.65971 6.91628 6.31931
#
# Compressibility (1/GPa) = 0.02841603
#
# Stress axis : x y z
#
# Youngs Moduli (GPa) = 112.19139 142.23446 59.72377
#
# Poissons Ratio (x) = 0.22411 0.01877
# Poissons Ratio (y) = 0.17678 0.01468
# Poissons Ratio (z) = 0.03527 0.03497
#
# Static dielectric constant tensor:
#      x y z
#    x 2.352740 0.055110 -0.154750 
#    y 0.055110 2.077930 0.021470 
#    z -0.154750 0.021470 1.988200 
# 
# From -- ./inp_files/33579.got.cif
#   From: 2010.05.17/outbox.cif.g08.bks.cpg/sg2_17_cif.got.tgz:33579.got - 2010.06.03 11:33:40.
