data_PCOD9071231
_publ_section_title
;
Structure prediction by ZEFSAII (Michael W. Deem and Ramdas Pophale) SiO2 
 PCOD9071231
Probable space group: P -1
;
_chemical_formula_sum "Si O2"
_cell_formula_units_Z 14
_cell_length_a 8.203212
_cell_length_b 16.715156
_cell_length_c 9.615186
_cell_angle_alpha 58.109732
_cell_angle_beta 119.820512
_cell_angle_gamma 148.141770
_cell_volume 587.367960
_symmetry_space_group_name_H-M "P -1"
_symmetry_group_IT_number 2
_symmetry_cell_setting 'triclinic'
loop_
_space_group_symop_operation_xyz
x,y,z
-x,-y,-z
loop_
_atom_site_type_symbol
_atom_site_label
_atom_site_fract_x
_atom_site_fract_y
_atom_site_fract_z
Si Si1 0.704545 0.938952 0.492545
Si Si2 0.591780 0.135002 0.844563
Si Si3 0.803400 0.328734 0.270762
Si Si4 0.272322 0.180125 0.998063
Si Si5 0.802619 0.683906 0.944458
Si Si6 0.435168 0.664791 0.284106
Si Si7 0.870215 0.734242 0.595319
O O1 0.507427 0.909505 0.315277
O O2 0.454989 0.780793 0.618188
O O3 0.000000 0.000000 0.500000
O O4 0.871706 0.088011 0.511577
O O5 0.464741 0.186356 0.788844
O O6 0.946825 0.278955 0.903841
O O7 0.500000 0.000000 0.000000
O O8 0.067343 0.511343 0.242666
O O9 0.012678 0.319118 0.357789
O O10 0.592041 0.255784 0.110397
O O11 0.374347 0.288267 0.815391
O O12 0.192836 0.215422 0.062095
O O13 0.000000 0.000000 0.000000
O O14 0.863395 0.727728 0.766649
O O15 0.500000 0.500000 0.000000
O O16 0.550031 0.646002 0.477198
#
# Coordination Sequence:
#
# PCOD9071231 Si02
#       7
#     2   2   2   2   2   2   2
#     4  12  26  48  74 110 151 198 263 320 378 459
#     4  12  26  46  76 105 151 203 253 314 386 455
#     4  12  28  48  78 111 155 205 254 321 396 452
#     4  12  27  47  76 112 154 207 257 312 381 462
#     4  12  27  47  77 112 156 202 258 316 387 460
#     4  12  27  49  77 113 160 198 258 322 384 462
#     4  12  26  49  76 112 156 200 257 319 382 468
#
# _framework density 23.835146000000002
#
# number of rings (size 3 to 8) (size 9 to 14) (size 15 to 20)
#    0.000    0.000    2.857    6.429    6.000    0.571 
#    0.000    0.000    0.000    0.000    0.000    0.000 
#    0.000    0.000    0.000    0.000    0.000    0.000 
#
# Total GULP energy -78283.173731 kJ/mol
# GULP energy per Si atom -5591.655266 kJ/mol
# Density = 2.378090 g / cm^3
# Si number density = 23.835146 Si / 1000 Ang^3
#
#
#
# Elastic Constant Matrix: (Units=GPa)
#
#
# Indices 1 2 3 4 5 6 
#
# 1 97.4188 38.9902 22.4666 -7.5328 13.8605 -15.2175
# 2 38.9902 171.6975 48.2398 11.3284 -3.1580 10.2300
# 3 22.4666 48.2398 120.8179 20.8609 8.7022 13.0747
# 4 -7.5328 11.3284 20.8609 46.0464 13.1163 7.5217
# 5 13.8605 -3.1580 8.7022 13.1163 42.7346 -5.0030
# 6 -15.2175 10.2300 13.0747 7.5217 -5.0030 36.1718
#
#
#
# Elastic Compliance Matrix: (Units=1/GPa)
#
#
# Indices 1 2 3 4 5 6 
#
# 1 0.014183 -0.003306 -0.002420 0.004678 -0.005073 0.006102
# 2 -0.003306 0.007416 -0.001980 -0.001793 0.002331 -0.002078
# 3 -0.002420 -0.001980 0.010638 -0.003931 -0.000741 -0.003588
# 4 0.004678 -0.001793 -0.003931 0.028047 -0.009844 -0.003298
# 5 -0.005073 0.002331 -0.000741 -0.009844 0.028800 0.003505
# 6 0.006102 -0.002078 -0.003588 -0.003298 0.003505 0.033268
#
#
# Mechanical properties :
#
#
# Convention : Reuss Voigt Hill
#
# Bulk Modulus (GPa) = 59.43559 67.70305 63.56932
# Shear Modulus (GPa) = 34.87390 43.67308 39.27349
#
# Velocity S-wave (km/s) = 3.82924 4.28518 4.06361
# Velocity P-wave (km/s) = 6.67390 7.27668 6.98180
#
# Compressibility (1/GPa) = 0.01682494
#
# Stress axis : x y z
#
# Youngs Moduli (GPa) = 70.50614 134.83939 94.00415
#
# Poissons Ratio (x) = 0.44584 0.22749
# Poissons Ratio (y) = 0.23313 0.18610
# Poissons Ratio (z) = 0.17062 0.26694
#
# Static dielectric constant tensor:
#      x y z
#    x 2.035730 0.020190 0.025070 
#    y 0.020190 1.950310 0.022750 
#    z 0.025070 0.022750 1.994920 
# 
# From -- ./inp_files/217146.got.cif
#   From: 2010.05.17/outbox.cif.g08.bks.cpg/sg2_109_cif.got.tgz:217146.got - 2010.06.03 11:33:40.
