data_PCOD9071728
_publ_section_title
;
Structure prediction by ZEFSAII (Michael W. Deem and Ramdas Pophale) SiO2 
 PCOD9071728
Probable space group: P -1
;
_chemical_formula_sum "Si O2"
_cell_formula_units_Z 8
_cell_length_a 6.008823
_cell_length_b 6.008792
_cell_length_c 10.995658
_cell_angle_alpha 66.805366
_cell_angle_beta 66.805352
_cell_angle_gamma 105.393374
_cell_volume 290.911710
_symmetry_space_group_name_H-M "P -1"
_symmetry_group_IT_number 2
_symmetry_cell_setting 'triclinic'
loop_
_space_group_symop_operation_xyz
x,y,z
-x,-y,-z
loop_
_atom_site_type_symbol
_atom_site_label
_atom_site_fract_x
_atom_site_fract_y
_atom_site_fract_z
Si Si1 0.874796 0.817422 0.946452
Si Si2 0.317422 0.374796 0.446452
Si Si3 0.745650 0.322835 0.242546
Si Si4 0.177163 0.754349 0.257455
O O1 0.126213 0.862283 0.792625
O O2 0.698360 0.940019 0.893385
O O3 0.742135 0.502824 0.088832
O O4 0.000000 0.000000 0.000000
O O5 0.500000 0.500000 0.500000
O O6 0.440019 0.198359 0.393386
O O7 0.362282 0.626214 0.292624
O O8 0.002826 0.242137 0.588830
O O9 0.964905 0.535093 0.250001
#
# Coordination Sequence:
#
# PCOD9071728 Si02
#       4
#     2   2   2   2
#     4   9  18  34  53  74 102 132 165 206 247 293
#     4   9  18  34  53  74 102 132 165 206 247 293
#     4   9  18  34  53  75 102 130 164 205 248 295
#     4   9  18  34  53  75 102 130 164 205 248 295
#
# _framework density 27.499752000000001
#
# number of rings (size 3 to 8) (size 9 to 14) (size 15 to 20)
#    0.000    3.000    0.000    0.000    0.000    2.000 
#    0.000   30.000    0.000    0.000    0.000    0.000 
#    0.000    0.000    0.000    0.000    0.000    0.000 
#
# Total GULP energy -44778.295016 kJ/mol
# GULP energy per Si atom -5597.286877 kJ/mol
# Density = 2.743716 g / cm^3
# Si number density = 27.499752 Si / 1000 Ang^3
#
#
#
# Elastic Constant Matrix: (Units=GPa)
#
#
# Indices 1 2 3 4 5 6 
#
# 1 115.4696 68.0576 39.0097 5.0376 29.3382 -9.0554
# 2 68.0576 128.3878 47.3856 27.3288 9.2356 -27.5879
# 3 39.0097 47.3856 91.2346 16.6718 19.8685 -23.7527
# 4 5.0376 27.3288 16.6718 67.0676 -42.4958 3.9795
# 5 29.3382 9.2356 19.8685 -42.4958 52.0815 0.6271
# 6 -9.0554 -27.5879 -23.7527 3.9795 0.6271 77.8511
#
#
#
# Elastic Compliance Matrix: (Units=1/GPa)
#
#
# Indices 1 2 3 4 5 6 
#
# 1 0.016391 -0.005541 0.002211 -0.011127 -0.018189 0.001333
# 2 -0.005541 0.015171 0.000444 -0.012598 -0.010084 0.005592
# 3 0.002211 0.000444 0.025583 -0.029816 -0.035533 0.010030
# 4 -0.011127 -0.012598 -0.029816 0.087432 0.091458 -0.020061
# 5 -0.018189 -0.010084 -0.035533 0.091458 0.119682 -0.022170
# 6 0.001333 0.005592 0.010030 -0.020061 -0.022170 0.019246
#
#
# Mechanical properties :
#
#
# Convention : Reuss Voigt Hill
#
# Bulk Modulus (GPa) = 19.46588 71.55532 45.51060
# Shear Modulus (GPa) = 16.31844 51.44263 33.88054
#
# Velocity S-wave (km/s) = 2.43863 4.32980 3.51384
# Velocity P-wave (km/s) = 3.87597 7.14654 5.74875
#
# Compressibility (1/GPa) = 0.05137194
#
# Stress axis : x y z
#
# Youngs Moduli (GPa) = 61.00993 65.91428 39.08865
#
# Poissons Ratio (x) = 0.36526 -0.08643
# Poissons Ratio (y) = 0.33808 -0.01735
# Poissons Ratio (z) = -0.13491 -0.02925
#
# Static dielectric constant tensor:
#      x y z
#    x 2.068500 -0.031320 -0.041050 
#    y -0.031320 2.079550 -0.034450 
#    z -0.041050 -0.034450 2.229610 
# 
# From -- ./inp_files/1326.got.cif
#   From: 2010.05.17/outbox.cif.g08.bks.cpg/sg2_1_cif.got.tgz:1326.got - 2010.06.03 11:33:40.
