data_PCOD9071480
_publ_section_title
;
Structure prediction by ZEFSAII (Michael W. Deem and Ramdas Pophale) SiO2 
 PCOD9071480
Probable space group: P -1
;
_chemical_formula_sum "Si O2"
_cell_formula_units_Z 14
_cell_length_a 24.385400
_cell_length_b 11.381984
_cell_length_c 11.333984
_cell_angle_alpha 35.608478
_cell_angle_beta 20.818495
_cell_angle_gamma 27.104009
_cell_volume 505.852063
_symmetry_space_group_name_H-M "P -1"
_symmetry_group_IT_number 2
_symmetry_cell_setting 'triclinic'
loop_
_space_group_symop_operation_xyz
x,y,z
-x,-y,-z
loop_
_atom_site_type_symbol
_atom_site_label
_atom_site_fract_x
_atom_site_fract_y
_atom_site_fract_z
Si Si1 0.810805 0.274137 0.595866
Si Si2 0.591044 0.323791 0.214741
Si Si3 0.681769 0.998296 0.617569
Si Si4 0.263569 0.964025 0.251343
Si Si5 0.630012 0.848071 0.481987
Si Si6 0.858695 0.467600 0.659897
Si Si7 0.213985 0.698832 0.828598
O O1 0.788800 0.203498 0.567103
O O2 0.792998 0.532864 0.411017
O O3 0.623670 0.345703 0.991271
O O4 0.000000 0.000000 0.500000
O O5 0.370164 0.497951 0.576702
O O6 0.665095 0.225260 0.403838
O O7 0.710288 0.423169 0.941242
O O8 0.688593 0.020575 0.272461
O O9 0.828812 0.725447 0.483395
O O10 0.500000 0.000000 0.000000
O O11 0.269247 0.969306 0.375623
O O12 0.464914 0.895580 0.861782
O O13 0.076575 0.246736 0.357288
O O14 0.500000 0.000000 0.500000
O O15 0.834218 0.445339 0.868040
O O16 0.000000 0.000000 0.000000
#
# Coordination Sequence:
#
# PCOD9071480 Si02
#       7
#     2   2   2   2   2   2   2
#     4  12  28  54  82 118 163 217 272 340 411 487
#     4  12  27  51  76 116 163 208 271 340 405 493
#     4  12  27  47  76 110 156 213 264 333 410 481
#     4  12  26  51  77 112 161 208 269 338 407 488
#     4  12  29  47  81 119 159 213 273 332 416 483
#     4  12  27  48  73 112 157 206 269 329 405 487
#     4  12  27  46  76 113 155 211 268 328 401 487
#
# _framework density 27.676075000000001
#
# number of rings (size 3 to 8) (size 9 to 14) (size 15 to 20)
#    0.000    0.000    5.714    3.000    6.000    0.571 
#    0.000    0.000    0.000    0.000    0.000    0.000 
#    0.000    0.000    0.000    0.000    0.000    0.000 
#
# Total GULP energy -78190.746125 kJ/mol
# GULP energy per Si atom -5585.053295 kJ/mol
# Density = 2.761308 g / cm^3
# Si number density = 27.676075 Si / 1000 Ang^3
#
#
#
# Elastic Constant Matrix: (Units=GPa)
#
#
# Indices 1 2 3 4 5 6 
#
# 1 140.1398 58.7253 17.0904 -4.5637 -0.6991 16.4255
# 2 58.7253 259.0523 33.9404 -7.5455 -6.9551 32.7765
# 3 17.0904 33.9404 82.1329 0.2967 -8.0133 5.8760
# 4 -4.5637 -7.5455 0.2967 52.8882 5.5110 -7.5400
# 5 -0.6991 -6.9551 -8.0133 5.5110 29.2725 -6.4806
# 6 16.4255 32.7765 5.8760 -7.5400 -6.4806 55.1809
#
#
#
# Elastic Compliance Matrix: (Units=1/GPa)
#
#
# Indices 1 2 3 4 5 6 
#
# 1 0.008077 -0.001526 -0.001030 0.000368 -0.000839 -0.001436
# 2 -0.001526 0.004675 -0.001447 0.000224 0.000167 -0.002118
# 3 -0.001030 -0.001447 0.013321 -0.000720 0.003425 0.000052
# 4 0.000368 0.000224 -0.000720 0.019628 -0.003361 0.002121
# 5 -0.000839 0.000167 0.003425 -0.003361 0.036553 0.003619
# 6 -0.001436 -0.002118 0.000052 0.002121 0.003619 0.020517
#
#
# Mechanical properties :
#
#
# Convention : Reuss Voigt Hill
#
# Bulk Modulus (GPa) = 55.35508 77.87080 66.61294
# Shear Modulus (GPa) = 42.80799 52.23957 47.52378
#
# Velocity S-wave (km/s) = 3.93714 4.34929 4.14834
# Velocity P-wave (km/s) = 6.38064 7.30885 6.86046
#
# Compressibility (1/GPa) = 0.01806519
#
# Stress axis : x y z
#
# Youngs Moduli (GPa) = 123.80765 213.91310 75.06983
#
# Poissons Ratio (x) = 0.32645 0.07736
# Poissons Ratio (y) = 0.18894 0.10864
# Poissons Ratio (z) = 0.12758 0.30958
#
# Static dielectric constant tensor:
#      x y z
#    x 2.321300 -0.128380 0.016990 
#    y -0.128380 2.689950 -0.159230 
#    z 0.016990 -0.159230 2.341660 
# 
# From -- ./inp_files/477653.got.cif
#   From: 2010.05.17/outbox.cif.g08.bks.cpg/sg2_239_cif.got.tgz:477653.got - 2010.06.03 11:33:40.
