data_PCOD9071683
_publ_section_title
;
Structure prediction by ZEFSAII (Michael W. Deem and Ramdas Pophale) SiO2 
 PCOD9071683
Probable space group: P -1
;
_chemical_formula_sum "Si O2"
_cell_formula_units_Z 16
_cell_length_a 10.142478
_cell_length_b 9.405224
_cell_length_c 20.650843
_cell_angle_alpha 142.775556
_cell_angle_beta 144.436300
_cell_angle_gamma 48.005157
_cell_volume 691.821062
_symmetry_space_group_name_H-M "P -1"
_symmetry_group_IT_number 2
_symmetry_cell_setting 'triclinic'
loop_
_space_group_symop_operation_xyz
x,y,z
-x,-y,-z
loop_
_atom_site_type_symbol
_atom_site_label
_atom_site_fract_x
_atom_site_fract_y
_atom_site_fract_z
Si Si1 0.834607 0.750440 0.331156
Si Si2 0.681783 0.231516 0.106435
Si Si3 0.300142 0.559858 0.390587
Si Si4 0.631956 0.731993 0.118281
Si Si5 0.841561 0.924985 0.817679
Si Si6 0.565464 0.972689 0.409610
Si Si7 0.622471 0.514892 0.829423
Si Si8 0.943436 0.415636 0.049249
O O1 0.718460 0.505485 0.206024
O O2 0.698502 0.867746 0.258380
O O3 0.790623 0.885207 0.428555
O O4 0.089869 0.675265 0.389207
O O5 0.553249 0.271482 0.138481
O O6 0.931511 0.111459 0.150092
O O7 0.517044 0.146260 0.953421
O O8 0.500000 0.500000 0.500000
O O9 0.210586 0.304159 0.244203
O O10 0.382576 0.764883 0.449986
O O11 0.868319 0.624627 0.143451
O O12 0.500000 0.500000 0.000000
O O13 0.634235 0.973226 0.702853
O O14 0.872804 0.163963 0.955702
O O15 0.489533 0.730229 0.323846
O O16 0.799039 0.585254 0.871346
O O17 0.781652 0.462564 0.938022
#
# Coordination Sequence:
#
# PCOD9071683 Si02
#       8
#     2   2   2   2   2   2   2   2
#     4   9  16  28  44  62  86 114 147 178 210 256
#     4   8  15  26  40  61  89 113 141 175 213 255
#     4   9  17  28  43  65  89 110 141 182 220 250
#     4   9  16  28  43  61  88 120 145 170 208 259
#     4   9  16  26  40  65  92 111 135 176 220 257
#     4   9  16  28  45  63  85 113 146 180 214 249
#     4   8  15  27  43  62  83 114 148 178 208 250
#     4   9  16  27  43  62  89 115 142 174 212 259
#
# _framework density 23.127369000000002
#
# number of rings (size 3 to 8) (size 9 to 14) (size 15 to 20)
#    0.000    3.250    0.000    2.625    0.000    0.500 
#    0.000   11.250    0.000    0.750    0.000    0.000 
#    0.000   36.000    0.000    0.000    0.000    0.000 
#
# Total GULP energy -89096.883251 kJ/mol
# GULP energy per Si atom -5568.555203 kJ/mol
# Density = 2.307473 g / cm^3
# Si number density = 23.127369 Si / 1000 Ang^3
#
#
#
# Elastic Constant Matrix: (Units=GPa)
#
#
# Indices 1 2 3 4 5 6 
#
# 1 78.2893 18.6901 25.1399 -5.0063 14.4588 -11.6743
# 2 18.6901 60.7796 22.1981 1.1630 7.8374 -7.5646
# 3 25.1399 22.1981 84.6651 12.3243 18.9681 6.0228
# 4 -5.0063 1.1630 12.3243 35.5350 0.2822 13.5017
# 5 14.4588 7.8374 18.9681 0.2822 16.4887 0.1618
# 6 -11.6743 -7.5646 6.0228 13.5017 0.1618 27.5958
#
#
#
# Elastic Compliance Matrix: (Units=1/GPa)
#
#
# Indices 1 2 3 4 5 6 
#
# 1 0.017291 -0.002030 -0.002732 0.000884 -0.011137 0.006988
# 2 -0.002030 0.019791 -0.004105 -0.001927 -0.002935 0.006422
# 3 -0.002732 -0.004105 0.018464 -0.005111 -0.016769 -0.003712
# 4 0.000884 -0.001927 -0.005111 0.036487 0.005562 -0.016924
# 5 -0.011137 -0.002935 -0.016769 0.005562 0.091055 -0.005111
# 6 0.006988 0.006422 -0.003712 -0.016924 -0.005111 0.050074
#
#
# Mechanical properties :
#
#
# Convention : Reuss Voigt Hill
#
# Bulk Modulus (GPa) = 26.44787 39.53224 32.99006
# Shear Modulus (GPa) = 18.97536 26.43763 22.70649
#
# Velocity S-wave (km/s) = 2.86750 3.38469 3.13677
# Velocity P-wave (km/s) = 4.73539 5.69256 5.23589
#
# Compressibility (1/GPa) = 0.03781022
#
# Stress axis : x y z
#
# Youngs Moduli (GPa) = 57.83501 50.52798 54.16020
#
# Poissons Ratio (x) = 0.10258 0.14798
# Poissons Ratio (y) = 0.11741 0.22233
# Poissons Ratio (z) = 0.15802 0.20742
#
# Static dielectric constant tensor:
#      x y z
#    x 1.888940 -0.011170 0.025720 
#    y -0.011170 1.897340 0.036100 
#    z 0.025720 0.036100 1.958230 
# 
# From -- ./inp_files/253029.got.cif
#   From: 2010.05.17/outbox.cif.g08.bks.cpg/sg2_127_cif.got.tgz:253029.got - 2010.06.03 11:33:40.
