data_PCOD9071358
_publ_section_title
;
Structure prediction by ZEFSAII (Michael W. Deem and Ramdas Pophale) SiO2 
 PCOD9071358
Probable space group: P -1
;
_chemical_formula_sum "Si O2"
_cell_formula_units_Z 10
_cell_length_a 18.442238
_cell_length_b 19.330316
_cell_length_c 10.507043
_cell_angle_alpha 155.640300
_cell_angle_beta 151.587662
_cell_angle_gamma 16.319258
_cell_volume 433.669104
_symmetry_space_group_name_H-M "P -1"
_symmetry_group_IT_number 2
_symmetry_cell_setting 'triclinic'
loop_
_space_group_symop_operation_xyz
x,y,z
-x,-y,-z
loop_
_atom_site_type_symbol
_atom_site_label
_atom_site_fract_x
_atom_site_fract_y
_atom_site_fract_z
Si Si1 0.207550 0.885532 0.880671
Si Si2 0.035550 0.790253 0.272623
Si Si3 0.638817 0.509125 0.136663
Si Si4 0.445941 0.184754 0.831279
Si Si5 0.401894 0.086454 0.136818
O O1 0.197495 0.707721 0.509386
O O2 0.920804 0.190224 0.995235
O O3 0.428162 0.709973 0.034079
O O4 0.303921 0.921133 0.975442
O O5 0.318717 0.347543 0.490093
O O6 0.806514 0.877597 0.115208
O O7 0.000000 0.000000 0.500000
O O8 0.793369 0.483616 0.008231
O O9 0.500000 0.500000 0.000000
O O10 0.500000 0.000000 0.500000
O O11 0.404761 0.139251 0.829017
O O12 0.500000 0.000000 0.000000
#
# Coordination Sequence:
#
# PCOD9071358 Si02
#       5
#     2   2   2   2   2
#     4  12  26  48  82 112 155 208 269 324 393 474
#     4  12  27  47  80 116 158 203 269 330 396 472
#     4  12  28  51  79 114 163 212 263 326 404 473
#     4  12  26  48  78 112 155 208 266 325 394 475
#     4  12  29  48  77 113 160 207 263 330 396 469
#
# _framework density 23.059055000000001
#
# number of rings (size 3 to 8) (size 9 to 14) (size 15 to 20)
#    0.000    0.000    4.000    4.800    5.600    2.400 
#    0.000    0.000    0.000    0.000    0.000    0.000 
#    0.000    0.000    0.000    0.000    0.000    0.000 
#
# Total GULP energy -55875.630759 kJ/mol
# GULP energy per Si atom -5587.563076 kJ/mol
# Density = 2.300657 g / cm^3
# Si number density = 23.059055 Si / 1000 Ang^3
#
#
#
# Elastic Constant Matrix: (Units=GPa)
#
#
# Indices 1 2 3 4 5 6 
#
# 1 163.0170 58.9071 44.0100 8.9857 27.5624 4.7943
# 2 58.9071 108.0414 23.5043 7.9327 7.5619 -9.4409
# 3 44.0100 23.5043 144.9224 -5.9740 9.7083 13.3558
# 4 8.9857 7.9327 -5.9740 48.1763 -2.3611 -6.6599
# 5 27.5624 7.5619 9.7083 -2.3611 54.6031 -11.2163
# 6 4.7943 -9.4409 13.3558 -6.6599 -11.2163 35.3234
#
#
#
# Elastic Compliance Matrix: (Units=1/GPa)
#
#
# Indices 1 2 3 4 5 6 
#
# 1 0.009158 -0.004538 -0.001475 -0.001880 -0.004575 -0.003705
# 2 -0.004538 0.012333 -0.001208 -0.000582 0.001762 0.004819
# 3 -0.001475 -0.001208 0.007966 0.000947 -0.001146 -0.003320
# 4 -0.001880 -0.000582 0.000947 0.022122 0.002805 0.004803
# 5 -0.004575 0.001762 -0.001146 0.002805 0.022600 0.009230
# 6 -0.003705 0.004819 -0.003320 0.004803 0.009230 0.035193
#
#
# Mechanical properties :
#
#
# Convention : Reuss Voigt Hill
#
# Bulk Modulus (GPa) = 66.59931 74.31373 70.45652
# Shear Modulus (GPa) = 38.81377 46.92451 42.86914
#
# Velocity S-wave (km/s) = 4.10717 4.51596 4.31641
# Velocity P-wave (km/s) = 7.17193 7.71294 7.44735
#
# Compressibility (1/GPa) = 0.01501517
#
# Stress axis : x y z
#
# Youngs Moduli (GPa) = 109.18851 81.08092 125.53672
#
# Poissons Ratio (x) = 0.36796 0.18514
# Poissons Ratio (y) = 0.49551 0.15169
# Poissons Ratio (z) = 0.16103 0.09797
#
# Static dielectric constant tensor:
#      x y z
#    x 1.913410 0.104340 -0.019900 
#    y 0.104340 2.002410 -0.049550 
#    z -0.019900 -0.049550 1.871110 
# 
# From -- ./inp_files/59742.got.cif
#   From: 2010.05.17/outbox.cif.g08.bks.cpg/sg2_30_cif.got.tgz:59742.got - 2010.06.03 11:33:40.
