data_PCOD9071040
_publ_section_title
;
Structure prediction by ZEFSAII (Michael W. Deem and Ramdas Pophale) SiO2 
 PCOD9071040
Probable space group: P -1
;
_chemical_formula_sum "Si O2"
_cell_formula_units_Z 16
_cell_length_a 12.255368
_cell_length_b 9.186555
_cell_length_c 9.633877
_cell_angle_alpha 58.843693
_cell_angle_beta 108.016746
_cell_angle_gamma 127.474791
_cell_volume 736.598271
_symmetry_space_group_name_H-M "P -1"
_symmetry_group_IT_number 2
_symmetry_cell_setting 'triclinic'
loop_
_space_group_symop_operation_xyz
x,y,z
-x,-y,-z
loop_
_atom_site_type_symbol
_atom_site_label
_atom_site_fract_x
_atom_site_fract_y
_atom_site_fract_z
Si Si1 0.596580 0.207076 0.515980
Si Si2 0.073027 0.890927 0.646844
Si Si3 0.363966 0.855201 0.111600
Si Si4 0.289161 0.142690 0.841249
Si Si5 0.203679 0.399351 0.167852
Si Si6 0.879826 0.760837 0.082051
Si Si7 0.111183 0.593043 0.617182
Si Si8 0.537267 0.544838 0.651336
O O1 0.606422 0.178737 0.700694
O O2 0.744039 0.314299 0.448452
O O3 0.525257 0.327602 0.395457
O O4 0.500000 0.000000 0.500000
O O5 0.104289 0.764960 0.613265
O O6 0.953474 0.726701 0.783625
O O7 0.209514 0.042065 0.715433
O O8 0.000000 0.000000 0.500000
O O9 0.271145 0.637465 0.106255
O O10 0.500000 0.000000 0.000000
O O11 0.284183 0.970123 0.018503
O O12 0.213538 0.239758 0.832885
O O13 0.447737 0.325097 0.797000
O O14 0.302026 0.351505 0.314880
O O15 0.205133 0.328362 0.048626
O O16 0.921676 0.601212 0.208852
O O17 0.000000 0.000000 0.000000
O O18 0.000000 0.500000 0.500000
O O19 0.500000 0.500000 0.500000
#
# Coordination Sequence:
#
# PCOD9071040 Si02
#       8
#     2   2   2   2   2   2   2   2
#     4  12  30  47  75 113 153 195 252 311 379 442
#     4  12  28  46  78 109 148 200 253 311 381 451
#     4  12  27  48  75 113 150 198 247 309 378 455
#     4  12  26  47  74 106 151 191 253 310 378 446
#     4  12  27  46  79 106 150 198 256 305 382 445
#     4  12  28  49  74 112 150 197 251 317 378 447
#     4  12  29  49  75 107 153 193 253 312 377 450
#     4  12  25  49  76 106 145 195 249 311 370 452
#
# _framework density 21.721474000000001
#
# number of rings (size 3 to 8) (size 9 to 14) (size 15 to 20)
#    0.000    0.000    5.000    3.000   12.250    1.500 
#    0.000    0.000    0.000    0.000    0.000    0.000 
#    0.000    0.000    0.000    0.000    0.000    0.000 
#
# Total GULP energy -89476.008920 kJ/mol
# GULP energy per Si atom -5592.250557 kJ/mol
# Density = 2.167203 g / cm^3
# Si number density = 21.721474 Si / 1000 Ang^3
#
#
#
# Elastic Constant Matrix: (Units=GPa)
#
#
# Indices 1 2 3 4 5 6 
#
# 1 78.8343 21.5420 -6.8213 -12.8591 4.0995 -17.0016
# 2 21.5420 142.5740 33.6231 1.1337 -1.2303 -21.6529
# 3 -6.8213 33.6231 78.8907 -4.3211 16.0712 -12.2533
# 4 -12.8591 1.1337 -4.3211 46.0906 -2.6272 0.8793
# 5 4.0995 -1.2303 16.0712 -2.6272 41.3236 -4.3169
# 6 -17.0016 -21.6529 -12.2533 0.8793 -4.3169 50.7926
#
#
#
# Elastic Compliance Matrix: (Units=1/GPa)
#
#
# Indices 1 2 3 4 5 6 
#
# 1 0.015646 -0.002625 0.003950 0.004573 -0.002375 0.004790
# 2 -0.002625 0.008734 -0.004162 -0.001247 0.002274 0.002055
# 3 0.003950 -0.004162 0.016718 0.002341 -0.006557 0.002983
# 4 0.004573 -0.001247 0.002341 0.023211 0.000198 0.001179
# 5 -0.002375 0.002274 -0.006557 0.000198 0.027159 0.000897
# 6 0.004790 0.002055 0.002983 0.001179 0.000897 0.022943
#
#
# Mechanical properties :
#
#
# Convention : Reuss Voigt Hill
#
# Bulk Modulus (GPa) = 28.22835 44.10964 36.16899
# Shear Modulus (GPa) = 37.90934 44.43838 41.17386
#
# Velocity S-wave (km/s) = 4.18215 4.52799 4.35850
# Velocity P-wave (km/s) = 6.02862 6.90564 6.48198
#
# Compressibility (1/GPa) = 0.03542538
#
# Stress axis : x y z
#
# Youngs Moduli (GPa) = 63.91212 114.49952 59.81434
#
# Poissons Ratio (x) = 0.30056 -0.23627
# Poissons Ratio (y) = 0.16777 0.24892
# Poissons Ratio (z) = -0.25246 0.47650
#
# Static dielectric constant tensor:
#      x y z
#    x 1.779870 -0.212930 0.018070 
#    y -0.212930 3.601490 -0.451190 
#    z 0.018070 -0.451190 1.906380 
# 
# From -- ./inp_files/242643.got.cif
#   From: 2010.05.17/outbox.cif.g08.bks.cpg/sg2_122_cif.got.tgz:242643.got - 2010.06.03 11:33:40.
