data_PCOD9071345
_publ_section_title
;
Structure prediction by ZEFSAII (Michael W. Deem and Ramdas Pophale) SiO2 
 PCOD9071345
Probable space group: P -1
;
_chemical_formula_sum "Si O2"
_cell_formula_units_Z 14
_cell_length_a 8.646192
_cell_length_b 9.236972
_cell_length_c 8.005493
_cell_angle_alpha 83.543024
_cell_angle_beta 69.468604
_cell_angle_gamma 97.803330
_cell_volume 584.304030
_symmetry_space_group_name_H-M "P -1"
_symmetry_group_IT_number 2
_symmetry_cell_setting 'triclinic'
loop_
_space_group_symop_operation_xyz
x,y,z
-x,-y,-z
loop_
_atom_site_type_symbol
_atom_site_label
_atom_site_fract_x
_atom_site_fract_y
_atom_site_fract_z
Si Si1 0.429233 0.097842 0.372482
Si Si2 0.987441 0.856562 0.904528
Si Si3 0.810630 0.688350 0.462853
Si Si4 0.705991 0.617820 0.147161
Si Si5 0.139187 0.850300 0.488367
Si Si6 0.727754 0.296173 0.038380
Si Si7 0.684134 0.374948 0.674025
O O1 0.340680 0.223076 0.470443
O O2 0.575197 0.176531 0.186836
O O3 0.500000 0.000000 0.500000
O O4 0.277157 0.987073 0.355090
O O5 0.063317 0.892046 0.687124
O O6 0.104595 0.750335 0.951994
O O7 0.800290 0.757631 0.985641
O O8 0.000000 0.000000 0.000000
O O9 0.801635 0.630802 0.285636
O O10 0.778972 0.544245 0.610664
O O11 0.983864 0.791330 0.435145
O O12 0.711677 0.461066 0.081059
O O13 0.513480 0.627225 0.256578
O O14 0.242479 0.716121 0.486744
O O15 0.720841 0.298807 0.841700
#
# Coordination Sequence:
#
# PCOD9071345 Si02
#       7
#     2   2   2   2   2   2   2
#     4  12  26  48  77 112 154 203 256 317 386 454
#     4  12  28  50  79 113 157 200 254 320 391 457
#     4  12  26  48  78 114 154 203 256 313 389 456
#     4  12  26  49  81 113 155 202 261 317 381 460
#     4  12  27  49  78 113 160 198 254 318 388 464
#     4  12  27  50  78 114 156 200 261 323 381 457
#     4  12  27  49  80 116 150 204 259 321 386 453
#
# _framework density 23.960128000000001
#
# number of rings (size 3 to 8) (size 9 to 14) (size 15 to 20)
#    0.000    0.000    2.857    6.429    4.000    1.714 
#    0.000    0.000    0.000    0.000    0.000    0.000 
#    0.000    0.000    0.000    0.000    0.000    0.000 
#
# Total GULP energy -78536.444602 kJ/mol
# GULP energy per Si atom -5609.746043 kJ/mol
# Density = 2.390559 g / cm^3
# Si number density = 23.960128 Si / 1000 Ang^3
#
#
#
# Elastic Constant Matrix: (Units=GPa)
#
#
# Indices 1 2 3 4 5 6 
#
# 1 82.2961 18.5049 36.2010 1.8108 -17.8808 8.0777
# 2 18.5049 126.9013 50.8142 -1.0208 -13.7504 -9.5563
# 3 36.2010 50.8142 114.4115 -2.7699 -10.4860 6.0944
# 4 1.8108 -1.0208 -2.7699 51.1995 -0.5247 -7.8389
# 5 -17.8808 -13.7504 -10.4860 -0.5247 37.6173 5.6987
# 6 8.0777 -9.5563 6.0944 -7.8389 5.6987 41.3642
#
#
#
# Elastic Compliance Matrix: (Units=1/GPa)
#
#
# Indices 1 2 3 4 5 6 
#
# 1 0.015911 -0.000207 -0.004144 -0.001293 0.006880 -0.003737
# 2 -0.000207 0.010091 -0.004378 0.000425 0.001947 0.002829
# 3 -0.004144 -0.004378 0.012118 0.000422 0.000105 -0.001922
# 4 -0.001293 0.000425 0.000422 0.020248 -0.000699 0.004222
# 5 0.006880 0.001947 0.000105 -0.000699 0.031398 -0.005367
# 6 -0.003737 0.002829 -0.001922 0.004222 -0.005367 0.027382
#
#
# Mechanical properties :
#
#
# Convention : Reuss Voigt Hill
#
# Bulk Modulus (GPa) = 48.39919 59.40545 53.90232
# Shear Modulus (GPa) = 35.33734 40.57544 37.95639
#
# Velocity S-wave (km/s) = 3.84453 4.11963 3.98445
# Velocity P-wave (km/s) = 6.32068 6.89026 6.61161
#
# Compressibility (1/GPa) = 0.02066150
#
# Stress axis : x y z
#
# Youngs Moduli (GPa) = 62.85005 99.09940 82.51983
#
# Poissons Ratio (x) = 0.02052 0.34196
# Poissons Ratio (y) = 0.01302 0.36128
# Poissons Ratio (z) = 0.26045 0.43387
#
# Static dielectric constant tensor:
#      x y z
#    x 1.916990 -0.020490 0.004830 
#    y -0.020490 1.900060 -0.012820 
#    z 0.004830 -0.012820 1.911050 
# 
# From -- ./inp_files/158448.got.cif
#   From: 2010.05.17/outbox.cif.g08.bks.cpg/sg2_80_cif.got.tgz:158448.got - 2010.06.03 11:33:40.
