data_PCOD9071178
_publ_section_title
;
Structure prediction by ZEFSAII (Michael W. Deem and Ramdas Pophale) SiO2 
 PCOD9071178
Probable space group: P -1
;
_chemical_formula_sum "Si O2"
_cell_formula_units_Z 13
_cell_length_a 9.472175
_cell_length_b 5.271118
_cell_length_c 12.277964
_cell_angle_alpha 95.756900
_cell_angle_beta 124.638345
_cell_angle_gamma 73.807871
_cell_volume 483.047892
_symmetry_space_group_name_H-M "P -1"
_symmetry_group_IT_number 2
_symmetry_cell_setting 'triclinic'
loop_
_space_group_symop_operation_xyz
x,y,z
-x,-y,-z
loop_
_atom_site_type_symbol
_atom_site_label
_atom_site_fract_x
_atom_site_fract_y
_atom_site_fract_z
Si Si1 0.690718 0.545324 0.600314
Si Si2 0.127010 0.597348 0.733288
Si Si3 0.269330 0.228744 0.600091
Si Si4 0.048068 0.945848 0.183867
Si Si5 0.654006 0.938187 0.795730
Si Si6 0.675543 0.782231 0.027876
Si Si7 0.000000 0.000000 0.500000
O O1 0.500000 0.500000 0.500000
O O2 0.751250 0.600124 0.508922
O O3 0.647876 0.796734 0.672934
O O4 0.826359 0.299190 0.706812
O O5 0.128305 0.349405 0.641475
O O6 0.285817 0.459682 0.880542
O O7 0.986671 0.762358 0.765412
O O8 0.117076 0.815272 0.645502
O O9 0.467496 0.163644 0.728919
O O10 0.189570 0.990833 0.522076
O O11 0.168212 0.960076 0.129954
O O12 0.853952 0.888442 0.106245
O O13 0.654181 0.740896 0.887904
O O14 0.500000 0.000000 0.000000
#
# Coordination Sequence:
#
# PCOD9071178 Si02
#       7
#     2   2   2   2   2   2   1
#     4  12  28  50  83 119 163 209 273 335 403 475
#     4  12  27  49  81 117 159 209 264 335 398 475
#     4  12  26  49  77 120 158 210 271 333 401 473
#     4  12  27  50  81 117 161 212 265 340 399 477
#     4  12  28  51  79 115 159 213 270 332 400 479
#     4  12  28  54  79 119 163 212 274 325 406 486
#     4  12  26  44  76 116 160 200 266 328 398 466
#
# _framework density 26.912445000000002
#
# number of rings (size 3 to 8) (size 9 to 14) (size 15 to 20)
#    0.000    0.000    3.077    6.000    4.308    4.308 
#    0.000    0.000    0.000    0.000    0.000    0.000 
#    0.000    0.000    0.000    0.000    0.000    0.000 
#
# Total GULP energy -72422.105189 kJ/mol
# GULP energy per Si atom -5570.931168 kJ/mol
# Density = 2.685119 g / cm^3
# Si number density = 26.912445 Si / 1000 Ang^3
#
#
#
# Elastic Constant Matrix: (Units=GPa)
#
#
# Indices 1 2 3 4 5 6 
#
# 1 191.7938 34.5524 57.9996 -28.1007 17.3305 -14.9534
# 2 34.5524 71.5417 32.2365 -39.6637 -10.8937 -3.3751
# 3 57.9996 32.2365 116.7486 -52.1216 -4.7005 2.0619
# 4 -28.1007 -39.6637 -52.1216 58.0006 7.5069 -3.4515
# 5 17.3305 -10.8937 -4.7005 7.5069 65.1164 -9.3614
# 6 -14.9534 -3.3751 2.0619 -3.4515 -9.3614 36.3289
#
#
#
# Elastic Compliance Matrix: (Units=1/GPa)
#
#
# Indices 1 2 3 4 5 6 
#
# 1 0.006882 -0.002619 -0.003258 -0.000988 -0.002083 0.002144
# 2 -0.002619 0.024519 0.002374 0.017395 0.003485 0.003616
# 3 -0.003258 0.002374 0.015918 0.014229 0.000702 -0.000491
# 4 -0.000988 0.017395 0.014229 0.041702 0.000021 0.004369
# 5 -0.002083 0.003485 0.000702 0.000021 0.017094 0.003833
# 6 0.002144 0.003616 -0.000491 0.004369 0.003833 0.030175
#
#
# Mechanical properties :
#
#
# Convention : Reuss Voigt Hill
#
# Bulk Modulus (GPa) = 24.80743 69.96235 47.38489
# Shear Modulus (GPa) = 31.90099 48.90889 40.40494
#
# Velocity S-wave (km/s) = 3.44664 4.26764 3.87893
# Velocity P-wave (km/s) = 5.00769 7.09482 6.14058
#
# Compressibility (1/GPa) = 0.04031050
#
# Stress axis : x y z
#
# Youngs Moduli (GPa) = 145.31243 40.78524 62.82127
#
# Poissons Ratio (x) = 0.10683 0.20469
# Poissons Ratio (y) = 0.38061 -0.14911
# Poissons Ratio (z) = 0.47348 -0.09681
#
# Static dielectric constant tensor:
#      x y z
#    x 1.987160 -0.741320 -0.326010 
#    y -0.741320 -1.830390 -2.143550 
#    z -0.326010 -2.143550 0.922790 
# 
# From -- ./inp_files/373112.got.cif
#   From: 2010.05.17/outbox.cif.g08.bks.cpg/sg2_187_cif.got.tgz:373112.got - 2010.06.03 11:33:40.
