data_PCOD9071567
_publ_section_title
;
Structure prediction by ZEFSAII (Michael W. Deem and Ramdas Pophale) SiO2 
 PCOD9071567
Probable space group: P -1
;
_chemical_formula_sum "Si O2"
_cell_formula_units_Z 13
_cell_length_a 22.391820
_cell_length_b 8.684075
_cell_length_c 20.006439
_cell_angle_alpha 137.829084
_cell_angle_beta 168.320946
_cell_angle_gamma 42.989610
_cell_volume 528.229228
_symmetry_space_group_name_H-M "P -1"
_symmetry_group_IT_number 2
_symmetry_cell_setting 'triclinic'
loop_
_space_group_symop_operation_xyz
x,y,z
-x,-y,-z
loop_
_atom_site_type_symbol
_atom_site_label
_atom_site_fract_x
_atom_site_fract_y
_atom_site_fract_z
Si Si1 0.662535 0.406654 0.828515
Si Si2 0.864561 0.521815 0.226235
Si Si3 0.000000 0.000000 0.000000
Si Si4 0.102808 0.281363 0.087791
Si Si5 0.441635 0.093941 0.156928
Si Si6 0.920321 0.024595 0.156073
Si Si7 0.584175 0.186898 0.097196
O O1 0.903002 0.206912 0.012075
O O2 0.363079 0.322046 0.439683
O O3 0.719929 0.655683 0.941430
O O4 0.643035 0.459822 0.903306
O O5 0.022500 0.281228 0.340614
O O6 0.103737 0.693895 0.515785
O O7 0.680733 0.625182 0.120378
O O8 0.123063 0.832167 0.145192
O O9 0.000000 0.500000 0.000000
O O10 0.199242 0.089667 0.077995
O O11 0.789864 0.125782 0.553972
O O12 0.321652 0.972169 0.050993
O O13 0.399435 0.942487 0.996685
O O14 0.500000 0.000000 0.000000
#
# Coordination Sequence:
#
# PCOD9071567 Si02
#       7
#     2   2   1   2   2   2   2
#     4  12  28  46  79 113 156 204 264 320 395 475
#     4  12  28  48  81 113 157 204 256 334 396 461
#     4  12  28  46  82 112 158 208 272 320 400 480
#     4  12  27  50  76 115 159 211 264 325 394 479
#     4  12  28  49  79 112 154 210 263 325 392 477
#     4  12  28  49  77 115 160 203 260 325 401 467
#     4  12  27  49  81 114 151 203 266 325 397 471
#
# _framework density 24.610527000000001
#
# number of rings (size 3 to 8) (size 9 to 14) (size 15 to 20)
#    0.000    0.000    4.615    3.692    6.462    4.923 
#    0.000    0.000    0.000    0.000    0.000    0.000 
#    0.000    0.000    0.000    0.000    0.000    0.000 
#
# Total GULP energy -72500.621221 kJ/mol
# GULP energy per Si atom -5576.970863 kJ/mol
# Density = 2.455451 g / cm^3
# Si number density = 24.610527 Si / 1000 Ang^3
#
#
#
# Elastic Constant Matrix: (Units=GPa)
#
#
# Indices 1 2 3 4 5 6 
#
# 1 87.6462 -8.5569 -6.7753 -19.4249 -0.4461 -76.9507
# 2 -8.5569 115.7177 -1.5540 -23.3202 -1.7063 -58.4938
# 3 -6.7753 -1.5540 67.1099 -6.7737 3.9547 -56.8653
# 4 -19.4249 -23.3202 -6.7737 6.7636 -8.8020 -44.2800
# 5 -0.4461 -1.7063 3.9547 -8.8020 31.5180 1.0613
# 6 -76.9507 -58.4938 -56.8653 -44.2800 1.0613 -9.6576
#
#
#
# Elastic Compliance Matrix: (Units=1/GPa)
#
#
# Indices 1 2 3 4 5 6 
#
# 1 0.007331 -0.002144 -0.002024 -0.006800 -0.001573 -0.002503
# 2 -0.002144 0.006825 -0.002427 -0.001604 0.000283 -0.002584
# 3 -0.002024 -0.002427 0.013403 -0.010485 -0.004752 -0.000541
# 4 -0.006800 -0.001604 -0.010485 0.030804 0.010223 -0.014479
# 5 -0.001573 0.000283 -0.004752 0.010223 0.035313 -0.004190
# 6 -0.002503 -0.002584 -0.000541 -0.014479 -0.004190 0.001163
#
#
# Mechanical properties :
#
#
# Convention : Reuss Voigt Hill
#
# Bulk Modulus (GPa) = 69.58897 26.30017 47.94457
# Shear Modulus (GPa) = 44.31857 24.88213 34.60035
#
# Velocity S-wave (km/s) = 4.24818 3.18313 3.75362
# Velocity P-wave (km/s) = 7.23880 4.92133 6.18950
#
# Compressibility (1/GPa) = 0.01437009
#
# Stress axis : x y z
#
# Youngs Moduli (GPa) = 136.40801 146.51285 74.60871
#
# Poissons Ratio (x) = 0.31412 0.15102
# Poissons Ratio (y) = 0.29245 0.18104
# Poissons Ratio (z) = 0.27612 0.35552
#
# Static dielectric constant tensor:
#      x y z
#    x 1.963600 0.037750 0.054540 
#    y 0.037750 1.999220 -0.006960 
#    z 0.054540 -0.006960 2.100590 
# 
# From -- ./inp_files/25383.got.cif
#   From: 2010.05.17/outbox.cif.g08.bks.cpg/sg2_13_cif.got.tgz:25383.got - 2010.06.03 11:33:40.
