data_PCOD9071273
_publ_section_title
;
Structure prediction by ZEFSAII (Michael W. Deem and Ramdas Pophale) SiO2 
 PCOD9071273
Probable space group: P -1
;
_chemical_formula_sum "Si O2"
_cell_formula_units_Z 14
_cell_length_a 16.322553
_cell_length_b 13.553846
_cell_length_c 12.036226
_cell_angle_alpha 134.342687
_cell_angle_beta 34.657769
_cell_angle_gamma 153.254460
_cell_volume 674.835988
_symmetry_space_group_name_H-M "P -1"
_symmetry_group_IT_number 2
_symmetry_cell_setting 'triclinic'
loop_
_space_group_symop_operation_xyz
x,y,z
-x,-y,-z
loop_
_atom_site_type_symbol
_atom_site_label
_atom_site_fract_x
_atom_site_fract_y
_atom_site_fract_z
Si Si1 0.118733 0.991901 0.768170
Si Si2 0.617082 0.320685 0.017337
Si Si3 0.576994 0.200176 0.517350
Si Si4 0.998008 0.546112 0.167657
Si Si5 0.176759 0.504958 0.315249
Si Si6 0.737166 0.674334 0.300467
Si Si7 0.930248 0.101687 0.695776
O O1 0.357479 0.110158 0.640349
O O2 0.186972 0.129181 0.690525
O O3 0.953404 0.738144 0.731176
O O4 0.000000 0.000000 0.000000
O O5 0.670955 0.362320 0.860018
O O6 0.776286 0.335524 0.923102
O O7 0.689010 0.523738 0.143415
O O8 0.345460 0.093433 0.155040
O O9 0.773588 0.318800 0.300346
O O10 0.682915 0.372206 0.631979
O O11 0.500000 0.000000 0.500000
O O12 0.978248 0.697567 0.315704
O O13 0.000000 0.500000 0.000000
O O14 0.000000 0.500000 0.500000
O O15 0.500000 0.500000 0.500000
O O16 0.949511 0.791296 0.234388
O O17 0.000000 0.000000 0.500000
#
# Coordination Sequence:
#
# PCOD9071273 Si02
#       7
#     2   2   2   2   2   2   2
#     4  12  28  47  76 108 146 193 244 304 369 431
#     4  12  26  47  75 108 150 192 248 300 364 441
#     4  12  28  49  77 107 149 193 246 303 370 434
#     4  12  27  48  76 109 144 193 245 301 370 432
#     4  12  26  48  75 108 147 193 247 299 362 444
#     4  12  26  49  72 108 154 188 243 308 367 434
#     4  12  28  45  75 106 147 193 240 302 370 431
#
# _framework density 20.74578
#
# number of rings (size 3 to 8) (size 9 to 14) (size 15 to 20)
#    0.000    0.000    7.143    1.286    6.000    0.571 
#    0.000    0.000    0.000    0.000    0.000    0.000 
#    0.000    0.000    0.000    0.000    0.000    0.000 
#
# Total GULP energy -78347.120790 kJ/mol
# GULP energy per Si atom -5596.222914 kJ/mol
# Density = 2.069856 g / cm^3
# Si number density = 20.745780 Si / 1000 Ang^3
#
#
#
# Elastic Constant Matrix: (Units=GPa)
#
#
# Indices 1 2 3 4 5 6 
#
# 1 132.6684 53.0550 33.7460 -25.4662 -9.7723 -3.2698
# 2 53.0550 139.6242 41.0592 -6.4510 -2.3065 -14.8074
# 3 33.7460 41.0592 105.5505 -15.7313 6.4509 -9.4358
# 4 -25.4662 -6.4510 -15.7313 40.9205 2.8874 -2.1547
# 5 -9.7723 -2.3065 6.4509 2.8874 45.2692 2.0660
# 6 -3.2698 -14.8074 -9.4358 -2.1547 2.0660 55.7479
#
#
#
# Elastic Compliance Matrix: (Units=1/GPa)
#
#
# Indices 1 2 3 4 5 6 
#
# 1 0.010345 -0.003284 -0.001404 0.005223 0.001950 -0.000374
# 2 -0.003284 0.009309 -0.002648 -0.001513 0.000159 0.001767
# 3 -0.001404 -0.002648 0.011744 0.003468 -0.002398 0.001425
# 4 0.005223 -0.001513 0.003468 0.028967 -0.001367 0.001662
# 5 0.001950 0.000159 -0.002398 -0.001367 0.023001 -0.001155
# 6 -0.000374 0.001767 0.001425 0.001662 -0.001155 0.018734
#
#
# Mechanical properties :
#
#
# Convention : Reuss Voigt Hill
#
# Bulk Modulus (GPa) = 59.79051 70.39595 65.09323
# Shear Modulus (GPa) = 40.86725 45.05306 42.96016
#
# Velocity S-wave (km/s) = 4.44318 4.66518 4.55553
# Velocity P-wave (km/s) = 7.43005 7.93882 7.68864
#
# Compressibility (1/GPa) = 0.01672506
#
# Stress axis : x y z
#
# Youngs Moduli (GPa) = 96.66359 107.42311 85.15008
#
# Poissons Ratio (x) = 0.35280 0.11955
# Poissons Ratio (y) = 0.31746 0.22550
# Poissons Ratio (z) = 0.13572 0.28449
#
# Static dielectric constant tensor:
#      x y z
#    x 1.674400 -0.024200 -0.206120 
#    y -0.024200 1.746790 0.004040 
#    z -0.206120 0.004040 0.934860 
# 
# From -- ./inp_files/333887.got.cif
#   From: 2010.05.17/outbox.cif.g08.bks.cpg/sg2_167_cif.got.tgz:333887.got - 2010.06.03 11:33:40.
