data_PCOD9071752
_publ_section_title
;
Structure prediction by ZEFSAII (Michael W. Deem and Ramdas Pophale) SiO2 
 PCOD9071752
Probable space group: P -1
;
_chemical_formula_sum "Si O2"
_cell_formula_units_Z 16
_cell_length_a 8.038707
_cell_length_b 18.466779
_cell_length_c 10.314272
_cell_angle_alpha 46.615859
_cell_angle_beta 62.000541
_cell_angle_gamma 33.263217
_cell_volume 588.839113
_symmetry_space_group_name_H-M "P -1"
_symmetry_group_IT_number 2
_symmetry_cell_setting 'triclinic'
loop_
_space_group_symop_operation_xyz
x,y,z
-x,-y,-z
loop_
_atom_site_type_symbol
_atom_site_label
_atom_site_fract_x
_atom_site_fract_y
_atom_site_fract_z
Si Si1 0.105373 0.239929 0.457100
Si Si2 0.290980 0.493595 0.544421
Si Si3 0.086966 0.721929 0.911990
Si Si4 0.339552 0.714854 0.565774
Si Si5 0.567261 0.153587 0.239074
Si Si6 0.714445 0.517969 0.040610
Si Si7 0.622329 0.148025 0.939330
Si Si8 0.742401 0.038298 0.752401
O O1 0.042481 0.318591 0.521099
O O2 0.948450 0.197443 0.537511
O O3 0.551068 0.880193 0.576340
O O4 0.876684 0.400889 0.248600
O O5 0.500000 0.500000 0.500000
O O6 0.352764 0.448147 0.426195
O O7 0.434512 0.332523 0.758481
O O8 0.222472 0.719253 0.737046
O O9 0.359727 0.624533 0.036065
O O10 0.784467 0.912240 0.830999
O O11 0.111024 0.597808 0.009369
O O12 0.396264 0.806993 0.458524
O O13 0.327775 0.347452 0.106520
O O14 0.899482 0.067490 0.242381
O O15 0.532202 0.136998 0.122502
O O16 0.594054 0.100688 0.873186
O O17 0.000000 0.000000 0.000000
#
# Coordination Sequence:
#
# PCOD9071752 Si02
#       8
#     2   2   2   2   2   2   2   2
#     4  10  18  29  49  76  99 123 152 200 252 287
#     4   9  17  29  46  71  99 121 157 198 243 285
#     4   9  17  30  48  70  91 127 166 194 230 271
#     4   9  18  31  48  71  96 128 160 197 233 287
#     4  10  18  29  49  76  99 123 152 200 252 287
#     4   9  17  28  46  72  95 118 156 203 233 277
#     4   9  17  29  46  71  99 121 157 198 243 285
#     4   9  18  31  48  71  96 128 160 197 233 287
#
# _framework density 27.172105999999999
#
# number of rings (size 3 to 8) (size 9 to 14) (size 15 to 20)
#    0.000    2.750    1.250    0.750    0.000    0.500 
#    0.000    0.000    0.000    6.000    6.500    0.000 
#    0.000    0.000    0.000    0.000    0.000    0.000 
#
# Total GULP energy -89287.394046 kJ/mol
# GULP energy per Si atom -5580.462128 kJ/mol
# Density = 2.711026 g / cm^3
# Si number density = 27.172106 Si / 1000 Ang^3
#
#
#
# Elastic Constant Matrix: (Units=GPa)
#
#
# Indices 1 2 3 4 5 6 
#
# 1 67.6097 27.0274 13.7166 -1.4957 -19.8526 -3.2983
# 2 27.0274 152.7933 19.0659 -1.5458 -32.0987 38.4499
# 3 13.7166 19.0659 65.5357 3.4919 -14.6400 14.1134
# 4 -1.4957 -1.5458 3.4919 38.3316 2.9269 -13.8419
# 5 -19.8526 -32.0987 -14.6400 2.9269 27.3790 -2.8785
# 6 -3.2983 38.4499 14.1134 -13.8419 -2.8785 44.8635
#
#
#
# Elastic Compliance Matrix: (Units=1/GPa)
#
#
# Indices 1 2 3 4 5 6 
#
# 1 0.019620 -0.002299 -0.002349 0.002049 0.010631 0.005466
# 2 -0.002299 0.012698 0.002979 -0.005544 0.014060 -0.012797
# 3 -0.002349 0.002979 0.020161 -0.006449 0.012179 -0.010277
# 4 0.002049 -0.005544 -0.006449 0.033291 -0.010282 0.016542
# 5 0.010631 0.014060 0.012179 -0.010282 0.066858 -0.013982
# 6 0.005466 -0.012797 -0.010277 0.016542 -0.013982 0.041099
#
#
# Mechanical properties :
#
#
# Convention : Reuss Voigt Hill
#
# Bulk Modulus (GPa) = 20.34959 45.06208 32.70583
# Shear Modulus (GPa) = 23.42542 37.19008 30.30775
#
# Velocity S-wave (km/s) = 2.93936 3.70359 3.34338
# Velocity P-wave (km/s) = 4.36179 5.90836 5.19297
#
# Compressibility (1/GPa) = 0.04914105
#
# Stress axis : x y z
#
# Youngs Moduli (GPa) = 50.96865 78.75555 49.60021
#
# Poissons Ratio (x) = 0.18105 0.11652
# Poissons Ratio (y) = 0.11717 -0.14777
# Poissons Ratio (z) = 0.11973 -0.23462
#
# Static dielectric constant tensor:
#      x y z
#    x 2.183110 -0.046910 0.031530 
#    y -0.046910 2.295470 -0.056230 
#    z 0.031530 -0.056230 2.131230 
# 
# From -- ./inp_files/437637.got.cif
#   From: 2010.05.17/outbox.cif.g08.bks.cpg/sg2_219_cif.got.tgz:437637.got - 2010.06.03 11:33:40.
