data_PCOD9071662
_publ_section_title
;
Structure prediction by ZEFSAII (Michael W. Deem and Ramdas Pophale) SiO2 
 PCOD9071662
Probable space group: P -1
;
_chemical_formula_sum "Si O2"
_cell_formula_units_Z 12
_cell_length_a 5.015080
_cell_length_b 5.529945
_cell_length_c 15.213444
_cell_angle_alpha 86.772545
_cell_angle_beta 74.490573
_cell_angle_gamma 93.935814
_cell_volume 404.369059
_symmetry_space_group_name_H-M "P -1"
_symmetry_group_IT_number 2
_symmetry_cell_setting 'triclinic'
loop_
_space_group_symop_operation_xyz
x,y,z
-x,-y,-z
loop_
_atom_site_type_symbol
_atom_site_label
_atom_site_fract_x
_atom_site_fract_y
_atom_site_fract_z
Si Si1 0.715743 0.019076 0.770131
Si Si2 0.639043 0.335664 0.564107
Si Si3 0.598927 0.801535 0.063426
Si Si4 0.792536 0.574991 0.265801
Si Si5 0.906224 0.617523 0.897592
Si Si6 0.022136 0.765274 0.607200
O O1 0.826754 0.824496 0.832153
O O2 0.794610 0.916174 0.670253
O O3 0.424694 0.082482 0.839065
O O4 0.917899 0.264665 0.753529
O O5 0.500000 0.500000 0.500000
O O6 0.422615 0.275659 0.663495
O O7 0.866180 0.518397 0.588394
O O8 0.781309 0.143495 0.493275
O O9 0.353250 0.585592 0.081962
O O10 0.884224 0.726308 0.995444
O O11 0.500000 0.000000 0.000000
O O12 0.811359 0.479730 0.165456
O O13 0.792723 0.328441 0.328154
#
# Coordination Sequence:
#
# PCOD9071662 Si02
#       6
#     2   2   2   2   2   2
#     4   9  16  27  46  71  96 125 161 196 234 280
#     4   9  18  34  51  67  94 127 158 198 244 285
#     4   8  13  23  43  72  99 125 158 192 230 278
#     4   9  17  30  48  71  96 126 161 194 235 283
#     4   8  14  25  43  70 100 126 156 193 231 277
#     4   9  18  33  49  68  95 125 159 200 240 280
#
# _framework density 29.675863
#
# number of rings (size 3 to 8) (size 9 to 14) (size 15 to 20)
#    0.000    3.333    0.000    0.000    0.000    0.667 
#    0.000   12.500    0.000    1.000    0.000  105.000 
#    0.000    0.000    0.000    0.000    0.000    0.000 
#
# Total GULP energy -67103.653065 kJ/mol
# GULP energy per Si atom -5591.971089 kJ/mol
# Density = 2.960832 g / cm^3
# Si number density = 29.675863 Si / 1000 Ang^3
#
#
#
# Elastic Constant Matrix: (Units=GPa)
#
#
# Indices 1 2 3 4 5 6 
#
# 1 89.4657 28.9437 53.8990 14.7022 -29.1013 -16.2013
# 2 28.9437 90.3546 59.8235 10.9407 -11.4988 -10.7008
# 3 53.8990 59.8235 428.9392 56.5044 -47.0637 -34.5058
# 4 14.7022 10.9407 56.5044 63.9320 -30.7707 -20.7511
# 5 -29.1013 -11.4988 -47.0637 -30.7707 57.8231 23.8962
# 6 -16.2013 -10.7008 -34.5058 -20.7511 23.8962 56.8718
#
#
#
# Elastic Compliance Matrix: (Units=1/GPa)
#
#
# Indices 1 2 3 4 5 6 
#
# 1 0.014807 -0.003466 -0.000765 0.001244 0.006454 0.000844
# 2 -0.003466 0.013126 -0.001367 -0.000339 -0.000782 0.000858
# 3 -0.000765 -0.001367 0.002953 -0.001759 0.000643 0.000404
# 4 0.001244 -0.000339 -0.001759 0.022821 0.009864 0.003406
# 5 0.006454 -0.000782 0.000643 0.009864 0.028815 -0.006427
# 6 0.000844 0.000858 0.000404 0.003406 -0.006427 0.022174
#
#
# Mechanical properties :
#
#
# Convention : Reuss Voigt Hill
#
# Bulk Modulus (GPa) = 50.78861 99.34356 75.06609
# Shear Modulus (GPa) = 40.83066 66.79826 53.81446
#
# Velocity S-wave (km/s) = 3.71332 4.74954 4.26303
# Velocity P-wave (km/s) = 5.96126 7.97662 7.04141
#
# Compressibility (1/GPa) = 0.01968945
#
# Stress axis : x y z
#
# Youngs Moduli (GPa) = 67.53397 76.18336 338.63659
#
# Poissons Ratio (x) = 0.26406 0.25911
# Poissons Ratio (y) = 0.23408 0.46303
# Poissons Ratio (z) = 0.05167 0.10417
#
# Static dielectric constant tensor:
#      x y z
#    x 2.381380 -0.149880 -0.058650 
#    y -0.149880 2.311420 0.068920 
#    z -0.058650 0.068920 2.403650 
# 
# From -- ./inp_files/4542.got.cif
#   From: 2010.05.17/outbox.cif.g08.bks.cpg/sg2_3_cif.got.tgz:4542.got - 2010.06.03 11:33:40.
