data_PCOD9071295
_publ_section_title
;
Structure prediction by ZEFSAII (Michael W. Deem and Ramdas Pophale) SiO2 
 PCOD9071295
Probable space group: P -1
;
_chemical_formula_sum "Si O2"
_cell_formula_units_Z 14
_cell_length_a 14.527640
_cell_length_b 12.241399
_cell_length_c 23.614791
_cell_angle_alpha 153.861810
_cell_angle_beta 18.852827
_cell_angle_gamma 146.496131
_cell_volume 594.177578
_symmetry_space_group_name_H-M "P -1"
_symmetry_group_IT_number 2
_symmetry_cell_setting 'triclinic'
loop_
_space_group_symop_operation_xyz
x,y,z
-x,-y,-z
loop_
_atom_site_type_symbol
_atom_site_label
_atom_site_fract_x
_atom_site_fract_y
_atom_site_fract_z
Si Si1 0.765625 0.163264 0.587913
Si Si2 0.562016 0.931811 0.366130
Si Si3 0.048010 0.521040 0.915643
Si Si4 0.323326 0.907854 0.112234
Si Si5 0.323059 0.306411 0.088349
Si Si6 0.704556 0.893491 0.604877
Si Si7 0.317328 0.563101 0.518252
O O1 0.682336 0.191558 0.583118
O O2 0.600127 0.408282 0.828559
O O3 0.690230 0.935683 0.565752
O O4 0.114113 0.126751 0.366466
O O5 0.500000 0.000000 0.500000
O O6 0.588439 0.160463 0.415416
O O7 0.853589 0.754902 0.112823
O O8 0.377329 0.571516 0.743079
O O9 0.905382 0.284063 0.862427
O O10 0.000000 0.500000 0.000000
O O11 0.553815 0.784683 0.965073
O O12 0.500000 0.000000 0.000000
O O13 0.983507 0.373040 0.309471
O O14 0.455195 0.086161 0.867674
O O15 0.728041 0.607207 0.479525
O O16 0.000000 0.000000 0.500000
#
# Coordination Sequence:
#
# PCOD9071295 Si02
#       7
#     2   2   2   2   2   2   2
#     4  12  26  49  76 113 151 200 252 318 383 458
#     4  12  26  48  76 109 153 201 249 313 389 455
#     4  12  26  48  72 108 156 195 250 315 378 457
#     4  12  28  45  76 114 153 199 257 314 384 463
#     4  12  26  47  78 111 150 203 256 312 391 447
#     4  12  26  49  79 111 157 197 264 320 376 455
#     4  12  27  46  77 111 155 200 251 314 390 442
#
# _framework density 23.561979000000001
#
# number of rings (size 3 to 8) (size 9 to 14) (size 15 to 20)
#    0.000    0.000    7.143    1.286    8.000    1.143 
#    0.000    1.429    0.000    0.000    0.000    0.000 
#    0.000    0.000    0.000    0.000    0.000    0.000 
#
# Total GULP energy -77976.670128 kJ/mol
# GULP energy per Si atom -5569.762152 kJ/mol
# Density = 2.350835 g / cm^3
# Si number density = 23.561979 Si / 1000 Ang^3
#
#
#
# Elastic Constant Matrix: (Units=GPa)
#
#
# Indices 1 2 3 4 5 6 
#
# 1 160.6096 43.8983 58.8754 -11.4715 -25.8394 -18.1370
# 2 43.8983 92.0934 46.8130 -0.0284 -2.9326 -31.7294
# 3 58.8754 46.8130 167.0247 2.4707 -36.6014 -8.7446
# 4 -11.4715 -0.0284 2.4707 40.8841 3.9042 -7.7106
# 5 -25.8394 -2.9326 -36.6014 3.9042 42.8056 6.1014
# 6 -18.1370 -31.7294 -8.7446 -7.7106 6.1014 35.4251
#
#
#
# Elastic Compliance Matrix: (Units=1/GPa)
#
#
# Indices 1 2 3 4 5 6 
#
# 1 0.008329 -0.002572 -0.001480 0.002423 0.003139 0.001582
# 2 -0.002572 0.021187 -0.005907 0.003908 -0.008138 0.018454
# 3 -0.001480 -0.005907 0.009671 -0.002839 0.008038 -0.005663
# 4 0.002423 0.003908 -0.002839 0.027831 -0.004793 0.010923
# 5 0.003139 -0.008138 0.008038 -0.004793 0.033507 -0.010512
# 6 0.001582 0.018454 -0.005663 0.010923 -0.010512 0.048357
#
#
# Mechanical properties :
#
#
# Convention : Reuss Voigt Hill
#
# Bulk Modulus (GPa) = 51.89538 79.87791 65.88664
# Shear Modulus (GPa) = 28.53501 41.83235 35.18368
#
# Velocity S-wave (km/s) = 3.48381 4.21814 3.86844
# Velocity P-wave (km/s) = 6.18510 7.59595 6.92654
#
# Compressibility (1/GPa) = 0.01926954
#
# Stress axis : x y z
#
# Youngs Moduli (GPa) = 120.06908 47.19831 103.40010
#
# Poissons Ratio (x) = 0.12139 0.15303
# Poissons Ratio (y) = 0.30882 0.61075
# Poissons Ratio (z) = 0.17770 0.27879
#
# Static dielectric constant tensor:
#      x y z
#    x 1.682950 0.097440 0.660240 
#    y 0.097440 2.023370 0.069070 
#    z 0.660240 0.069070 0.224210 
# 
# From -- ./inp_files/611966.got.cif
#   From: 2010.05.17/outbox.cif.g08.bks.cpg/sg2_306_cif.got.tgz:611966.got - 2010.06.03 11:33:40.
