data_PCOD9071945
_publ_section_title
;
Structure prediction by ZEFSAII (Michael W. Deem and Ramdas Pophale) SiO2 
 PCOD9071945
Probable space group: P -1
;
_chemical_formula_sum "Si O2"
_cell_formula_units_Z 16
_cell_length_a 18.001745
_cell_length_b 6.620812
_cell_length_c 5.447375
_cell_angle_alpha 103.835694
_cell_angle_beta 72.147206
_cell_angle_gamma 87.829044
_cell_volume 595.699277
_symmetry_space_group_name_H-M "P -1"
_symmetry_group_IT_number 2
_symmetry_cell_setting 'triclinic'
loop_
_space_group_symop_operation_xyz
x,y,z
-x,-y,-z
loop_
_atom_site_type_symbol
_atom_site_label
_atom_site_fract_x
_atom_site_fract_y
_atom_site_fract_z
Si Si1 0.912230 0.282832 0.171409
Si Si2 0.172997 0.685522 0.231897
Si Si3 0.178815 0.189206 0.378374
Si Si4 0.378761 0.771326 0.462549
Si Si5 0.908444 0.779136 0.022907
Si Si6 0.436420 0.283355 0.748267
Si Si7 0.339042 0.715304 0.981592
Si Si8 0.354947 0.276463 0.327988
O O1 0.857289 0.358027 0.479158
O O2 0.910839 0.031067 0.093250
O O3 0.882614 0.353479 0.950880
O O4 0.001873 0.317985 0.138847
O O5 0.179207 0.936715 0.299514
O O6 0.262380 0.596467 0.052653
O O7 0.122375 0.263923 0.686312
O O8 0.264836 0.247341 0.366954
O O9 0.146867 0.261392 0.162414
O O10 0.471240 0.772065 0.394251
O O11 0.333626 0.846843 0.776373
O O12 0.360331 0.528562 0.402469
O O13 0.348833 0.850523 0.251596
O O14 0.414268 0.537562 0.845342
O O15 0.390765 0.206193 0.537418
O O16 0.408755 0.206848 0.016869
#
# Coordination Sequence:
#
# PCOD9071945 Si02
#       8
#     2   2   2   2   2   2   2   2
#     4   9  17  30  47  68  95 127 161 191 221 266
#     4  10  19  30  47  73 101 124 149 188 238 286
#     4  10  19  30  47  73 101 124 149 188 238 286
#     4  10  19  33  53  71  88 118 164 206 228 259
#     4   9  17  30  47  68  95 127 161 191 221 266
#     4  10  19  33  53  71  88 118 164 206 228 259
#     4  10  18  30  49  73  95 119 151 198 241 270
#     4  10  18  30  49  73  95 119 151 198 241 270
#
# _framework density 26.859190000000002
#
# number of rings (size 3 to 8) (size 9 to 14) (size 15 to 20)
#    0.000    2.250    0.000    6.000    0.000    3.000 
#    0.000    0.000    0.000    8.250    0.000   70.000 
#    0.000    0.000    0.000    0.000    0.000    0.000 
#
# Total GULP energy -89761.409371 kJ/mol
# GULP energy per Si atom -5610.088086 kJ/mol
# Density = 2.679806 g / cm^3
# Si number density = 26.859190 Si / 1000 Ang^3
#
#
#
# Elastic Constant Matrix: (Units=GPa)
#
#
# Indices 1 2 3 4 5 6 
#
# 1 202.0723 14.4989 101.3858 -19.4998 14.9838 17.8385
# 2 14.4989 75.8982 26.5192 -8.5523 9.1695 3.3421
# 3 101.3858 26.5192 234.0514 -41.8192 24.1386 4.4842
# 4 -19.4998 -8.5523 -41.8192 61.0178 -0.9807 10.4773
# 5 14.9838 9.1695 24.1386 -0.9807 58.9492 0.8243
# 6 17.8385 3.3421 4.4842 10.4773 0.8243 44.3635
#
#
#
# Elastic Compliance Matrix: (Units=1/GPa)
#
#
# Indices 1 2 3 4 5 6 
#
# 1 0.006603 -0.000087 -0.002614 0.000735 -0.000547 -0.002548
# 2 -0.000087 0.013986 -0.001112 0.001349 -0.001659 -0.001194
# 3 -0.002614 -0.001112 0.006308 0.003350 -0.001686 -0.000263
# 4 0.000735 0.001349 0.003350 0.020021 -0.001359 -0.005439
# 5 -0.000547 -0.001659 -0.001686 -0.001359 0.018022 0.000501
# 6 -0.002548 -0.001194 -0.000263 -0.005439 0.000501 0.024957
#
#
# Mechanical properties :
#
#
# Convention : Reuss Voigt Hill
#
# Bulk Modulus (GPa) = 51.89089 88.53664 70.21377
# Shear Modulus (GPa) = 48.10196 57.50729 52.80463
#
# Velocity S-wave (km/s) = 4.23649 4.63219 4.43875
# Velocity P-wave (km/s) = 6.57966 7.85139 7.24349
#
# Compressibility (1/GPa) = 0.01927121
#
# Stress axis : x y z
#
# Youngs Moduli (GPa) = 151.45207 71.50183 158.51943
#
# Poissons Ratio (x) = 0.00622 0.41433
# Poissons Ratio (y) = 0.01318 0.17628
# Poissons Ratio (z) = 0.39586 0.07951
#
# Static dielectric constant tensor:
#      x y z
#    x 1.985670 -0.027580 0.047280 
#    y -0.027580 2.302200 -0.010200 
#    z 0.047280 -0.010200 2.077890 
# 
# From -- ./inp_files/76505.got.cif
#   From: 2010.05.17/outbox.cif.g08.bks.cpg/sg2_39_cif.got.tgz:76505.got - 2010.06.03 11:33:40.
