data_PCOD9071109
_publ_section_title
;
Structure prediction by ZEFSAII (Michael W. Deem and Ramdas Pophale) SiO2 
 PCOD9071109
Probable space group: P -1
;
_chemical_formula_sum "Si O2"
_cell_formula_units_Z 13
_cell_length_a 5.925703
_cell_length_b 5.037479
_cell_length_c 17.206141
_cell_angle_alpha 81.092974
_cell_angle_beta 97.254274
_cell_angle_gamma 93.522722
_cell_volume 502.898254
_symmetry_space_group_name_H-M "P -1"
_symmetry_group_IT_number 2
_symmetry_cell_setting 'triclinic'
loop_
_space_group_symop_operation_xyz
x,y,z
-x,-y,-z
loop_
_atom_site_type_symbol
_atom_site_label
_atom_site_fract_x
_atom_site_fract_y
_atom_site_fract_z
Si Si1 0.687529 0.444991 0.074485
Si Si2 0.328836 0.902689 0.659268
Si Si3 0.040089 0.541487 0.278528
Si Si4 0.031674 0.078570 0.876418
Si Si5 0.635138 0.772728 0.808049
Si Si6 0.500000 0.000000 0.500000
Si Si7 0.945220 0.270493 0.570509
O O1 0.799945 0.157752 0.088343
O O2 0.543605 0.430286 0.148694
O O3 0.889464 0.673805 0.076846
O O4 0.500000 0.500000 0.000000
O O5 0.502499 0.957923 0.734530
O O6 0.455496 0.836951 0.588218
O O7 0.159945 0.662988 0.691985
O O8 0.176370 0.147433 0.616311
O O9 0.191899 0.389495 0.229731
O O10 0.166593 0.625248 0.359683
O O11 0.953726 0.798221 0.215973
O O12 0.777244 0.945585 0.870749
O O13 0.233262 0.937805 0.466193
O O14 0.000000 0.500000 0.500000
#
# Coordination Sequence:
#
# PCOD9071109 Si02
#       7
#     2   2   2   2   2   1   2
#     4  12  29  53  84 123 164 205 260 325 392 477
#     4  12  26  49  74 109 154 204 270 333 393 475
#     4  12  25  50  77 111 154 206 272 325 384 486
#     4  12  26  54  79 121 161 204 269 318 389 484
#     4  12  27  50  83 111 157 215 258 326 408 457
#     4  12  26  48  74 102 146 206 256 330 404 442
#     4  12  28  49  71 107 154 197 271 332 397 468
#
# _framework density 25.850159000000001
#
# number of rings (size 3 to 8) (size 9 to 14) (size 15 to 20)
#    0.000    0.000    4.615    4.615    4.308    4.308 
#    5.538    0.000    0.000    0.000    0.000    0.000 
#    0.000    0.000    0.000    0.000    0.000    0.000 
#
# Total GULP energy -72640.502390 kJ/mol
# GULP energy per Si atom -5587.730953 kJ/mol
# Density = 2.579132 g / cm^3
# Si number density = 25.850159 Si / 1000 Ang^3
#
#
#
# Elastic Constant Matrix: (Units=GPa)
#
#
# Indices 1 2 3 4 5 6 
#
# 1 84.4378 36.2307 41.3772 -22.6322 23.3222 15.1035
# 2 36.2307 98.6231 26.5331 -20.7645 17.4483 -14.9419
# 3 41.3772 26.5331 162.1181 -16.8438 39.2566 -14.7542
# 4 -22.6322 -20.7645 -16.8438 41.1910 -0.0828 12.0114
# 5 23.3222 17.4483 39.2566 -0.0828 61.4941 -10.3123
# 6 15.1035 -14.9419 -14.7542 12.0114 -10.3123 24.1891
#
#
#
# Elastic Compliance Matrix: (Units=1/GPa)
#
#
# Indices 1 2 3 4 5 6 
#
# 1 0.058445 -0.018244 -0.008953 0.044333 -0.025666 -0.086179
# 2 -0.018244 0.018029 0.002233 -0.008961 0.005513 0.030689
# 3 -0.008953 0.002233 0.009110 -0.004258 -0.000651 0.014363
# 4 0.044333 -0.008961 -0.004258 0.065293 -0.024672 -0.078753
# 5 -0.025666 0.005513 -0.000651 -0.024672 0.032375 0.045087
# 6 -0.086179 0.030689 0.014363 -0.078753 0.045087 0.181196
#
#
# Mechanical properties :
#
#
# Convention : Reuss Voigt Hill
#
# Bulk Modulus (GPa) = 28.04537 61.49566 44.77052
# Shear Modulus (GPa) = 11.72988 41.44404 26.58696
#
# Velocity S-wave (km/s) = 2.13249 4.00839 3.21051
# Velocity P-wave (km/s) = 4.11535 6.72784 5.57674
#
# Compressibility (1/GPa) = 0.03565651
#
# Stress axis : x y z
#
# Youngs Moduli (GPa) = 17.11003 55.46707 109.76443
#
# Poissons Ratio (x) = 1.01193 0.98272
# Poissons Ratio (y) = 0.31215 -0.24508
# Poissons Ratio (z) = 0.15319 -0.12385
#
# Static dielectric constant tensor:
#      x y z
#    x 2.006270 -0.062450 -0.031870 
#    y -0.062450 2.070440 0.067650 
#    z -0.031870 0.067650 2.009170 
# 
# From -- ./inp_files/5671.got.cif
#   From: 2010.05.17/outbox.cif.g08.bks.cpg/sg2_3_cif.got.tgz:5671.got - 2010.06.03 11:33:40.
