data_PCOD9071730
_publ_section_title
;
Structure prediction by ZEFSAII (Michael W. Deem and Ramdas Pophale) SiO2 
 PCOD9071730
Probable space group: P -1
;
_chemical_formula_sum "Si O2"
_cell_formula_units_Z 8
_cell_length_a 5.579784
_cell_length_b 12.371870
_cell_length_c 6.540157
_cell_angle_alpha 137.329548
_cell_angle_beta 79.251818
_cell_angle_gamma 85.187321
_cell_volume 283.594061
_symmetry_space_group_name_H-M "P -1"
_symmetry_group_IT_number 2
_symmetry_cell_setting 'triclinic'
loop_
_space_group_symop_operation_xyz
x,y,z
-x,-y,-z
loop_
_atom_site_type_symbol
_atom_site_label
_atom_site_fract_x
_atom_site_fract_y
_atom_site_fract_z
Si Si1 0.514819 0.825506 0.151349
Si Si2 0.335118 0.281634 0.474774
Si Si3 0.879007 0.195858 0.351570
Si Si4 0.903006 0.336430 0.097736
O O1 0.500000 0.000000 0.500000
O O2 0.567140 0.828184 0.900292
O O3 0.248663 0.783499 0.137377
O O4 0.790081 0.696756 0.006577
O O5 0.582695 0.236882 0.517880
O O6 0.248735 0.476739 0.696658
O O7 0.081423 0.241537 0.527357
O O8 0.863735 0.310653 0.311523
O O9 0.000000 0.000000 0.000000
#
# Coordination Sequence:
#
# PCOD9071730 Si02
#       4
#     2   2   2   2
#     4  10  18  29  48  75  98 121 154 200 240 272
#     4  10  19  33  50  73  96 123 161 198 230 280
#     4  10  18  29  48  75  98 121 154 200 240 272
#     4  10  19  33  50  73  96 123 161 198 230 280
#
# _framework density 28.209336
#
# number of rings (size 3 to 8) (size 9 to 14) (size 15 to 20)
#    0.000    2.000    0.000    9.000    0.000    0.000 
#    0.000    0.000    0.000    0.000    0.000  238.000 
#    0.000    0.000    0.000    0.000    0.000    0.000 
#
# Total GULP energy -44881.471054 kJ/mol
# GULP energy per Si atom -5610.183882 kJ/mol
# Density = 2.814513 g / cm^3
# Si number density = 28.209336 Si / 1000 Ang^3
#
#
#
# Elastic Constant Matrix: (Units=GPa)
#
#
# Indices 1 2 3 4 5 6 
#
# 1 299.3102 59.2410 30.5343 0.4247 -3.7502 20.8229
# 2 59.2410 75.5612 18.0519 9.3301 -4.5905 11.5711
# 3 30.5343 18.0519 97.1900 21.6834 6.3079 10.5304
# 4 0.4247 9.3301 21.6834 51.7585 -8.4710 7.0738
# 5 -3.7502 -4.5905 6.3079 -8.4710 65.8931 -5.8392
# 6 20.8229 11.5711 10.5304 7.0738 -5.8392 73.7474
#
#
#
# Elastic Compliance Matrix: (Units=1/GPa)
#
#
# Indices 1 2 3 4 5 6 
#
# 1 0.004069 -0.002993 -0.000887 0.000994 0.000180 -0.000634
# 2 -0.002993 0.016443 -0.001585 -0.001979 0.000761 -0.001258
# 3 -0.000887 -0.001585 0.012220 -0.005037 -0.002060 -0.000926
# 4 0.000994 -0.001979 -0.005037 0.022458 0.003186 -0.001153
# 5 0.000180 0.000761 -0.002060 0.003186 0.015942 0.001081
# 6 -0.000634 -0.001258 -0.000926 -0.001153 0.001081 0.014265
#
#
# Mechanical properties :
#
#
# Convention : Reuss Voigt Hill
#
# Bulk Modulus (GPa) = 45.86944 76.41287 61.14115
# Shear Modulus (GPa) = 48.26542 62.56208 55.41375
#
# Velocity S-wave (km/s) = 4.14088 4.71444 4.43694
# Velocity P-wave (km/s) = 6.25765 7.53533 6.92601
#
# Compressibility (1/GPa) = 0.02180101
#
# Stress axis : x y z
#
# Youngs Moduli (GPa) = 245.77308 60.81713 81.83245
#
# Poissons Ratio (x) = 0.18201 0.07260
# Poissons Ratio (y) = 0.73555 0.12974
# Poissons Ratio (z) = 0.21803 0.09642
#
# Static dielectric constant tensor:
#      x y z
#    x 2.199270 0.036190 -0.039600 
#    y 0.036190 2.204880 -0.103380 
#    z -0.039600 -0.103380 2.148770 
# 
# From -- ./inp_files/15152.got.cif
#   From: 2010.05.17/outbox.cif.g08.bks.cpg/sg2_8_cif.got.tgz:15152.got - 2010.06.03 11:33:40.
