data_PCOD9071546
_publ_section_title
;
Structure prediction by ZEFSAII (Michael W. Deem and Ramdas Pophale) SiO2 
 PCOD9071546
Probable space group: P -1
;
_chemical_formula_sum "Si O2"
_cell_formula_units_Z 11
_cell_length_a 4.931451
_cell_length_b 16.350086
_cell_length_c 16.112472
_cell_angle_alpha 18.553065
_cell_angle_beta 74.301013
_cell_angle_gamma 75.133895
_cell_volume 397.945013
_symmetry_space_group_name_H-M "P -1"
_symmetry_group_IT_number 2
_symmetry_cell_setting 'triclinic'
loop_
_space_group_symop_operation_xyz
x,y,z
-x,-y,-z
loop_
_atom_site_type_symbol
_atom_site_label
_atom_site_fract_x
_atom_site_fract_y
_atom_site_fract_z
Si Si1 0.136598 0.727486 0.167018
Si Si2 0.548569 0.364153 0.941646
Si Si3 0.821818 0.130606 0.542488
Si Si4 0.194563 0.440764 0.117971
Si Si5 0.189743 0.792366 0.334801
Si Si6 0.500000 0.500000 0.500000
O O1 0.334559 0.693375 0.261565
O O2 0.893406 0.502021 0.405216
O O3 0.327963 0.679613 0.116926
O O4 0.965875 0.983839 0.915210
O O5 0.349417 0.128271 0.208075
O O6 0.378500 0.631015 0.697070
O O7 0.802744 0.388412 0.962603
O O8 0.874242 0.167815 0.600947
O O9 0.097342 0.167007 0.427339
O O10 0.500000 0.500000 0.000000
O O11 0.000000 0.500000 0.000000
O O12 0.516052 0.745329 0.333692
#
# Coordination Sequence:
#
# PCOD9071546 Si02
#       6
#     2   2   2   2   2   1
#     4  12  27  48  78 115 160 220 278 344 417 500
#     4  12  27  52  82 116 166 223 273 343 425 506
#     4  12  27  52  82 116 166 223 273 343 425 506
#     4  12  28  53  86 127 166 215 282 351 426 506
#     4  12  27  48  78 115 160 220 278 344 417 500
#     4  12  28  48  76 116 166 208 286 342 424 476
#
# _framework density 27.642011
#
# number of rings (size 3 to 8) (size 9 to 14) (size 15 to 20)
#    0.000    0.000    5.455    3.273    0.000    2.909 
#    0.000    0.000    0.000    0.000    0.000    0.000 
#    0.000    0.000    0.000    0.000    0.000    0.000 
#
# Total GULP energy -61560.908373 kJ/mol
# GULP energy per Si atom -5596.446216 kJ/mol
# Density = 2.757910 g / cm^3
# Si number density = 27.642011 Si / 1000 Ang^3
#
#
#
# Elastic Constant Matrix: (Units=GPa)
#
#
# Indices 1 2 3 4 5 6 
#
# 1 142.6564 40.0375 94.9544 13.8131 2.4513 23.9415
# 2 40.0375 132.7729 51.5937 41.3038 3.8991 20.9325
# 3 94.9544 51.5937 238.7468 13.8605 10.0556 14.6511
# 4 13.8131 41.3038 13.8605 48.7365 -5.4876 10.2854
# 5 2.4513 3.8991 10.0556 -5.4876 64.1050 3.0684
# 6 23.9415 20.9325 14.6511 10.2854 3.0684 50.0917
#
#
#
# Elastic Compliance Matrix: (Units=1/GPa)
#
#
# Indices 1 2 3 4 5 6 
#
# 1 0.010347 -0.001112 -0.003673 -0.000185 0.000395 -0.003393
# 2 -0.001112 0.011449 -0.001358 -0.008702 -0.001090 -0.002002
# 3 -0.003673 -0.001358 0.005919 0.000308 -0.000706 0.000571
# 4 -0.000185 -0.008702 0.000308 0.028720 0.003064 -0.002450
# 5 0.000395 -0.001090 -0.000706 0.003064 0.016078 -0.001141
# 6 -0.003393 -0.002002 0.000571 -0.002450 -0.001141 0.022827
#
#
# Mechanical properties :
#
#
# Convention : Reuss Voigt Hill
#
# Bulk Modulus (GPa) = 64.80615 98.59414 81.70015
# Shear Modulus (GPa) = 44.33770 54.42601 49.38185
#
# Velocity S-wave (km/s) = 4.00934 4.44211 4.23126
# Velocity P-wave (km/s) = 6.70289 7.87753 7.31383
#
# Compressibility (1/GPa) = 0.01543063
#
# Stress axis : x y z
#
# Youngs Moduli (GPa) = 96.64626 87.34018 168.93475
#
# Poissons Ratio (x) = 0.09713 0.62042
# Poissons Ratio (y) = 0.10748 0.22941
# Poissons Ratio (z) = 0.35494 0.11860
#
# Static dielectric constant tensor:
#      x y z
#    x 1.395000 0.312730 0.141490 
#    y 0.312730 1.977050 -0.141230 
#    z 0.141490 -0.141230 2.080440 
# 
# From -- ./inp_files/483744.got.cif
#   From: 2010.05.17/outbox.cif.g08.bks.cpg/sg2_242_cif.got.tgz:483744.got - 2010.06.03 11:33:40.
