data_PCOD9071348
_publ_section_title
;
Structure prediction by ZEFSAII (Michael W. Deem and Ramdas Pophale) SiO2 
 PCOD9071348
Probable space group: P -1
;
_chemical_formula_sum "Si O2"
_cell_formula_units_Z 14
_cell_length_a 11.719976
_cell_length_b 12.444424
_cell_length_c 5.076450
_cell_angle_alpha 115.259775
_cell_angle_beta 76.079170
_cell_angle_gamma 70.723853
_cell_volume 565.451284
_symmetry_space_group_name_H-M "P -1"
_symmetry_group_IT_number 2
_symmetry_cell_setting 'triclinic'
loop_
_space_group_symop_operation_xyz
x,y,z
-x,-y,-z
loop_
_atom_site_type_symbol
_atom_site_label
_atom_site_fract_x
_atom_site_fract_y
_atom_site_fract_z
Si Si1 0.983177 0.923989 0.180823
Si Si2 0.587432 0.615527 0.531832
Si Si3 0.677949 0.986472 0.451110
Si Si4 0.990750 0.590274 0.349180
Si Si5 0.313182 0.168254 0.213991
Si Si6 0.201571 0.647525 0.548303
Si Si7 0.576556 0.300774 0.789648
O O1 0.837180 0.936460 0.286083
O O2 0.097687 0.768304 0.920543
O O3 0.000000 0.000000 0.500000
O O4 0.000000 0.000000 0.000000
O O5 0.621236 0.737945 0.662106
O O6 0.709994 0.483557 0.456405
O O7 0.546307 0.608983 0.248249
O O8 0.462360 0.652381 0.838673
O O9 0.650283 0.949420 0.716084
O O10 0.604982 0.146313 0.598659
O O11 0.648778 0.899347 0.163730
O O12 0.113680 0.619158 0.354294
O O13 0.000000 0.500000 0.500000
O O14 0.848483 0.729649 0.573663
O O15 0.000000 0.500000 0.000000
O O16 0.296270 0.692918 0.389440
#
# Coordination Sequence:
#
# PCOD9071348 Si02
#       7
#     2   2   2   2   2   2   2
#     4  12  27  47  77 115 154 199 249 325 399 460
#     4  12  29  50  77 112 157 212 263 315 383 468
#     4  12  26  48  77 113 153 202 265 320 389 456
#     4  12  27  47  77 115 154 199 249 325 399 460
#     4  12  26  48  77 113 153 202 265 320 389 456
#     4  12  28  52  84 116 160 200 262 330 398 464
#     4  12  29  50  77 112 157 212 263 315 383 468
#
# _framework density 24.758984000000002
#
# number of rings (size 3 to 8) (size 9 to 14) (size 15 to 20)
#    0.000    0.000    4.286    4.286    4.000    5.714 
#    0.000    0.000    0.000    0.000    0.000    0.000 
#    0.000    0.000    0.000    0.000    0.000    0.000 
#
# Total GULP energy -78698.563584 kJ/mol
# GULP energy per Si atom -5621.325970 kJ/mol
# Density = 2.470263 g / cm^3
# Si number density = 24.758984 Si / 1000 Ang^3
#
#
#
# Elastic Constant Matrix: (Units=GPa)
#
#
# Indices 1 2 3 4 5 6 
#
# 1 135.8511 41.6878 19.9895 -3.6045 6.5765 7.8635
# 2 41.6878 146.6052 34.1264 -1.8704 -0.0049 5.6375
# 3 19.9895 34.1264 125.5512 -3.0032 16.8256 -17.5020
# 4 -3.6045 -1.8704 -3.0032 54.6281 -8.1160 -1.6614
# 5 6.5765 -0.0049 16.8256 -8.1160 47.0174 3.3819
# 6 7.8635 5.6375 -17.5020 -1.6614 3.3819 40.2270
#
#
#
# Elastic Compliance Matrix: (Units=1/GPa)
#
#
# Indices 1 2 3 4 5 6 
#
# 1 0.008263 -0.002078 -0.000882 0.000275 -0.000675 -0.001640
# 2 -0.002078 0.008009 -0.002262 0.000145 0.001255 -0.001800
# 3 -0.000882 -0.002262 0.009946 0.000002 -0.003805 0.005137
# 4 0.000275 0.000145 0.000002 0.018814 0.003177 0.000437
# 5 -0.000675 0.001255 -0.003805 0.003177 0.023529 -0.003546
# 6 -0.001640 -0.001800 0.005137 0.000437 -0.003546 0.027983
#
#
# Mechanical properties :
#
#
# Convention : Reuss Voigt Hill
#
# Bulk Modulus (GPa) = 63.39242 66.62388 65.00815
# Shear Modulus (GPa) = 44.54446 49.18808 46.86627
#
# Velocity S-wave (km/s) = 4.24621 4.46205 4.35547
# Velocity P-wave (km/s) = 7.04981 7.31532 7.18379
#
# Compressibility (1/GPa) = 0.01577476
#
# Stress axis : x y z
#
# Youngs Moduli (GPa) = 121.01655 124.85188 100.53961
#
# Poissons Ratio (x) = 0.25941 0.08872
# Poissons Ratio (y) = 0.25144 0.22742
# Poissons Ratio (z) = 0.10680 0.28241
#
# Static dielectric constant tensor:
#      x y z
#    x 2.044730 -0.000240 -0.000350 
#    y -0.000240 1.893580 0.024760 
#    z -0.000350 0.024760 1.908170 
# 
# From -- ./inp_files/72181.got.cif
#   From: 2010.05.17/outbox.cif.g08.bks.cpg/sg2_37_cif.got.tgz:72181.got - 2010.06.03 11:33:40.
