data_PCOD9071142
_publ_section_title
;
Structure prediction by ZEFSAII (Michael W. Deem and Ramdas Pophale) SiO2 
 PCOD9071142
Probable space group: P -1
;
_chemical_formula_sum "Si O2"
_cell_formula_units_Z 13
_cell_length_a 9.142813
_cell_length_b 11.631515
_cell_length_c 11.512349
_cell_angle_alpha 134.512833
_cell_angle_beta 140.568891
_cell_angle_gamma 65.780596
_cell_volume 530.702923
_symmetry_space_group_name_H-M "P -1"
_symmetry_group_IT_number 2
_symmetry_cell_setting 'triclinic'
loop_
_space_group_symop_operation_xyz
x,y,z
-x,-y,-z
loop_
_atom_site_type_symbol
_atom_site_label
_atom_site_fract_x
_atom_site_fract_y
_atom_site_fract_z
Si Si1 0.295917 0.307994 0.246285
Si Si2 0.529188 0.197212 0.089874
Si Si3 0.562036 0.525530 0.191609
Si Si4 0.000000 0.000000 0.000000
Si Si5 0.150543 0.660731 0.135091
Si Si6 0.958678 0.818944 0.606687
Si Si7 0.235559 0.999156 0.572606
O O1 0.500000 0.500000 0.500000
O O2 0.365011 0.210262 0.108076
O O3 0.231634 0.183095 0.229959
O O4 0.032436 0.327613 0.070759
O O5 0.534534 0.361848 0.135445
O O6 0.781297 0.180781 0.279955
O O7 0.443897 0.059089 0.837156
O O8 0.386857 0.625557 0.206369
O O9 0.836975 0.631604 0.440942
O O10 0.500000 0.500000 0.000000
O O11 0.016747 0.060655 0.184047
O O12 0.210719 0.823554 0.370190
O O13 0.000000 0.500000 0.000000
O O14 0.776020 0.868773 0.441618
O O15 0.000000 0.000000 0.500000
#
# Coordination Sequence:
#
# PCOD9071142 Si02
#       7
#     2   2   2   1   2   2   2
#     4  12  28  51  83 120 165 219 278 345 424 496
#     4  12  27  52  82 118 162 223 276 342 427 507
#     4  12  27  49  79 118 165 224 272 347 424 497
#     4  12  28  50  76 124 162 212 278 342 414 496
#     4  12  27  51  79 115 161 221 283 340 427 507
#     4  12  29  48  79 119 167 210 281 345 416 498
#     4  12  25  51  79 115 158 212 277 343 417 495
#
# _framework density 24.495813999999999
#
# number of rings (size 3 to 8) (size 9 to 14) (size 15 to 20)
#    0.000    0.000    6.154    1.385    6.462    3.077 
#    0.000    0.000    0.000    0.000    0.000    0.000 
#    0.000    0.000    0.000    0.000    0.000    0.000 
#
# Total GULP energy -72431.878589 kJ/mol
# GULP energy per Si atom -5571.682968 kJ/mol
# Density = 2.444006 g / cm^3
# Si number density = 24.495814 Si / 1000 Ang^3
#
#
#
# Elastic Constant Matrix: (Units=GPa)
#
#
# Indices 1 2 3 4 5 6 
#
# 1 116.6015 56.2886 37.1403 18.2981 -6.3627 30.0244
# 2 56.2886 125.1334 45.8114 16.3209 6.9561 3.1826
# 3 37.1403 45.8114 126.0463 13.7195 0.2278 -6.8707
# 4 18.2981 16.3209 13.7195 34.9959 -3.8034 4.8752
# 5 -6.3627 6.9561 0.2278 -3.8034 34.6767 5.8504
# 6 30.0244 3.1826 -6.8707 4.8752 5.8504 34.4155
#
#
#
# Elastic Compliance Matrix: (Units=1/GPa)
#
#
# Indices 1 2 3 4 5 6 
#
# 1 0.017776 -0.006410 -0.003632 -0.001788 0.007177 -0.016607
# 2 -0.006410 0.012063 -0.001894 -0.002791 -0.004785 0.005307
# 3 -0.003632 -0.001894 0.010266 -0.002251 -0.001611 0.005986
# 4 -0.001788 -0.002791 -0.002251 0.032748 0.004520 -0.004039
# 5 0.007177 -0.004785 -0.001611 0.004520 0.033732 -0.012515
# 6 -0.016607 0.005307 0.005986 -0.004039 -0.012515 0.046948
#
#
# Mechanical properties :
#
#
# Convention : Reuss Voigt Hill
#
# Bulk Modulus (GPa) = 61.59783 71.80685 66.70234
# Shear Modulus (GPa) = 27.34991 36.05369 31.70180
#
# Velocity S-wave (km/s) = 3.34505 3.84061 3.60136
# Velocity P-wave (km/s) = 6.33404 7.00318 6.67700
#
# Compressibility (1/GPa) = 0.01623434
#
# Stress axis : x y z
#
# Youngs Moduli (GPa) = 56.25677 82.89641 97.40639
#
# Poissons Ratio (x) = 0.53135 0.35375
# Poissons Ratio (y) = 0.36060 0.18448
# Poissons Ratio (z) = 0.20430 0.15700
#
# Static dielectric constant tensor:
#      x y z
#    x 1.805580 0.178310 0.112520 
#    y 0.178310 1.924110 0.003100 
#    z 0.112520 0.003100 2.148070 
# 
# From -- ./inp_files/190313.got.cif
#   From: 2010.05.17/outbox.cif.g08.bks.cpg/sg2_96_cif.got.tgz:190313.got - 2010.06.03 11:33:40.
