data_PCOD9071821
_publ_section_title
;
Structure prediction by ZEFSAII (Michael W. Deem and Ramdas Pophale) SiO2 
 PCOD9071821
Probable space group: P -1
;
_chemical_formula_sum "Si O2"
_cell_formula_units_Z 16
_cell_length_a 8.501457
_cell_length_b 11.160181
_cell_length_c 11.932659
_cell_angle_alpha 100.307210
_cell_angle_beta 145.630832
_cell_angle_gamma 94.453074
_cell_volume 574.734059
_symmetry_space_group_name_H-M "P -1"
_symmetry_group_IT_number 2
_symmetry_cell_setting 'triclinic'
loop_
_space_group_symop_operation_xyz
x,y,z
-x,-y,-z
loop_
_atom_site_type_symbol
_atom_site_label
_atom_site_fract_x
_atom_site_fract_y
_atom_site_fract_z
Si Si1 0.263573 0.987349 0.230261
Si Si2 0.053585 0.369534 0.465294
Si Si3 0.058162 0.015349 0.761361
Si Si4 0.585343 0.322566 0.894321
Si Si5 0.586341 0.990178 0.220215
Si Si6 0.732239 0.380177 0.464348
Si Si7 0.905534 0.679826 0.948415
Si Si8 0.233374 0.327289 0.890352
O O1 0.564378 0.039915 0.340332
O O2 0.242630 0.045822 0.349172
O O3 0.144830 0.827816 0.145278
O O4 0.000000 0.000000 0.000000
O O5 0.314805 0.332089 0.662294
O O6 0.190619 0.456432 0.449633
O O7 0.000000 0.500000 0.500000
O O8 0.747329 0.287248 0.343157
O O9 0.102434 0.956159 0.659036
O O10 0.144098 0.170646 0.822030
O O11 0.321997 0.001915 0.990583
O O12 0.521390 0.169494 0.857148
O O13 0.532677 0.376831 0.994416
O O14 0.900302 0.379377 0.020399
O O15 0.381180 0.313284 0.283196
O O16 0.969835 0.354220 0.678261
O O17 0.742906 0.615634 0.960427
#
# Coordination Sequence:
#
# PCOD9071821 Si02
#       8
#     2   2   2   2   2   2   2   2
#     4   8  14  24  39  64  94 117 148 194 228 266
#     4   7  16  33  50  66 101 130 150 206 254 276
#     4   8  13  22  40  64  87 119 156 184 224 283
#     4   9  16  30  49  70  97 127 159 201 243 283
#     4   8  13  21  39  66  87 115 158 189 224 277
#     4   8  17  33  49  70 102 124 161 206 238 287
#     4  10  18  29  53  76  90 129 173 190 237 300
#     4   9  17  32  49  70 102 129 154 201 247 279
#
# _framework density 27.838961000000001
#
# number of rings (size 3 to 8) (size 9 to 14) (size 15 to 20)
#    0.750    2.750    0.000    0.000    0.000    0.500 
#    0.000    8.750    0.000   12.000    0.000  155.750 
#    0.000    0.000    0.000    0.000    0.000    0.000 
#
# Total GULP energy -89078.966672 kJ/mol
# GULP energy per Si atom -5567.435417 kJ/mol
# Density = 2.777560 g / cm^3
# Si number density = 27.838961 Si / 1000 Ang^3
#
#
#
# Elastic Constant Matrix: (Units=GPa)
#
#
# Indices 1 2 3 4 5 6 
#
# 1 279.6144 20.7416 56.6451 3.3412 51.7138 21.2053
# 2 20.7416 117.8973 63.6951 -26.4692 -1.6833 -2.3355
# 3 56.6451 63.6951 145.4541 -16.8221 30.6608 1.8904
# 4 3.3412 -26.4692 -16.8221 43.9909 5.5903 2.5054
# 5 51.7138 -1.6833 30.6608 5.5903 57.2184 -3.3173
# 6 21.2053 -2.3355 1.8904 2.5054 -3.3173 22.7597
#
#
#
# Elastic Compliance Matrix: (Units=1/GPa)
#
#
# Indices 1 2 3 4 5 6 
#
# 1 0.004994 -0.000758 -0.000620 -0.000199 -0.004492 -0.005312
# 2 -0.000758 0.012856 -0.005560 0.005057 0.003691 0.002468
# 3 -0.000620 -0.005560 0.010998 0.001752 -0.005780 -0.001941
# 4 -0.000199 0.005057 0.001752 0.027061 -0.003424 -0.002919
# 5 -0.004492 0.003691 -0.005780 -0.003424 0.025608 0.009154
# 6 -0.005312 0.002468 -0.001941 -0.002919 0.009154 0.050957
#
#
# Mechanical properties :
#
#
# Convention : Reuss Voigt Hill
#
# Bulk Modulus (GPa) = 66.79009 91.68104 79.23557
# Shear Modulus (GPa) = 33.03804 51.58605 42.31204
#
# Velocity S-wave (km/s) = 3.44867 4.30934 3.90280
# Velocity P-wave (km/s) = 6.31676 7.60031 6.98806
#
# Compressibility (1/GPa) = 0.01497228
#
# Stress axis : x y z
#
# Youngs Moduli (GPa) = 200.22862 77.78415 90.92939
#
# Poissons Ratio (x) = 0.05893 0.05640
# Poissons Ratio (y) = 0.15169 0.50557
# Poissons Ratio (z) = 0.12418 0.43248
#
# Static dielectric constant tensor:
#      x y z
#    x 2.197260 -0.111310 -0.106310 
#    y -0.111310 2.022150 -0.102530 
#    z -0.106310 -0.102530 2.268840 
# 
# From -- ./inp_files/225644.got.cif
#   From: 2010.05.17/outbox.cif.g08.bks.cpg/sg2_113_cif.got.tgz:225644.got - 2010.06.03 11:33:40.
