data_PCOD9071533
_publ_section_title
;
Structure prediction by ZEFSAII (Michael W. Deem and Ramdas Pophale) SiO2 
 PCOD9071533
Probable space group: P -1
;
_chemical_formula_sum "Si O2"
_cell_formula_units_Z 14
_cell_length_a 14.013681
_cell_length_b 10.855269
_cell_length_c 4.950973
_cell_angle_alpha 124.024990
_cell_angle_beta 79.097516
_cell_angle_gamma 126.580529
_cell_volume 489.323424
_symmetry_space_group_name_H-M "P -1"
_symmetry_group_IT_number 2
_symmetry_cell_setting 'triclinic'
loop_
_space_group_symop_operation_xyz
x,y,z
-x,-y,-z
loop_
_atom_site_type_symbol
_atom_site_label
_atom_site_fract_x
_atom_site_fract_y
_atom_site_fract_z
Si Si1 0.260929 0.644451 0.625430
Si Si2 0.413677 0.007351 0.335669
Si Si3 0.563193 0.436529 0.694711
Si Si4 0.188574 0.864054 0.664392
Si Si5 0.951035 0.620122 0.199513
Si Si6 0.105425 0.173294 0.835496
Si Si7 0.249589 0.215993 0.322240
O O1 0.322322 0.572994 0.323961
O O2 0.179026 0.693078 0.588148
O O3 0.178021 0.500638 0.728809
O O4 0.369902 0.844710 0.941941
O O5 0.465386 0.212010 0.447348
O O6 0.500000 0.000000 0.500000
O O7 0.291747 0.939450 0.477975
O O8 0.626698 0.592451 0.613498
O O9 0.500000 0.500000 0.000000
O O10 0.061745 0.796540 0.521265
O O11 0.237665 0.030008 0.050631
O O12 0.931920 0.689919 0.018034
O O13 0.000000 0.500000 0.000000
O O14 0.221578 0.233147 0.663570
O O15 0.142847 0.172309 0.117927
O O16 0.000000 0.000000 0.500000
#
# Coordination Sequence:
#
# PCOD9071533 Si02
#       7
#     2   2   2   2   2   2   2
#     4  12  28  51  80 115 161 216 269 347 413 496
#     4  12  27  51  75 112 159 211 271 339 407 486
#     4  12  27  50  78 115 157 214 282 337 406 483
#     4  12  27  48  80 115 159 212 273 328 424 487
#     4  12  27  47  80 118 159 211 269 336 416 507
#     4  12  28  51  79 115 170 210 269 336 418 487
#     4  12  29  50  78 120 162 217 270 344 409 490
#
# _framework density 28.610935999999999
#
# number of rings (size 3 to 8) (size 9 to 14) (size 15 to 20)
#    0.000    0.000    7.143    1.286    8.000    0.000 
#    0.000    2.143    0.000    0.000    0.000    0.000 
#    0.000    0.000    0.000    0.000    0.000    0.000 
#
# Total GULP energy -78518.930049 kJ/mol
# GULP energy per Si atom -5608.495003 kJ/mol
# Density = 2.854582 g / cm^3
# Si number density = 28.610936 Si / 1000 Ang^3
#
#
#
# Elastic Constant Matrix: (Units=GPa)
#
#
# Indices 1 2 3 4 5 6 
#
# 1 168.1740 19.2909 63.4867 3.7106 -1.9976 1.9269
# 2 19.2909 100.9609 33.8605 11.2273 -7.9730 18.2026
# 3 63.4867 33.8605 182.3058 24.5650 -31.0313 -1.8311
# 4 3.7106 11.2273 24.5650 61.3363 2.5688 -2.5592
# 5 -1.9976 -7.9730 -31.0313 2.5688 74.6786 6.0106
# 6 1.9269 18.2026 -1.8311 -2.5592 6.0106 61.2218
#
#
#
# Elastic Compliance Matrix: (Units=1/GPa)
#
#
# Indices 1 2 3 4 5 6 
#
# 1 0.006963 -0.000633 -0.002578 0.000769 -0.000980 0.000020
# 2 -0.000633 0.011450 -0.001572 -0.001615 0.000896 -0.003587
# 3 -0.002578 -0.001572 0.007545 -0.002686 0.002961 0.000371
# 4 0.000769 -0.001615 -0.002686 0.017767 -0.001985 0.001313
# 5 -0.000980 0.000896 0.002961 -0.001985 0.014895 -0.001692
# 6 0.000020 -0.003587 0.000371 0.001313 -0.001692 0.017632
#
#
# Mechanical properties :
#
#
# Convention : Reuss Voigt Hill
#
# Bulk Modulus (GPa) = 61.00145 76.07966 68.54056
# Shear Modulus (GPa) = 54.77634 61.76749 58.27192
#
# Velocity S-wave (km/s) = 4.38028 4.65141 4.51788
# Velocity P-wave (km/s) = 6.85199 7.44959 7.15703
#
# Compressibility (1/GPa) = 0.01639305
#
# Stress axis : x y z
#
# Youngs Moduli (GPa) = 143.61625 87.33552 132.54499
#
# Poissons Ratio (x) = 0.05524 0.34165
# Poissons Ratio (y) = 0.09084 0.20839
# Poissons Ratio (z) = 0.37019 0.13731
#
# Static dielectric constant tensor:
#      x y z
#    x 2.335740 0.038250 0.095170 
#    y 0.038250 2.284110 0.085310 
#    z 0.095170 0.085310 2.229290 
# 
# From -- ./inp_files/95615.got.cif
#   From: 2010.05.17/outbox.cif.g08.bks.cpg/sg2_48_cif.got.tgz:95615.got - 2010.06.03 11:33:40.
