data_PCOD9071433
_publ_section_title
;
Structure prediction by ZEFSAII (Michael W. Deem and Ramdas Pophale) SiO2 
 PCOD9071433
Probable space group: P -1
;
_chemical_formula_sum "Si O2"
_cell_formula_units_Z 14
_cell_length_a 7.907169
_cell_length_b 7.670418
_cell_length_c 10.908025
_cell_angle_alpha 107.837648
_cell_angle_beta 88.582180
_cell_angle_gamma 60.236647
_cell_volume 534.043031
_symmetry_space_group_name_H-M "P -1"
_symmetry_group_IT_number 2
_symmetry_cell_setting 'triclinic'
loop_
_space_group_symop_operation_xyz
x,y,z
-x,-y,-z
loop_
_atom_site_type_symbol
_atom_site_label
_atom_site_fract_x
_atom_site_fract_y
_atom_site_fract_z
Si Si1 0.135965 0.974958 0.609329
Si Si2 0.480722 0.292994 0.959322
Si Si3 0.345614 0.366251 0.242664
Si Si4 0.058134 0.049871 0.143620
Si Si5 0.555345 0.924419 0.295577
Si Si6 0.480956 0.662520 0.400001
Si Si7 0.060541 0.493751 0.639905
O O1 0.329905 0.731776 0.530919
O O2 0.031741 0.007215 0.749455
O O3 0.254165 0.100153 0.643228
O O4 0.000000 0.000000 0.500000
O O5 0.360489 0.266813 0.846578
O O6 0.704244 0.094908 0.893935
O O7 0.500000 0.500000 0.000000
O O8 0.389262 0.283222 0.086107
O O9 0.461466 0.490204 0.286683
O O10 0.112650 0.537767 0.305143
O O11 0.437829 0.158607 0.285126
O O12 0.995297 0.291592 0.232453
O O13 0.000000 0.000000 0.000000
O O14 0.408794 0.882538 0.369820
O O15 0.703718 0.602562 0.401791
O O16 0.000000 0.500000 0.500000
#
# Coordination Sequence:
#
# PCOD9071433 Si02
#       7
#     2   2   2   2   2   2   2
#     4  12  29  49  85 122 170 223 281 355 433 501
#     4  12  26  51  80 118 169 222 282 349 423 518
#     4  12  27  52  83 121 168 218 276 353 429 502
#     4  12  28  51  81 125 169 222 287 349 423 516
#     4  12  26  49  81 116 165 221 276 349 420 503
#     4  12  28  52  80 123 167 214 286 345 420 523
#     4  12  28  48  85 121 165 221 281 349 426 506
#
# _framework density 26.215115999999998
#
# number of rings (size 3 to 8) (size 9 to 14) (size 15 to 20)
#    0.000    0.000    2.857    6.000    6.000    1.714 
#    0.000    1.429    0.000    0.000    0.000    0.000 
#    0.000    0.000    0.000    0.000    0.000    0.000 
#
# Total GULP energy -78293.365698 kJ/mol
# GULP energy per Si atom -5592.383264 kJ/mol
# Density = 2.615545 g / cm^3
# Si number density = 26.215116 Si / 1000 Ang^3
#
#
#
# Elastic Constant Matrix: (Units=GPa)
#
#
# Indices 1 2 3 4 5 6 
#
# 1 163.8182 58.1805 81.8721 -8.8522 8.1278 4.4433
# 2 58.1805 61.9355 23.0530 -2.9237 5.0164 4.1217
# 3 81.8721 23.0530 238.8713 0.4910 5.9750 0.1454
# 4 -8.8522 -2.9237 0.4910 32.7200 10.1114 -6.1726
# 5 8.1278 5.0164 5.9750 10.1114 78.4861 11.6561
# 6 4.4433 4.1217 0.1454 -6.1726 11.6561 65.9758
#
#
#
# Elastic Compliance Matrix: (Units=1/GPa)
#
#
# Indices 1 2 3 4 5 6 
#
# 1 0.010889 -0.009011 -0.002851 0.002426 -0.000674 0.000182
# 2 -0.009011 0.024419 0.000746 -0.000266 -0.000524 -0.000853
# 3 -0.002851 0.000746 0.005094 -0.000750 -0.000055 0.000074
# 4 0.002426 -0.000266 -0.000750 0.033506 -0.005071 0.003886
# 5 -0.000674 -0.000524 -0.000055 -0.005071 0.013926 -0.002857
# 6 0.000182 -0.000853 0.000074 0.003886 -0.002857 0.016066
#
#
# Mechanical properties :
#
#
# Convention : Reuss Voigt Hill
#
# Bulk Modulus (GPa) = 55.03175 87.87068 71.45121
# Shear Modulus (GPa) = 37.82480 55.53768 46.68124
#
# Velocity S-wave (km/s) = 3.80262 4.60775 4.22441
# Velocity P-wave (km/s) = 6.34964 7.86768 7.14906
#
# Compressibility (1/GPa) = 0.01817133
#
# Stress axis : x y z
#
# Youngs Moduli (GPa) = 91.83774 40.95167 196.29746
#
# Poissons Ratio (x) = 0.36900 0.55959
# Poissons Ratio (y) = 0.82750 -0.14641
# Poissons Ratio (z) = 0.26180 -0.03054
#
# Static dielectric constant tensor:
#      x y z
#    x 1.968440 0.270360 0.080640 
#    y 0.270360 1.039220 -0.187000 
#    z 0.080640 -0.187000 2.080720 
# 
# From -- ./inp_files/376922.got.cif
#   From: 2010.05.17/outbox.cif.g08.bks.cpg/sg2_189_cif.got.tgz:376922.got - 2010.06.03 11:33:40.
