data_PCOD9071416
_publ_section_title
;
Structure prediction by ZEFSAII (Michael W. Deem and Ramdas Pophale) SiO2 
 PCOD9071416
Probable space group: P -1
;
_chemical_formula_sum "Si O2"
_cell_formula_units_Z 14
_cell_length_a 9.036947
_cell_length_b 11.677686
_cell_length_c 14.173296
_cell_angle_alpha 130.023372
_cell_angle_beta 150.726388
_cell_angle_gamma 60.269457
_cell_volume 551.559103
_symmetry_space_group_name_H-M "P -1"
_symmetry_group_IT_number 2
_symmetry_cell_setting 'triclinic'
loop_
_space_group_symop_operation_xyz
x,y,z
-x,-y,-z
loop_
_atom_site_type_symbol
_atom_site_label
_atom_site_fract_x
_atom_site_fract_y
_atom_site_fract_z
Si Si1 0.671131 0.159099 0.131230
Si Si2 0.607327 0.294021 0.516191
Si Si3 0.753213 0.949049 0.681392
Si Si4 0.112247 0.275190 0.082033
Si Si5 0.817354 0.829644 0.298855
Si Si6 0.537170 0.551331 0.766220
Si Si7 0.472331 0.614037 0.128571
O O1 0.668006 0.315187 0.270001
O O2 0.017997 0.147415 0.292037
O O3 0.470963 0.174032 0.933500
O O4 0.500000 0.000000 0.000000
O O5 0.429696 0.140277 0.382764
O O6 0.437039 0.309965 0.331865
O O7 0.540183 0.424351 0.619658
O O8 0.952146 0.272963 0.672936
O O9 0.500000 0.000000 0.500000
O O10 0.981768 0.099248 0.918383
O O11 0.139604 0.338651 0.023915
O O12 0.871732 0.353537 0.045169
O O13 0.697740 0.765321 0.300179
O O14 0.000000 0.000000 0.500000
O O15 0.487542 0.460550 0.787962
O O16 0.500000 0.500000 0.000000
#
# Coordination Sequence:
#
# PCOD9071416 Si02
#       7
#     2   2   2   2   2   2   2
#     4  12  26  50  81 113 158 204 265 325 398 470
#     4  12  28  50  79 120 159 211 266 322 401 465
#     4  12  26  50  81 115 152 211 265 324 396 475
#     4  12  26  53  77 112 164 208 259 326 394 477
#     4  12  27  51  82 118 159 209 264 326 390 473
#     4  12  28  50  83 112 162 208 264 330 398 470
#     4  12  26  49  79 113 159 206 262 325 397 461
#
# _framework density 25.382591000000001
#
# number of rings (size 3 to 8) (size 9 to 14) (size 15 to 20)
#    0.000    0.000    2.857    6.429    2.000    1.714 
#    2.571    0.000    0.000    0.000    0.000    0.000 
#    0.000    0.000    0.000    0.000    0.000    0.000 
#
# Total GULP energy -78467.288602 kJ/mol
# GULP energy per Si atom -5604.806329 kJ/mol
# Density = 2.532482 g / cm^3
# Si number density = 25.382591 Si / 1000 Ang^3
#
#
#
# Elastic Constant Matrix: (Units=GPa)
#
#
# Indices 1 2 3 4 5 6 
#
# 1 165.3822 82.9950 42.6223 -35.5625 17.9825 9.1298
# 2 82.9950 159.9020 59.5535 -7.0411 0.1860 1.9810
# 3 42.6223 59.5535 79.0743 -19.3090 1.8901 -0.1447
# 4 -35.5625 -7.0411 -19.3090 41.8839 -0.9388 17.8859
# 5 17.9825 0.1860 1.8901 -0.9388 49.9577 11.1791
# 6 9.1298 1.9810 -0.1447 17.8859 11.1791 76.8096
#
#
#
# Elastic Compliance Matrix: (Units=1/GPa)
#
#
# Indices 1 2 3 4 5 6 
#
# 1 0.011512 -0.005750 0.000745 0.010435 -0.003244 -0.003177
# 2 -0.005750 0.011684 -0.007466 -0.007069 0.001783 0.001755
# 3 0.000745 -0.007466 0.020204 0.009550 -0.000372 -0.002028
# 4 0.010435 -0.007069 0.009550 0.040316 -0.001034 -0.010278
# 5 -0.003244 0.001783 -0.000372 -0.001034 0.021751 -0.002586
# 6 -0.003177 0.001755 -0.002028 -0.010278 -0.002586 0.016117
#
#
# Mechanical properties :
#
#
# Convention : Reuss Voigt Hill
#
# Bulk Modulus (GPa) = 54.17317 86.07778 70.12548
# Shear Modulus (GPa) = 32.74847 48.34276 40.54561
#
# Velocity S-wave (km/s) = 3.59582 4.36887 4.00106
# Velocity P-wave (km/s) = 6.21522 7.70941 7.00228
#
# Compressibility (1/GPa) = 0.01845932
#
# Stress axis : x y z
#
# Youngs Moduli (GPa) = 86.86441 85.58863 49.49426
#
# Poissons Ratio (x) = 0.49215 -0.03689
# Poissons Ratio (y) = 0.49949 0.36951
# Poissons Ratio (z) = -0.06475 0.63898
#
# Static dielectric constant tensor:
#      x y z
#    x 2.068760 0.038590 -0.037840 
#    y 0.038590 2.095670 0.011040 
#    z -0.037840 0.011040 2.038820 
# 
# From -- ./inp_files/500924.got.cif
#   From: 2010.05.17/outbox.cif.g08.bks.cpg/sg2_251_cif.got.tgz:500924.got - 2010.06.03 11:33:40.
