data_PCOD9071320
_publ_section_title
;
Structure prediction by ZEFSAII (Michael W. Deem and Ramdas Pophale) SiO2 
 PCOD9071320
Probable space group: P -1
;
_chemical_formula_sum "Si O2"
_cell_formula_units_Z 15
_cell_length_a 7.719235
_cell_length_b 19.262970
_cell_length_c 5.545158
_cell_angle_alpha 75.278014
_cell_angle_beta 106.518667
_cell_angle_gamma 135.199472
_cell_volume 555.347490
_symmetry_space_group_name_H-M "P -1"
_symmetry_group_IT_number 2
_symmetry_cell_setting 'triclinic'
loop_
_space_group_symop_operation_xyz
x,y,z
-x,-y,-z
loop_
_atom_site_type_symbol
_atom_site_label
_atom_site_fract_x
_atom_site_fract_y
_atom_site_fract_z
Si Si1 0.354836 0.468182 0.726683
Si Si2 0.880569 0.824829 0.442200
Si Si3 0.268927 0.707546 0.720608
Si Si4 0.718266 0.894610 0.993069
Si Si5 0.368359 0.619908 0.459981
Si Si6 0.652443 0.094515 0.145983
Si Si7 0.935088 0.238170 0.731108
Si Si8 0.000000 0.500000 0.000000
O O1 0.500000 0.500000 0.500000
O O2 0.258904 0.524777 0.660367
O O3 0.157095 0.351915 0.763047
O O4 0.500000 0.500000 0.000000
O O5 0.745023 0.862766 0.296757
O O6 0.665413 0.707939 0.523825
O O7 0.982903 0.820834 0.233749
O O8 0.117492 0.884084 0.658749
O O9 0.281260 0.669045 0.504371
O O10 0.178764 0.761876 0.561197
O O11 0.543024 0.787345 0.878627
O O12 0.061795 0.603262 0.864968
O O13 0.575781 0.926158 0.803880
O O14 0.000000 0.000000 0.000000
O O15 0.258291 0.572565 0.198936
O O16 0.756210 0.186206 0.932818
O O17 0.500000 0.000000 0.000000
#
# Coordination Sequence:
#
# PCOD9071320 Si02
#       8
#     2   2   2   2   2   2   2   1
#     4  12  28  45  75 118 164 218 280 340 420 510
#     4  12  27  51  79 113 161 208 268 338 422 501
#     4  12  28  48  78 114 159 209 274 343 421 501
#     4  12  29  52  83 114 160 212 275 350 427 511
#     4  12  27  45  77 115 159 219 270 340 417 513
#     4  12  30  52  81 119 156 211 282 352 427 510
#     4  12  27  48  77 112 160 213 268 349 414 501
#     4  12  26  48  74 116 166 208 278 336 420 498
#
# _framework density 27.010114999999999
#
# number of rings (size 3 to 8) (size 9 to 14) (size 15 to 20)
#    0.000    0.000    5.333    2.800    9.333    1.600 
#    0.000    0.000    0.000    0.000    0.000    0.000 
#    0.000    0.000    0.000    0.000    0.000    0.000 
#
# Total GULP energy -83523.053440 kJ/mol
# GULP energy per Si atom -5568.203563 kJ/mol
# Density = 2.694864 g / cm^3
# Si number density = 27.010115 Si / 1000 Ang^3
#
#
#
# Elastic Constant Matrix: (Units=GPa)
#
#
# Indices 1 2 3 4 5 6 
#
# 1 48.4694 12.2965 18.1152 21.0754 19.9590 -0.2689
# 2 12.2965 215.5683 66.0389 37.8778 8.2061 32.8470
# 3 18.1152 66.0389 145.3068 37.6548 42.8398 20.7775
# 4 21.0754 37.8778 37.6548 74.3828 13.1739 13.5815
# 5 19.9590 8.2061 42.8398 13.1739 41.9422 2.5893
# 6 -0.2689 32.8470 20.7775 13.5815 2.5893 42.0733
#
#
#
# Elastic Compliance Matrix: (Units=1/GPa)
#
#
# Indices 1 2 3 4 5 6 
#
# 1 0.028751 -0.001075 0.002367 -0.006868 -0.013913 0.002927
# 2 -0.001075 0.006131 -0.002602 -0.001372 0.002600 -0.003225
# 3 0.002367 -0.002602 0.012538 -0.003075 -0.012310 -0.002395
# 4 -0.006868 -0.001372 -0.003075 0.018042 0.001218 -0.003353
# 5 -0.013913 0.002600 -0.012310 0.001218 0.042085 0.000978
# 6 0.002927 -0.003225 -0.002395 -0.003353 0.000978 0.028510
#
#
# Mechanical properties :
#
#
# Convention : Reuss Voigt Hill
#
# Bulk Modulus (GPa) = 22.32132 66.91617 44.61874
# Shear Modulus (GPa) = 32.54995 52.53923 42.54459
#
# Velocity S-wave (km/s) = 3.47522 4.41519 3.97310
# Velocity P-wave (km/s) = 4.93811 7.12883 6.13209
#
# Compressibility (1/GPa) = 0.04480023
#
# Stress axis : x y z
#
# Youngs Moduli (GPa) = 34.78140 163.10773 79.75629
#
# Poissons Ratio (x) = 0.17532 -0.18879
# Poissons Ratio (y) = 0.03738 0.20754
# Poissons Ratio (z) = -0.08233 0.42443
#
# Static dielectric constant tensor:
#      x y z
#    x 6.311640 -1.343390 -2.619380 
#    y -1.343390 2.554080 0.826730 
#    z -2.619380 0.826730 3.858470 
# 
# From -- ./inp_files/52833.got.cif
#   From: 2010.05.17/outbox.cif.g08.bks.cpg/sg2_27_cif.got.tgz:52833.got - 2010.06.03 11:33:40.
