data_PCOD9071151
_publ_section_title
;
Structure prediction by ZEFSAII (Michael W. Deem and Ramdas Pophale) SiO2 
 PCOD9071151
Probable space group: P -1
;
_chemical_formula_sum "Si O2"
_cell_formula_units_Z 14
_cell_length_a 9.516271
_cell_length_b 8.776328
_cell_length_c 14.903380
_cell_angle_alpha 74.101972
_cell_angle_beta 39.151488
_cell_angle_gamma 52.573215
_cell_volume 573.696829
_symmetry_space_group_name_H-M "P -1"
_symmetry_group_IT_number 2
_symmetry_cell_setting 'triclinic'
loop_
_space_group_symop_operation_xyz
x,y,z
-x,-y,-z
loop_
_atom_site_type_symbol
_atom_site_label
_atom_site_fract_x
_atom_site_fract_y
_atom_site_fract_z
Si Si1 0.035523 0.566027 0.124003
Si Si2 0.276463 0.499304 0.437434
Si Si3 0.173737 0.217694 0.612857
Si Si4 0.230715 0.092754 0.288047
Si Si5 0.356626 0.700614 0.222414
Si Si6 0.147850 0.068085 0.973454
Si Si7 0.859265 0.296352 0.258764
O O1 0.953669 0.659669 0.249447
O O2 0.921783 0.742506 0.079121
O O3 0.882482 0.470519 0.196689
O O4 0.383230 0.389344 0.962392
O O5 0.184464 0.359748 0.514445
O O6 0.421156 0.507319 0.275830
O O7 0.520956 0.403414 0.410120
O O8 0.003850 0.741801 0.550175
O O9 0.952563 0.187830 0.690578
O O10 0.500000 0.000000 0.500000
O O11 0.054521 0.187390 0.267224
O O12 0.337715 0.861508 0.271205
O O13 0.502640 0.086675 0.161198
O O14 0.007754 0.133680 0.130221
O O15 0.000000 0.000000 0.000000
#
# Coordination Sequence:
#
# PCOD9071151 Si02
#       7
#     2   2   2   2   2   2   2
#     4  12  27  50  76 107 156 205 258 307 384 454
#     4  12  27  49  77 113 156 203 252 321 386 452
#     4  12  30  48  76 116 158 201 257 322 384 451
#     4  12  27  47  80 114 153 201 259 314 388 453
#     4  12  27  49  79 110 158 202 260 312 387 457
#     4  12  29  46  79 113 154 198 260 317 381 454
#     4  12  25  52  76 111 154 204 254 314 383 461
#
# _framework density 24.403133
#
# number of rings (size 3 to 8) (size 9 to 14) (size 15 to 20)
#    0.000    0.000    4.286    4.286   10.000    0.000 
#    0.000    0.000    0.000    0.000    0.000    0.000 
#    0.000    0.000    0.000    0.000    0.000    0.000 
#
# Total GULP energy -78491.308281 kJ/mol
# GULP energy per Si atom -5606.522020 kJ/mol
# Density = 2.434759 g / cm^3
# Si number density = 24.403133 Si / 1000 Ang^3
#
#
#
# Elastic Constant Matrix: (Units=GPa)
#
#
# Indices 1 2 3 4 5 6 
#
# 1 138.2279 12.4447 47.8368 11.3036 -23.1951 19.4993
# 2 12.4447 92.2092 35.8826 -9.3454 -4.2987 7.5194
# 3 47.8368 35.8826 120.6702 19.6926 -15.7074 17.9656
# 4 11.3036 -9.3454 19.6926 35.5453 -7.9172 -4.0874
# 5 -23.1951 -4.2987 -15.7074 -7.9172 55.4177 -2.5229
# 6 19.4993 7.5194 17.9656 -4.0874 -2.5229 45.6203
#
#
#
# Elastic Compliance Matrix: (Units=1/GPa)
#
#
# Indices 1 2 3 4 5 6 
#
# 1 0.009103 0.000054 -0.002667 -0.001107 0.002773 -0.002795
# 2 0.000054 0.013465 -0.005066 0.006500 0.000577 0.000367
# 3 -0.002667 -0.005066 0.012786 -0.007810 0.000830 -0.003714
# 4 -0.001107 0.006500 -0.007810 0.035914 0.003226 0.005873
# 5 0.002773 0.000577 0.000830 0.003226 0.019936 -0.000216
# 6 -0.002795 0.000367 -0.003714 0.005873 -0.000216 0.025031
#
#
# Mechanical properties :
#
#
# Convention : Reuss Voigt Hill
#
# Bulk Modulus (GPa) = 50.00791 60.38172 55.19482
# Shear Modulus (GPa) = 36.16440 44.31287 40.23863
#
# Velocity S-wave (km/s) = 3.85380 4.26592 4.06509
# Velocity P-wave (km/s) = 6.35132 7.00438 6.68582
#
# Compressibility (1/GPa) = 0.01999684
#
# Stress axis : x y z
#
# Youngs Moduli (GPa) = 109.85879 74.26907 78.20967
#
# Poissons Ratio (x) = -0.00404 0.20859
# Poissons Ratio (y) = -0.00598 0.39618
# Poissons Ratio (z) = 0.29299 0.37622
#
# Static dielectric constant tensor:
#      x y z
#    x 1.951200 -0.041830 0.010390 
#    y -0.041830 1.969920 0.015170 
#    z 0.010390 0.015170 1.929380 
# 
# From -- ./inp_files/156474.got.cif
#   From: 2010.05.17/outbox.cif.g08.bks.cpg/sg2_79_cif.got.tgz:156474.got - 2010.06.03 11:33:40.
