data_PCOD9071768
_publ_section_title
;
Structure prediction by ZEFSAII (Michael W. Deem and Ramdas Pophale) SiO2 
 PCOD9071768
Probable space group: P -1
;
_chemical_formula_sum "Si O2"
_cell_formula_units_Z 16
_cell_length_a 12.000000
_cell_length_b 9.000000
_cell_length_c 15.000000
_cell_angle_alpha 130.000000
_cell_angle_beta 40.000000
_cell_angle_gamma 110.000000
_cell_volume 759.581896
_symmetry_space_group_name_H-M "P -1"
_symmetry_group_IT_number 2
_symmetry_cell_setting 'triclinic'
loop_
_space_group_symop_operation_xyz
x,y,z
-x,-y,-z
loop_
_atom_site_type_symbol
_atom_site_label
_atom_site_fract_x
_atom_site_fract_y
_atom_site_fract_z
Si Si1 0.933414 0.582530 0.344736
Si Si2 0.660160 0.400913 0.052724
Si Si3 0.120881 0.776407 0.456397
Si Si4 0.042780 0.189835 0.758127
Si Si5 0.318562 0.983796 0.651549
Si Si6 0.268782 0.221739 0.946170
Si Si7 0.299137 0.552945 0.430944
Si Si8 0.429834 0.745007 0.125479
O O1 0.893994 0.698000 0.319780
O O2 0.768738 0.564672 0.496836
O O3 0.030452 0.699305 0.398653
O O4 0.071332 0.357201 0.152583
O O5 0.660062 0.615203 0.091421
O O6 0.494528 0.429203 0.228990
O O7 0.654418 0.244024 0.916211
O O8 0.846918 0.325540 0.959711
O O9 0.182547 0.607106 0.430983
O O10 0.289894 0.823959 0.321841
O O11 0.024165 0.981122 0.647232
O O12 0.166387 0.145688 0.750781
O O13 0.302104 0.765139 0.553003
O O14 0.500000 0.000000 0.500000
O O15 0.291966 0.039230 0.793131
O O16 0.402250 0.169849 0.929280
O O17 0.500000 0.500000 0.000000
#
# Coordination Sequence:
#
# PCOD9071768 Si02
#       8
#     2   2   2   2   2   2   2   2
#     4  11  22  35  58  93 121 150 185 251 303 330
#     4  10  18  35  59  88 116 149 191 239 290 347
#     4  11  18  36  61  89 119 155 197 233 281 360
#     4  10  23  37  64  86 115 152 198 239 284 346
#     4  11  22  41  65  84 108 159 210 235 269 356
#     4  10  18  35  60  84 114 154 202 230 280 345
#     4  11  22  37  60  86 123 152 194 238 295 343
#     4  10  15  30  61  91 108 145 198 242 271 340
#
# _framework density 21.064219999999999
#
# number of rings (size 3 to 8) (size 9 to 14) (size 15 to 20)
#    0.000    1.500    7.500    1.500    0.000    2.500 
#    0.000    1.250   11.000    0.000    0.000    0.000 
#    0.000    0.000    0.000    0.000    0.000    0.000 
#
# Total GULP energy -89173.083956 kJ/mol
# GULP energy per Si atom -5573.317747 kJ/mol
# Density = 2.101628 g / cm^3
# Si number density = 21.064220 Si / 1000 Ang^3
#
#
#
# Elastic Constant Matrix: (Units=GPa)
#
#
# Indices 1 2 3 4 5 6 
#
# 1 69.4804 3.5562 -3.8686 5.6920 -4.7930 0.6610
# 2 3.5562 3.9032 6.3096 -5.5203 -26.2207 -8.9008
# 3 -3.8686 6.3096 -9.4031 -5.1183 -16.0931 15.1870
# 4 5.6920 -5.5203 -5.1183 14.1582 11.1223 4.3275
# 5 -4.7930 -26.2207 -16.0931 11.1223 28.5226 5.9143
# 6 0.6610 -8.9008 15.1870 4.3275 5.9143 2.6020
#
#
#
# Elastic Compliance Matrix: (Units=1/GPa)
#
#
# Indices 1 2 3 4 5 6 
#
# 1 0.015536 -0.003362 -0.001086 -0.010958 0.002439 0.003573
# 2 -0.003362 -0.035729 -0.007255 0.025995 -0.042162 -0.026421
# 3 -0.001086 -0.007255 -0.004187 -0.004743 -0.016985 0.046394
# 4 -0.010958 0.025995 -0.004743 0.098960 -0.018609 -0.002896
# 5 0.002439 -0.042162 -0.016985 -0.018609 -0.004834 -0.003773
# 6 0.003573 -0.026421 0.046394 -0.002896 -0.003773 0.035639
#
#
# Mechanical properties :
#
#
# Convention : Reuss Voigt Hill
#
# Bulk Modulus (GPa) = -20.92625 8.44164 -6.24230
# Shear Modulus (GPa) = 44.30206 12.92213 28.61210
#
# Velocity S-wave (km/s) = 4.59103 2.47951 3.68955
# Velocity P-wave (km/s) = 4.25997 3.49479 3.89621
#
# Compressibility (1/GPa) = -0.04778688
#
# Stress axis : x y z
#
# Youngs Moduli (GPa) = 64.36620 -27.98828 -238.81300
#
# Poissons Ratio (x) = -0.09410 -0.25943
# Poissons Ratio (y) = 0.21640 -1.73256
# Poissons Ratio (z) = 0.06992 -0.20305
#
# Static dielectric constant tensor:
#      x y z
#    x 1.822690 0.040870 -0.066770 
#    y 0.040870 1.761400 -0.002230 
#    z -0.066770 -0.002230 1.788220 
# 
# From -- ./inp_files/216562.got.cif
#   From: 2010.05.17/outbox.ucp.g08.bks.cvg/sg2_109_cif.got.tgz:216562.got - 2010.06.11 11:32:03.
