data_PCOD9071726
_publ_section_title
;
Structure prediction by ZEFSAII (Michael W. Deem and Ramdas Pophale) SiO2 
 PCOD9071726
Probable space group: P -1
;
_chemical_formula_sum "Si O2"
_cell_formula_units_Z 16
_cell_length_a 15.549898
_cell_length_b 7.015145
_cell_length_c 7.417404
_cell_angle_alpha 72.168849
_cell_angle_beta 93.509195
_cell_angle_gamma 122.000598
_cell_volume 648.073073
_symmetry_space_group_name_H-M "P -1"
_symmetry_group_IT_number 2
_symmetry_cell_setting 'triclinic'
loop_
_space_group_symop_operation_xyz
x,y,z
-x,-y,-z
loop_
_atom_site_type_symbol
_atom_site_label
_atom_site_fract_x
_atom_site_fract_y
_atom_site_fract_z
Si Si1 0.530464 0.342868 0.280757
Si Si2 0.057565 0.963235 0.778589
Si Si3 0.857566 0.296948 0.482155
Si Si4 0.022182 0.727542 0.190170
Si Si5 0.848439 0.690324 0.611132
Si Si6 0.363645 0.905530 0.547043
Si Si7 0.569361 0.802094 0.069462
Si Si8 0.355679 0.721375 0.191672
O O1 0.603447 0.243693 0.287366
O O2 0.593531 0.625259 0.222340
O O3 0.453446 0.181701 0.476049
O O4 0.455218 0.275632 0.120640
O O5 0.946412 0.802345 0.719607
O O6 0.136488 0.106944 0.585445
O O7 0.072402 0.815252 0.976366
O O8 0.048650 0.165840 0.822485
O O9 0.893783 0.179514 0.667076
O O10 0.852550 0.493338 0.547270
O O11 0.746918 0.141584 0.426027
O O12 0.946667 0.448413 0.304630
O O13 0.742608 0.543919 0.748058
O O14 0.363386 0.808199 0.373755
O O15 0.461060 0.746253 0.146782
O O16 0.649197 0.083682 0.987774
#
# Coordination Sequence:
#
# PCOD9071726 Si02
#       8
#     2   2   2   2   2   2   2   2
#     4   9  18  33  53  76 102 134 171 214 260 307
#     4   9  18  33  53  75 102 135 172 216 260 308
#     4   9  18  33  51  73 105 137 168 212 262 310
#     4   9  18  33  53  76 102 134 171 214 260 307
#     4   9  18  33  50  72 105 138 169 210 260 310
#     4   9  18  33  51  73 105 137 168 212 262 310
#     4   9  18  33  53  75 102 135 172 216 260 308
#     4   9  18  33  50  72 105 138 169 210 260 310
#
# _framework density 24.688575
#
# number of rings (size 3 to 8) (size 9 to 14) (size 15 to 20)
#    0.000    3.000    0.000    0.000    0.000    3.000 
#    0.000   18.750    0.000    0.000    0.000    0.000 
#    0.000    0.000    0.000    0.000    0.000    0.000 
#
# Total GULP energy -89337.704409 kJ/mol
# GULP energy per Si atom -5583.606526 kJ/mol
# Density = 2.463238 g / cm^3
# Si number density = 24.688575 Si / 1000 Ang^3
#
#
#
# Elastic Constant Matrix: (Units=GPa)
#
#
# Indices 1 2 3 4 5 6 
#
# 1 65.9544 11.5634 53.0942 -19.5337 8.9777 14.7881
# 2 11.5634 57.7406 61.8051 -18.1348 -1.1925 14.7989
# 3 53.0942 61.8051 150.6458 -44.8739 23.2243 7.2287
# 4 -19.5337 -18.1348 -44.8739 39.5243 -5.0289 -17.7211
# 5 8.9777 -1.1925 23.2243 -5.0289 33.2658 -2.1530
# 6 14.7881 14.7989 7.2287 -17.7211 -2.1530 32.9931
#
#
#
# Elastic Compliance Matrix: (Units=1/GPa)
#
#
# Indices 1 2 3 4 5 6 
#
# 1 0.030359 0.019322 -0.021072 -0.009614 0.004298 -0.022541
# 2 0.019322 0.055665 -0.036550 -0.020071 0.016980 -0.035293
# 3 -0.021072 -0.036550 0.038632 0.028895 -0.016165 0.031840
# 4 -0.009614 -0.020071 0.028895 0.060924 -0.006546 0.039277
# 5 0.004298 0.016980 -0.016165 -0.006546 0.039356 -0.006949
# 6 -0.022541 -0.035293 0.031840 0.039277 -0.006949 0.069910
#
#
# Mechanical properties :
#
#
# Convention : Reuss Voigt Hill
#
# Bulk Modulus (GPa) = 20.80950 58.58514 39.69732
# Shear Modulus (GPa) = 12.90442 31.01517 21.95980
#
# Velocity S-wave (km/s) = 2.28872 3.54822 2.98564
# Velocity P-wave (km/s) = 3.92828 6.36927 5.29146
#
# Compressibility (1/GPa) = 0.04805497
#
# Stress axis : x y z
#
# Youngs Moduli (GPa) = 32.93909 17.96456 25.88560
#
# Poissons Ratio (x) = -0.34711 0.54545
# Poissons Ratio (y) = -0.63644 0.94613
# Poissons Ratio (z) = 0.69408 0.65661
#
# Static dielectric constant tensor:
#      x y z
#    x 1.974840 -0.047590 0.007450 
#    y -0.047590 2.037190 -0.023780 
#    z 0.007450 -0.023780 2.011620 
# 
# From -- ./inp_files/293192.got.cif
#   From: 2010.05.17/outbox.cif.g08.bks.cpg/sg2_147_cif.got.tgz:293192.got - 2010.06.03 11:33:40.
