data_PCOD9071075
_publ_section_title
;
Structure prediction by ZEFSAII (Michael W. Deem and Ramdas Pophale) SiO2 
 PCOD9071075
Probable space group: P -1
;
_chemical_formula_sum "Si O2"
_cell_formula_units_Z 12
_cell_length_a 15.125764
_cell_length_b 5.622505
_cell_length_c 8.125701
_cell_angle_alpha 90.660485
_cell_angle_beta 42.133401
_cell_angle_gamma 94.006338
_cell_volume 461.624046
_symmetry_space_group_name_H-M "P -1"
_symmetry_group_IT_number 2
_symmetry_cell_setting 'triclinic'
loop_
_space_group_symop_operation_xyz
x,y,z
-x,-y,-z
loop_
_atom_site_type_symbol
_atom_site_label
_atom_site_fract_x
_atom_site_fract_y
_atom_site_fract_z
Si Si1 0.548591 0.252811 0.860461
Si Si2 0.532327 0.452597 0.270669
Si Si3 0.225013 0.851362 0.049865
Si Si4 0.268101 0.167731 0.670902
Si Si5 0.060895 0.470106 0.095496
Si Si6 0.170751 0.895259 0.488189
O O1 0.479264 0.283327 0.783167
O O2 0.706790 0.263089 0.637694
O O3 0.500000 0.500000 0.000000
O O4 0.500000 0.000000 0.000000
O O5 0.500000 0.500000 0.500000
O O6 0.407645 0.260569 0.400756
O O7 0.665581 0.330081 0.054684
O O8 0.090956 0.698910 0.171194
O O9 0.196987 0.981424 0.263554
O O10 0.273297 0.984937 0.815073
O O11 0.180083 0.072640 0.633975
O O12 0.201449 0.380291 0.853412
O O13 0.966601 0.266974 0.314225
O O14 0.000000 0.500000 0.000000
#
# Coordination Sequence:
#
# PCOD9071075 Si02
#       6
#     2   2   2   2   2   2
#     4  12  27  50  77 119 161 206 267 344 406 484
#     4  12  25  49  80 114 160 209 267 337 411 482
#     4  12  27  49  80 116 156 213 273 333 407 496
#     4  12  27  51  80 114 162 213 267 344 407 483
#     4  12  26  53  74 110 164 210 272 331 415 483
#     4  12  27  48  81 116 159 209 270 332 408 486
#
# _framework density 25.995180000000001
#
# number of rings (size 3 to 8) (size 9 to 14) (size 15 to 20)
#    0.000    0.000    5.000    4.500    2.333    0.667 
#    6.000    0.000    0.000    0.000    0.000    0.000 
#    0.000    0.000    0.000    0.000    0.000    0.000 
#
# Total GULP energy -67093.485709 kJ/mol
# GULP energy per Si atom -5591.123809 kJ/mol
# Density = 2.593601 g / cm^3
# Si number density = 25.995180 Si / 1000 Ang^3
#
#
#
# Elastic Constant Matrix: (Units=GPa)
#
#
# Indices 1 2 3 4 5 6 
#
# 1 115.7106 37.4324 36.9985 -25.4025 22.2523 0.2560
# 2 37.4324 87.9557 29.5371 -22.5818 23.7978 -14.0357
# 3 36.9985 29.5371 106.8571 -20.0846 25.2812 3.2349
# 4 -25.4025 -22.5818 -20.0846 55.1608 -0.4715 5.1240
# 5 22.2523 23.7978 25.2812 -0.4715 60.3572 -6.5851
# 6 0.2560 -14.0357 3.2349 5.1240 -6.5851 48.0548
#
#
#
# Elastic Compliance Matrix: (Units=1/GPa)
#
#
# Indices 1 2 3 4 5 6 
#
# 1 0.011421 -0.002918 -0.001875 0.003500 -0.002410 -0.001490
# 2 -0.002918 0.015976 -0.001787 0.004158 -0.004027 0.003807
# 3 -0.001875 -0.001787 0.012035 0.002956 -0.003859 -0.002166
# 4 0.003500 0.004158 0.002956 0.022669 -0.004209 -0.001997
# 5 -0.002410 -0.004027 -0.003859 -0.004209 0.020890 0.002408
# 6 -0.001490 0.003807 -0.002166 -0.001997 0.002408 0.022618
#
#
# Mechanical properties :
#
#
# Convention : Reuss Voigt Hill
#
# Bulk Modulus (GPa) = 38.06145 57.60658 47.83402
# Shear Modulus (GPa) = 39.20789 46.48491 42.84640
#
# Velocity S-wave (km/s) = 3.88787 4.23331 4.06426
# Velocity P-wave (km/s) = 5.90148 6.78993 6.36124
#
# Compressibility (1/GPa) = 0.02627331
#
# Stress axis : x y z
#
# Youngs Moduli (GPa) = 87.55919 62.59487 83.08921
#
# Poissons Ratio (x) = 0.18266 0.15575
# Poissons Ratio (y) = 0.25551 0.14845
# Poissons Ratio (z) = 0.16413 0.11183
#
# Static dielectric constant tensor:
#      x y z
#    x 2.452100 0.017660 0.133240 
#    y 0.017660 2.042000 -0.021400 
#    z 0.133240 -0.021400 2.039470 
# 
# From -- ./inp_files/288570.got.cif
#   From: 2010.05.17/outbox.cif.g08.bks.cpg/sg2_145_cif.got.tgz:288570.got - 2010.06.03 11:33:40.
