data_PCOD9071048
_publ_section_title
;
Structure prediction by ZEFSAII (Michael W. Deem and Ramdas Pophale) SiO2 
 PCOD9071048
Probable space group: P -1
;
_chemical_formula_sum "Si O2"
_cell_formula_units_Z 12
_cell_length_a 11.517465
_cell_length_b 8.688270
_cell_length_c 8.803173
_cell_angle_alpha 95.572309
_cell_angle_beta 39.018462
_cell_angle_gamma 115.097590
_cell_volume 458.593694
_symmetry_space_group_name_H-M "P -1"
_symmetry_group_IT_number 2
_symmetry_cell_setting 'triclinic'
loop_
_space_group_symop_operation_xyz
x,y,z
-x,-y,-z
loop_
_atom_site_type_symbol
_atom_site_label
_atom_site_fract_x
_atom_site_fract_y
_atom_site_fract_z
Si Si1 0.869367 0.678629 0.911547
Si Si2 0.022399 0.097745 0.726170
Si Si3 0.435012 0.950610 0.885822
Si Si4 0.261853 0.668905 0.565559
Si Si5 0.753113 0.601572 0.697357
Si Si6 0.516410 0.677830 0.603886
O O1 0.883021 0.619174 0.719413
O O2 0.036017 0.651992 0.836875
O O3 0.624414 0.531814 0.209931
O O4 0.935823 0.887706 0.839473
O O5 0.154817 0.193475 0.443157
O O6 0.218911 0.225782 0.659426
O O7 0.809636 0.107581 0.920850
O O8 0.474524 0.795058 0.778320
O O9 0.600200 0.136790 0.643846
O O10 0.500000 0.000000 0.000000
O O11 0.223857 0.511615 0.471038
O O12 0.402646 0.685428 0.568680
O O13 0.500000 0.500000 0.000000
#
# Coordination Sequence:
#
# PCOD9071048 Si02
#       6
#     2   2   2   2   2   2
#     4  12  25  49  83 108 158 204 260 320 381 457
#     4  12  28  49  83 114 152 202 263 317 386 455
#     4  12  27  50  82 115 155 205 258 318 386 460
#     4  12  27  50  78 113 160 208 252 320 393 454
#     4  12  25  49  76 113 149 201 265 317 377 458
#     4  12  28  53  75 116 162 201 256 318 388 465
#
# _framework density 26.166951999999998
#
# number of rings (size 3 to 8) (size 9 to 14) (size 15 to 20)
#    0.000    0.000    3.333    6.000    2.333    1.333 
#    3.000    0.000    0.000    0.000    0.000    0.000 
#    0.000    0.000    0.000    0.000    0.000    0.000 
#
# Total GULP energy -67336.361734 kJ/mol
# GULP energy per Si atom -5611.363478 kJ/mol
# Density = 2.610740 g / cm^3
# Si number density = 26.166952 Si / 1000 Ang^3
#
#
#
# Elastic Constant Matrix: (Units=GPa)
#
#
# Indices 1 2 3 4 5 6 
#
# 1 169.5646 36.3502 23.5527 8.9411 -36.0795 1.1070
# 2 36.3502 150.9477 52.7385 -16.5810 -18.4661 -3.1286
# 3 23.5527 52.7385 97.3882 -22.0130 -37.7535 -14.4902
# 4 8.9411 -16.5810 -22.0130 59.3024 -12.2971 6.4662
# 5 -36.0795 -18.4661 -37.7535 -12.2971 62.2763 -1.9883
# 6 1.1070 -3.1286 -14.4902 6.4662 -1.9883 43.0248
#
#
#
# Elastic Compliance Matrix: (Units=1/GPa)
#
#
# Indices 1 2 3 4 5 6 
#
# 1 0.006974 -0.001430 0.000468 -0.000502 0.003805 0.000125
# 2 -0.001430 0.008534 -0.004639 0.000792 -0.000988 -0.001070
# 3 0.000468 -0.004639 0.020550 0.008350 0.013191 0.005926
# 4 -0.000502 0.000792 0.008350 0.022209 0.009390 -0.000021
# 5 0.003805 -0.000988 0.013191 0.009390 0.027953 0.004153
# 6 0.000125 -0.001070 0.005926 -0.000021 0.004153 0.025352
#
#
# Mechanical properties :
#
#
# Convention : Reuss Voigt Hill
#
# Bulk Modulus (GPa) = 40.23132 71.46479 55.84806
# Shear Modulus (GPa) = 38.15077 53.27130 45.71104
#
# Velocity S-wave (km/s) = 3.82249 4.51691 4.18413
# Velocity P-wave (km/s) = 5.90679 7.38740 6.68819
#
# Compressibility (1/GPa) = 0.02485625
#
# Stress axis : x y z
#
# Youngs Moduli (GPa) = 143.38328 117.18145 48.66210
#
# Poissons Ratio (x) = 0.16758 -0.02277
# Poissons Ratio (y) = 0.20505 0.22573
# Poissons Ratio (z) = -0.06708 0.54356
#
# Static dielectric constant tensor:
#      x y z
#    x 2.085250 0.061950 -0.029970 
#    y 0.061950 2.093740 0.046260 
#    z -0.029970 0.046260 2.094010 
# 
# From -- ./inp_files/244343.got.cif
#   From: 2010.05.17/outbox.cif.g08.bks.cpg/sg2_123_cif.got.tgz:244343.got - 2010.06.03 11:33:40.
