data_PCOD9071840
_publ_section_title
;
Structure prediction by ZEFSAII (Michael W. Deem and Ramdas Pophale) SiO2 
 PCOD9071840
Probable space group: P -1
;
_chemical_formula_sum "Si O2"
_cell_formula_units_Z 16
_cell_length_a 18.000000
_cell_length_b 18.000000
_cell_length_c 12.000000
_cell_angle_alpha 50.000000
_cell_angle_beta 30.000000
_cell_angle_gamma 30.000000
_cell_volume 878.081395
_symmetry_space_group_name_H-M "P -1"
_symmetry_group_IT_number 2
_symmetry_cell_setting 'triclinic'
loop_
_space_group_symop_operation_xyz
x,y,z
-x,-y,-z
loop_
_atom_site_type_symbol
_atom_site_label
_atom_site_fract_x
_atom_site_fract_y
_atom_site_fract_z
Si Si1 0.286660 0.586232 0.880689
Si Si2 0.156381 0.432495 0.250396
Si Si3 0.117421 0.217372 0.976447
Si Si4 0.058227 0.974791 0.634276
Si Si5 0.720581 0.669009 0.433639
Si Si6 0.450983 0.868702 0.821269
Si Si7 0.134598 0.776319 0.533787
Si Si8 0.237559 0.832646 0.780397
O O1 0.588804 0.416184 0.650395
O O2 0.221473 0.723095 0.893818
O O3 0.204106 0.523248 0.093795
O O4 0.131377 0.671007 0.884355
O O5 0.406364 0.241225 0.144848
O O6 0.000000 0.500000 0.500000
O O7 0.986452 0.486958 0.313778
O O8 0.195507 0.287314 0.797327
O O9 0.346841 0.031947 0.809968
O O10 0.049009 0.208874 0.192625
O O11 0.155854 0.849554 0.531331
O O12 0.221841 0.884852 0.622966
O O13 0.983499 0.111962 0.531372
O O14 0.793343 0.070237 0.926890
O O15 0.601836 0.774831 0.600937
O O16 0.501459 0.722416 0.605866
O O17 0.000000 0.000000 0.000000
#
# Coordination Sequence:
#
# PCOD9071840 Si02
#       8
#     2   2   2   2   2   2   2   2
#     4  11  20  36  62  88 116 154 202 243 280 351
#     4   9  20  35  58  85 117 151 196 245 292 337
#     4  10  20  34  59  89 110 154 202 243 284 336
#     4  10  20  36  62  89 113 152 196 250 285 339
#     4  10  21  36  55  85 124 150 192 243 298 349
#     4  10  16  36  59  85 114 149 199 243 291 337
#     4  10  20  37  61  88 114 152 210 242 276 339
#     4  12  23  39  59  89 123 156 191 237 306 355
#
# _framework density 18.221544999999999
#
# number of rings (size 3 to 8) (size 9 to 14) (size 15 to 20)
#    0.000    1.750    5.000    0.750    0.000    2.000 
#    0.000    8.125    0.000    0.000    0.000    0.000 
#    0.000    0.000    0.000    0.000    0.000    0.000 
#
# Total GULP energy -89076.252635 kJ/mol
# GULP energy per Si atom -5567.265790 kJ/mol
# Density = 1.818007 g / cm^3
# Si number density = 18.221545 Si / 1000 Ang^3
#
#
#
# Elastic Constant Matrix: (Units=GPa)
#
#
# Indices 1 2 3 4 5 6 
#
# 1 81.5969 24.3002 16.2220 -1.2481 -12.4547 -27.2499
# 2 24.3002 95.9685 12.2403 0.8250 3.5356 -22.5818
# 3 16.2220 12.2403 43.4018 -3.5930 -4.2015 4.1031
# 4 -1.2481 0.8250 -3.5930 31.1339 -4.5093 1.7931
# 5 -12.4547 3.5356 -4.2015 -4.5093 33.6222 5.1833
# 6 -27.2499 -22.5818 4.1031 1.7931 5.1833 28.3880
#
#
#
# Elastic Compliance Matrix: (Units=1/GPa)
#
#
# Indices 1 2 3 4 5 6 
#
# 1 0.022282 0.001107 -0.010657 -0.001270 0.003038 0.023335
# 2 0.001107 0.014611 -0.006574 -0.002604 -0.004553 0.014631
# 3 -0.010657 -0.006574 0.031783 0.005320 0.004704 -0.021248
# 4 -0.001270 -0.002604 0.005320 0.034067 0.006168 -0.007337
# 5 0.003038 -0.004553 0.004704 0.006168 0.033992 -0.007981
# 6 0.023335 0.014631 -0.021248 -0.007337 -0.007981 0.074256
#
#
# Mechanical properties :
#
#
# Convention : Reuss Voigt Hill
#
# Bulk Modulus (GPa) = 27.45233 36.27693 31.86463
# Shear Modulus (GPa) = 19.57854 29.84245 24.71049
#
# Velocity S-wave (km/s) = 3.28147 4.05131 3.68654
# Velocity P-wave (km/s) = 5.42733 6.46809 5.97043
#
# Compressibility (1/GPa) = 0.03642678
#
# Stress axis : x y z
#
# Youngs Moduli (GPa) = 44.88015 68.44087 31.46383
#
# Poissons Ratio (x) = -0.07578 0.33532
# Poissons Ratio (y) = -0.04969 0.20684
# Poissons Ratio (z) = 0.47831 0.44993
#
# Static dielectric constant tensor:
#      x y z
#    x 1.624900 -0.016020 -0.002410 
#    y -0.016020 1.691710 0.019350 
#    z -0.002410 0.019350 1.670170 
# 
# From -- ./inp_files/189317.got.cif
#   From: 2010.05.17/outbox.ucp.g08.bks.cvg/sg2_95_cif.got.tgz:189317.got - 2010.06.11 11:32:03.
