data_PCOD9071522
_publ_section_title
;
Structure prediction by ZEFSAII (Michael W. Deem and Ramdas Pophale) SiO2 
 PCOD9071522
Probable space group: P -1
;
_chemical_formula_sum "Si O2"
_cell_formula_units_Z 14
_cell_length_a 19.177920
_cell_length_b 12.967661
_cell_length_c 8.671250
_cell_angle_alpha 67.511264
_cell_angle_beta 51.199870
_cell_angle_gamma 26.827540
_cell_volume 655.857712
_symmetry_space_group_name_H-M "P -1"
_symmetry_group_IT_number 2
_symmetry_cell_setting 'triclinic'
loop_
_space_group_symop_operation_xyz
x,y,z
-x,-y,-z
loop_
_atom_site_type_symbol
_atom_site_label
_atom_site_fract_x
_atom_site_fract_y
_atom_site_fract_z
Si Si1 0.102773 0.970647 0.989397
Si Si2 0.130317 0.685240 0.574508
Si Si3 0.848512 0.853403 0.360367
Si Si4 0.763805 0.949542 0.780197
Si Si5 0.480719 0.135129 0.546515
Si Si6 0.616923 0.470815 0.930891
Si Si7 0.711290 0.752247 0.953229
O O1 0.967142 0.152119 0.227523
O O2 0.303068 0.674582 0.940166
O O3 0.144979 0.038189 0.803656
O O4 0.000000 0.000000 0.000000
O O5 0.344184 0.378608 0.501409
O O6 0.197662 0.695830 0.342667
O O7 0.957337 0.796798 0.677833
O O8 0.761556 0.967079 0.588353
O O9 0.083799 0.537089 0.239479
O O10 0.701840 0.935561 0.416411
O O11 0.774809 0.805819 0.879971
O O12 0.546496 0.245255 0.976655
O O13 0.500000 0.000000 0.500000
O O14 0.347416 0.254122 0.814307
O O15 0.500000 0.500000 0.000000
O O16 0.500000 0.000000 0.000000
#
# Coordination Sequence:
#
# PCOD9071522 Si02
#       7
#     2   2   2   2   2   2   2
#     4  12  28  47  75 105 149 193 242 304 358 431
#     4  12  27  49  73 111 147 191 247 299 366 431
#     4  12  28  50  73 113 144 192 247 298 370 433
#     4  12  28  46  79 105 147 198 240 302 363 437
#     4  12  27  45  77 109 151 189 238 306 364 436
#     4  12  27  49  75 106 146 194 248 294 364 433
#     4  12  27  48  75 109 147 190 245 297 370 436
#
# _framework density 21.346091999999999
#
# number of rings (size 3 to 8) (size 9 to 14) (size 15 to 20)
#    0.000    0.000    4.286    4.286   12.000    1.714 
#    0.000    0.000    0.000    0.000    0.000    0.000 
#    0.000    0.000    0.000    0.000    0.000    0.000 
#
# Total GULP energy -78367.047054 kJ/mol
# GULP energy per Si atom -5597.646218 kJ/mol
# Density = 2.129751 g / cm^3
# Si number density = 21.346092 Si / 1000 Ang^3
#
#
#
# Elastic Constant Matrix: (Units=GPa)
#
#
# Indices 1 2 3 4 5 6 
#
# 1 153.6038 14.3430 39.9900 -9.4964 -19.3669 -16.8420
# 2 14.3430 93.0575 30.6245 -21.8397 -6.0498 -11.8885
# 3 39.9900 30.6245 95.1511 -4.1482 -11.1798 14.3862
# 4 -9.4964 -21.8397 -4.1482 27.4203 5.5765 -11.0633
# 5 -19.3669 -6.0498 -11.1798 5.5765 34.5088 1.6015
# 6 -16.8420 -11.8885 14.3862 -11.0633 1.6015 41.1306
#
#
#
# Elastic Compliance Matrix: (Units=1/GPa)
#
#
# Indices 1 2 3 4 5 6 
#
# 1 0.009620 0.004024 -0.006135 0.009028 0.002213 0.009590
# 2 0.004024 0.021697 -0.010642 0.024971 -0.002277 0.018447
# 3 -0.006135 -0.010642 0.018801 -0.015189 0.003998 -0.016405
# 4 0.009028 0.024971 -0.015189 0.073724 -0.009080 0.036411
# 5 0.002213 -0.002277 0.003998 -0.009080 0.032809 -0.004870
# 6 0.009590 0.018447 -0.016405 0.036411 -0.004870 0.049293
#
#
# Mechanical properties :
#
#
# Convention : Reuss Voigt Hill
#
# Bulk Modulus (GPa) = 40.63000 56.85862 48.74431
# Shear Modulus (GPa) = 20.86325 37.73560 29.29943
#
# Velocity S-wave (km/s) = 3.12970 4.20908 3.70887
# Velocity P-wave (km/s) = 5.66880 7.09339 6.42073
#
# Compressibility (1/GPa) = 0.02461235
#
# Stress axis : x y z
#
# Youngs Moduli (GPa) = 103.94589 46.08897 53.18818
#
# Poissons Ratio (x) = -0.18546 0.32630
# Poissons Ratio (y) = -0.41828 0.56605
# Poissons Ratio (z) = 0.63768 0.49050
#
# Static dielectric constant tensor:
#      x y z
#    x 1.698030 -0.004990 -0.011770 
#    y -0.004990 1.752790 0.004110 
#    z -0.011770 0.004110 1.749280 
# 
# From -- ./inp_files/28509.got.cif
#   From: 2010.05.17/outbox.cif.g08.bks.cpg/sg2_15_cif.got.tgz:28509.got - 2010.06.03 11:33:40.
