data_PCOD9071392
_publ_section_title
;
Structure prediction by ZEFSAII (Michael W. Deem and Ramdas Pophale) SiO2 
 PCOD9071392
Probable space group: P -1
;
_chemical_formula_sum "Si O2"
_cell_formula_units_Z 14
_cell_length_a 5.079579
_cell_length_b 9.434856
_cell_length_c 17.382702
_cell_angle_alpha 113.622412
_cell_angle_beta 51.143077
_cell_angle_gamma 102.997688
_cell_volume 593.953724
_symmetry_space_group_name_H-M "P -1"
_symmetry_group_IT_number 2
_symmetry_cell_setting 'triclinic'
loop_
_space_group_symop_operation_xyz
x,y,z
-x,-y,-z
loop_
_atom_site_type_symbol
_atom_site_label
_atom_site_fract_x
_atom_site_fract_y
_atom_site_fract_z
Si Si1 0.795822 0.530484 0.621965
Si Si2 0.892531 0.525386 0.936272
Si Si3 0.715573 0.266224 0.331274
Si Si4 0.832567 0.863557 0.045160
Si Si5 0.046852 0.937105 0.186684
Si Si6 0.265805 0.113587 0.514105
Si Si7 0.739248 0.708957 0.299990
O O1 0.514761 0.664145 0.679843
O O2 0.613388 0.372572 0.640617
O O3 0.000000 0.500000 0.500000
O O4 0.050652 0.598460 0.651598
O O5 0.060184 0.415810 0.817306
O O6 0.500000 0.500000 0.000000
O O7 0.927471 0.705015 0.950479
O O8 0.000000 0.500000 0.000000
O O9 0.473745 0.205466 0.431245
O O10 0.954663 0.118059 0.234133
O O11 0.429342 0.898027 0.134954
O O12 0.996210 0.855921 0.097258
O O13 0.000000 0.000000 0.000000
O O14 0.774204 0.863995 0.277337
O O15 0.127759 0.240286 0.629725
O O16 0.500000 0.000000 0.500000
O O17 0.000000 0.000000 0.500000
#
# Coordination Sequence:
#
# PCOD9071392 Si02
#       7
#     2   2   2   2   2   2   2
#     4  12  28  50  73 111 159 199 251 317 387 451
#     4  12  26  49  74 111 151 194 256 318 380 454
#     4  12  27  48  72 110 151 197 255 310 379 464
#     4  12  27  51  74 111 151 197 255 324 382 458
#     4  12  27  48  78 109 147 202 258 307 389 461
#     4  12  27  45  76 111 150 201 253 311 377 456
#     4  12  28  49  79 113 155 206 257 319 383 454
#
# _framework density 23.570862000000002
#
# number of rings (size 3 to 8) (size 9 to 14) (size 15 to 20)
#    0.000    0.000    5.714    2.571    6.000    3.429 
#    0.000    0.000    0.000    0.000    0.000    0.000 
#    0.000    0.000    0.000    0.000    0.000    0.000 
#
# Total GULP energy -78408.957456 kJ/mol
# GULP energy per Si atom -5600.639818 kJ/mol
# Density = 2.351721 g / cm^3
# Si number density = 23.570862 Si / 1000 Ang^3
#
#
#
# Elastic Constant Matrix: (Units=GPa)
#
#
# Indices 1 2 3 4 5 6 
#
# 1 96.5233 40.1818 9.0002 -12.7676 13.7209 32.5784
# 2 40.1818 154.2601 30.3560 -2.1998 -0.7805 21.9920
# 3 9.0002 30.3560 105.3431 12.3842 11.8306 25.1361
# 4 -12.7676 -2.1998 12.3842 62.2834 6.9884 -0.1541
# 5 13.7209 -0.7805 11.8306 6.9884 23.8558 3.1369
# 6 32.5784 21.9920 25.1361 -0.1541 3.1369 44.4403
#
#
#
# Elastic Compliance Matrix: (Units=1/GPa)
#
#
# Indices 1 2 3 4 5 6 
#
# 1 0.017919 -0.003542 0.003263 0.004174 -0.011634 -0.012393
# 2 -0.003542 0.007904 -0.002260 -0.000399 0.003572 -0.000290
# 3 0.003263 -0.002260 0.012673 -0.001183 -0.006842 -0.007962
# 4 0.004174 -0.000399 -0.001183 0.017897 -0.006853 -0.001648
# 5 -0.011634 0.003572 -0.006842 -0.006853 0.053226 0.006850
# 6 -0.012393 -0.000290 -0.007962 -0.001648 0.006850 0.035745
#
#
# Mechanical properties :
#
#
# Convention : Reuss Voigt Hill
#
# Bulk Modulus (GPa) = 29.92515 57.24473 43.58494
# Shear Modulus (GPa) = 30.94397 44.55513 37.74955
#
# Velocity S-wave (km/s) = 3.62720 4.35243 4.00626
# Velocity P-wave (km/s) = 5.50141 7.04253 6.31912
#
# Compressibility (1/GPa) = 0.03341671
#
# Stress axis : x y z
#
# Youngs Moduli (GPa) = 55.80557 126.52383 78.91034
#
# Poissons Ratio (x) = 0.44817 -0.25746
# Poissons Ratio (y) = 0.19767 0.17834
# Poissons Ratio (z) = -0.18208 0.28594
#
# Static dielectric constant tensor:
#      x y z
#    x 1.919730 -0.043350 -0.039510 
#    y -0.043350 2.009330 0.017470 
#    z -0.039510 0.017470 1.854860 
# 
# From -- ./inp_files/546656.got.cif
#   From: 2010.05.17/outbox.cif.g08.bks.cpg/sg2_274_cif.got.tgz:546656.got - 2010.06.03 11:33:40.
