data_PCOD9071597
_publ_section_title
;
Structure prediction by ZEFSAII (Michael W. Deem and Ramdas Pophale) SiO2 
 PCOD9071597
Probable space group: P -1
;
_chemical_formula_sum "Si O2"
_cell_formula_units_Z 14
_cell_length_a 6.676610
_cell_length_b 16.856831
_cell_length_c 4.740655
_cell_angle_alpha 73.866142
_cell_angle_beta 74.669066
_cell_angle_gamma 92.919481
_cell_volume 489.815287
_symmetry_space_group_name_H-M "P -1"
_symmetry_group_IT_number 2
_symmetry_cell_setting 'triclinic'
loop_
_space_group_symop_operation_xyz
x,y,z
-x,-y,-z
loop_
_atom_site_type_symbol
_atom_site_label
_atom_site_fract_x
_atom_site_fract_y
_atom_site_fract_z
Si Si1 0.723784 0.323697 0.595790
Si Si2 0.200396 0.091971 0.286863
Si Si3 0.694526 0.008544 0.194728
Si Si4 0.924484 0.184534 0.940992
Si Si5 0.362671 0.397485 0.843713
Si Si6 0.880973 0.564475 0.645416
Si Si7 0.360878 0.240911 0.401989
O O1 0.556788 0.271678 0.501892
O O2 0.938756 0.369376 0.343013
O O3 0.797237 0.262514 0.867895
O O4 0.605356 0.398775 0.682769
O O5 0.304700 0.051327 0.018864
O O6 0.379739 0.159029 0.295069
O O7 0.014904 0.147586 0.229489
O O8 0.137279 0.026273 0.625738
O O9 0.777741 0.101688 0.974282
O O10 0.500000 0.000000 0.500000
O O11 0.146626 0.213371 0.678635
O O12 0.278255 0.464113 0.014366
O O13 0.328996 0.312899 0.121118
O O14 0.243993 0.395443 0.595174
O O15 0.000000 0.500000 0.500000
#
# Coordination Sequence:
#
# PCOD9071597 Si02
#       7
#     2   2   2   2   2   2   2
#     4  12  28  53  86 122 167 223 276 327 426 489
#     4  12  27  54  76 113 161 212 279 360 408 486
#     4  12  30  50  80 116 162 218 288 351 431 483
#     4  12  28  52  84 113 164 222 278 351 414 488
#     4  12  27  55  80 128 169 213 275 335 402 502
#     4  12  29  56  90 128 171 214 269 337 410 494
#     4  12  27  51  83 116 168 213 287 337 409 492
#
# _framework density 28.582205999999999
#
# number of rings (size 3 to 8) (size 9 to 14) (size 15 to 20)
#    0.000    0.000    4.286    3.429    8.000    3.429 
#    0.000    0.000    0.000    0.000    0.000    0.000 
#    0.000    0.000    0.000    0.000    0.000    0.000 
#
# Total GULP energy -78436.657745 kJ/mol
# GULP energy per Si atom -5602.618410 kJ/mol
# Density = 2.851715 g / cm^3
# Si number density = 28.582206 Si / 1000 Ang^3
#
#
#
# Elastic Constant Matrix: (Units=GPa)
#
#
# Indices 1 2 3 4 5 6 
#
# 1 190.6114 74.7545 60.2694 15.2334 -5.5512 -7.4872
# 2 74.7545 124.6524 31.7167 30.5444 11.0057 -4.9942
# 3 60.2694 31.7167 155.0935 11.7977 12.3113 -4.4035
# 4 15.2334 30.5444 11.7977 62.5981 -4.0403 5.8725
# 5 -5.5512 11.0057 12.3113 -4.0403 53.3677 -1.6552
# 6 -7.4872 -4.9942 -4.4035 5.8725 -1.6552 53.8128
#
#
#
# Elastic Compliance Matrix: (Units=1/GPa)
#
#
# Indices 1 2 3 4 5 6 
#
# 1 0.007748 -0.004443 -0.002338 0.000832 0.002339 0.000455
# 2 -0.004443 0.012328 -0.000104 -0.005223 -0.003346 0.000984
# 3 -0.002338 -0.000104 0.007624 -0.000981 -0.002044 0.000333
# 4 0.000832 -0.005223 -0.000981 0.018911 0.002746 -0.002429
# 5 0.002339 -0.003346 -0.002044 0.002746 0.020356 0.000174
# 6 0.000455 0.000984 0.000333 -0.002429 0.000174 0.019035
#
#
# Mechanical properties :
#
#
# Convention : Reuss Voigt Hill
#
# Bulk Modulus (GPa) = 71.79043 89.31538 80.55291
# Shear Modulus (GPa) = 47.88582 54.19683 51.04132
#
# Velocity S-wave (km/s) = 4.09757 4.35923 4.23042
# Velocity P-wave (km/s) = 6.89627 7.52686 7.21845
#
# Compressibility (1/GPa) = 0.01392943
#
# Stress axis : x y z
#
# Youngs Moduli (GPa) = 129.07003 81.11606 131.16808
#
# Poissons Ratio (x) = 0.36044 0.30668
# Poissons Ratio (y) = 0.57352 0.01358
# Poissons Ratio (z) = 0.30177 0.00840
#
# Static dielectric constant tensor:
#      x y z
#    x 2.329950 -0.042300 0.034970 
#    y -0.042300 2.341740 0.033740 
#    z 0.034970 0.033740 2.142620 
# 
# From -- ./inp_files/10189.got.cif
#   From: 2010.05.17/outbox.cif.g08.bks.cpg/sg2_6_cif.got.tgz:10189.got - 2010.06.03 11:33:40.
