data_PCOD9071667
_publ_section_title
;
Structure prediction by ZEFSAII (Michael W. Deem and Ramdas Pophale) SiO2 
 PCOD9071667
Probable space group: P -1
;
_chemical_formula_sum "Si O2"
_cell_formula_units_Z 16
_cell_length_a 8.368124
_cell_length_b 11.247899
_cell_length_c 14.714303
_cell_angle_alpha 38.634130
_cell_angle_beta 136.555334
_cell_angle_gamma 112.618066
_cell_volume 538.179442
_symmetry_space_group_name_H-M "P -1"
_symmetry_group_IT_number 2
_symmetry_cell_setting 'triclinic'
loop_
_space_group_symop_operation_xyz
x,y,z
-x,-y,-z
loop_
_atom_site_type_symbol
_atom_site_label
_atom_site_fract_x
_atom_site_fract_y
_atom_site_fract_z
Si Si1 0.274504 0.424596 0.972314
Si Si2 0.258867 0.795035 0.142357
Si Si3 0.164234 0.115992 0.452805
Si Si4 0.294697 0.675963 0.431978
Si Si5 0.346692 0.061101 0.747505
Si Si6 0.042022 0.824189 0.853503
Si Si7 0.453434 0.372281 0.265273
Si Si8 0.100946 0.475224 0.679905
O O1 0.020312 0.636133 0.763051
O O2 0.196770 0.353192 0.888712
O O3 0.500000 0.500000 0.000000
O O4 0.384510 0.295015 0.187673
O O5 0.221072 0.790267 0.236845
O O6 0.468135 0.554675 0.350923
O O7 0.406054 0.941670 0.100564
O O8 0.034678 0.861927 0.935719
O O9 0.179695 0.086787 0.367615
O O10 0.380541 0.045098 0.661572
O O11 0.000000 0.000000 0.500000
O O12 0.416218 0.761100 0.511774
O O13 0.041083 0.635706 0.372601
O O14 0.124200 0.296136 0.527814
O O15 0.240423 0.909627 0.840836
O O16 0.191698 0.573172 0.059521
O O17 0.660868 0.472756 0.278216
#
# Coordination Sequence:
#
# PCOD9071667 Si02
#       8
#     2   2   2   2   2   2   2   2
#     4   8  14  24  39  61  83 101 127 164 202 236
#     4   9  17  28  41  59  84 111 136 164 200 239
#     4   8  14  24  39  61  83 101 127 164 202 236
#     4   9  17  28  41  59  84 111 136 164 200 239
#     4   9  16  27  44  63  82 105 134 167 201 238
#     4   9  16  27  44  63  82 105 134 167 201 238
#     4   9  16  27  44  63  82 105 134 167 201 238
#     4   9  16  27  44  63  82 105 134 167 201 238
#
# _framework density 29.729862000000001
#
# number of rings (size 3 to 8) (size 9 to 14) (size 15 to 20)
#    0.000    3.250    0.000    0.750    0.000    0.000 
#    0.000    1.250    0.000   10.500    0.000    0.000 
#    0.000   20.000    0.000    0.000    0.000    0.000 
#
# Total GULP energy -89529.714156 kJ/mol
# GULP energy per Si atom -5595.607135 kJ/mol
# Density = 2.966220 g / cm^3
# Si number density = 29.729862 Si / 1000 Ang^3
#
#
#
# Elastic Constant Matrix: (Units=GPa)
#
#
# Indices 1 2 3 4 5 6 
#
# 1 85.5689 40.0529 45.3850 7.8574 -35.4292 4.0691
# 2 40.0529 118.4014 65.7509 61.0947 0.5056 2.1288
# 3 45.3850 65.7509 242.2277 28.3714 -10.5104 -18.0995
# 4 7.8574 61.0947 28.3714 67.9484 -17.4661 -6.4675
# 5 -35.4292 0.5056 -10.5104 -17.4661 60.3223 8.2404
# 6 4.0691 2.1288 -18.0995 -6.4675 8.2404 49.6942
#
#
#
# Elastic Compliance Matrix: (Units=1/GPa)
#
#
# Indices 1 2 3 4 5 6 
#
# 1 0.030760 -0.020637 -0.001912 0.021807 0.024711 -0.003590
# 2 -0.020637 0.033929 -0.002551 -0.032884 -0.022194 -0.001292
# 3 -0.001912 -0.002551 0.005285 0.000433 -0.000371 0.002308
# 4 0.021807 -0.032884 0.000433 0.048686 0.027032 0.001634
# 5 0.024711 -0.022194 -0.000371 0.027032 0.039621 -0.004260
# 6 -0.003590 -0.001292 0.002308 0.001634 -0.004260 0.022232
#
#
# Mechanical properties :
#
#
# Convention : Reuss Voigt Hill
#
# Bulk Modulus (GPa) = 50.57148 83.17507 66.87328
# Shear Modulus (GPa) = 21.06997 55.26026 38.16512
#
# Velocity S-wave (km/s) = 2.66506 4.31599 3.58680
# Velocity P-wave (km/s) = 5.14949 7.27150 6.30048
#
# Compressibility (1/GPa) = 0.01977399
#
# Stress axis : x y z
#
# Youngs Moduli (GPa) = 32.50998 29.47289 189.22221
#
# Poissons Ratio (x) = 0.60823 0.36176
# Poissons Ratio (y) = 0.67091 0.48276
# Poissons Ratio (z) = 0.06215 0.07519
#
# Static dielectric constant tensor:
#      x y z
#    x 2.725160 -0.167930 0.060840 
#    y -0.167930 2.394140 -0.084720 
#    z 0.060840 -0.084720 2.262380 
# 
# From -- ./inp_files/250353.got.cif
#   From: 2010.05.17/outbox.cif.g08.bks.cpg/sg2_126_cif.got.tgz:250353.got - 2010.06.03 11:33:40.
