data_PCOD9071879
_publ_section_title
;
Structure prediction by ZEFSAII (Michael W. Deem and Ramdas Pophale) SiO2 
 PCOD9071879
Probable space group: P -1
;
_chemical_formula_sum "Si O2"
_cell_formula_units_Z 12
_cell_length_a 18.923446
_cell_length_b 8.686614
_cell_length_c 12.642809
_cell_angle_alpha 131.124360
_cell_angle_beta 29.479825
_cell_angle_gamma 144.861720
_cell_volume 577.761458
_symmetry_space_group_name_H-M "P -1"
_symmetry_group_IT_number 2
_symmetry_cell_setting 'triclinic'
loop_
_space_group_symop_operation_xyz
x,y,z
-x,-y,-z
loop_
_atom_site_type_symbol
_atom_site_label
_atom_site_fract_x
_atom_site_fract_y
_atom_site_fract_z
Si Si1 0.903592 0.595059 0.421177
Si Si2 0.260679 0.975302 0.859441
Si Si3 0.787440 0.895837 0.349164
Si Si4 0.548971 0.955120 0.565353
Si Si5 0.975183 0.929691 0.674458
Si Si6 0.073193 0.376814 0.025362
O O1 0.707915 0.287295 0.515312
O O2 0.914375 0.690014 0.568486
O O3 0.079315 0.606020 0.172442
O O4 0.925855 0.804950 0.407654
O O5 0.406012 0.127067 0.639018
O O6 0.062887 0.730579 0.948890
O O7 0.348939 0.881116 0.775056
O O8 0.207854 0.131504 0.060355
O O9 0.604162 0.862011 0.548715
O O10 0.876132 0.992335 0.393192
O O11 0.947144 0.140989 0.172833
O O12 0.771036 0.642699 0.222570
#
# Coordination Sequence:
#
# PCOD9071879 Si02
#       6
#     2   2   2   2   2   2
#     4   9  19  29  45  67  92 119 150 179 215 264
#     4   8  16  29  49  66  89 116 146 181 222 264
#     4   8  15  27  47  66  87 112 148 186 218 254
#     4   9  17  31  48  69  90 113 146 186 223 262
#     4  10  18  30  46  67  91 119 150 181 214 261
#     4   8  15  29  47  67  87 114 148 183 218 261
#
# _framework density 20.769818999999998
#
# number of rings (size 3 to 8) (size 9 to 14) (size 15 to 20)
#    0.000    3.667    0.000    1.000    0.000    9.333 
#    0.000    0.000    0.000   37.000    0.000    0.000 
#    0.000    0.000    0.000    0.000    0.000    0.000 
#
# Total GULP energy -66841.816762 kJ/mol
# GULP energy per Si atom -5570.151397 kJ/mol
# Density = 2.072255 g / cm^3
# Si number density = 20.769819 Si / 1000 Ang^3
#
#
#
# Elastic Constant Matrix: (Units=GPa)
#
#
# Indices 1 2 3 4 5 6 
#
# 1 160.8057 28.3699 48.5223 15.4181 -10.1927 -0.1865
# 2 28.3699 47.0469 27.3354 10.0834 0.2232 11.3385
# 3 48.5223 27.3354 102.8565 24.8214 10.7059 19.5927
# 4 15.4181 10.0834 24.8214 32.5117 4.6457 0.9813
# 5 -10.1927 0.2232 10.7059 4.6457 33.3232 8.6731
# 6 -0.1865 11.3385 19.5927 0.9813 8.6731 18.2333
#
#
#
# Elastic Compliance Matrix: (Units=1/GPa)
#
#
# Indices 1 2 3 4 5 6 
#
# 1 0.008383 -0.004043 -0.004294 0.000033 0.002384 0.006078
# 2 -0.004043 0.030644 -0.001428 -0.006625 0.005043 -0.019606
# 3 -0.004294 -0.001428 0.018178 -0.010715 -0.001068 -0.017604
# 4 0.000033 -0.006625 -0.010715 0.041419 -0.006581 0.016535
# 5 0.002384 0.005043 -0.001068 -0.006581 0.036960 -0.019191
# 6 0.006078 -0.019606 -0.017604 0.016535 -0.019191 0.094254
#
#
# Mechanical properties :
#
#
# Convention : Reuss Voigt Hill
#
# Bulk Modulus (GPa) = 26.54349 57.68492 42.11421
# Shear Modulus (GPa) = 19.08930 30.57907 24.83419
#
# Velocity S-wave (km/s) = 3.03494 3.84120 3.46162
# Velocity P-wave (km/s) = 5.00886 6.89252 6.02476
#
# Compressibility (1/GPa) = 0.03767401
#
# Stress axis : x y z
#
# Youngs Moduli (GPa) = 119.29366 32.63231 55.01266
#
# Poissons Ratio (x) = 0.13194 0.23621
# Poissons Ratio (y) = 0.48233 0.07858
# Poissons Ratio (z) = 0.51223 0.04661
#
# Static dielectric constant tensor:
#      x y z
#    x 1.760100 -0.047150 -0.018140 
#    y -0.047150 1.801440 -0.040550 
#    z -0.018140 -0.040550 1.813970 
# 
# From -- ./inp_files/150952.got.cif
#   From: 2010.05.17/outbox.cif.g08.bks.cpg/sg2_76_cif.got.tgz:150952.got - 2010.06.03 11:33:40.
