data_PCOD9071635
_publ_section_title
;
Structure prediction by ZEFSAII (Michael W. Deem and Ramdas Pophale) SiO2 
 PCOD9071635
Probable space group: P -1
;
_chemical_formula_sum "Si O2"
_cell_formula_units_Z 14
_cell_length_a 6.756460
_cell_length_b 12.292197
_cell_length_c 12.840792
_cell_angle_alpha 73.209002
_cell_angle_beta 68.662699
_cell_angle_gamma 33.511430
_cell_volume 548.213840
_symmetry_space_group_name_H-M "P -1"
_symmetry_group_IT_number 2
_symmetry_cell_setting 'triclinic'
loop_
_space_group_symop_operation_xyz
x,y,z
-x,-y,-z
loop_
_atom_site_type_symbol
_atom_site_label
_atom_site_fract_x
_atom_site_fract_y
_atom_site_fract_z
Si Si1 0.219243 0.787255 0.624295
Si Si2 0.444814 0.471266 0.747831
Si Si3 0.741033 0.815109 0.577942
Si Si4 0.450142 0.156390 0.181078
Si Si5 0.343146 0.368162 0.603394
Si Si6 0.497427 0.878068 0.205258
Si Si7 0.559349 0.701563 0.042426
O O1 0.489095 0.585918 0.692828
O O2 0.419793 0.774517 0.502418
O O3 0.002612 0.791739 0.591788
O O4 0.904386 0.968787 0.709709
O O5 0.550427 0.359154 0.652101
O O6 0.591984 0.344637 0.857711
O O7 0.999616 0.645158 0.793351
O O8 0.480376 0.873495 0.700989
O O9 0.021518 0.590192 0.559232
O O10 0.500000 0.000000 0.500000
O O11 0.562084 0.983760 0.165938
O O12 0.593022 0.193559 0.069435
O O13 0.245241 0.304613 0.713284
O O14 0.510278 0.821634 0.104008
O O15 0.000000 0.500000 0.000000
#
# Coordination Sequence:
#
# PCOD9071635 Si02
#       7
#     2   2   2   2   2   2   2
#     4   9  16  27  41  64  89 111 136 170 207 245
#     4   7  13  22  36  57  78 105 137 165 195 241
#     4   9  17  29  43  61  84 112 143 172 201 244
#     4   8  15  25  37  58  87 110 132 168 209 243
#     4   9  15  26  43  61  85 113 138 168 206 247
#     4   9  16  24  39  64  86 108 138 173 206 248
#     4   9  14  23  38  57  84 113 135 166 214 250
#
# _framework density 25.537479000000001
#
# number of rings (size 3 to 8) (size 9 to 14) (size 15 to 20)
#    0.000    4.000    0.000    3.429    0.000    0.000 
#    0.000    2.857    0.000    0.000    0.000   10.000 
#    0.000    0.000    0.000    7.000    0.000    0.000 
#
# Total GULP energy -78119.886869 kJ/mol
# GULP energy per Si atom -5579.991919 kJ/mol
# Density = 2.547935 g / cm^3
# Si number density = 25.537479 Si / 1000 Ang^3
#
#
#
# Elastic Constant Matrix: (Units=GPa)
#
#
# Indices 1 2 3 4 5 6 
#
# 1 31.2350 19.3973 -12.1996 -2.6601 -7.6393 -21.5427
# 2 19.3973 119.2919 65.1613 -6.0147 11.6485 25.3932
# 3 -12.1996 65.1613 198.4347 -29.7531 -11.6361 -7.1376
# 4 -2.6601 -6.0147 -29.7531 60.1701 16.7256 6.3576
# 5 -7.6393 11.6485 -11.6361 16.7256 5.1757 -12.0077
# 6 -21.5427 25.3932 -7.1376 6.3576 -12.0077 19.7987
#
#
#
# Elastic Compliance Matrix: (Units=1/GPa)
#
#
# Indices 1 2 3 4 5 6 
#
# 1 0.017877 0.002659 -0.000353 0.010841 -0.032958 -0.007556
# 2 0.002659 0.005913 -0.001419 -0.004677 0.014837 0.005299
# 3 -0.000353 -0.001419 0.005692 0.005127 -0.007790 -0.002883
# 4 0.010841 -0.004677 0.005127 0.020282 -0.007316 0.008694
# 5 -0.032958 0.014837 -0.007790 -0.007316 0.027300 -0.038793
# 6 -0.007556 0.005299 -0.002883 0.008694 -0.038793 0.008131
#
#
# Mechanical properties :
#
#
# Convention : Reuss Voigt Hill
#
# Bulk Modulus (GPa) = 31.99319 54.85328 43.42324
# Shear Modulus (GPa) = 53.28321 35.46908 44.37614
#
# Velocity S-wave (km/s) = 4.57275 3.73084 4.17308
# Velocity P-wave (km/s) = 6.35886 6.33128 6.34508
#
# Compressibility (1/GPa) = 0.03125665
#
# Stress axis : x y z
#
# Youngs Moduli (GPa) = 55.93772 169.12802 175.68952
#
# Poissons Ratio (x) = -0.44977 0.06203
# Poissons Ratio (y) = -0.14876 0.24926
# Poissons Ratio (z) = 0.01975 0.23995
#
# Static dielectric constant tensor:
#      x y z
#    x 2.051140 -0.010380 -0.015550 
#    y -0.010380 2.115450 -0.059020 
#    z -0.015550 -0.059020 2.077490 
# 
# From -- ./inp_files/249210.got.cif
#   From: 2010.05.17/outbox.cif.g08.bks.cpg/sg2_125_cif.got.tgz:249210.got - 2010.06.03 11:33:40.
