data_PCOD9071996
_publ_section_title
;
Structure prediction by ZEFSAII (Michael W. Deem and Ramdas Pophale) SiO2 
 PCOD9071996
Probable space group: P -1
;
_chemical_formula_sum "Si O2"
_cell_formula_units_Z 16
_cell_length_a 16.626761
_cell_length_b 7.114779
_cell_length_c 11.620255
_cell_angle_alpha 85.331819
_cell_angle_beta 27.641830
_cell_angle_gamma 94.301911
_cell_volume 602.608039
_symmetry_space_group_name_H-M "P -1"
_symmetry_group_IT_number 2
_symmetry_cell_setting 'triclinic'
loop_
_space_group_symop_operation_xyz
x,y,z
-x,-y,-z
loop_
_atom_site_type_symbol
_atom_site_label
_atom_site_fract_x
_atom_site_fract_y
_atom_site_fract_z
Si Si1 0.368126 0.119749 0.286659
Si Si2 0.522512 0.599453 0.221763
Si Si3 0.303062 0.007204 0.880010
Si Si4 0.334910 0.059883 0.588270
Si Si5 0.105161 0.411349 0.173428
Si Si6 0.798194 0.416443 0.208574
Si Si7 0.027824 0.050258 0.594817
Si Si8 0.309349 0.681338 0.283136
O O1 0.306829 0.138388 0.494181
O O2 0.335998 0.886930 0.311127
O O3 0.572849 0.240294 0.984410
O O4 0.230401 0.168105 0.368395
O O5 0.607855 0.830536 0.142998
O O6 0.362626 0.521566 0.525738
O O7 0.413640 0.572653 0.241165
O O8 0.708153 0.539644 0.990365
O O9 0.448378 0.894497 0.680244
O O10 0.277626 0.106425 0.785402
O O11 0.118337 0.858850 0.171814
O O12 0.252289 0.820582 0.701374
O O13 0.039122 0.169592 0.252983
O O14 0.905710 0.426438 0.460621
O O15 0.175038 0.513552 0.959185
O O16 0.000000 0.500000 0.000000
O O17 0.000000 0.000000 0.500000
#
# Coordination Sequence:
#
# PCOD9071996 Si02
#       8
#     2   2   2   2   2   2   2   2
#     4  10  18  30  50  75 108 141 172 223 276 318
#     4  10  18  34  53  80 112 138 182 234 279 320
#     4   9  19  34  52  79 111 144 180 225 274 330
#     4  10  20  34  54  78 113 150 179 219 277 332
#     4  10  20  30  52  81 106 143 173 225 280 314
#     4  11  18  33  52  76 113 146 186 225 268 327
#     4  10  20  33  54  84 109 135 183 234 280 318
#     4  10  18  31  49  80 111 134 180 226 275 322
#
# _framework density 26.551255999999999
#
# number of rings (size 3 to 8) (size 9 to 14) (size 15 to 20)
#    0.000    2.000    3.750    2.625    3.500    0.500 
#    0.000    0.000    0.000    0.750    0.000    0.875 
#    0.000    0.000    0.000    0.000    0.000    0.000 
#
# Total GULP energy -89434.564194 kJ/mol
# GULP energy per Si atom -5589.660262 kJ/mol
# Density = 2.649082 g / cm^3
# Si number density = 26.551256 Si / 1000 Ang^3
#
#
#
# Elastic Constant Matrix: (Units=GPa)
#
#
# Indices 1 2 3 4 5 6 
#
# 1 152.0871 33.8658 78.1914 8.4745 -10.6168 -6.7361
# 2 33.8658 68.8055 43.1076 -17.7259 -2.6273 10.8586
# 3 78.1914 43.1076 211.5430 -9.1001 -27.3137 -12.2080
# 4 8.4745 -17.7259 -9.1001 34.2091 -5.8211 0.2317
# 5 -10.6168 -2.6273 -27.3137 -5.8211 54.0874 -0.7543
# 6 -6.7361 10.8586 -12.2080 0.2317 -0.7543 35.4315
#
#
#
# Elastic Compliance Matrix: (Units=1/GPa)
#
#
# Indices 1 2 3 4 5 6 
#
# 1 0.009394 -0.004796 -0.002634 -0.005578 -0.000287 0.002379
# 2 -0.004796 0.023483 -0.003016 0.012600 -0.000096 -0.009232
# 3 -0.002634 -0.003016 0.006934 0.001431 0.003032 0.002868
# 4 -0.005578 0.012600 0.001431 0.038286 0.004296 -0.004588
# 5 -0.000287 -0.000096 0.003032 0.004296 0.020441 0.001427
# 6 0.002379 -0.009232 0.002868 -0.004588 0.001427 0.032553
#
#
# Mechanical properties :
#
#
# Convention : Reuss Voigt Hill
#
# Bulk Modulus (GPa) = 52.85976 82.52948 67.69462
# Shear Modulus (GPa) = 31.58745 43.23032 37.40889
#
# Velocity S-wave (km/s) = 3.45291 4.03945 3.75765
# Velocity P-wave (km/s) = 5.98737 7.27371 6.66166
#
# Compressibility (1/GPa) = 0.01891798
#
# Stress axis : x y z
#
# Youngs Moduli (GPa) = 106.45288 42.58333 144.21675
#
# Poissons Ratio (x) = 0.20425 0.37994
# Poissons Ratio (y) = 0.51059 0.43491
# Poissons Ratio (z) = 0.28045 0.12842
#
# Static dielectric constant tensor:
#      x y z
#    x 2.111730 -0.032790 0.013820 
#    y -0.032790 2.253230 0.129750 
#    z 0.013820 0.129750 2.154610 
# 
# From -- ./inp_files/449949.got.cif
#   From: 2010.05.17/outbox.cif.g08.bks.cpg/sg2_225_cif.got.tgz:449949.got - 2010.06.03 11:33:40.
