data_PCOD9071733
_publ_section_title
;
Structure prediction by ZEFSAII (Michael W. Deem and Ramdas Pophale) SiO2 
 PCOD9071733
Probable space group: P -1
;
_chemical_formula_sum "Si O2"
_cell_formula_units_Z 14
_cell_length_a 8.703122
_cell_length_b 19.960219
_cell_length_c 7.995713
_cell_angle_alpha 57.832561
_cell_angle_beta 73.633930
_cell_angle_gamma 32.971486
_cell_volume 597.495211
_symmetry_space_group_name_H-M "P -1"
_symmetry_group_IT_number 2
_symmetry_cell_setting 'triclinic'
loop_
_space_group_symop_operation_xyz
x,y,z
-x,-y,-z
loop_
_atom_site_type_symbol
_atom_site_label
_atom_site_fract_x
_atom_site_fract_y
_atom_site_fract_z
Si Si1 0.289567 0.353246 0.714357
Si Si2 0.874393 0.046601 0.750857
Si Si3 0.813660 0.768465 0.140868
Si Si4 0.249500 0.003162 0.475695
Si Si5 0.108028 0.111780 0.890527
Si Si6 0.738762 0.463337 0.400029
Si Si7 0.071471 0.221294 0.410206
O O1 0.573665 0.214507 0.690389
O O2 0.191155 0.306949 0.877687
O O3 0.352254 0.406379 0.733583
O O4 0.000000 0.500000 0.500000
O O5 0.123577 0.000963 0.664440
O O6 0.784314 0.029914 0.641034
O O7 0.021698 0.920621 0.997201
O O8 0.969535 0.790061 0.075171
O O9 0.959983 0.672133 0.395377
O O10 0.465004 0.941030 0.017768
O O11 0.061960 0.163663 0.338442
O O12 0.596297 0.880557 0.558282
O O13 0.046796 0.177337 0.644041
O O14 0.500000 0.500000 0.500000
O O15 0.828676 0.391738 0.286279
#
# Coordination Sequence:
#
# PCOD9071733 Si02
#       7
#     2   2   2   2   2   2   2
#     4   9  16  28  48  74 100 131 171 211 242 293
#     4  10  19  32  52  80 103 132 170 211 259 301
#     4   8  15  27  47  71  93 126 162 203 251 287
#     4  10  20  32  48  77 111 132 162 209 264 311
#     4   9  16  31  54  76 101 129 174 214 247 300
#     4  10  18  29  48  77 105 129 169 219 248 287
#     4  10  20  34  52  78 105 136 166 207 266 302
#
# _framework density 23.431148
#
# number of rings (size 3 to 8) (size 9 to 14) (size 15 to 20)
#    0.000    2.571    0.000    6.000    0.000    0.571 
#    0.000    1.429    0.000    2.571    0.000  306.000 
#    0.000    0.000    0.000    0.000    0.000    0.000 
#
# Total GULP energy -77953.928989 kJ/mol
# GULP energy per Si atom -5568.137785 kJ/mol
# Density = 2.337782 g / cm^3
# Si number density = 23.431148 Si / 1000 Ang^3
#
#
#
# Elastic Constant Matrix: (Units=GPa)
#
#
# Indices 1 2 3 4 5 6 
#
# 1 145.1308 57.3443 29.7419 -7.2506 -47.1943 40.7287
# 2 57.3443 135.8640 35.6804 -17.4326 -15.9247 30.9331
# 3 29.7419 35.6804 63.4093 -12.5467 -6.8057 15.8861
# 4 -7.2506 -17.4326 -12.5467 39.7476 8.9897 -16.6182
# 5 -47.1943 -15.9247 -6.8057 8.9897 45.3482 -25.3469
# 6 40.7287 30.9331 15.8861 -16.6182 -25.3469 39.2866
#
#
#
# Elastic Compliance Matrix: (Units=1/GPa)
#
#
# Indices 1 2 3 4 5 6 
#
# 1 0.013304 -0.002937 -0.002969 -0.004442 0.010093 -0.005646
# 2 -0.002937 0.010478 -0.003231 0.001549 -0.003100 -0.005243
# 3 -0.002969 -0.003231 0.020182 0.003866 -0.003858 -0.003393
# 4 -0.004442 0.001549 0.003866 0.032711 -0.001925 0.014417
# 5 0.010093 -0.003100 -0.003858 -0.001925 0.042544 0.020172
# 6 -0.005646 -0.005243 -0.003393 0.014417 0.020172 0.055921
#
#
# Mechanical properties :
#
#
# Convention : Reuss Voigt Hill
#
# Bulk Modulus (GPa) = 38.92431 65.54859 52.23645
# Shear Modulus (GPa) = 24.75538 39.65231 32.20384
#
# Velocity S-wave (km/s) = 3.25394 4.11821 3.71132
# Velocity P-wave (km/s) = 5.54669 7.11678 6.38022
#
# Compressibility (1/GPa) = 0.02569089
#
# Stress axis : x y z
#
# Youngs Moduli (GPa) = 75.16554 95.44225 49.54929
#
# Poissons Ratio (x) = 0.28031 0.14709
# Poissons Ratio (y) = 0.22076 0.16008
# Poissons Ratio (z) = 0.22313 0.30835
#
# Static dielectric constant tensor:
#      x y z
#    x 2.060430 0.026280 -0.031250 
#    y 0.026280 1.923410 0.015580 
#    z -0.031250 0.015580 1.925840 
# 
# From -- ./inp_files/266737.got.cif
#   From: 2010.05.17/outbox.cif.g08.bks.cpg/sg2_134_cif.got.tgz:266737.got - 2010.06.03 11:33:40.
