data_PCOD9071127
_publ_section_title
;
Structure prediction by ZEFSAII (Michael W. Deem and Ramdas Pophale) SiO2 
 PCOD9071127
Probable space group: P -1
;
_chemical_formula_sum "Si O2"
_cell_formula_units_Z 10
_cell_length_a 11.992528
_cell_length_b 9.997686
_cell_length_c 6.352906
_cell_angle_alpha 126.396007
_cell_angle_beta 92.010599
_cell_angle_gamma 123.785024
_cell_volume 427.035963
_symmetry_space_group_name_H-M "P -1"
_symmetry_group_IT_number 2
_symmetry_cell_setting 'triclinic'
loop_
_space_group_symop_operation_xyz
x,y,z
-x,-y,-z
loop_
_atom_site_type_symbol
_atom_site_label
_atom_site_fract_x
_atom_site_fract_y
_atom_site_fract_z
Si Si1 0.619474 0.496082 0.110323
Si Si2 0.368281 0.773957 0.427762
Si Si3 0.441534 0.242404 0.242441
Si Si4 0.125022 0.750294 0.623301
Si Si5 0.045126 0.100447 0.349147
O O1 0.504399 0.268601 0.039061
O O2 0.764594 0.724529 0.465780
O O3 0.500000 0.500000 0.000000
O O4 0.701455 0.458642 0.919349
O O5 0.462277 0.777538 0.620272
O O6 0.229382 0.745518 0.471886
O O7 0.500000 0.000000 0.500000
O O8 0.500000 0.500000 0.500000
O O9 0.257583 0.988698 0.996734
O O10 0.000000 0.500000 0.500000
O O11 0.021101 0.783357 0.543606
O O12 0.000000 0.000000 0.500000
O O13 0.000000 0.000000 0.000000
#
# Coordination Sequence:
#
# PCOD9071127 Si02
#       5
#     2   2   2   2   2
#     4  12  26  50  84 116 161 225 285 340 415 525
#     4  12  28  48  81 119 160 216 285 347 422 501
#     4  12  25  50  81 111 162 221 283 330 414 523
#     4  12  29  51  80 123 172 215 275 369 431 490
#     4  12  31  54  82 124 172 227 285 354 432 512
#
# _framework density 23.417231000000001
#
# number of rings (size 3 to 8) (size 9 to 14) (size 15 to 20)
#    0.000    0.000    4.000    4.200    8.400    0.800 
#    0.000    0.000    0.000    0.000    0.000    0.000 
#    0.000    0.000    0.000    0.000    0.000    0.000 
#
# Total GULP energy -55675.122453 kJ/mol
# GULP energy per Si atom -5567.512245 kJ/mol
# Density = 2.336393 g / cm^3
# Si number density = 23.417231 Si / 1000 Ang^3
#
#
#
# Elastic Constant Matrix: (Units=GPa)
#
#
# Indices 1 2 3 4 5 6 
#
# 1 204.0379 92.3578 82.6363 -0.5104 -8.9076 -9.3396
# 2 92.3578 205.4931 60.8906 -10.4682 13.2947 -11.6018
# 3 82.6363 60.8906 160.4830 3.3947 4.2427 0.6192
# 4 -0.5104 -10.4682 3.3947 37.4775 1.9379 15.1996
# 5 -8.9076 13.2947 4.2427 1.9379 58.4384 -3.7583
# 6 -9.3396 -11.6018 0.6192 15.1996 -3.7583 54.7176
#
#
#
# Elastic Compliance Matrix: (Units=1/GPa)
#
#
# Indices 1 2 3 4 5 6 
#
# 1 0.007360 -0.002577 -0.002850 -0.000927 0.002019 0.001138
# 2 -0.002577 0.006606 -0.001171 0.001880 -0.001852 0.000324
# 3 -0.002850 -0.001171 0.008183 -0.000800 -0.000778 -0.000659
# 4 -0.000927 0.001880 -0.000800 0.030802 -0.002076 -0.008449
# 5 0.002019 -0.001852 -0.000778 -0.002076 0.018081 0.001779
# 6 0.001138 0.000324 -0.000659 -0.008449 0.001779 0.021016
#
#
# Mechanical properties :
#
#
# Convention : Reuss Voigt Hill
#
# Bulk Modulus (GPa) = 111.71103 115.75371 113.73237
# Shear Modulus (GPa) = 46.19902 52.40199 49.30050
#
# Velocity S-wave (km/s) = 4.44651 4.73562 4.59334
# Velocity P-wave (km/s) = 8.61221 8.91290 8.76384
#
# Compressibility (1/GPa) = 0.00895167
#
# Stress axis : x y z
#
# Youngs Moduli (GPa) = 135.87522 151.38827 122.20033
#
# Poissons Ratio (x) = 0.39010 0.34828
# Poissons Ratio (y) = 0.35013 0.14315
# Poissons Ratio (z) = 0.38726 0.17735
#
# Static dielectric constant tensor:
#      x y z
#    x 2.036820 -0.139690 0.052550 
#    y -0.139690 2.151560 -0.219010 
#    z 0.052550 -0.219010 2.219530 
# 
# From -- ./inp_files/15994.got.cif
#   From: 2010.05.17/outbox.cif.g08.bks.cpg/sg2_8_cif.got.tgz:15994.got - 2010.06.03 11:33:40.
