data_PCOD9071389
_publ_section_title
;
Structure prediction by ZEFSAII (Michael W. Deem and Ramdas Pophale) SiO2 
 PCOD9071389
Probable space group: P -1
;
_chemical_formula_sum "Si O2"
_cell_formula_units_Z 16
_cell_length_a 9.462449
_cell_length_b 17.952349
_cell_length_c 17.943071
_cell_angle_alpha 150.624788
_cell_angle_beta 27.912235
_cell_angle_gamma 139.608231
_cell_volume 699.436262
_symmetry_space_group_name_H-M "P -1"
_symmetry_group_IT_number 2
_symmetry_cell_setting 'triclinic'
loop_
_space_group_symop_operation_xyz
x,y,z
-x,-y,-z
loop_
_atom_site_type_symbol
_atom_site_label
_atom_site_fract_x
_atom_site_fract_y
_atom_site_fract_z
Si Si1 0.666005 0.293386 0.931074
Si Si2 0.642576 0.791159 0.435964
Si Si3 0.316978 0.579199 0.721370
Si Si4 0.749306 0.373446 0.798101
Si Si5 0.652487 0.988990 0.130750
Si Si6 0.305115 0.872580 0.518291
Si Si7 0.348398 0.509876 0.367487
Si Si8 0.258931 0.919812 0.991853
O O1 0.643731 0.290480 0.849904
O O2 0.436474 0.184944 0.985317
O O3 0.006972 0.253522 0.761525
O O4 0.558403 0.457006 0.154300
O O5 0.513019 0.793522 0.415470
O O6 0.436915 0.682959 0.487133
O O7 0.573486 0.951514 0.647590
O O8 0.500000 0.500000 0.500000
O O9 0.535665 0.579891 0.691819
O O10 0.040141 0.469035 0.767792
O O11 0.209941 0.749561 0.895747
O O12 0.799580 0.250600 0.601163
O O13 0.500000 0.500000 0.000000
O O14 0.614001 0.077847 0.148969
O O15 0.000000 0.000000 0.000000
O O16 0.500000 0.000000 0.500000
O O17 0.034646 0.967647 0.767662
O O18 0.000000 0.500000 0.500000
O O19 0.500000 0.000000 0.000000
#
# Coordination Sequence:
#
# PCOD9071389 Si02
#       8
#     2   2   2   2   2   2   2   2
#     4  12  28  49  76 110 151 200 255 314 382 456
#     4  12  26  49  75 107 152 198 257 310 378 457
#     4  12  28  50  77 112 155 198 256 316 385 461
#     4  12  28  48  77 111 153 202 251 319 389 456
#     4  12  26  49  73 109 151 197 253 306 380 456
#     4  12  28  48  75 111 152 199 253 313 389 458
#     4  12  28  49  78 109 151 200 256 316 380 455
#     4  12  28  47  77 110 153 200 251 313 383 457
#
# _framework density 22.875565999999999
#
# number of rings (size 3 to 8) (size 9 to 14) (size 15 to 20)
#    0.000    0.000    2.500    6.000   14.000    0.000 
#    0.000    0.000    0.000    0.000    0.000    0.000 
#    0.000    0.000    0.000    0.000    0.000    0.000 
#
# Total GULP energy -89609.141762 kJ/mol
# GULP energy per Si atom -5600.571360 kJ/mol
# Density = 2.282350 g / cm^3
# Si number density = 22.875566 Si / 1000 Ang^3
#
#
#
# Elastic Constant Matrix: (Units=GPa)
#
#
# Indices 1 2 3 4 5 6 
#
# 1 170.5756 40.1375 48.7002 -2.5675 -8.0364 -7.9953
# 2 40.1375 114.0000 13.7208 6.2413 -14.5916 -0.8394
# 3 48.7002 13.7208 114.3298 -1.9305 -5.5145 8.3115
# 4 -2.5675 6.2413 -1.9305 43.0509 7.4907 -6.3942
# 5 -8.0364 -14.5916 -5.5145 7.4907 49.4479 -3.3142
# 6 -7.9953 -0.8394 8.3115 -6.3942 -3.3142 43.0796
#
#
#
# Elastic Compliance Matrix: (Units=1/GPa)
#
#
# Indices 1 2 3 4 5 6 
#
# 1 0.007363 -0.002240 -0.002991 0.000899 0.000203 0.002049
# 2 -0.002240 0.010062 -0.000129 -0.002145 0.002896 -0.000291
# 3 -0.002991 -0.000129 0.010240 -0.000157 0.000473 -0.002520
# 4 0.000899 -0.002145 -0.000157 0.024810 -0.004026 0.003528
# 5 0.000203 0.002896 0.000473 -0.004026 0.021846 0.001086
# 6 0.002049 -0.000291 -0.002520 0.003528 0.001086 0.024681
#
#
# Mechanical properties :
#
#
# Convention : Reuss Voigt Hill
#
# Bulk Modulus (GPa) = 59.01861 67.11360 63.06610
# Shear Modulus (GPa) = 43.33821 46.87214 45.10518
#
# Velocity S-wave (km/s) = 4.35733 4.53150 4.44527
# Velocity P-wave (km/s) = 7.15339 7.53536 7.34686
#
# Compressibility (1/GPa) = 0.01694381
#
# Stress axis : x y z
#
# Youngs Moduli (GPa) = 135.81605 99.38128 97.65946
#
# Poissons Ratio (x) = 0.22266 0.29214
# Poissons Ratio (y) = 0.30429 0.01256
# Poissons Ratio (z) = 0.40628 0.01278
#
# Static dielectric constant tensor:
#      x y z
#    x 2.364240 -0.270050 0.140900 
#    y -0.270050 1.949320 -0.066820 
#    z 0.140900 -0.066820 1.881000 
# 
# From -- ./inp_files/456920.got.cif
#   From: 2010.05.17/outbox.cif.g08.bks.cpg/sg2_229_cif.got.tgz:456920.got - 2010.06.03 11:33:40.
