data_PCOD9071770
_publ_section_title
;
Structure prediction by ZEFSAII (Michael W. Deem and Ramdas Pophale) SiO2 
 PCOD9071770
Probable space group: P -1
;
_chemical_formula_sum "Si O2"
_cell_formula_units_Z 14
_cell_length_a 14.165355
_cell_length_b 11.559428
_cell_length_c 11.387358
_cell_angle_alpha 102.461371
_cell_angle_beta 78.343228
_cell_angle_gamma 29.545356
_cell_volume 527.115054
_symmetry_space_group_name_H-M "P -1"
_symmetry_group_IT_number 2
_symmetry_cell_setting 'triclinic'
loop_
_space_group_symop_operation_xyz
x,y,z
-x,-y,-z
loop_
_atom_site_type_symbol
_atom_site_label
_atom_site_fract_x
_atom_site_fract_y
_atom_site_fract_z
Si Si1 0.830918 0.177715 0.954453
Si Si2 0.781836 0.734823 0.988852
Si Si3 0.202312 0.180637 0.530803
Si Si4 0.247499 0.986291 0.022685
Si Si5 0.870009 0.385762 0.965242
Si Si6 0.820346 0.547662 0.479484
Si Si7 0.461759 0.356026 0.494074
O O1 0.685332 0.477480 0.026148
O O2 0.115008 0.823954 0.707369
O O3 0.379542 0.696438 0.949496
O O4 0.000000 0.000000 0.000000
O O5 0.586517 0.084311 0.077734
O O6 0.992018 0.460440 0.759624
O O7 0.659876 0.744001 0.049924
O O8 0.000000 0.500000 0.000000
O O9 0.358644 0.121148 0.439623
O O10 0.001545 0.365410 0.513621
O O11 0.441278 0.801085 0.435053
O O12 0.050441 0.248040 0.246545
O O13 0.000298 0.255956 0.034977
O O14 0.213780 0.968912 0.714852
O O15 0.603435 0.686125 0.573640
#
# Coordination Sequence:
#
# PCOD9071770 Si02
#       7
#     2   2   2   2   2   2   2
#     4   9  17  29  47  71  97 129 165 198 241 292
#     4   8  14  26  46  71  96 123 156 196 240 282
#     4   9  17  29  49  74 100 130 163 197 239 290
#     4   8  15  28  47  68  96 130 160 196 241 287
#     4   9  16  27  47  71  97 127 160 200 243 285
#     4   9  17  30  49  73 102 130 159 198 242 288
#     4  10  18  29  50  72  96 126 165 203 240 285
#
# _framework density 26.559669
#
# number of rings (size 3 to 8) (size 9 to 14) (size 15 to 20)
#    0.000    3.143    0.000    0.857    0.000    1.143 
#    0.000    0.000    0.000   66.000    0.000    0.000 
#    0.000    0.000    0.000    0.000    0.000    0.000 
#
# Total GULP energy -78144.656811 kJ/mol
# GULP energy per Si atom -5581.761201 kJ/mol
# Density = 2.649922 g / cm^3
# Si number density = 26.559669 Si / 1000 Ang^3
#
#
#
# Elastic Constant Matrix: (Units=GPa)
#
#
# Indices 1 2 3 4 5 6 
#
# 1 190.2807 87.9590 13.0271 -5.4695 24.5900 44.2991
# 2 87.9590 73.2038 37.3235 -0.9869 13.1440 11.6985
# 3 13.0271 37.3235 140.6136 -31.2450 -7.8002 0.0592
# 4 -5.4695 -0.9869 -31.2450 36.6179 -4.1302 12.4085
# 5 24.5900 13.1440 -7.8002 -4.1302 19.8291 -6.8545
# 6 44.2991 11.6985 0.0592 12.4085 -6.8545 65.2891
#
#
#
# Elastic Compliance Matrix: (Units=1/GPa)
#
#
# Indices 1 2 3 4 5 6 
#
# 1 0.020154 -0.023811 0.006446 0.011105 -0.008659 -0.012434
# 2 -0.023811 0.051080 -0.016704 -0.021089 -0.011916 0.009776
# 3 0.006446 -0.016704 0.015060 0.015709 0.011166 -0.003207
# 4 0.011105 -0.021089 0.015709 0.047057 0.012238 -0.011429
# 5 -0.008659 -0.011916 0.011166 0.012238 0.080906 0.014168
# 6 -0.012434 0.009776 -0.003207 -0.011429 0.014168 0.025664
#
#
# Mechanical properties :
#
#
# Convention : Reuss Voigt Hill
#
# Bulk Modulus (GPa) = 55.07958 75.63527 65.35742
# Shear Modulus (GPa) = 15.91798 42.06644 28.99221
#
# Velocity S-wave (km/s) = 2.45078 3.98407 3.30750
# Velocity P-wave (km/s) = 5.36577 7.05004 6.26477
#
# Compressibility (1/GPa) = 0.01815555
#
# Stress axis : x y z
#
# Youngs Moduli (GPa) = 49.61854 19.57699 66.40265
#
# Poissons Ratio (x) = 0.46615 -0.42801
# Poissons Ratio (y) = 1.18147 1.10917
# Poissons Ratio (z) = -0.31982 0.32701
#
# Static dielectric constant tensor:
#      x y z
#    x 2.167670 0.059790 -0.010400 
#    y 0.059790 2.064960 0.018700 
#    z -0.010400 0.018700 2.065500 
# 
# From -- ./inp_files/264237.got.cif
#   From: 2010.05.17/outbox.cif.g08.bks.cpg/sg2_133_cif.got.tgz:264237.got - 2010.06.03 11:33:40.
