data_PCOD9071010
_publ_section_title
;
Structure prediction by ZEFSAII (Michael W. Deem and Ramdas Pophale) SiO2 
 PCOD9071010
Probable space group: P -1
;
_chemical_formula_sum "Si O2"
_cell_formula_units_Z 10
_cell_length_a 17.780534
_cell_length_b 8.705738
_cell_length_c 10.846905
_cell_angle_alpha 57.499336
_cell_angle_beta 25.021102
_cell_angle_gamma 40.428747
_cell_volume 382.826724
_symmetry_space_group_name_H-M "P -1"
_symmetry_group_IT_number 2
_symmetry_cell_setting 'triclinic'
loop_
_space_group_symop_operation_xyz
x,y,z
-x,-y,-z
loop_
_atom_site_type_symbol
_atom_site_label
_atom_site_fract_x
_atom_site_fract_y
_atom_site_fract_z
Si Si1 0.574341 0.148599 0.349194
Si Si2 0.581730 0.246286 0.557220
Si Si3 0.907264 0.028136 0.419852
Si Si4 0.251757 0.160371 0.094255
Si Si5 0.737998 0.518744 0.539586
O O1 0.682056 0.063421 0.365445
O O2 0.288572 0.450953 0.583206
O O3 0.500000 0.000000 0.500000
O O4 0.792735 0.112565 0.974423
O O5 0.500000 0.500000 0.500000
O O6 0.781462 0.112482 0.433305
O O7 0.345635 0.290084 0.934650
O O8 0.740793 0.296946 0.642293
O O9 0.896355 0.838357 0.578923
O O10 0.030299 0.353337 0.230451
O O11 0.506376 0.829946 0.812373
#
# Coordination Sequence:
#
# PCOD9071010 Si02
#       5
#     2   2   2   2   2
#     4  12  26  48  77 112 149 199 250 310 369 449
#     4  12  27  48  75 113 151 201 247 312 374 442
#     4  12  27  48  77 110 156 193 250 310 376 439
#     4  12  29  49  78 111 151 200 250 305 372 447
#     4  12  25  48  80 109 148 196 254 302 370 441
#
# _framework density 26.121478
#
# number of rings (size 3 to 8) (size 9 to 14) (size 15 to 20)
#    0.000    0.000    6.000    2.400    5.600    3.200 
#    0.000    3.000    0.000    0.000    0.000    0.000 
#    0.000    0.000    0.000    0.000    0.000    0.000 
#
# Total GULP energy -55780.182779 kJ/mol
# GULP energy per Si atom -5578.018278 kJ/mol
# Density = 2.606202 g / cm^3
# Si number density = 26.121478 Si / 1000 Ang^3
#
#
#
# Elastic Constant Matrix: (Units=GPa)
#
#
# Indices 1 2 3 4 5 6 
#
# 1 89.9103 15.5901 55.5648 -1.1674 -36.4356 8.6653
# 2 15.5901 106.1181 83.2845 -35.4447 -13.6595 -4.5510
# 3 55.5648 83.2845 148.2764 -36.2508 -25.2366 -0.1093
# 4 -1.1674 -35.4447 -36.2508 72.5947 -3.2140 0.0027
# 5 -36.4356 -13.6595 -25.2366 -3.2140 57.7386 -1.2468
# 6 8.6653 -4.5510 -0.1093 0.0027 -1.2468 30.0687
#
#
#
# Elastic Compliance Matrix: (Units=1/GPa)
#
#
# Indices 1 2 3 4 5 6 
#
# 1 0.020163 0.004500 -0.008773 -0.001426 0.009772 -0.004756
# 2 0.004500 0.019177 -0.010975 0.004081 0.002843 0.001683
# 3 -0.008773 -0.010975 0.016791 0.002858 -0.000615 0.000902
# 4 -0.001426 0.004081 0.002858 0.017274 0.002300 0.001133
# 5 0.009772 0.002843 -0.000615 0.002300 0.023988 -0.001394
# 6 -0.004756 0.001683 0.000902 0.001133 -0.001394 0.034828
#
#
# Mechanical properties :
#
#
# Convention : Reuss Voigt Hill
#
# Bulk Modulus (GPa) = 39.00705 72.57596 55.79151
# Shear Modulus (GPa) = 29.19517 44.73808 36.96663
#
# Velocity S-wave (km/s) = 3.34678 4.14296 3.76597
# Velocity P-wave (km/s) = 5.46809 7.12249 6.34940
#
# Compressibility (1/GPa) = 0.02563639
#
# Stress axis : x y z
#
# Youngs Moduli (GPa) = 49.59479 52.14552 59.55640
#
# Poissons Ratio (x) = -0.23467 0.52247
# Poissons Ratio (y) = -0.22319 0.65363
# Poissons Ratio (z) = 0.43508 0.57230
#
# Static dielectric constant tensor:
#      x y z
#    x 2.182910 0.068640 0.125000 
#    y 0.068640 2.200450 0.014050 
#    z 0.125000 0.014050 2.083920 
# 
# From -- ./inp_files/46386.got.cif
#   From: 2010.05.17/outbox.cif.g08.bks.cpg/sg2_24_cif.got.tgz:46386.got - 2010.06.03 11:33:40.
