data_PCOD9071499
_publ_section_title
;
Structure prediction by ZEFSAII (Michael W. Deem and Ramdas Pophale) SiO2 
 PCOD9071499
Probable space group: P -1
;
_chemical_formula_sum "Si O2"
_cell_formula_units_Z 10
_cell_length_a 6.474587
_cell_length_b 16.155902
_cell_length_c 5.350188
_cell_angle_alpha 87.786076
_cell_angle_beta 46.743010
_cell_angle_gamma 101.234213
_cell_volume 387.991788
_symmetry_space_group_name_H-M "P -1"
_symmetry_group_IT_number 2
_symmetry_cell_setting 'triclinic'
loop_
_space_group_symop_operation_xyz
x,y,z
-x,-y,-z
loop_
_atom_site_type_symbol
_atom_site_label
_atom_site_fract_x
_atom_site_fract_y
_atom_site_fract_z
Si Si1 0.767539 0.773440 0.470476
Si Si2 0.288777 0.083128 0.798804
Si Si3 0.890175 0.083872 0.528364
Si Si4 0.026819 0.448064 0.233541
Si Si5 0.410596 0.331921 0.859810
O O1 0.606451 0.845530 0.511627
O O2 0.764910 0.714379 0.238307
O O3 0.077566 0.844918 0.292041
O O4 0.637332 0.714822 0.824615
O O5 0.563194 0.056935 0.685942
O O6 0.143702 0.131431 0.115731
O O7 0.000000 0.000000 0.000000
O O8 0.000000 0.000000 0.500000
O O9 0.000000 0.500000 0.500000
O O10 0.755037 0.358435 0.491560
O O11 0.320538 0.419177 0.968801
O O12 0.000000 0.500000 0.000000
#
# Coordination Sequence:
#
# PCOD9071499 Si02
#       5
#     2   2   2   2   2
#     4  12  28  48  76 114 164 198 262 328 382 448
#     4  12  27  47  75 108 153 214 271 321 380 449
#     4  12  27  47  75 108 153 214 271 321 380 449
#     4  12  26  52  82 112 152 196 248 304 384 486
#     4  12  28  48  78 120 152 198 248 318 392 448
#
# _framework density 25.773741000000001
#
# number of rings (size 3 to 8) (size 9 to 14) (size 15 to 20)
#    0.000    0.000    4.000    4.800    2.800    3.200 
#    0.000    0.000    0.000    0.000    0.000    0.000 
#    0.000    0.000    0.000    0.000    0.000    0.000 
#
# Total GULP energy -55875.619902 kJ/mol
# GULP energy per Si atom -5587.561990 kJ/mol
# Density = 2.571508 g / cm^3
# Si number density = 25.773741 Si / 1000 Ang^3
#
#
#
# Elastic Constant Matrix: (Units=GPa)
#
#
# Indices 1 2 3 4 5 6 
#
# 1 168.7407 62.0812 74.1817 -4.8268 12.0939 -0.8799
# 2 62.0812 99.9593 36.4531 1.9311 27.8873 11.1570
# 3 74.1817 36.4531 138.4344 5.3925 23.3156 -8.5196
# 4 -4.8268 1.9311 5.3925 37.1057 -8.7342 24.7326
# 5 12.0939 27.8873 23.3156 -8.7342 71.7225 2.9257
# 6 -0.8799 11.1570 -8.5196 24.7326 2.9257 46.2199
#
#
#
# Elastic Compliance Matrix: (Units=1/GPa)
#
#
# Indices 1 2 3 4 5 6 
#
# 1 0.009636 -0.004858 -0.004514 0.003794 0.002261 -0.001649
# 2 -0.004858 0.014992 -0.000786 -0.000011 -0.004611 -0.003558
# 3 -0.004514 -0.000786 0.011134 -0.007187 -0.003682 0.006235
# 4 0.003794 -0.000011 -0.007187 0.049405 0.008870 -0.028248
# 5 0.002261 -0.004611 -0.003682 0.008870 0.017851 -0.005399
# 6 -0.001649 -0.003558 0.006235 -0.028248 -0.005399 0.039070
#
#
# Mechanical properties :
#
#
# Convention : Reuss Voigt Hill
#
# Bulk Modulus (GPa) = 64.75266 83.61847 74.18556
# Shear Modulus (GPa) = 29.84101 46.63752 38.23927
#
# Velocity S-wave (km/s) = 3.40635 4.25843 3.85600
# Velocity P-wave (km/s) = 6.37566 7.52946 6.97645
#
# Compressibility (1/GPa) = 0.01544338
#
# Stress axis : x y z
#
# Youngs Moduli (GPa) = 103.77524 66.70280 89.81834
#
# Poissons Ratio (x) = 0.32407 0.40548
# Poissons Ratio (y) = 0.50418 0.07062
# Poissons Ratio (z) = 0.46849 0.05245
#
# Static dielectric constant tensor:
#      x y z
#    x 2.214830 0.094760 0.168500 
#    y 0.094760 2.091880 0.006430 
#    z 0.168500 0.006430 2.088820 
# 
# From -- ./inp_files/5176.got.cif
#   From: 2010.05.17/outbox.cif.g08.bks.cpg/sg2_3_cif.got.tgz:5176.got - 2010.06.03 11:33:40.
