data_PCOD9071102
_publ_section_title
;
Structure prediction by ZEFSAII (Michael W. Deem and Ramdas Pophale) SiO2 
 PCOD9071102
Probable space group: P -1
;
_chemical_formula_sum "Si O2"
_cell_formula_units_Z 13
_cell_length_a 7.141941
_cell_length_b 11.243813
_cell_length_c 9.348263
_cell_angle_alpha 113.555523
_cell_angle_beta 53.485145
_cell_angle_gamma 118.511622
_cell_volume 523.008418
_symmetry_space_group_name_H-M "P -1"
_symmetry_group_IT_number 2
_symmetry_cell_setting 'triclinic'
loop_
_space_group_symop_operation_xyz
x,y,z
-x,-y,-z
loop_
_atom_site_type_symbol
_atom_site_label
_atom_site_fract_x
_atom_site_fract_y
_atom_site_fract_z
Si Si1 0.239166 0.470340 0.688028
Si Si2 0.021481 0.950670 0.300998
Si Si3 0.723867 0.239606 0.822930
Si Si4 0.473486 0.433660 0.134574
Si Si5 0.059703 0.708328 0.766810
Si Si6 0.494054 0.842707 0.421052
Si Si7 0.000000 0.000000 0.000000
O O1 0.500000 0.500000 0.500000
O O2 0.342427 0.461074 0.794026
O O3 0.134298 0.598346 0.777869
O O4 0.996042 0.340813 0.705265
O O5 0.245740 0.893518 0.184675
O O6 0.753347 0.838767 0.353045
O O7 0.000000 0.000000 0.500000
O O8 0.038407 0.024824 0.173756
O O9 0.558601 0.201110 0.738783
O O10 0.582664 0.309929 0.023818
O O11 0.181765 0.373397 0.256468
O O12 0.500000 0.500000 0.000000
O O13 0.281461 0.758752 0.579491
O O14 0.026751 0.842488 0.923948
O O15 0.500000 0.000000 0.500000
#
# Coordination Sequence:
#
# PCOD9071102 Si02
#       7
#     2   2   2   2   2   2   1
#     4  12  28  49  77 114 150 204 266 325 398 477
#     4  12  26  49  78 115 161 207 264 325 397 480
#     4  12  26  47  81 109 156 208 255 332 402 466
#     4  12  28  48  75 111 153 200 257 326 398 471
#     4  12  27  48  77 114 156 200 270 319 399 482
#     4  12  25  50  76 113 158 210 258 325 398 477
#     4  12  26  46  80 114 158 208 260 322 398 480
#
# _framework density 24.856197000000002
#
# number of rings (size 3 to 8) (size 9 to 14) (size 15 to 20)
#    0.000    0.000    4.615    4.154    6.462    2.462 
#    0.000    4.615    0.000    0.000    0.000    0.000 
#    0.000    0.000    0.000    0.000    0.000    0.000 
#
# Total GULP energy -72412.861593 kJ/mol
# GULP energy per Si atom -5570.220123 kJ/mol
# Density = 2.479962 g / cm^3
# Si number density = 24.856197 Si / 1000 Ang^3
#
#
#
# Elastic Constant Matrix: (Units=GPa)
#
#
# Indices 1 2 3 4 5 6 
#
# 1 178.3197 30.4779 45.7206 10.6205 16.5013 2.7183
# 2 30.4779 65.3055 6.6716 14.3845 2.4748 -18.6997
# 3 45.7206 6.6716 61.8969 -1.8432 11.8250 -8.7885
# 4 10.6205 14.3845 -1.8432 44.1534 4.0187 -2.7596
# 5 16.5013 2.4748 11.8250 4.0187 56.3468 -2.6676
# 6 2.7183 -18.6997 -8.7885 -2.7596 -2.6676 48.3336
#
#
#
# Elastic Compliance Matrix: (Units=1/GPa)
#
#
# Indices 1 2 3 4 5 6 
#
# 1 0.007908 -0.003711 -0.005706 -0.001028 -0.001026 -0.003033
# 2 -0.003711 0.020338 0.001415 -0.005229 0.000652 0.008072
# 3 -0.005706 0.001415 0.021509 0.002366 -0.002848 0.004757
# 4 -0.001028 -0.005229 0.002366 0.024844 -0.001748 -0.000213
# 5 -0.001026 0.000652 -0.002848 -0.001748 0.018776 0.000728
# 6 -0.003033 0.008072 0.004757 -0.000213 0.000728 0.024876
#
#
# Mechanical properties :
#
#
# Convention : Reuss Voigt Hill
#
# Bulk Modulus (GPa) = 29.62999 52.36248 40.99623
# Shear Modulus (GPa) = 34.36312 44.61024 39.48668
#
# Velocity S-wave (km/s) = 3.72220 4.24102 3.99005
# Velocity P-wave (km/s) = 5.51539 6.71518 6.14464
#
# Compressibility (1/GPa) = 0.03374959
#
# Stress axis : x y z
#
# Youngs Moduli (GPa) = 126.46089 49.16804 46.49323
#
# Poissons Ratio (x) = 0.18245 0.26531
# Poissons Ratio (y) = 0.46927 -0.06578
# Poissons Ratio (z) = 0.72163 -0.06956
#
# Static dielectric constant tensor:
#      x y z
#    x 1.972000 -0.035680 0.186080 
#    y -0.035680 1.991560 0.066050 
#    z 0.186080 0.066050 2.587440 
# 
# From -- ./inp_files/131882.got.cif
#   From: 2010.05.17/outbox.cif.g08.bks.cpg/sg2_66_cif.got.tgz:131882.got - 2010.06.03 11:33:40.
