data_PCOD9071452
_publ_section_title
;
Structure prediction by ZEFSAII (Michael W. Deem and Ramdas Pophale) SiO2 
 PCOD9071452
Probable space group: P -1
;
_chemical_formula_sum "Si O2"
_cell_formula_units_Z 14
_cell_length_a 32.368029
_cell_length_b 5.564610
_cell_length_c 9.850715
_cell_angle_alpha 126.338822
_cell_angle_beta 151.719642
_cell_angle_gamma 46.355938
_cell_volume 607.708462
_symmetry_space_group_name_H-M "P -1"
_symmetry_group_IT_number 2
_symmetry_cell_setting 'triclinic'
loop_
_space_group_symop_operation_xyz
x,y,z
-x,-y,-z
loop_
_atom_site_type_symbol
_atom_site_label
_atom_site_fract_x
_atom_site_fract_y
_atom_site_fract_z
Si Si1 0.239263 0.132840 0.810817
Si Si2 0.732665 0.851041 0.418883
Si Si3 0.090825 0.868115 0.317812
Si Si4 0.743168 0.215894 0.831661
Si Si5 0.486494 0.875366 0.067894
Si Si6 0.402351 0.789944 0.371995
Si Si7 0.051589 0.119891 0.573015
O O1 0.261628 0.078383 0.698822
O O2 0.138519 0.121745 0.536406
O O3 0.241041 0.462235 0.983982
O O4 0.321826 0.857268 0.047839
O O5 0.822494 0.492224 0.587417
O O6 0.739410 0.114860 0.632056
O O7 0.624925 0.883297 0.137286
O O8 0.060244 0.882604 0.390297
O O9 0.000000 0.000000 0.000000
O O10 0.647248 0.258182 0.650213
O O11 0.841577 0.934714 0.087661
O O12 0.565000 0.920965 0.405894
O O13 0.500000 0.500000 0.000000
O O14 0.500000 0.000000 0.000000
O O15 0.500000 0.500000 0.500000
O O16 0.000000 0.500000 0.500000
O O17 0.000000 0.000000 0.500000
#
# Coordination Sequence:
#
# PCOD9071452 Si02
#       7
#     2   2   2   2   2   2   2
#     4  12  26  50  78 112 162 206 276 331 409 489
#     4  12  28  48  81 115 159 215 273 338 408 492
#     4  12  28  51  78 118 162 211 274 344 410 491
#     4  12  26  50  77 115 157 215 266 334 409 486
#     4  12  28  51  79 120 165 213 275 331 408 491
#     4  12  27  49  81 112 165 213 272 335 412 482
#     4  12  27  50  79 114 159 209 270 333 406 483
#
# _framework density 23.037364
#
# number of rings (size 3 to 8) (size 9 to 14) (size 15 to 20)
#    0.000    0.000    4.286    4.286    6.000    2.857 
#    0.000    0.000    0.000    0.000    0.000    0.000 
#    0.000    0.000    0.000    0.000    0.000    0.000 
#
# Total GULP energy -78374.137861 kJ/mol
# GULP energy per Si atom -5598.152704 kJ/mol
# Density = 2.298493 g / cm^3
# Si number density = 23.037364 Si / 1000 Ang^3
#
#
#
# Elastic Constant Matrix: (Units=GPa)
#
#
# Indices 1 2 3 4 5 6 
#
# 1 176.4307 67.1869 61.5828 13.4304 2.7590 -12.9551
# 2 67.1869 137.7333 43.3707 18.2597 4.7370 -8.3793
# 3 61.5828 43.3707 171.4805 19.2079 -0.4900 -8.5872
# 4 13.4304 18.2597 19.2079 46.9304 -10.0056 1.1508
# 5 2.7590 4.7370 -0.4900 -10.0056 46.5833 4.5241
# 6 -12.9551 -8.3793 -8.5872 1.1508 4.5241 33.3233
#
#
#
# Elastic Compliance Matrix: (Units=1/GPa)
#
#
# Indices 1 2 3 4 5 6 
#
# 1 0.007608 -0.002949 -0.001851 -0.000409 -0.000434 0.001812
# 2 -0.002949 0.009510 -0.000970 -0.002818 -0.001534 0.001301
# 3 -0.001851 -0.000970 0.007017 -0.002041 -0.000249 0.000949
# 4 -0.000409 -0.002818 -0.002041 0.024687 0.005888 -0.003046
# 5 -0.000434 -0.001534 -0.000249 0.005888 0.023298 -0.003985
# 6 0.001812 0.001301 0.000949 -0.003046 -0.003985 0.031931
#
#
# Mechanical properties :
#
#
# Convention : Reuss Voigt Hill
#
# Bulk Modulus (GPa) = 79.39379 92.21392 85.80386
# Shear Modulus (GPa) = 41.74005 46.26767 44.00386
#
# Velocity S-wave (km/s) = 4.26119 4.48635 4.37522
# Velocity P-wave (km/s) = 7.66474 8.18238 7.92779
#
# Compressibility (1/GPa) = 0.01259544
#
# Stress axis : x y z
#
# Youngs Moduli (GPa) = 131.43961 105.15487 142.51023
#
# Poissons Ratio (x) = 0.31009 0.26379
# Poissons Ratio (y) = 0.38761 0.13820
# Poissons Ratio (z) = 0.24330 0.10197
#
# Static dielectric constant tensor:
#      x y z
#    x 1.181120 0.494640 -0.030320 
#    y 0.494640 1.458530 -0.021460 
#    z -0.030320 -0.021460 1.835150 
# 
# From -- ./inp_files/358281.got.cif
#   From: 2010.05.17/outbox.cif.g08.bks.cpg/sg2_180_cif.got.tgz:358281.got - 2010.06.03 11:33:40.
