data_PCOD9071587
_publ_section_title
;
Structure prediction by ZEFSAII (Michael W. Deem and Ramdas Pophale) SiO2 
 PCOD9071587
Probable space group: P -1
;
_chemical_formula_sum "Si O2"
_cell_formula_units_Z 12
_cell_length_a 12.704769
_cell_length_b 5.391253
_cell_length_c 12.659599
_cell_angle_alpha 49.313197
_cell_angle_beta 47.279432
_cell_angle_gamma 67.860272
_cell_volume 479.718885
_symmetry_space_group_name_H-M "P -1"
_symmetry_group_IT_number 2
_symmetry_cell_setting 'triclinic'
loop_
_space_group_symop_operation_xyz
x,y,z
-x,-y,-z
loop_
_atom_site_type_symbol
_atom_site_label
_atom_site_fract_x
_atom_site_fract_y
_atom_site_fract_z
Si Si1 0.972634 0.625314 0.154339
Si Si2 0.261200 0.423351 0.962323
Si Si3 0.045301 0.640873 0.543172
Si Si4 0.349767 0.881406 0.209285
Si Si5 0.522709 0.761100 0.768540
Si Si6 0.644530 0.370031 0.391847
O O1 0.014143 0.591111 0.257832
O O2 0.805526 0.484354 0.293930
O O3 0.091239 0.440962 0.063449
O O4 0.000000 0.000000 0.000000
O O5 0.349028 0.722934 0.886771
O O6 0.337932 0.501380 0.775936
O O7 0.284876 0.097847 0.102348
O O8 0.000000 0.500000 0.500000
O O9 0.216433 0.679940 0.414739
O O10 0.000000 0.000000 0.500000
O O11 0.428584 0.094971 0.190942
O O12 0.563283 0.392143 0.825869
O O13 0.605357 0.986700 0.557806
O O14 0.500000 0.500000 0.500000
#
# Coordination Sequence:
#
# PCOD9071587 Si02
#       6
#     2   2   2   2   2   2
#     4  12  29  49  79 121 160 211 270 334 397 478
#     4  12  28  48  80 119 161 210 270 333 395 478
#     4  12  27  51  81 116 164 208 262 332 405 470
#     4  12  27  50  82 117 158 211 267 327 393 476
#     4  12  27  51  81 115 161 211 264 324 401 471
#     4  12  28  54  79 116 163 214 267 330 406 478
#
# _framework density 25.01465
#
# number of rings (size 3 to 8) (size 9 to 14) (size 15 to 20)
#    0.000    0.000    3.333    5.000    4.667    1.333 
#    0.000    0.000    0.000    0.000    0.000    0.000 
#    0.000    0.000    0.000    0.000    0.000    0.000 
#
# Total GULP energy -67195.857525 kJ/mol
# GULP energy per Si atom -5599.654794 kJ/mol
# Density = 2.495772 g / cm^3
# Si number density = 25.014650 Si / 1000 Ang^3
#
#
#
# Elastic Constant Matrix: (Units=GPa)
#
#
# Indices 1 2 3 4 5 6 
#
# 1 135.7189 66.2664 57.0870 4.6114 -7.5318 2.0292
# 2 66.2664 137.4351 42.1314 2.8754 7.6961 -2.1131
# 3 57.0870 42.1314 186.6117 11.8255 23.3393 -11.7750
# 4 4.6114 2.8754 11.8255 50.3751 -8.6060 2.3945
# 5 -7.5318 7.6961 23.3393 -8.6060 78.5881 6.3704
# 6 2.0292 -2.1131 -11.7750 2.3945 6.3704 48.7764
#
#
#
# Elastic Compliance Matrix: (Units=1/GPa)
#
#
# Indices 1 2 3 4 5 6 
#
# 1 0.010915 -0.004595 -0.002744 0.000412 0.002491 -0.001661
# 2 -0.004595 0.009757 -0.000576 -0.000255 -0.001306 0.000658
# 3 -0.002744 -0.000576 0.006918 -0.001897 -0.002647 0.002198
# 4 0.000412 -0.000255 -0.001897 0.020889 0.003070 -0.001913
# 5 0.002491 -0.001306 -0.002647 0.003070 0.014443 -0.002836
# 6 -0.001661 0.000658 0.002198 -0.001913 -0.002836 0.021594
#
#
# Mechanical properties :
#
#
# Convention : Reuss Voigt Hill
#
# Bulk Modulus (GPa) = 85.03687 87.85947 86.44817
# Shear Modulus (GPa) = 47.95359 55.16666 51.56012
#
# Velocity S-wave (km/s) = 4.38313 4.70124 4.54497
# Velocity P-wave (km/s) = 7.72557 8.04166 7.88520
#
# Compressibility (1/GPa) = 0.01175961
#
# Stress axis : x y z
#
# Youngs Moduli (GPa) = 91.61538 102.48989 144.54722
#
# Poissons Ratio (x) = 0.47098 0.39664
# Poissons Ratio (y) = 0.42101 0.08326
# Poissons Ratio (z) = 0.25140 0.05903
#
# Static dielectric constant tensor:
#      x y z
#    x 1.981470 -0.075500 -0.047360 
#    y -0.075500 1.959860 -0.011490 
#    z -0.047360 -0.011490 1.968760 
# 
# From -- ./inp_files/440830.got.cif
#   From: 2010.05.17/outbox.cif.g08.bks.cpg/sg2_221_cif.got.tgz:440830.got - 2010.06.03 11:33:40.
