data_PCOD9071986
_publ_section_title
;
Structure prediction by ZEFSAII (Michael W. Deem and Ramdas Pophale) SiO2 
 PCOD9071986
Probable space group: P -1
;
_chemical_formula_sum "Si O2"
_cell_formula_units_Z 14
_cell_length_a 12.893068
_cell_length_b 10.717288
_cell_length_c 8.940984
_cell_angle_alpha 142.075788
_cell_angle_beta 136.785618
_cell_angle_gamma 47.887059
_cell_volume 506.316204
_symmetry_space_group_name_H-M "P -1"
_symmetry_group_IT_number 2
_symmetry_cell_setting 'triclinic'
loop_
_space_group_symop_operation_xyz
x,y,z
-x,-y,-z
loop_
_atom_site_type_symbol
_atom_site_label
_atom_site_fract_x
_atom_site_fract_y
_atom_site_fract_z
Si Si1 0.042020 0.244065 0.320735
Si Si2 0.723922 0.367687 0.473586
Si Si3 0.957014 0.815079 0.380357
Si Si4 0.287600 0.775661 0.987098
Si Si5 0.640107 0.808665 0.107738
Si Si6 0.445548 0.738619 0.564016
Si Si7 0.638943 0.708020 0.333612
O O1 0.877723 0.176468 0.050984
O O2 0.784321 0.813175 0.629429
O O3 0.000000 0.500000 0.500000
O O4 0.066075 0.165743 0.444776
O O5 0.730969 0.190603 0.181621
O O6 0.586004 0.568823 0.488031
O O7 0.704953 0.330163 0.598559
O O8 0.901872 0.385336 0.670491
O O9 0.786045 0.793409 0.138671
O O10 0.000000 0.000000 0.500000
O O11 0.323455 0.522853 0.782390
O O12 0.454295 0.808525 0.250836
O O13 0.661313 0.666300 0.138749
O O14 0.594553 0.041653 0.346900
O O15 0.502976 0.779221 0.830363
#
# Coordination Sequence:
#
# PCOD9071986 Si02
#       7
#     2   2   2   2   2   2   2
#     4   8  16  27  43  69  99 126 161 204 243 288
#     4  10  19  33  47  71 100 131 157 197 257 293
#     4  10  18  30  50  73  98 127 167 204 245 295
#     4   9  16  29  49  68  98 127 163 200 248 293
#     4  10  19  33  50  73  97 126 170 204 240 294
#     4  10  20  31  49  69 102 129 157 202 248 297
#     4   9  16  28  48  74  91 125 169 205 235 293
#
# _framework density 27.650706
#
# number of rings (size 3 to 8) (size 9 to 14) (size 15 to 20)
#    0.000    2.571    2.857    0.000    0.000    0.571 
#    0.000    0.714    0.000    0.000    0.000    0.000 
#    0.000   31.714    0.000    0.000    0.000    0.000 
#
# Total GULP energy -77961.727579 kJ/mol
# GULP energy per Si atom -5568.694827 kJ/mol
# Density = 2.758777 g / cm^3
# Si number density = 27.650706 Si / 1000 Ang^3
#
#
#
# Elastic Constant Matrix: (Units=GPa)
#
#
# Indices 1 2 3 4 5 6 
#
# 1 167.2069 43.5994 39.3046 -2.1590 12.6994 -26.4534
# 2 43.5994 91.0906 4.6645 -10.1611 7.9800 -19.0182
# 3 39.3046 4.6645 87.6875 -3.4174 35.9318 -8.5839
# 4 -2.1590 -10.1611 -3.4174 22.3433 -2.3376 10.0976
# 5 12.6994 7.9800 35.9318 -2.3376 54.4645 -13.8043
# 6 -26.4534 -19.0182 -8.5839 10.0976 -13.8043 78.5705
#
#
#
# Elastic Compliance Matrix: (Units=1/GPa)
#
#
# Indices 1 2 3 4 5 6 
#
# 1 0.008015 -0.003614 -0.003988 -0.002191 0.001696 0.001967
# 2 -0.003614 0.013641 0.002022 0.005385 -0.001936 0.001274
# 3 -0.003988 0.002022 0.017663 0.002618 -0.011219 -0.001231
# 4 -0.002191 0.005385 0.002618 0.049872 -0.001333 -0.005792
# 5 0.001696 -0.001936 -0.011219 -0.001333 0.026533 0.003710
# 6 0.001967 0.001274 -0.001231 -0.005792 0.003710 0.014960
#
#
# Mechanical properties :
#
#
# Convention : Reuss Voigt Hill
#
# Bulk Modulus (GPa) = 35.51371 57.90244 46.70807
# Shear Modulus (GPa) = 33.06250 48.30343 40.68297
#
# Velocity S-wave (km/s) = 3.46167 4.18415 3.83994
# Velocity P-wave (km/s) = 5.37114 6.65799 6.04888
#
# Compressibility (1/GPa) = 0.02815814
#
# Stress axis : x y z
#
# Youngs Moduli (GPa) = 124.77224 73.31040 56.61611
#
# Poissons Ratio (x) = 0.26495 0.22579
# Poissons Ratio (y) = 0.45094 -0.11449
# Poissons Ratio (z) = 0.49761 -0.14825
#
# Static dielectric constant tensor:
#      x y z
#    x 2.241730 0.046670 0.085750 
#    y 0.046670 2.293020 0.006870 
#    z 0.085750 0.006870 2.345070 
# 
# From -- ./inp_files/267678.got.cif
#   From: 2010.05.17/outbox.cif.g08.bks.cpg/sg2_134_cif.got.tgz:267678.got - 2010.06.03 11:33:40.
