data_PCOD9071878
_publ_section_title
;
Structure prediction by ZEFSAII (Michael W. Deem and Ramdas Pophale) SiO2 
 PCOD9071878
Probable space group: P -1
;
_chemical_formula_sum "Si O2"
_cell_formula_units_Z 14
_cell_length_a 15.481263
_cell_length_b 14.603818
_cell_length_c 11.615457
_cell_angle_alpha 161.787002
_cell_angle_beta 112.981734
_cell_angle_gamma 65.963234
_cell_volume 749.552607
_symmetry_space_group_name_H-M "P -1"
_symmetry_group_IT_number 2
_symmetry_cell_setting 'triclinic'
loop_
_space_group_symop_operation_xyz
x,y,z
-x,-y,-z
loop_
_atom_site_type_symbol
_atom_site_label
_atom_site_fract_x
_atom_site_fract_y
_atom_site_fract_z
Si Si1 0.899495 0.236660 0.651434
Si Si2 0.811332 0.978829 0.713237
Si Si3 0.218817 0.128395 0.691388
Si Si4 0.388506 0.173267 0.560841
Si Si5 0.413664 0.838118 0.409907
Si Si6 0.936787 0.314504 0.321998
Si Si7 0.002332 0.587795 0.297298
O O1 0.956117 0.190156 0.505675
O O2 0.838350 0.005562 0.397838
O O3 0.825518 0.534933 0.948694
O O4 0.975441 0.322202 0.887398
O O5 0.796005 0.032832 0.632206
O O6 0.717144 0.865613 0.578857
O O7 0.900822 0.725601 0.458019
O O8 0.844646 0.245552 0.122189
O O9 0.330791 0.058374 0.687971
O O10 0.476690 0.138690 0.477339
O O11 0.407802 0.930492 0.382114
O O12 0.391003 0.502041 0.007067
O O13 0.000000 0.500000 0.500000
O O14 0.926837 0.462965 0.619848
O O15 0.000000 0.000000 0.000000
#
# Coordination Sequence:
#
# PCOD9071878 Si02
#       7
#     2   2   2   2   2   2   2
#     4  10  20  30  46  65  90 122 153 183 220 261
#     4   9  18  31  48  68  94 121 149 186 230 272
#     4  10  18  30  46  67  90 118 148 183 224 267
#     4   9  17  27  44  67  91 118 143 179 232 275
#     4   9  16  28  44  66  93 115 144 184 225 274
#     4  10  20  32  47  65  90 123 154 187 224 264
#     4   9  19  32  45  66  92 120 153 186 218 264
#
# _framework density 18.677809
#
# number of rings (size 3 to 8) (size 9 to 14) (size 15 to 20)
#    0.000    2.571    0.000    3.429    0.000   10.857 
#    0.000    0.000    0.000    0.000    0.000    2.000 
#    0.000    0.000    0.000    0.857    0.000    0.000 
#
# Total GULP energy -77988.438032 kJ/mol
# GULP energy per Si atom -5570.602717 kJ/mol
# Density = 1.863530 g / cm^3
# Si number density = 18.677809 Si / 1000 Ang^3
#
#
#
# Elastic Constant Matrix: (Units=GPa)
#
#
# Indices 1 2 3 4 5 6 
#
# 1 157.5608 24.8524 34.1417 -3.7940 16.3541 -20.5038
# 2 24.8524 56.3560 28.8968 -2.2463 7.6054 8.8220
# 3 34.1417 28.8968 57.9261 7.2234 12.4227 -0.8441
# 4 -3.7940 -2.2463 7.2234 32.0833 -3.6114 1.3238
# 5 16.3541 7.6054 12.4227 -3.6114 27.4200 7.2709
# 6 -20.5038 8.8220 -0.8441 1.3238 7.2709 24.5433
#
#
#
# Elastic Compliance Matrix: (Units=1/GPa)
#
#
# Indices 1 2 3 4 5 6 
#
# 1 0.009611 -0.004067 -0.002047 0.000090 -0.006687 0.011397
# 2 -0.004067 0.028863 -0.014300 0.006117 0.006049 -0.016386
# 3 -0.002047 -0.014300 0.029403 -0.009517 -0.011614 0.008395
# 4 0.000090 0.006117 -0.009517 0.035058 0.009040 -0.007020
# 5 -0.006687 0.006049 -0.011614 0.009040 0.051578 -0.023928
# 6 0.011397 -0.016386 0.008395 -0.007020 -0.023928 0.063911
#
#
# Mechanical properties :
#
#
# Convention : Reuss Voigt Hill
#
# Bulk Modulus (GPa) = 36.96981 49.73606 43.35293
# Shear Modulus (GPa) = 18.63804 29.07278 23.85541
#
# Velocity S-wave (km/s) = 3.16234 3.94958 3.57768
# Velocity P-wave (km/s) = 5.75936 6.89095 6.35041
#
# Compressibility (1/GPa) = 0.02704910
#
# Stress axis : x y z
#
# Youngs Moduli (GPa) = 104.04534 34.64674 34.00974
#
# Poissons Ratio (x) = 0.14090 0.06962
# Poissons Ratio (y) = 0.42314 0.48635
# Poissons Ratio (z) = 0.21299 0.49546
#
# Static dielectric constant tensor:
#      x y z
#    x 1.709420 -0.036920 -0.021080 
#    y -0.036920 1.692370 0.017490 
#    z -0.021080 0.017490 1.709900 
# 
# From -- ./inp_files/73996.got.cif
#   From: 2010.05.17/outbox.cif.g08.bks.cpg/sg2_37_cif.got.tgz:73996.got - 2010.06.03 11:33:40.
