data_PCOD9071848
_publ_section_title
;
Structure prediction by ZEFSAII (Michael W. Deem and Ramdas Pophale) SiO2 
 PCOD9071848
Probable space group: P -1
;
_chemical_formula_sum "Si O2"
_cell_formula_units_Z 14
_cell_length_a 14.314171
_cell_length_b 7.321574
_cell_length_c 10.861501
_cell_angle_alpha 94.097921
_cell_angle_beta 135.891808
_cell_angle_gamma 96.995890
_cell_volume 765.293812
_symmetry_space_group_name_H-M "P -1"
_symmetry_group_IT_number 2
_symmetry_cell_setting 'triclinic'
loop_
_space_group_symop_operation_xyz
x,y,z
-x,-y,-z
loop_
_atom_site_type_symbol
_atom_site_label
_atom_site_fract_x
_atom_site_fract_y
_atom_site_fract_z
Si Si1 0.528855 0.454396 0.664143
Si Si2 0.305225 0.755596 0.051594
Si Si3 0.729543 0.663465 0.409043
Si Si4 0.353903 0.173563 0.050871
Si Si5 0.820859 0.999155 0.330302
Si Si6 0.382693 0.717010 0.863502
Si Si7 0.981262 0.342576 0.368169
O O1 0.500000 0.500000 0.500000
O O2 0.382467 0.364662 0.589904
O O3 0.636751 0.324848 0.778386
O O4 0.605202 0.646015 0.816624
O O5 0.401728 0.715382 0.027966
O O6 0.150449 0.669302 0.846787
O O7 0.326823 0.979408 0.090927
O O8 0.770849 0.870175 0.395776
O O9 0.668922 0.496616 0.244526
O O10 0.879985 0.627747 0.579407
O O11 0.224619 0.144944 0.834829
O O12 0.481558 0.188409 0.079087
O O13 0.039995 0.853289 0.582021
O O14 0.726048 0.154261 0.251835
O O15 0.000000 0.500000 0.500000
#
# Coordination Sequence:
#
# PCOD9071848 Si02
#       7
#     2   2   2   2   2   2   2
#     4  11  24  38  55  76 104 148 196 226 248 297
#     4  10  19  35  55  77 114 135 172 225 269 321
#     4  11  19  34  54  81 114 141 174 216 266 321
#     4   9  18  31  53  80 104 140 174 218 277 316
#     4  10  18  29  55  83 114 136 166 209 281 336
#     4   9  16  29  50  82 113 133 165 214 279 334
#     4  10  19  35  53  87 118 136 162 210 284 343
#
# _framework density 18.293628999999999
#
# number of rings (size 3 to 8) (size 9 to 14) (size 15 to 20)
#    0.000    2.286    2.857    4.714    0.000    2.857 
#    0.000    0.714    0.000    3.429    0.000    0.000 
#    0.000    0.000    0.000    0.000    0.000    0.000 
#
# Total GULP energy -77951.299326 kJ/mol
# GULP energy per Si atom -5567.949952 kJ/mol
# Density = 1.825199 g / cm^3
# Si number density = 18.293629 Si / 1000 Ang^3
#
#
#
# Elastic Constant Matrix: (Units=GPa)
#
#
# Indices 1 2 3 4 5 6 
#
# 1 51.5176 22.4205 22.4791 -0.2496 8.6467 17.4239
# 2 22.4205 77.2793 32.4140 -0.4245 3.0530 21.6623
# 3 22.4791 32.4140 61.5515 -11.9126 5.3711 21.3229
# 4 -0.2496 -0.4245 -11.9126 32.4662 7.6178 2.0418
# 5 8.6467 3.0530 5.3711 7.6178 22.0868 3.3292
# 6 17.4239 21.6623 21.3229 2.0418 3.3292 18.3160
#
#
#
# Elastic Compliance Matrix: (Units=1/GPa)
#
#
# Indices 1 2 3 4 5 6 
#
# 1 0.030362 -0.001049 0.000415 0.004234 -0.009245 -0.026917
# 2 -0.001049 0.019965 -0.004095 -0.000473 0.001534 -0.018073
# 3 0.000415 -0.004095 0.034996 0.017084 -0.008474 -0.036657
# 4 0.004234 -0.000473 0.017084 0.042581 -0.016653 -0.025077
# 5 -0.009245 0.001534 -0.008474 -0.016653 0.055181 0.008672
# 6 -0.026917 -0.018073 -0.036657 -0.025077 0.008672 0.145473
#
#
# Mechanical properties :
#
#
# Convention : Reuss Voigt Hill
#
# Bulk Modulus (GPa) = 13.18128 38.33060 25.75594
# Shear Modulus (GPa) = 13.76253 22.10946 17.93600
#
# Velocity S-wave (km/s) = 2.74581 3.48025 3.13461
# Velocity P-wave (km/s) = 4.15616 6.09491 5.21640
#
# Compressibility (1/GPa) = 0.07586515
#
# Stress axis : x y z
#
# Youngs Moduli (GPa) = 32.93558 50.08735 28.57429
#
# Poissons Ratio (x) = 0.05255 -0.01185
# Poissons Ratio (y) = 0.03455 0.11702
# Poissons Ratio (z) = -0.01366 0.20511
#
# Static dielectric constant tensor:
#      x y z
#    x 1.673960 -0.001380 0.092040 
#    y -0.001380 1.681760 -0.023780 
#    z 0.092040 -0.023780 1.696800 
# 
# From -- ./inp_files/298625.got.cif
#   From: 2010.05.17/outbox.cif.g08.bks.cpg/sg2_150_cif.got.tgz:298625.got - 2010.06.03 11:33:40.
