data_PCOD9071765
_publ_section_title
;
Structure prediction by ZEFSAII (Michael W. Deem and Ramdas Pophale) SiO2 
 PCOD9071765
Probable space group: P -1
;
_chemical_formula_sum "Si O2"
_cell_formula_units_Z 14
_cell_length_a 9.589255
_cell_length_b 7.807773
_cell_length_c 9.233731
_cell_angle_alpha 113.045773
_cell_angle_beta 114.521824
_cell_angle_gamma 99.199519
_cell_volume 534.160081
_symmetry_space_group_name_H-M "P -1"
_symmetry_group_IT_number 2
_symmetry_cell_setting 'triclinic'
loop_
_space_group_symop_operation_xyz
x,y,z
-x,-y,-z
loop_
_atom_site_type_symbol
_atom_site_label
_atom_site_fract_x
_atom_site_fract_y
_atom_site_fract_z
Si Si1 0.353219 0.572802 0.993241
Si Si2 0.557701 0.261108 0.510251
Si Si3 0.151502 0.135627 0.887174
Si Si4 0.052074 0.599350 0.816862
Si Si5 0.156735 0.797353 0.246651
Si Si6 0.410771 0.997085 0.810173
Si Si7 0.232677 0.269632 0.282117
O O1 0.468505 0.803510 0.156890
O O2 0.500000 0.500000 0.000000
O O3 0.233831 0.378917 0.970253
O O4 0.222094 0.594268 0.825139
O O5 0.655044 0.159961 0.618957
O O6 0.361050 0.214741 0.418836
O O7 0.650622 0.502683 0.644792
O O8 0.592825 0.192907 0.344184
O O9 0.241929 0.026715 0.789708
O O10 0.955593 0.070417 0.752601
O O11 0.189640 0.129903 0.072732
O O12 0.931118 0.374251 0.727621
O O13 0.936965 0.704298 0.733703
O O14 0.116665 0.703838 0.036531
O O15 0.500000 0.000000 0.000000
#
# Coordination Sequence:
#
# PCOD9071765 Si02
#       7
#     2   2   2   2   2   2   2
#     4   9  18  31  52  75  97 136 171 203 242 303
#     4  10  18  29  49  82 101 131 165 208 252 293
#     4   9  17  35  56  75  98 134 170 203 247 304
#     4   8  14  30  51  75  96 128 172 204 240 300
#     4   8  15  28  53  77  97 126 168 207 247 295
#     4  11  21  33  49  76 106 134 167 208 252 296
#     4   9  17  31  55  77 101 131 167 204 253 300
#
# _framework density 26.209372999999999
#
# number of rings (size 3 to 8) (size 9 to 14) (size 15 to 20)
#    0.000    2.857    1.429    2.571    0.000    0.571 
#    0.000    3.571    0.000    7.714    7.429    0.000 
#    0.000    0.000    0.000    0.000    0.000    0.000 
#
# Total GULP energy -78076.500285 kJ/mol
# GULP energy per Si atom -5576.892877 kJ/mol
# Density = 2.614972 g / cm^3
# Si number density = 26.209373 Si / 1000 Ang^3
#
#
#
# Elastic Constant Matrix: (Units=GPa)
#
#
# Indices 1 2 3 4 5 6 
#
# 1 167.0500 39.7972 60.0965 -8.5920 56.0831 -44.7122
# 2 39.7972 138.2260 26.7061 -19.5441 26.1858 -35.4624
# 3 60.0965 26.7061 101.9784 -11.1323 34.9042 -22.2500
# 4 -8.5920 -19.5441 -11.1323 36.1831 -21.3587 22.6442
# 5 56.0831 26.1858 34.9042 -21.3587 60.8439 -15.8200
# 6 -44.7122 -35.4624 -22.2500 22.6442 -15.8200 52.7709
#
#
#
# Elastic Compliance Matrix: (Units=1/GPa)
#
#
# Indices 1 2 3 4 5 6 
#
# 1 0.013648 0.000317 -0.002548 -0.012394 -0.012407 0.012301
# 2 0.000317 0.009109 -0.000532 -0.000053 -0.002512 0.005435
# 3 -0.002548 -0.000532 0.013499 -0.000992 -0.004965 0.002112
# 4 -0.012394 -0.000053 -0.000992 0.056184 0.024534 -0.027708
# 5 -0.012407 -0.002512 -0.004965 0.024534 0.036831 -0.013780
# 6 0.012301 0.005435 0.002112 -0.027708 -0.013780 0.041674
#
#
# Mechanical properties :
#
#
# Convention : Reuss Voigt Hill
#
# Bulk Modulus (GPa) = 32.54330 73.38379 52.96355
# Shear Modulus (GPa) = 26.77896 48.66986 37.72441
#
# Velocity S-wave (km/s) = 3.19992 4.31393 3.79799
# Velocity P-wave (km/s) = 5.10845 7.27139 6.28369
#
# Compressibility (1/GPa) = 0.03072829
#
# Stress axis : x y z
#
# Youngs Moduli (GPa) = 73.27202 109.78217 74.07937
#
# Poissons Ratio (x) = -0.03478 0.18878
# Poissons Ratio (y) = -0.02321 0.03943
# Poissons Ratio (z) = 0.18672 0.05843
#
# Static dielectric constant tensor:
#      x y z
#    x 2.172590 0.025480 -0.023470 
#    y 0.025480 2.128000 -0.017180 
#    z -0.023470 -0.017180 1.978310 
# 
# From -- ./inp_files/319665.got.cif
#   From: 2010.05.17/outbox.cif.g08.bks.cpg/sg2_160_cif.got.tgz:319665.got - 2010.06.03 11:33:40.
