data_PCOD9071767
_publ_section_title
;
Structure prediction by ZEFSAII (Michael W. Deem and Ramdas Pophale) SiO2 
 PCOD9071767
Probable space group: P -1
;
_chemical_formula_sum "Si O2"
_cell_formula_units_Z 16
_cell_length_a 11.419758
_cell_length_b 11.556861
_cell_length_c 7.591878
_cell_angle_alpha 74.921799
_cell_angle_beta 46.974332
_cell_angle_gamma 95.911097
_cell_volume 649.024324
_symmetry_space_group_name_H-M "P -1"
_symmetry_group_IT_number 2
_symmetry_cell_setting 'triclinic'
loop_
_space_group_symop_operation_xyz
x,y,z
-x,-y,-z
loop_
_atom_site_type_symbol
_atom_site_label
_atom_site_fract_x
_atom_site_fract_y
_atom_site_fract_z
Si Si1 0.334990 0.172215 0.960664
Si Si2 0.450132 0.573333 0.177741
Si Si3 0.839235 0.510846 0.269395
Si Si4 0.658280 0.191946 0.162474
Si Si5 0.610982 0.064575 0.637850
Si Si6 0.984584 0.799669 0.174754
Si Si7 0.060493 0.979823 0.679816
Si Si8 0.528361 0.366964 0.382326
O O1 0.397025 0.288387 0.991639
O O2 0.473014 0.104595 0.868682
O O3 0.389060 0.248301 0.685136
O O4 0.128872 0.083764 0.195760
O O5 0.260369 0.574611 0.419538
O O6 0.453056 0.470150 0.364177
O O7 0.500000 0.500000 0.000000
O O8 0.697793 0.445379 0.289143
O O9 0.899343 0.658366 0.225417
O O10 0.000000 0.500000 0.000000
O O11 0.667457 0.165476 0.373942
O O12 0.598224 0.310657 0.167232
O O13 0.505365 0.071265 0.281030
O O14 0.844586 0.202731 0.901460
O O15 0.779669 0.049999 0.552702
O O16 0.895834 0.869109 0.372015
O O17 0.037274 0.901851 0.919093
#
# Coordination Sequence:
#
# PCOD9071767 Si02
#       8
#     2   2   2   2   2   2   2   2
#     4  10  19  38  59  87 121 154 203 252 297 360
#     4  11  25  42  60  85 124 165 198 250 313 363
#     4  11  21  37  62  93 117 154 205 253 295 359
#     4   9  16  29  48  82 124 147 189 250 303 345
#     4   9  18  28  50  86 122 153 190 248 305 354
#     4  10  18  29  49  89 125 146 189 248 308 347
#     4  10  19  28  53  87 122 154 190 249 307 354
#     4  10  20  36  59  86 117 159 202 249 299 359
#
# _framework density 24.652388999999999
#
# number of rings (size 3 to 8) (size 9 to 14) (size 15 to 20)
#    0.000    2.000    2.500    3.000    8.750    0.000 
#    0.000    0.625    0.000    1.500    0.000    0.000 
#    0.000    0.000    0.000    0.000    0.000    0.000 
#
# Total GULP energy -89171.315093 kJ/mol
# GULP energy per Si atom -5573.207193 kJ/mol
# Density = 2.459628 g / cm^3
# Si number density = 24.652389 Si / 1000 Ang^3
#
#
#
# Elastic Constant Matrix: (Units=GPa)
#
#
# Indices 1 2 3 4 5 6 
#
# 1 76.0147 33.3645 35.0712 7.3242 -41.5426 -11.8200
# 2 33.3645 165.8823 30.9389 23.0756 -32.3316 0.8459
# 3 35.0712 30.9389 132.2605 12.3298 -30.5600 4.0381
# 4 7.3242 23.0756 12.3298 33.8042 0.5040 -0.3597
# 5 -41.5426 -32.3316 -30.5600 0.5040 42.3911 7.6041
# 6 -11.8200 0.8459 4.0381 -0.3597 7.6041 21.2846
#
#
#
# Elastic Compliance Matrix: (Units=1/GPa)
#
#
# Indices 1 2 3 4 5 6 
#
# 1 0.030895 0.000521 -0.001283 -0.006933 0.028566 0.007057
# 2 0.000521 0.008185 0.000349 -0.005972 0.007600 -0.002918
# 3 -0.001283 0.000349 0.009996 -0.003769 0.007203 -0.005260
# 4 -0.006933 -0.005972 -0.003769 0.036793 -0.015060 0.003105
# 5 0.028566 0.007600 0.007203 -0.015060 0.064377 -0.009059
# 6 0.007057 -0.002918 -0.005260 0.003105 -0.009059 0.055304
#
#
# Mechanical properties :
#
#
# Convention : Reuss Voigt Hill
#
# Bulk Modulus (GPa) = 20.72515 63.65629 42.19072
# Shear Modulus (GPa) = 22.47592 37.81485 30.14539
#
# Velocity S-wave (km/s) = 3.02274 3.92078 3.50068
# Velocity P-wave (km/s) = 4.53958 6.80987 5.78714
#
# Compressibility (1/GPa) = 0.04825057
#
# Stress axis : x y z
#
# Youngs Moduli (GPa) = 32.36724 122.16972 100.04238
#
# Poissons Ratio (x) = -0.06369 0.12837
# Poissons Ratio (y) = -0.01687 -0.03490
# Poissons Ratio (z) = 0.04153 -0.04262
#
# Static dielectric constant tensor:
#      x y z
#    x 2.175430 -0.081330 0.012130 
#    y -0.081330 1.954130 0.041460 
#    z 0.012130 0.041460 2.131750 
# 
# From -- ./inp_files/258463.got.cif
#   From: 2010.05.17/outbox.cif.g08.bks.cpg/sg2_130_cif.got.tgz:258463.got - 2010.06.03 11:33:40.
