data_PCOD9072744
_publ_section_title
;
Structure prediction by ZEFSAII (Michael W. Deem and Ramdas Pophale) SiO2 
 PCOD9072744
Probable space group: P -1
;
_chemical_formula_sum "Si O2"
_cell_formula_units_Z 16
_cell_length_a 18.000000
_cell_length_b 21.000000
_cell_length_c 12.000000
_cell_angle_alpha 30.000000
_cell_angle_beta 40.000000
_cell_angle_gamma 20.000000
_cell_volume 744.844803
_symmetry_space_group_name_H-M "P -1"
_symmetry_group_IT_number 2
_symmetry_cell_setting 'triclinic'
loop_
_space_group_symop_operation_xyz
x,y,z
-x,-y,-z
loop_
_atom_site_type_symbol
_atom_site_label
_atom_site_fract_x
_atom_site_fract_y
_atom_site_fract_z
Si Si1 0.718918 0.665553 0.349792
Si Si2 0.725882 0.778342 0.393687
Si Si3 0.072290 0.339119 0.061863
Si Si4 0.490123 0.747405 0.791477
Si Si5 0.870797 0.883159 0.183251
Si Si6 0.164011 0.655184 0.808565
Si Si7 0.357296 0.829389 0.571937
Si Si8 0.973530 0.992238 0.708024
O O1 0.635022 0.841552 0.277373
O O2 0.544805 0.715621 0.446747
O O3 0.914392 0.401433 0.590043
O O4 0.793643 0.690031 0.129573
O O5 0.599344 0.785543 0.595165
O O6 0.706361 0.937650 0.225708
O O7 0.000000 0.500000 0.500000
O O8 0.902259 0.419049 0.055031
O O9 0.189341 0.109574 0.339097
O O10 0.000000 0.500000 0.000000
O O11 0.471622 0.708638 0.746178
O O12 0.244537 0.972822 0.786048
O O13 0.636390 0.544368 0.028725
O O14 0.921383 0.952737 0.935627
O O15 0.976824 0.893063 0.747965
O O16 0.186784 0.738821 0.557068
O O17 0.211336 0.844418 0.681335
#
# Coordination Sequence:
#
# PCOD9072744 Si02
#       8
#     2   2   2   2   2   2   2   2
#     4  10  20  36  60  87 117 159 203 247 295 354
#     4   9  18  34  58  85 115 151 199 243 289 350
#     4  11  22  40  63  92 124 150 192 257 315 352
#     4  11  22  37  60  92 121 152 197 252 305 350
#     4  11  21  34  58  89 123 157 195 248 302 351
#     4  10  22  41  63  85 118 161 202 243 295 359
#     4  10  23  40  62  89 120 161 205 243 292 357
#     4  10  22  42  62  84 119 164 206 242 285 358
#
# _framework density 21.480985
#
# number of rings (size 3 to 8) (size 9 to 14) (size 15 to 20)
#    0.000    1.750    0.000    6.000    0.000    5.000 
#    0.000    6.250    0.000    0.000    0.000    0.000 
#    0.000    0.000    0.000    0.000    0.000    0.000 
#
# Total GULP energy -89084.503016 kJ/mol
# GULP energy per Si atom -5567.781438 kJ/mol
# Density = 2.143209 g / cm^3
# Si number density = 21.480985 Si / 1000 Ang^3
#
#
#
# Elastic Constant Matrix: (Units=GPa)
#
#
# Indices 1 2 3 4 5 6 
#
# 1 112.2759 23.8463 28.7593 4.4734 -9.1982 -10.7816
# 2 23.8463 43.7684 20.2013 18.0281 -10.4316 3.5550
# 3 28.7593 20.2013 104.4266 11.3825 -4.3406 -2.4790
# 4 4.4734 18.0281 11.3825 28.1456 -13.0747 2.4102
# 5 -9.1982 -10.4316 -4.3406 -13.0747 33.9933 2.8131
# 6 -10.7816 3.5550 -2.4790 2.4102 2.8131 32.7326
#
#
#
# Elastic Compliance Matrix: (Units=1/GPa)
#
#
# Indices 1 2 3 4 5 6 
#
# 1 0.011201 -0.006585 -0.002059 0.003830 0.001906 0.003803
# 2 -0.006585 0.037049 -0.003209 -0.020075 0.001880 -0.005119
# 3 -0.002059 -0.003209 0.011029 -0.002728 -0.001250 0.000814
# 4 0.003830 -0.020075 -0.002728 0.056779 0.016562 -0.002369
# 5 0.001906 0.001880 -0.001250 0.016562 0.037058 -0.004076
# 6 0.003803 -0.005119 0.000814 -0.002369 -0.004076 0.032945
#
#
# Mechanical properties :
#
#
# Convention : Reuss Voigt Hill
#
# Bulk Modulus (GPa) = 28.11066 45.12053 36.61560
# Shear Modulus (GPa) = 22.56070 31.48525 27.02298
#
# Velocity S-wave (km/s) = 3.24429 3.83263 3.55067
# Velocity P-wave (km/s) = 5.21043 6.37463 5.82171
#
# Compressibility (1/GPa) = 0.03557370
#
# Stress axis : x y z
#
# Youngs Moduli (GPa) = 89.27570 26.99151 90.67322
#
# Poissons Ratio (x) = 0.17773 0.18670
# Poissons Ratio (y) = 0.58784 0.29096
# Poissons Ratio (z) = 0.18382 0.08661
#
# Static dielectric constant tensor:
#      x y z
#    x 1.813350 0.021240 -0.023110 
#    y 0.021240 1.948070 -0.151840 
#    z -0.023110 -0.151840 1.853970 
# 
# From -- ./inp_files/467043.got.cif
#   From: 2010.05.17/outbox.ucp.g08.bks.cvg/sg2_234_cif.got.tgz:467043.got - 2010.06.11 11:32:03.
