data_PCOD9072141
_publ_section_title
;
Structure prediction by ZEFSAII (Michael W. Deem and Ramdas Pophale) SiO2 
 PCOD9072141
Probable space group: P -1
;
_chemical_formula_sum "Si O2"
_cell_formula_units_Z 12
_cell_length_a 6.000000
_cell_length_b 9.000000
_cell_length_c 12.000000
_cell_angle_alpha 90.000000
_cell_angle_beta 110.000000
_cell_angle_gamma 120.000000
_cell_volume 515.566255
_symmetry_space_group_name_H-M "P -1"
_symmetry_group_IT_number 2
_symmetry_cell_setting 'triclinic'
loop_
_space_group_symop_operation_xyz
x,y,z
-x,-y,-z
loop_
_atom_site_type_symbol
_atom_site_label
_atom_site_fract_x
_atom_site_fract_y
_atom_site_fract_z
Si Si1 0.399256 0.765319 0.554040
Si Si2 0.739101 0.812975 0.917764
Si Si3 0.046148 0.382515 0.917260
Si Si4 0.959988 0.508389 0.325874
Si Si5 0.507220 0.993989 0.226695
Si Si6 0.894800 0.781278 0.695732
O O1 0.183977 0.697395 0.416339
O O2 0.467528 0.929437 0.643685
O O3 0.693403 0.792683 0.572990
O O4 0.264919 0.597715 0.615994
O O5 0.510305 0.865925 0.857873
O O6 0.795078 0.765995 0.805108
O O7 0.746681 0.676434 0.001779
O O8 0.000000 0.000000 0.000000
O O9 0.139565 0.472001 0.811941
O O10 0.746832 0.199707 0.843237
O O11 0.000000 0.500000 0.000000
O O12 0.086685 0.385680 0.330321
O O13 0.812322 0.033388 0.256478
#
# Coordination Sequence:
#
# PCOD9072141 Si02
#       6
#     2   2   2   2   2   2
#     4   9  20  39  62  87 115 163 203 233 304 358
#     4   9  19  36  57  82 118 158 196 230 296 361
#     4  11  21  38  60  93 122 153 199 252 299 342
#     4  10  20  37  62  89 120 155 198 255 287 352
#     4   9  21  38  63  85 119 161 198 240 299 360
#     4  10  18  38  59  85 117 159 201 237 293 365
#
# _framework density 23.275379000000001
#
# number of rings (size 3 to 8) (size 9 to 14) (size 15 to 20)
#    0.000    2.333    1.667    0.500    0.000    3.333 
#    3.000   15.000    0.000    0.000    0.000    0.000 
#    0.000    0.000    0.000    0.000    0.000    0.000 
#
# Total GULP energy -66939.187238 kJ/mol
# GULP energy per Si atom -5578.265603 kJ/mol
# Density = 2.322240 g / cm^3
# Si number density = 23.275379 Si / 1000 Ang^3
#
#
#
# Elastic Constant Matrix: (Units=GPa)
#
#
# Indices 1 2 3 4 5 6 
#
# 1 35.9451 7.3165 18.6761 5.5723 14.4959 6.2432
# 2 7.3165 105.1095 28.6300 23.6996 -0.8053 6.0613
# 3 18.6761 28.6300 121.7277 35.0864 -0.9563 0.2414
# 4 5.5723 23.6996 35.0864 41.8628 10.2140 0.1539
# 5 14.4959 -0.8053 -0.9563 10.2140 15.8784 7.9839
# 6 6.2432 6.0613 0.2414 0.1539 7.9839 23.8046
#
#
#
# Elastic Compliance Matrix: (Units=1/GPa)
#
#
# Indices 1 2 3 4 5 6 
#
# 1 0.071810 -0.009593 -0.020283 0.037137 -0.099711 0.017017
# 2 -0.009593 0.013284 0.002552 -0.013908 0.022776 -0.008442
# 3 -0.020283 0.002552 0.017662 -0.022950 0.038660 -0.008327
# 4 0.037137 -0.013908 -0.022950 0.068514 -0.092429 0.024591
# 5 -0.099711 0.022776 0.038660 -0.092429 0.248522 -0.062796
# 6 0.017017 -0.008442 -0.008327 0.024591 -0.062796 0.060682
#
#
# Mechanical properties :
#
#
# Convention : Reuss Voigt Hill
#
# Bulk Modulus (GPa) = 20.78631 41.33641 31.06136
# Shear Modulus (GPa) = 9.07183 30.18647 19.62915
#
# Velocity S-wave (km/s) = 1.97638 3.60519 2.90719
# Velocity P-wave (km/s) = 3.76272 5.92690 4.96418
#
# Compressibility (1/GPa) = 0.04810858
#
# Stress axis : x y z
#
# Youngs Moduli (GPa) = 13.92572 75.27972 56.61901
#
# Poissons Ratio (x) = 0.72214 1.14839
# Poissons Ratio (y) = 0.13359 -0.14450
# Poissons Ratio (z) = 0.28245 -0.19212
#
# Static dielectric constant tensor:
#      x y z
#    x 1.938630 0.054950 0.054410 
#    y 0.054950 1.920610 -0.000470 
#    z 0.054410 -0.000470 1.898280 
# 
# From -- ./inp_files/60723.got.cif
#   From: 2010.05.17/outbox.ucp.g08.bks.cvg/sg2_31_cif.got.tgz:60723.got - 2010.06.11 11:32:03.
