data_PCOD9072282
_publ_section_title
;
Structure prediction by ZEFSAII (Michael W. Deem and Ramdas Pophale) SiO2 
 PCOD9072282
Probable space group: P -1
;
_chemical_formula_sum "Si O2"
_cell_formula_units_Z 14
_cell_length_a 24.801774
_cell_length_b 13.167528
_cell_length_c 7.725727
_cell_angle_alpha 102.253516
_cell_angle_beta 58.489886
_cell_angle_gamma 155.968078
_cell_volume 565.655316
_symmetry_space_group_name_H-M "P -1"
_symmetry_group_IT_number 2
_symmetry_cell_setting 'triclinic'
loop_
_space_group_symop_operation_xyz
x,y,z
-x,-y,-z
loop_
_atom_site_type_symbol
_atom_site_label
_atom_site_fract_x
_atom_site_fract_y
_atom_site_fract_z
Si Si1 0.084155 0.974143 0.817371
Si Si2 0.974717 0.386388 0.758503
Si Si3 0.898864 0.204744 0.439472
Si Si4 0.823298 0.729755 0.940519
Si Si5 0.687639 0.441945 0.717941
Si Si6 0.288319 0.720915 0.556087
Si Si7 0.393912 0.039995 0.764117
O O1 0.206087 0.065211 0.564550
O O2 0.956660 0.842012 0.839475
O O3 0.875601 0.602130 0.153914
O O4 0.236476 0.288677 0.804298
O O5 0.877224 0.181921 0.671621
O O6 0.150422 0.760204 0.548725
O O7 0.110344 0.516944 0.686531
O O8 0.748088 0.084610 0.112566
O O9 0.178549 0.644002 0.088870
O O10 0.646006 0.413932 0.972711
O O11 0.030948 0.117663 0.625113
O O12 0.600024 0.188314 0.722267
O O13 0.582614 0.350499 0.711433
O O14 0.455256 0.056994 0.515098
#
# Coordination Sequence:
#
# PCOD9072282 Si02
#       7
#     2   2   2   2   2   2   2
#     4   9  17  32  52  71  95 127 177 199 237 294
#     4   9  17  32  52  80 101 129 160 191 268 299
#     4   8  17  31  54  74  99 127 160 205 247 301
#     4   9  19  33  51  70  99 140 167 203 242 289
#     4  10  19  33  52  74 102 129 171 203 247 286
#     4  10  18  30  54  79  98 131 157 205 254 305
#     4   9  18  31  50  78 106 123 161 208 249 295
#
# _framework density 24.750050999999999
#
# number of rings (size 3 to 8) (size 9 to 14) (size 15 to 20)
#    0.857    2.000    0.000    1.714    0.000    0.000 
#    0.000   10.714    0.000   15.429    0.000    0.000 
#    0.000    0.000    0.000    0.000    0.000    0.000 
#
# Total GULP energy -78120.120241 kJ/mol
# GULP energy per Si atom -5580.008589 kJ/mol
# Density = 2.469372 g / cm^3
# Si number density = 24.750051 Si / 1000 Ang^3
#
#
#
# Elastic Constant Matrix: (Units=GPa)
#
#
# Indices 1 2 3 4 5 6 
#
# 1 126.6874 53.2452 26.2169 10.3513 -18.6245 14.4544
# 2 53.2452 115.2586 21.7845 32.4260 -10.1801 0.3722
# 3 26.2169 21.7845 47.3061 13.9940 -11.2555 8.1763
# 4 10.3513 32.4260 13.9940 47.7996 -0.1237 1.3762
# 5 -18.6245 -10.1801 -11.2555 -0.1237 31.6028 2.1872
# 6 14.4544 0.3722 8.1763 1.3762 2.1872 42.0777
#
#
#
# Elastic Compliance Matrix: (Units=1/GPa)
#
#
# Indices 1 2 3 4 5 6 
#
# 1 0.011450 -0.004828 -0.002985 0.001785 0.004385 -0.003597
# 2 -0.004828 0.013396 -0.001372 -0.007696 0.000812 0.002016
# 3 -0.002985 -0.001372 0.028068 -0.006486 0.008090 -0.004625
# 4 0.001785 -0.007696 -0.006486 0.027645 -0.003629 0.000000
# 5 0.004385 0.000812 0.008090 -0.003629 0.037697 -0.004926
# 6 -0.003597 0.002016 -0.004625 0.000000 -0.004926 0.026138
#
#
# Mechanical properties :
#
#
# Convention : Reuss Voigt Hill
#
# Bulk Modulus (GPa) = 28.94868 54.63836 41.79352
# Shear Modulus (GPa) = 28.68980 36.82971 32.75976
#
# Velocity S-wave (km/s) = 3.40837 3.86173 3.64211
# Velocity P-wave (km/s) = 5.21643 6.48135 5.88299
#
# Compressibility (1/GPa) = 0.03454389
#
# Stress axis : x y z
#
# Youngs Moduli (GPa) = 87.33898 74.64708 35.62798
#
# Poissons Ratio (x) = 0.36042 0.10634
# Poissons Ratio (y) = 0.42170 0.04887
# Poissons Ratio (z) = 0.26069 0.10240
#
# Static dielectric constant tensor:
#      x y z
#    x 1.947150 -0.073920 0.045670 
#    y -0.073920 2.054140 0.030600 
#    z 0.045670 0.030600 1.988080 
# 
# From -- ./inp_files/300810.got.cif
#   From: 2010.05.17/outbox.cif.g08.bks.cpg/sg2_151_cif.got.tgz:300810.got - 2010.06.03 11:33:40.
