data_PCOD9072203
_publ_section_title
;
Structure prediction by ZEFSAII (Michael W. Deem and Ramdas Pophale) SiO2 
 PCOD9072203
Probable space group: P -1
;
_chemical_formula_sum "Si O2"
_cell_formula_units_Z 11
_cell_length_a 11.788047
_cell_length_b 11.473205
_cell_length_c 9.418968
_cell_angle_alpha 39.198931
_cell_angle_beta 106.123781
_cell_angle_gamma 135.040819
_cell_volume 452.512967
_symmetry_space_group_name_H-M "P -1"
_symmetry_group_IT_number 2
_symmetry_cell_setting 'triclinic'
loop_
_space_group_symop_operation_xyz
x,y,z
-x,-y,-z
loop_
_atom_site_type_symbol
_atom_site_label
_atom_site_fract_x
_atom_site_fract_y
_atom_site_fract_z
Si Si1 0.928073 0.222678 0.664415
Si Si2 0.000000 0.500000 0.000000
Si Si3 0.267281 0.223986 0.338250
Si Si4 0.280123 0.756397 0.589774
Si Si5 0.299374 0.391748 0.863590
Si Si6 0.847539 0.567359 0.731692
O O1 0.732866 0.062986 0.662051
O O2 0.000000 0.500000 0.500000
O O3 0.096396 0.371144 0.469695
O O4 0.829318 0.915221 0.984021
O O5 0.217879 0.708899 0.969273
O O6 0.896296 0.455198 0.156925
O O7 0.466951 0.362553 0.300423
O O8 0.246335 0.364740 0.308798
O O9 0.253687 0.294649 0.108564
O O10 0.069868 0.838509 0.640509
O O11 0.245631 0.535543 0.685783
O O12 0.500000 0.000000 0.500000
#
# Coordination Sequence:
#
# PCOD9072203 Si02
#       6
#     2   1   2   2   2   2
#     4  10  23  38  53  80 116 154 187 221 280 344
#     4  10  18  30  52  88 112 130 182 238 280 324
#     4   9  16  30  52  84 103 135 182 234 288 318
#     4  11  21  36  61  89 110 143 191 240 281 334
#     4  10  18  33  56  78 112 145 179 234 281 326
#     4   9  17  30  53  77 110 138 179 235 277 328
#
# _framework density 24.308696999999999
#
# number of rings (size 3 to 8) (size 9 to 14) (size 15 to 20)
#    0.000    2.182    1.818    4.364    0.000    0.727 
#    0.000    0.909    0.000    1.091    0.000    0.000 
#    0.000    0.000    0.000    0.000    0.000    0.000 
#
# Total GULP energy -61235.304827 kJ/mol
# GULP energy per Si atom -5566.845893 kJ/mol
# Density = 2.425337 g / cm^3
# Si number density = 24.308697 Si / 1000 Ang^3
#
#
#
# Elastic Constant Matrix: (Units=GPa)
#
#
# Indices 1 2 3 4 5 6 
#
# 1 207.5186 23.6426 36.1778 -3.3879 15.0043 -32.1449
# 2 23.6426 30.2747 10.6767 -12.8626 -1.2760 -19.8632
# 3 36.1778 10.6767 79.3982 -5.7670 9.2355 -10.2276
# 4 -3.3879 -12.8626 -5.7670 26.7272 -2.2903 10.4189
# 5 15.0043 -1.2760 9.2355 -2.2903 33.5883 1.4611
# 6 -32.1449 -19.8632 -10.2276 10.4189 1.4611 42.7791
#
#
#
# Elastic Compliance Matrix: (Units=1/GPa)
#
#
# Indices 1 2 3 4 5 6 
#
# 1 0.006193 -0.003170 -0.001826 -0.002734 -0.002724 0.003504
# 2 -0.003170 0.057329 -0.003021 0.019734 0.004964 0.018539
# 3 -0.001826 -0.003021 0.014342 0.000925 -0.003203 0.000538
# 4 -0.002734 0.019734 0.000925 0.049091 0.005273 -0.004806
# 5 -0.002724 0.004964 -0.003203 0.005273 0.032544 -0.002904
# 6 0.003504 0.018539 0.000538 -0.004806 -0.002904 0.036016
#
#
# Mechanical properties :
#
#
# Convention : Reuss Voigt Hill
#
# Bulk Modulus (GPa) = 16.17309 50.90951 33.54130
# Shear Modulus (GPa) = 21.53703 37.06520 29.30111
#
# Velocity S-wave (km/s) = 2.97977 3.90907 3.47562
# Velocity P-wave (km/s) = 4.30190 6.43139 5.47125
#
# Compressibility (1/GPa) = 0.06183111
#
# Stress axis : x y z
#
# Youngs Moduli (GPa) = 161.45992 17.44329 69.72484
#
# Poissons Ratio (x) = 0.05529 0.12733
# Poissons Ratio (y) = 0.51180 0.21061
# Poissons Ratio (z) = 0.29485 0.05269
#
# Static dielectric constant tensor:
#      x y z
#    x 1.997880 0.071940 0.200050 
#    y 0.071940 2.207380 0.059980 
#    z 0.200050 0.059980 2.368620 
# 
# From -- ./inp_files/146569.got.cif
#   From: 2010.05.17/outbox.cif.g08.bks.cpg/sg2_74_cif.got.tgz:146569.got - 2010.06.03 11:33:40.
