data_PCOD9072050
_publ_section_title
;
Structure prediction by ZEFSAII (Michael W. Deem and Ramdas Pophale) SiO2 
 PCOD9072050
Probable space group: P -1
;
_chemical_formula_sum "Si O2"
_cell_formula_units_Z 16
_cell_length_a 20.931446
_cell_length_b 14.889440
_cell_length_c 23.750177
_cell_angle_alpha 20.829062
_cell_angle_beta 160.854297
_cell_angle_gamma 149.148242
_cell_volume 844.029563
_symmetry_space_group_name_H-M "P -1"
_symmetry_group_IT_number 2
_symmetry_cell_setting 'triclinic'
loop_
_space_group_symop_operation_xyz
x,y,z
-x,-y,-z
loop_
_atom_site_type_symbol
_atom_site_label
_atom_site_fract_x
_atom_site_fract_y
_atom_site_fract_z
Si Si1 0.664887 0.805087 0.215828
Si Si2 0.927855 0.194849 0.376956
Si Si3 0.898160 0.762677 0.986928
Si Si4 0.533799 0.668270 0.530439
Si Si5 0.803524 0.882331 0.549116
Si Si6 0.689801 0.237326 0.601090
Si Si7 0.139389 0.668507 0.135942
Si Si8 0.194973 0.882606 0.940446
O O1 0.874184 0.801081 0.424019
O O2 0.629219 0.516305 0.357903
O O3 0.687443 0.918100 0.106446
O O4 0.500000 0.000000 0.000000
O O5 0.847775 0.483650 0.119159
O O6 0.000000 0.000000 0.500000
O O7 0.780679 0.081604 0.361829
O O8 0.100873 0.765337 0.190043
O O9 0.960555 0.779567 0.964049
O O10 0.734574 0.999974 0.734639
O O11 0.616530 0.856855 0.446422
O O12 0.469810 0.779412 0.473318
O O13 0.339027 0.599845 0.379689
O O14 0.695844 0.401647 0.824032
O O15 0.884124 0.598053 0.756062
O O16 0.972655 0.940193 0.697412
O O17 0.179772 0.857211 0.009528
#
# Coordination Sequence:
#
# PCOD9072050 Si02
#       8
#     2   2   2   2   2   2   2   2
#     4  10  19  32  52  76 100 130 167 209 249 291
#     4  10  19  32  52  76 100 130 167 209 249 291
#     4   9  18  33  52  74 100 132 170 207 246 295
#     4  10  18  30  51  74  98 130 168 206 242 292
#     4  10  19  30  48  74 104 130 158 205 256 296
#     4   9  18  33  52  74 100 132 170 207 246 295
#     4  10  18  30  51  74  98 130 168 206 242 292
#     4  10  19  30  48  74 104 130 158 205 256 296
#
# _framework density 18.956683000000002
#
# number of rings (size 3 to 8) (size 9 to 14) (size 15 to 20)
#    0.000    2.250    2.500    3.000    0.000    1.000 
#    0.000    1.250    0.000    6.750    0.000    0.000 
#    0.000    0.000    0.000    0.000    0.000    0.000 
#
# Total GULP energy -89260.232324 kJ/mol
# GULP energy per Si atom -5578.764520 kJ/mol
# Density = 1.891354 g / cm^3
# Si number density = 18.956683 Si / 1000 Ang^3
#
#
#
# Elastic Constant Matrix: (Units=GPa)
#
#
# Indices 1 2 3 4 5 6 
#
# 1 171.9708 44.4611 52.3562 -42.6833 11.6378 32.4126
# 2 44.4611 43.6290 23.3323 -23.6176 0.5114 8.6490
# 3 52.3562 23.3323 58.7464 -29.5675 6.9907 7.2803
# 4 -42.6833 -23.6176 -29.5675 35.2406 -4.8557 -8.4388
# 5 11.6378 0.5114 6.9907 -4.8557 18.8378 -9.3651
# 6 32.4126 8.6490 7.2803 -8.4388 -9.3651 20.8838
#
#
#
# Elastic Compliance Matrix: (Units=1/GPa)
#
#
# Indices 1 2 3 4 5 6 
#
# 1 0.017463 -0.008193 -0.005304 -0.000220 -0.025180 -0.033241
# 2 -0.008193 0.041145 -0.001725 0.021324 0.016105 0.012117
# 3 -0.005304 -0.001725 0.032216 0.020857 -0.000259 0.006027
# 4 -0.000220 0.021324 0.020857 0.067331 0.019127 0.020023
# 5 -0.025180 0.016105 -0.000259 0.019127 0.119978 0.094033
# 6 -0.033241 0.012117 0.006027 0.020023 0.094033 0.142617
#
#
# Mechanical properties :
#
#
# Convention : Reuss Voigt Hill
#
# Bulk Modulus (GPa) = 16.56183 57.18283 36.87233
# Shear Modulus (GPa) = 10.60850 25.27220 17.94035
#
# Velocity S-wave (km/s) = 2.36819 3.65520 3.07968
# Velocity P-wave (km/s) = 4.02907 6.93141 5.66912
#
# Compressibility (1/GPa) = 0.06037982
#
# Stress axis : x y z
#
# Youngs Moduli (GPa) = 57.26502 24.30416 31.04073
#
# Poissons Ratio (x) = 0.19913 0.16463
# Poissons Ratio (y) = 0.46919 0.05354
# Poissons Ratio (z) = 0.30372 0.04192
#
# Static dielectric constant tensor:
#      x y z
#    x 1.672210 0.019150 -0.025620 
#    y 0.019150 1.668460 0.022650 
#    z -0.025620 0.022650 1.648750 
# 
# From -- ./inp_files/258196.got.cif
#   From: 2010.05.17/outbox.cif.g08.bks.cpg/sg2_130_cif.got.tgz:258196.got - 2010.06.03 11:33:40.
