data_PCOD9072567
_publ_section_title
;
Structure prediction by ZEFSAII (Michael W. Deem and Ramdas Pophale) SiO2 
 PCOD9072567
Probable space group: P -1
;
_chemical_formula_sum "Si O2"
_cell_formula_units_Z 16
_cell_length_a 9.000000
_cell_length_b 18.000000
_cell_length_c 15.000000
_cell_angle_alpha 140.000000
_cell_angle_beta 30.000000
_cell_angle_gamma 140.000000
_cell_volume 740.097418
_symmetry_space_group_name_H-M "P -1"
_symmetry_group_IT_number 2
_symmetry_cell_setting 'triclinic'
loop_
_space_group_symop_operation_xyz
x,y,z
-x,-y,-z
loop_
_atom_site_type_symbol
_atom_site_label
_atom_site_fract_x
_atom_site_fract_y
_atom_site_fract_z
Si Si1 0.340289 0.493248 0.846879
Si Si2 0.122891 0.256947 0.850718
Si Si3 0.853993 0.885788 0.032076
Si Si4 0.263005 0.141993 0.397179
Si Si5 0.176528 0.020998 0.669620
Si Si6 0.297788 0.888698 0.203017
Si Si7 0.180610 0.361335 0.120748
Si Si8 0.601863 0.437207 0.476738
O O1 0.293140 0.360112 0.788498
O O2 0.513993 0.576570 0.917975
O O3 0.521489 0.499685 0.665187
O O4 0.000000 0.500000 0.000000
O O5 0.243392 0.141696 0.686233
O O6 0.778411 0.193106 0.923867
O O7 0.180470 0.317164 0.975949
O O8 0.909179 0.940531 0.153500
O O9 0.508955 0.848110 0.129583
O O10 0.962766 0.766799 0.869809
O O11 0.000000 0.000000 0.000000
O O12 0.443542 0.287155 0.421520
O O13 0.022779 0.134352 0.596091
O O14 0.409177 0.032751 0.247943
O O15 0.071446 0.086837 0.354912
O O16 0.500000 0.000000 0.500000
O O17 0.968786 0.449092 0.304475
O O18 0.500000 0.500000 0.500000
#
# Coordination Sequence:
#
# PCOD9072567 Si02
#       8
#     2   2   2   2   2   2   2   2
#     4  12  25  45  72  93 126 178 223 274 333 395
#     4  10  22  40  65  95 126 169 219 271 323 394
#     4  11  23  38  63  95 135 169 214 273 342 391
#     4  10  21  38  66  92 130 170 220 271 326 390
#     4  10  21  36  61  96 129 166 220 270 322 390
#     4  10  19  39  67  97 125 170 219 270 328 393
#     4  11  26  44  63  98 136 169 224 276 331 400
#     4  12  27  45  65  98 136 178 222 274 336 395
#
# _framework density 21.618776
#
# number of rings (size 3 to 8) (size 9 to 14) (size 15 to 20)
#    0.000    1.250    2.500    3.000    0.000    4.000 
#    0.000    3.750    0.000    0.000    0.000    0.000 
#    0.000    0.000    0.000    0.000    0.000    0.000 
#
# Total GULP energy -89084.512641 kJ/mol
# GULP energy per Si atom -5567.782040 kJ/mol
# Density = 2.156957 g / cm^3
# Si number density = 21.618776 Si / 1000 Ang^3
#
#
#
# Elastic Constant Matrix: (Units=GPa)
#
#
# Indices 1 2 3 4 5 6 
#
# 1 185.1037 32.0640 36.4446 7.8176 7.7826 5.7616
# 2 32.0640 96.9116 -2.4822 10.5538 2.8763 -9.2866
# 3 36.4446 -2.4822 61.8442 8.6796 -4.4091 2.6147
# 4 7.8176 10.5538 8.6796 18.1475 2.4240 5.8038
# 5 7.7826 2.8763 -4.4091 2.4240 34.8673 11.5299
# 6 5.7616 -9.2866 2.6147 5.8038 11.5299 58.6929
#
#
#
# Elastic Compliance Matrix: (Units=1/GPa)
#
#
# Indices 1 2 3 4 5 6 
#
# 1 0.006722 -0.002453 -0.004297 0.001013 -0.001706 -0.000622
# 2 -0.002453 0.012436 0.002973 -0.008494 -0.000509 0.003016
# 3 -0.004297 0.002973 0.020539 -0.010300 0.003955 0.000219
# 4 0.001013 -0.008494 -0.010300 0.067198 -0.003183 -0.007004
# 5 -0.001706 -0.000509 0.003955 -0.003183 0.031817 -0.006025
# 6 -0.000622 0.003016 0.000219 -0.007004 -0.006025 0.019442
#
#
# Mechanical properties :
#
#
# Convention : Reuss Voigt Hill
#
# Bulk Modulus (GPa) = 31.11166 52.87913 41.99540
# Shear Modulus (GPa) = 28.34102 40.86375 34.60238
#
# Velocity S-wave (km/s) = 3.62462 4.35236 4.00505
# Velocity P-wave (km/s) = 5.65150 7.05480 6.39178
#
# Compressibility (1/GPa) = 0.03214229
#
# Stress axis : x y z
#
# Youngs Moduli (GPa) = 148.77263 80.41442 48.68670
#
# Poissons Ratio (x) = 0.19727 0.20921
# Poissons Ratio (y) = 0.36497 -0.14475
# Poissons Ratio (z) = 0.63928 -0.23908
#
# Static dielectric constant tensor:
#      x y z
#    x 2.159150 -0.007280 -0.049840 
#    y -0.007280 1.894050 -0.034930 
#    z -0.049840 -0.034930 1.858780 
# 
# From -- ./inp_files/187406.got.cif
#   From: 2010.05.17/outbox.ucp.g08.bks.cvg/sg2_94_cif.got.tgz:187406.got - 2010.06.11 11:32:03.
