data_PCOD9072489
_publ_section_title
;
Structure prediction by ZEFSAII (Michael W. Deem and Ramdas Pophale) SiO2 
 PCOD9072489
Probable space group: P -1
;
_chemical_formula_sum "Si O2"
_cell_formula_units_Z 16
_cell_length_a 9.000000
_cell_length_b 27.000000
_cell_length_c 12.000000
_cell_angle_alpha 20.000000
_cell_angle_beta 130.000000
_cell_angle_gamma 130.000000
_cell_volume 755.591058
_symmetry_space_group_name_H-M "P -1"
_symmetry_group_IT_number 2
_symmetry_cell_setting 'triclinic'
loop_
_space_group_symop_operation_xyz
x,y,z
-x,-y,-z
loop_
_atom_site_type_symbol
_atom_site_label
_atom_site_fract_x
_atom_site_fract_y
_atom_site_fract_z
Si Si1 0.830775 0.377034 0.281548
Si Si2 0.784986 0.542948 0.296210
Si Si3 0.443246 0.847007 0.230806
Si Si4 0.626382 0.619165 0.537523
Si Si5 0.931152 0.057570 0.228407
Si Si6 0.038681 0.175340 0.646138
Si Si7 0.181155 0.355589 0.649442
Si Si8 0.842041 0.774113 0.632586
O O1 0.661759 0.282562 0.469116
O O2 0.902679 0.259174 0.481926
O O3 0.003770 0.424808 0.354930
O O4 0.747028 0.503006 0.904965
O O5 0.598165 0.417991 0.454445
O O6 0.757520 0.601442 0.285302
O O7 0.000000 0.500000 0.500000
O O8 0.796343 0.651636 0.965243
O O9 0.649819 0.793538 0.426897
O O10 0.277773 0.881041 0.992151
O O11 0.500000 0.000000 0.000000
O O12 0.749045 0.773348 0.303775
O O13 0.649655 0.613628 0.426546
O O14 0.904666 0.922649 0.416447
O O15 0.000000 0.000000 0.500000
O O16 0.084055 0.186598 0.975933
O O17 0.012636 0.233503 0.384560
O O18 0.000000 0.000000 0.000000
#
# Coordination Sequence:
#
# PCOD9072489 Si02
#       8
#     2   2   2   2   2   2   2   2
#     4  10  21  40  69  95 122 173 226 267 325 401
#     4  12  27  41  62  96 136 175 217 277 336 383
#     4   9  18  35  62  93 123 164 215 260 315 394
#     4  11  24  44  68  94 129 179 228 267 327 411
#     4  10  19  37  65  96 126 167 214 266 330 396
#     4  11  23  41  68 100 132 162 216 287 335 381
#     4  10  21  41  65  92 128 170 217 268 328 399
#     4  11  22  40  63  94 130 166 216 272 331 380
#
# _framework density 21.175476
#
# number of rings (size 3 to 8) (size 9 to 14) (size 15 to 20)
#    0.000    1.500    2.500    4.875    3.500    2.500 
#    0.000    0.000    0.000    1.500    0.000    0.000 
#    0.000    0.000    0.000    0.000    0.000    0.000 
#
# Total GULP energy -89188.672254 kJ/mol
# GULP energy per Si atom -5574.292016 kJ/mol
# Density = 2.112728 g / cm^3
# Si number density = 21.175476 Si / 1000 Ang^3
#
#
#
# Elastic Constant Matrix: (Units=GPa)
#
#
# Indices 1 2 3 4 5 6 
#
# 1 44.5133 34.3058 24.0380 -0.4461 -8.2432 -7.2900
# 2 34.3058 86.4192 36.6658 -2.4718 -4.9030 -3.4787
# 3 24.0380 36.6658 113.0201 9.7144 -18.6900 6.1648
# 4 -0.4461 -2.4718 9.7144 45.9322 0.3771 -16.0450
# 5 -8.2432 -4.9030 -18.6900 0.3771 29.2726 6.4652
# 6 -7.2900 -3.4787 6.1648 -16.0450 6.4652 43.3991
#
#
#
# Elastic Compliance Matrix: (Units=1/GPa)
#
#
# Indices 1 2 3 4 5 6 
#
# 1 0.035362 -0.012056 -0.003374 0.002344 0.004507 0.005648
# 2 -0.012056 0.018020 -0.004089 0.002201 -0.003304 0.001306
# 3 -0.003374 -0.004089 0.012968 -0.005091 0.007994 -0.005810
# 4 0.002344 0.002201 -0.005091 0.027281 -0.005259 0.012163
# 5 0.004507 -0.003304 0.007994 -0.005259 0.042002 -0.008845
# 6 0.005648 0.001306 -0.005810 0.012163 -0.008845 0.030735
#
#
# Mechanical properties :
#
#
# Convention : Reuss Voigt Hill
#
# Bulk Modulus (GPa) = 36.61295 48.21909 42.41602
# Shear Modulus (GPa) = 23.30892 33.65031 28.47961
#
# Velocity S-wave (km/s) = 3.32136 3.99070 3.67131
# Velocity P-wave (km/s) = 5.66006 6.63738 6.16811
#
# Compressibility (1/GPa) = 0.02731274
#
# Stress axis : x y z
#
# Youngs Moduli (GPa) = 28.27926 55.49358 77.11022
#
# Poissons Ratio (x) = 0.66902 0.26019
# Poissons Ratio (y) = 0.34093 0.31528
# Poissons Ratio (z) = 0.09542 0.22690
#
# Static dielectric constant tensor:
#      x y z
#    x 1.900940 -0.000510 0.043890 
#    y -0.000510 1.786310 -0.012790 
#    z 0.043890 -0.012790 1.736950 
# 
# From -- ./inp_files/407306.got.cif
#   From: 2010.05.17/outbox.ucp.g08.bks.cvg/sg2_204_cif.got.tgz:407306.got - 2010.06.11 11:32:03.
