data_PCOD9072762
_publ_section_title
;
Structure prediction by ZEFSAII (Michael W. Deem and Ramdas Pophale) SiO2 
 PCOD9072762
Probable space group: P -1
;
_chemical_formula_sum "Si O2"
_cell_formula_units_Z 16
_cell_length_a 12.000000
_cell_length_b 12.000000
_cell_length_c 12.000000
_cell_angle_alpha 70.000000
_cell_angle_beta 140.000000
_cell_angle_gamma 80.000000
_cell_volume 722.981415
_symmetry_space_group_name_H-M "P -1"
_symmetry_group_IT_number 2
_symmetry_cell_setting 'triclinic'
loop_
_space_group_symop_operation_xyz
x,y,z
-x,-y,-z
loop_
_atom_site_type_symbol
_atom_site_label
_atom_site_fract_x
_atom_site_fract_y
_atom_site_fract_z
Si Si1 0.052428 0.126409 0.114096
Si Si2 0.783115 0.915533 0.516105
Si Si3 0.774444 0.762645 0.941118
Si Si4 0.894745 0.263918 0.606828
Si Si5 0.263049 0.409909 0.671244
Si Si6 0.623352 0.253230 0.589027
Si Si7 0.696949 0.012118 0.168142
Si Si8 0.817174 0.615335 0.640356
O O1 0.036485 0.125058 0.235036
O O2 0.174227 0.189833 0.148406
O O3 0.239004 0.939212 0.264668
O O4 0.785149 0.239662 0.813143
O O5 0.822035 0.933406 0.412217
O O6 0.790959 0.768920 0.576563
O O7 0.509840 0.095176 0.286133
O O8 0.927723 0.758183 0.156883
O O9 0.899808 0.574022 0.078283
O O10 0.747306 0.443305 0.372389
O O11 0.692123 0.289184 0.515031
O O12 0.088811 0.102014 0.725911
O O13 0.264756 0.380366 0.549713
O O14 0.000000 0.500000 0.500000
O O15 0.510998 0.217288 0.965481
O O16 0.354062 0.361704 0.402418
O O17 0.500000 0.000000 0.000000
#
# Coordination Sequence:
#
# PCOD9072762 Si02
#       8
#     2   2   2   2   2   2   2   2
#     4  10  23  39  63  88 133 163 201 259 314 364
#     4  12  22  40  62  97 127 159 208 266 305 361
#     4  10  20  36  62  95 124 153 204 259 313 360
#     4  10  21  38  60  91 124 159 205 257 300 370
#     4  11  20  35  60  97 121 155 208 264 298 355
#     4  10  23  44  64  91 127 169 206 250 317 387
#     4  12  20  35  64  89 122 166 207 250 312 361
#     4  11  22  37  69  95 122 164 208 255 316 372
#
# _framework density 22.130583000000001
#
# number of rings (size 3 to 8) (size 9 to 14) (size 15 to 20)
#    0.000    1.250    5.000    1.125    3.500    5.000 
#    0.000    0.625    0.000    0.750    0.000    0.000 
#    0.000    0.000    0.000    0.000    0.000    0.000 
#
# Total GULP energy -89430.262235 kJ/mol
# GULP energy per Si atom -5589.391390 kJ/mol
# Density = 2.208021 g / cm^3
# Si number density = 22.130583 Si / 1000 Ang^3
#
#
#
# Elastic Constant Matrix: (Units=GPa)
#
#
# Indices 1 2 3 4 5 6 
#
# 1 142.6929 52.8521 38.7741 -19.8127 -6.4922 -21.6871
# 2 52.8521 67.3835 50.1605 -32.0201 5.0231 -20.2492
# 3 38.7741 50.1605 49.1098 -26.5744 -10.4720 -3.4664
# 4 -19.8127 -32.0201 -26.5744 49.3357 -13.1417 -9.8260
# 5 -6.4922 5.0231 -10.4720 -13.1417 32.9606 -2.3203
# 6 -21.6871 -20.2492 -3.4664 -9.8260 -2.3203 40.6337
#
#
#
# Elastic Compliance Matrix: (Units=1/GPa)
#
#
# Indices 1 2 3 4 5 6 
#
# 1 0.010979 -0.023825 0.019114 0.001904 0.012399 -0.003214
# 2 -0.023825 0.471924 -0.495940 0.004426 -0.220543 0.168629
# 3 0.019114 -0.495940 0.573023 0.031347 0.262248 -0.165504
# 4 0.001904 0.004426 0.031347 0.053565 0.032474 0.020703
# 5 0.012399 -0.220543 0.262248 0.032474 0.158151 -0.064031
# 6 -0.003214 0.168629 -0.165504 0.020703 -0.064031 0.094160
#
#
# Mechanical properties :
#
#
# Convention : Reuss Voigt Hill
#
# Bulk Modulus (GPa) = 18.30704 60.30662 39.30683
# Shear Modulus (GPa) = 2.09968 32.41265 17.25617
#
# Velocity S-wave (km/s) = 0.97510 3.83117 2.79542
# Velocity P-wave (km/s) = 3.09160 6.84690 5.31216
#
# Compressibility (1/GPa) = 0.05462379
#
# Stress axis : x y z
#
# Youngs Moduli (GPa) = 91.08514 2.11898 1.74513
#
# Poissons Ratio (x) = 0.05048 -0.03336
# Poissons Ratio (y) = 2.17006 0.86548
# Poissons Ratio (z) = -1.74096 1.05089
#
# Static dielectric constant tensor:
#      x y z
#    x 1.823680 0.049590 -0.063170 
#    y 0.049590 1.819620 0.007970 
#    z -0.063170 0.007970 1.865900 
# 
# From -- ./inp_files/428037.got.cif
#   From: 2010.05.17/outbox.ucp.g08.bks.cvg/sg2_215_cif.got.tgz:428037.got - 2010.06.11 11:32:03.
