data_PCOD9072538
_publ_section_title
;
Structure prediction by ZEFSAII (Michael W. Deem and Ramdas Pophale) SiO2 
 PCOD9072538
Probable space group: P -1
;
_chemical_formula_sum "Si O2"
_cell_formula_units_Z 14
_cell_length_a 5.402815
_cell_length_b 13.275871
_cell_length_c 13.279371
_cell_angle_alpha 135.460832
_cell_angle_beta 104.567918
_cell_angle_gamma 76.888767
_cell_volume 645.006303
_symmetry_space_group_name_H-M "P -1"
_symmetry_group_IT_number 2
_symmetry_cell_setting 'triclinic'
loop_
_space_group_symop_operation_xyz
x,y,z
-x,-y,-z
loop_
_atom_site_type_symbol
_atom_site_label
_atom_site_fract_x
_atom_site_fract_y
_atom_site_fract_z
Si Si1 0.790556 0.135425 0.694604
Si Si2 0.565596 0.862513 0.734172
Si Si3 0.834855 0.134389 0.935776
Si Si4 0.821680 0.642657 0.461899
Si Si5 0.327986 0.615370 0.628879
Si Si6 0.616921 0.886344 0.012464
Si Si7 0.793791 0.808820 0.383155
O O1 0.506012 0.197214 0.677751
O O2 0.017820 0.199074 0.699008
O O3 0.808238 0.156644 0.830846
O O4 0.812358 0.965244 0.548728
O O5 0.808284 0.962588 0.834761
O O6 0.606215 0.760242 0.568993
O O7 0.495767 0.753470 0.738765
O O8 0.346761 0.994556 0.806301
O O9 0.598953 0.204381 0.026245
O O10 0.106487 0.180499 0.031744
O O11 0.742117 0.479993 0.351039
O O12 0.877661 0.688833 0.388416
O O13 0.065580 0.654994 0.569440
O O14 0.500000 0.500000 0.500000
O O15 0.500000 0.000000 0.000000
#
# Coordination Sequence:
#
# PCOD9072538 Si02
#       7
#     2   2   2   2   2   2   2
#     4  10  20  30  43  69  91 137 160 197 227 277
#     4   9  19  28  51  65 101 129 163 193 246 287
#     4  10  19  32  49  65 104 127 159 191 245 287
#     4  10  18  31  45  69  99 138 165 203 232 276
#     4   9  19  30  46  67  95 136 169 195 244 286
#     4  10  20  32  51  74  97 127 158 201 245 299
#     4  10  20  28  46  65  98 123 178 192 220 273
#
# _framework density 21.705214000000002
#
# number of rings (size 3 to 8) (size 9 to 14) (size 15 to 20)
#    0.857    1.429    1.429    2.143    4.000    0.000 
#    0.000    0.000    0.000    0.000    0.000    0.000 
#    0.000    6.857    0.000    0.000    0.000    0.000 
#
# Total GULP energy -77961.849035 kJ/mol
# GULP energy per Si atom -5568.703503 kJ/mol
# Density = 2.165581 g / cm^3
# Si number density = 21.705214 Si / 1000 Ang^3
#
#
#
# Elastic Constant Matrix: (Units=GPa)
#
#
# Indices 1 2 3 4 5 6 
#
# 1 127.8257 49.9128 13.6369 -16.3540 5.3220 35.7284
# 2 49.9128 105.9817 22.4274 -18.8409 -0.4995 25.6495
# 3 13.6369 22.4274 37.3031 -8.7976 4.9163 10.3387
# 4 -16.3540 -18.8409 -8.7976 41.3935 8.7741 -10.6297
# 5 5.3220 -0.4995 4.9163 8.7741 27.0439 -7.6625
# 6 35.7284 25.6495 10.3387 -10.6297 -7.6625 30.8063
#
#
#
# Elastic Compliance Matrix: (Units=1/GPa)
#
#
# Indices 1 2 3 4 5 6 
#
# 1 0.013698 -0.002831 0.002755 0.002476 -0.008505 -0.015715
# 2 -0.002831 0.013667 -0.004829 0.002784 -0.000837 -0.005723
# 3 0.002755 -0.004829 0.035022 0.005868 -0.012290 -0.011960
# 4 0.002476 0.002784 0.005868 0.030133 -0.011147 0.000466
# 5 -0.008505 -0.000837 -0.012290 -0.011147 0.051163 0.023565
# 6 -0.015715 -0.005723 -0.011960 0.000466 0.023565 0.065488
#
#
# Mechanical properties :
#
#
# Convention : Reuss Voigt Hill
#
# Bulk Modulus (GPa) = 19.01964 49.22940 34.12452
# Shear Modulus (GPa) = 21.14111 32.19097 26.66604
#
# Velocity S-wave (km/s) = 3.12430 3.85528 3.50888
# Velocity P-wave (km/s) = 4.66870 6.52286 5.67206
#
# Compressibility (1/GPa) = 0.05257724
#
# Stress axis : x y z
#
# Youngs Moduli (GPa) = 73.00347 73.17119 28.55346
#
# Poissons Ratio (x) = 0.20712 -0.07865
# Poissons Ratio (y) = 0.20664 0.13788
# Poissons Ratio (z) = -0.20110 0.35332
#
# Static dielectric constant tensor:
#      x y z
#    x 1.940980 0.023200 0.071300 
#    y 0.023200 1.766520 -0.012670 
#    z 0.071300 -0.012670 2.060630 
# 
# From -- ./inp_files/96191.got.cif
#   From: 2010.05.17/outbox.cif.g08.bks.cpg/sg2_49_cif.got.tgz:96191.got - 2010.06.03 11:33:40.
