data_PCOD9072897
_publ_section_title
;
Structure prediction by ZEFSAII (Michael W. Deem and Ramdas Pophale) SiO2 
 PCOD9072897
Probable space group: P -1
;
_chemical_formula_sum "Si O2"
_cell_formula_units_Z 14
_cell_length_a 9.000000
_cell_length_b 18.000000
_cell_length_c 12.000000
_cell_angle_alpha 150.000000
_cell_angle_beta 50.000000
_cell_angle_gamma 140.000000
_cell_volume 623.501542
_symmetry_space_group_name_H-M "P -1"
_symmetry_group_IT_number 2
_symmetry_cell_setting 'triclinic'
loop_
_space_group_symop_operation_xyz
x,y,z
-x,-y,-z
loop_
_atom_site_type_symbol
_atom_site_label
_atom_site_fract_x
_atom_site_fract_y
_atom_site_fract_z
Si Si1 0.958010 0.736780 0.986203
Si Si2 0.920938 0.313929 0.739221
Si Si3 0.078119 0.783450 0.731100
Si Si4 0.712682 0.686354 0.598319
Si Si5 0.525547 0.108343 0.019728
Si Si6 0.309716 0.643493 0.304036
Si Si7 0.190160 0.037721 0.547760
O O1 0.756094 0.555978 0.907620
O O2 0.995441 0.728096 0.825398
O O3 0.199126 0.791841 0.005309
O O4 0.884683 0.878909 0.210944
O O5 0.740868 0.299867 0.716353
O O6 0.138675 0.330694 0.591536
O O7 0.819236 0.136758 0.633160
O O8 0.000000 0.500000 0.000000
O O9 0.124978 0.642022 0.473568
O O10 0.891287 0.783024 0.740666
O O11 0.331130 0.968070 0.845396
O O12 0.500000 0.500000 0.500000
O O13 0.579416 0.778303 0.747514
O O14 0.500000 0.000000 0.000000
O O15 0.568616 0.802510 0.410837
O O16 0.000000 0.000000 0.500000
#
# Coordination Sequence:
#
# PCOD9072897 Si02
#       7
#     2   2   2   2   2   2   2
#     4  11  23  43  68  99 132 171 216 269 327 388
#     4  11  25  46  67  94 131 175 219 269 326 387
#     4  10  22  39  66  97 130 169 215 269 326 385
#     4  11  24  41  66  98 130 167 217 269 326 388
#     4  10  20  38  63  93 128 166 208 261 320 383
#     4  11  24  43  66  95 131 173 219 268 324 387
#     4  12  26  44  66  96 132 175 220 267 323 390
#
# _framework density 22.453834000000001
#
# number of rings (size 3 to 8) (size 9 to 14) (size 15 to 20)
#    0.000    1.143    0.000    6.857    0.000    6.857 
#    0.000    0.000    0.000    0.000    0.000    0.000 
#    0.000    0.000    0.000    0.000    0.000    0.000 
#
# Total GULP energy -78158.984187 kJ/mol
# GULP energy per Si atom -5582.784585 kJ/mol
# Density = 2.240273 g / cm^3
# Si number density = 22.453834 Si / 1000 Ang^3
#
#
#
# Elastic Constant Matrix: (Units=GPa)
#
#
# Indices 1 2 3 4 5 6 
#
# 1 106.4525 51.0251 54.4613 7.3787 -13.9338 -1.3203
# 2 51.0251 120.7146 29.2256 29.4530 0.6493 6.8324
# 3 54.4613 29.2256 96.7279 22.0037 -22.3951 -13.8367
# 4 7.3787 29.4530 22.0037 35.3777 -5.1115 0.0612
# 5 -13.9338 0.6493 -22.3951 -5.1115 34.9970 3.6198
# 6 -1.3203 6.8324 -13.8367 0.0612 3.6198 39.3165
#
#
#
# Elastic Compliance Matrix: (Units=1/GPa)
#
#
# Indices 1 2 3 4 5 6 
#
# 1 0.017100 -0.006965 -0.009046 0.008226 0.002520 -0.001644
# 2 -0.006965 0.013831 0.001193 -0.011340 -0.003731 -0.001857
# 3 -0.009046 0.001193 0.019914 -0.010494 0.006980 0.005871
# 4 0.008226 -0.011340 -0.010494 0.042989 0.003236 -0.001811
# 5 0.002520 -0.003731 0.006980 0.003236 0.034585 0.000000
# 6 -0.001644 -0.001857 0.005871 -0.001811 0.000000 0.027771
#
#
# Mechanical properties :
#
#
# Convention : Reuss Voigt Hill
#
# Bulk Modulus (GPa) = 47.15118 65.92433 56.53775
# Shear Modulus (GPa) = 25.92050 34.55045 30.23547
#
# Velocity S-wave (km/s) = 3.40132 3.92692 3.67353
# Velocity P-wave (km/s) = 6.03904 7.06998 6.57475
#
# Compressibility (1/GPa) = 0.02120838
#
# Stress axis : x y z
#
# Youngs Moduli (GPa) = 58.48003 72.29961 50.21557
#
# Poissons Ratio (x) = 0.50359 0.45426
# Poissons Ratio (y) = 0.40733 -0.05991
# Poissons Ratio (z) = 0.52902 -0.08626
#
# Static dielectric constant tensor:
#      x y z
#    x 1.825930 0.033130 0.041360 
#    y 0.033130 1.830550 -0.021460 
#    z 0.041360 -0.021460 1.937640 
# 
# From -- ./inp_files/403521.got.cif
#   From: 2010.05.17/outbox.ucp.g08.bks.cvg/sg2_202_cif.got.tgz:403521.got - 2010.06.11 11:32:03.
