data_PCOD9072128
_publ_section_title
;
Structure prediction by ZEFSAII (Michael W. Deem and Ramdas Pophale) SiO2 
 PCOD9072128
Probable space group: P -1
;
_chemical_formula_sum "Si O2"
_cell_formula_units_Z 14
_cell_length_a 12.000000
_cell_length_b 12.000000
_cell_length_c 15.000000
_cell_angle_alpha 140.000000
_cell_angle_beta 30.000000
_cell_angle_gamma 130.000000
_cell_volume 692.779491
_symmetry_space_group_name_H-M "P -1"
_symmetry_group_IT_number 2
_symmetry_cell_setting 'triclinic'
loop_
_space_group_symop_operation_xyz
x,y,z
-x,-y,-z
loop_
_atom_site_type_symbol
_atom_site_label
_atom_site_fract_x
_atom_site_fract_y
_atom_site_fract_z
Si Si1 0.601985 0.097916 0.226868
Si Si2 0.840377 0.249820 0.318428
Si Si3 0.346428 0.275005 0.009675
Si Si4 0.280371 0.690373 0.894969
Si Si5 0.141922 0.317381 0.688288
Si Si6 0.767625 0.332797 0.625571
Si Si7 0.796680 0.643467 0.539258
O O1 0.721571 0.123841 0.255747
O O2 0.727308 0.199315 0.124374
O O3 0.348148 0.173989 0.463122
O O4 0.601664 0.897748 0.075439
O O5 0.792330 0.246051 0.456782
O O6 0.762773 0.442994 0.460144
O O7 0.106323 0.242414 0.113186
O O8 0.554031 0.280862 0.800484
O O9 0.293285 0.457275 0.210018
O O10 0.237723 0.493224 0.771268
O O11 0.535472 0.718717 0.769471
O O12 0.081783 0.726283 0.128123
O O13 0.111165 0.340797 0.616721
O O14 0.003367 0.304690 0.500137
#
# Coordination Sequence:
#
# PCOD9072128 Si02
#       7
#     2   2   2   2   2   2   2
#     4  11  21  39  62  94 125 147 199 263 295 344
#     4  11  21  38  63  90 120 160 199 247 298 356
#     4  10  23  40  59  88 125 161 201 243 297 355
#     4  10  20  36  61  92 118 158 199 247 308 348
#     4  10  20  36  61  92 120 155 198 250 303 356
#     4  10  24  41  61  88 121 168 202 233 298 371
#     4  10  18  37  61  87 119 155 204 247 283 362
#
# _framework density 20.208449999999999
#
# number of rings (size 3 to 8) (size 9 to 14) (size 15 to 20)
#    0.000    1.714    2.857    3.000    0.000    7.429 
#    0.000    2.857    0.000   15.429    0.000    0.000 
#    0.000    0.000    0.000    0.000    0.000    0.000 
#
# Total GULP energy -78057.892273 kJ/mol
# GULP energy per Si atom -5575.563734 kJ/mol
# Density = 2.016246 g / cm^3
# Si number density = 20.208450 Si / 1000 Ang^3
#
#
#
# Elastic Constant Matrix: (Units=GPa)
#
#
# Indices 1 2 3 4 5 6 
#
# 1 107.8516 31.0117 49.0509 -16.6488 12.0481 0.1240
# 2 31.0117 65.4735 61.7381 -17.2693 -3.7072 -12.8637
# 3 49.0509 61.7381 87.3231 -40.8394 -4.7556 0.3754
# 4 -16.6488 -17.2693 -40.8394 46.2180 -4.8195 -1.3119
# 5 12.0481 -3.7072 -4.7556 -4.8195 26.2793 -6.3453
# 6 0.1240 -12.8637 0.3754 -1.3119 -6.3453 12.7571
#
#
#
# Elastic Compliance Matrix: (Units=1/GPa)
#
#
# Indices 1 2 3 4 5 6 
#
# 1 0.015843 0.013775 -0.024739 -0.011809 -0.009960 0.008296
# 2 0.013775 0.294422 -0.263619 -0.104339 0.044678 0.316000
# 3 -0.024739 -0.263619 0.267331 0.118871 -0.021302 -0.271821
# 4 -0.011809 -0.104339 0.118871 0.080970 0.003234 -0.098660
# 5 -0.009960 0.044678 -0.021302 0.003234 0.064545 0.078212
# 6 0.008296 0.316000 -0.271821 -0.098660 0.078212 0.433705
#
#
# Mechanical properties :
#
#
# Convention : Reuss Voigt Hill
#
# Bulk Modulus (GPa) = 35.17546 60.47218 47.82382
# Shear Modulus (GPa) = 2.91467 24.97405 13.94436
#
# Velocity S-wave (km/s) = 1.20226 3.51924 2.62968
# Velocity P-wave (km/s) = 4.40129 6.81928 5.73907
#
# Compressibility (1/GPa) = 0.02842891
#
# Stress axis : x y z
#
# Youngs Moduli (GPa) = 63.12124 3.39648 3.74068
#
# Poissons Ratio (x) = -0.04679 0.09254
# Poissons Ratio (y) = -0.86947 0.98612
# Poissons Ratio (z) = 1.56154 0.89538
#
# Static dielectric constant tensor:
#      x y z
#    x 1.734890 -0.025550 -0.034770 
#    y -0.025550 1.734390 0.031170 
#    z -0.034770 0.031170 1.740240 
# 
# From -- ./inp_files/519204.got.cif
#   From: 2010.05.17/outbox.ucp.g08.bks.cvg/sg2_260_cif.got.tgz:519204.got - 2010.06.11 11:32:03.
