data_PCOD9072144
_publ_section_title
;
Structure prediction by ZEFSAII (Michael W. Deem and Ramdas Pophale) SiO2 
 PCOD9072144
Probable space group: P -1
;
_chemical_formula_sum "Si O2"
_cell_formula_units_Z 16
_cell_length_a 15.000000
_cell_length_b 12.000000
_cell_length_c 9.000000
_cell_angle_alpha 110.000000
_cell_angle_beta 100.000000
_cell_angle_gamma 30.000000
_cell_volume 734.803614
_symmetry_space_group_name_H-M "P -1"
_symmetry_group_IT_number 2
_symmetry_cell_setting 'triclinic'
loop_
_space_group_symop_operation_xyz
x,y,z
-x,-y,-z
loop_
_atom_site_type_symbol
_atom_site_label
_atom_site_fract_x
_atom_site_fract_y
_atom_site_fract_z
Si Si1 0.363673 0.389508 0.767357
Si Si2 0.524190 0.243891 0.437660
Si Si3 0.188966 0.720747 0.372856
Si Si4 0.424005 0.075178 0.679529
Si Si5 0.960532 0.809843 0.729530
Si Si6 0.698203 0.318281 0.922537
Si Si7 0.047077 0.220416 0.641035
Si Si8 0.998340 0.524472 0.688123
O O1 0.505272 0.268310 0.623860
O O2 0.445216 0.185402 0.790652
O O3 0.180496 0.560701 0.702198
O O4 0.287329 0.577188 0.936609
O O5 0.353222 0.512937 0.444305
O O6 0.494669 0.139537 0.332890
O O7 0.737202 0.031820 0.360267
O O8 0.284272 0.677149 0.244457
O O9 0.094834 0.705459 0.288744
O O10 0.000000 0.000000 0.500000
O O11 0.206475 0.301182 0.705058
O O12 0.500000 0.000000 0.500000
O O13 0.937150 0.827952 0.553229
O O14 0.893685 0.768017 0.777280
O O15 0.856151 0.041355 0.870505
O O16 0.500000 0.500000 0.000000
O O17 0.947039 0.462594 0.725688
O O18 0.000000 0.500000 0.500000
#
# Coordination Sequence:
#
# PCOD9072144 Si02
#       8
#     2   2   2   2   2   2   2   2
#     4  10  19  37  65  92 126 168 206 261 314 370
#     4  10  20  39  67  95 124 162 213 265 305 367
#     4  12  25  44  63  92 129 166 215 261 308 376
#     4   8  16  30  57  94 121 152 207 258 307 365
#     4  10  18  38  61  92 123 163 211 257 306 374
#     4  12  26  43  57  89 133 169 213 255 317 383
#     4  10  19  38  64  96 121 157 212 261 311 361
#     4   8  16  28  58  90 118 149 201 262 304 355
#
# _framework density 21.774525000000001
#
# number of rings (size 3 to 8) (size 9 to 14) (size 15 to 20)
#    0.000    2.000    2.500    1.125    1.750    1.500 
#    4.500    0.625    0.000    2.250    0.000    0.000 
#    0.000    0.000    0.000    0.000    0.000    0.000 
#
# Total GULP energy -89104.469066 kJ/mol
# GULP energy per Si atom -5569.029317 kJ/mol
# Density = 2.172497 g / cm^3
# Si number density = 21.774525 Si / 1000 Ang^3
#
#
#
# Elastic Constant Matrix: (Units=GPa)
#
#
# Indices 1 2 3 4 5 6 
#
# 1 41.4223 -26.1457 13.7754 -8.7917 -5.0058 8.9147
# 2 -26.1457 19.3026 12.3572 -14.3638 7.0838 6.9966
# 3 13.7754 12.3572 40.5348 14.3137 4.1622 16.0513
# 4 -8.7917 -14.3638 14.3137 18.4258 6.4460 9.3560
# 5 -5.0058 7.0838 4.1622 6.4460 31.9513 14.7873
# 6 8.9147 6.9966 16.0513 9.3560 14.7873 40.5495
#
#
#
# Elastic Compliance Matrix: (Units=1/GPa)
#
#
# Indices 1 2 3 4 5 6 
#
# 1 0.005874 -0.017757 0.010379 -0.021788 0.008006 -0.000229
# 2 -0.017757 -0.007399 0.016748 -0.030080 0.000245 0.005402
# 3 0.010379 0.016748 0.017817 0.011721 0.000164 -0.014989
# 4 -0.021788 -0.030080 0.011721 0.010136 -0.002052 0.003750
# 5 0.008006 0.000245 0.000164 -0.002052 0.040345 -0.016107
# 6 -0.000229 0.005402 -0.014989 0.003750 -0.016107 0.034721
#
#
# Mechanical properties :
#
#
# Convention : Reuss Voigt Hill
#
# Bulk Modulus (GPa) = 28.54617 11.24817 19.89717
# Shear Modulus (GPa) = 52.94977 24.93686 38.94331
#
# Velocity S-wave (km/s) = 4.93661 3.38780 4.23363
# Velocity P-wave (km/s) = 6.75513 4.52547 5.74942
#
# Compressibility (1/GPa) = 0.03503096
#
# Stress axis : x y z
#
# Youngs Moduli (GPa) = 170.25087 -135.14792 56.12748
#
# Poissons Ratio (x) = -2.39988 -0.58257
# Poissons Ratio (y) = 3.02321 -0.94002
# Poissons Ratio (z) = -1.76712 2.26344
#
# Static dielectric constant tensor:
#      x y z
#    x 2.016090 0.035370 0.097350 
#    y 0.035370 1.832610 -0.007170 
#    z 0.097350 -0.007170 1.802560 
# 
# From -- ./inp_files/308078.got.cif
#   From: 2010.05.17/outbox.ucp.g08.bks.cvg/sg2_155_cif.got.tgz:308078.got - 2010.06.11 11:32:03.
