data_PCOD9072753
_publ_section_title
;
Structure prediction by ZEFSAII (Michael W. Deem and Ramdas Pophale) SiO2 
 PCOD9072753
Probable space group: P -1
;
_chemical_formula_sum "Si O2"
_cell_formula_units_Z 16
_cell_length_a 15.114931
_cell_length_b 11.629260
_cell_length_c 21.704749
_cell_angle_alpha 40.142727
_cell_angle_beta 150.052298
_cell_angle_gamma 150.239214
_cell_volume 944.232904
_symmetry_space_group_name_H-M "P -1"
_symmetry_group_IT_number 2
_symmetry_cell_setting 'triclinic'
loop_
_space_group_symop_operation_xyz
x,y,z
-x,-y,-z
loop_
_atom_site_type_symbol
_atom_site_label
_atom_site_fract_x
_atom_site_fract_y
_atom_site_fract_z
Si Si1 0.545499 0.769032 0.649581
Si Si2 0.629214 0.021255 0.472133
Si Si3 0.749751 0.972190 0.226334
Si Si4 0.263186 0.491693 0.122237
Si Si5 0.083349 0.465850 0.158995
Si Si6 0.365814 0.595790 0.394920
Si Si7 0.067310 0.836931 0.617266
Si Si8 0.038595 0.285325 0.529410
O O1 0.649656 0.919375 0.588615
O O2 0.678020 0.675748 0.786865
O O3 0.281491 0.543052 0.567556
O O4 0.526667 0.910190 0.631641
O O5 0.519257 0.828471 0.431610
O O6 0.876316 0.237226 0.506914
O O7 0.493650 0.755583 0.140228
O O8 0.893952 0.879868 0.353504
O O9 0.742770 0.041585 0.264139
O O10 0.893516 0.201707 0.177492
O O11 0.202992 0.471016 0.166982
O O12 0.052571 0.442226 0.978409
O O13 0.267795 0.606794 0.267027
O O14 0.500000 0.500000 0.500000
O O15 0.149463 0.402229 0.385648
O O16 0.098081 0.781785 0.590054
O O17 0.000000 0.000000 0.500000
#
# Coordination Sequence:
#
# PCOD9072753 Si02
#       8
#     2   2   2   2   2   2   2   2
#     4  10  21  36  51  74 105 139 173 208 257 303
#     4  11  21  33  53  78 104 136 170 212 259 305
#     4   9  18  30  50  75 103 132 160 212 257 298
#     4  10  20  35  53  71 104 138 170 210 250 308
#     4  10  21  33  51  80 100 132 174 206 259 304
#     4  11  20  32  53  79 106 129 165 216 263 300
#     4   9  17  28  45  78 104 129 159 204 260 305
#     4  10  18  31  50  77 105 131 169 207 258 304
#
# _framework density 16.944970999999999
#
# number of rings (size 3 to 8) (size 9 to 14) (size 15 to 20)
#    0.000    2.000    1.250    4.500    5.250    0.000 
#    0.000    0.625    0.000    0.000    0.000    1.750 
#    0.000    0.000    0.000    0.000    0.000    0.000 
#
# Total GULP energy -89237.911232 kJ/mol
# GULP energy per Si atom -5577.369452 kJ/mol
# Density = 1.690640 g / cm^3
# Si number density = 16.944971 Si / 1000 Ang^3
#
#
#
# Elastic Constant Matrix: (Units=GPa)
#
#
# Indices 1 2 3 4 5 6 
#
# 1 92.6663 22.1558 31.6459 -2.4688 -2.5050 -1.8971
# 2 22.1558 36.8629 2.7072 -6.8618 0.6404 -6.4851
# 3 31.6459 2.7072 51.4352 4.1956 3.0966 -13.9633
# 4 -2.4688 -6.8618 4.1956 15.8966 0.8406 -1.0141
# 5 -2.5050 0.6404 3.0966 0.8406 20.4711 -6.1187
# 6 -1.8971 -6.4851 -13.9633 -1.0141 -6.1187 32.4698
#
#
#
# Elastic Compliance Matrix: (Units=1/GPa)
#
#
# Indices 1 2 3 4 5 6 
#
# 1 0.017305 -0.010417 -0.011856 0.000826 0.002508 -0.005670
# 2 -0.010417 0.037173 0.006029 0.013506 -0.001024 0.009637
# 3 -0.011856 0.006029 0.030617 -0.006374 -0.002098 0.013084
# 4 0.000826 0.013506 -0.006374 0.070757 -0.001696 0.001895
# 5 0.002508 -0.001024 -0.002098 -0.001696 0.052213 0.008826
# 6 -0.005670 0.009637 0.013084 0.001895 0.008826 0.039740
#
#
# Mechanical properties :
#
#
# Convention : Reuss Voigt Hill
#
# Bulk Modulus (GPa) = 19.00908 32.66469 25.83688
# Shear Modulus (GPa) = 16.78807 22.06453 19.42630
#
# Velocity S-wave (km/s) = 3.15102 3.61242 3.38958
# Velocity P-wave (km/s) = 4.94783 6.05955 5.53169
#
# Compressibility (1/GPa) = 0.05260645
#
# Stress axis : x y z
#
# Youngs Moduli (GPa) = 57.78764 26.90111 32.66133
#
# Poissons Ratio (x) = 0.28024 0.38724
# Poissons Ratio (y) = 0.60199 -0.19692
# Poissons Ratio (z) = 0.68514 -0.16219
#
# Static dielectric constant tensor:
#      x y z
#    x 1.580610 0.003860 -0.006490 
#    y 0.003860 1.593350 0.007630 
#    z -0.006490 0.007630 1.556570 
# 
# From -- ./inp_files/281150.got.cif
#   From: 2010.05.17/outbox.cif.g08.bks.cpg/sg2_141_cif.got.tgz:281150.got - 2010.06.03 11:33:40.
