data_PCOD9072441
_publ_section_title
;
Structure prediction by ZEFSAII (Michael W. Deem and Ramdas Pophale) SiO2 
 PCOD9072441
Probable space group: P -1
;
_chemical_formula_sum "Si O2"
_cell_formula_units_Z 16
_cell_length_a 9.000000
_cell_length_b 15.000000
_cell_length_c 12.000000
_cell_angle_alpha 30.000000
_cell_angle_beta 100.000000
_cell_angle_gamma 110.000000
_cell_volume 734.803614
_symmetry_space_group_name_H-M "P -1"
_symmetry_group_IT_number 2
_symmetry_cell_setting 'triclinic'
loop_
_space_group_symop_operation_xyz
x,y,z
-x,-y,-z
loop_
_atom_site_type_symbol
_atom_site_label
_atom_site_fract_x
_atom_site_fract_y
_atom_site_fract_z
Si Si1 0.617981 0.594638 0.710685
Si Si2 0.302592 0.916154 0.489228
Si Si3 0.241803 0.049781 0.107461
Si Si4 0.158808 0.476783 0.992302
Si Si5 0.829256 0.329766 0.624493
Si Si6 0.632620 0.295772 0.863871
Si Si7 0.763745 0.599318 0.149109
Si Si8 0.658790 0.011669 0.343800
O O1 0.656621 0.502636 0.700631
O O2 0.425880 0.456519 0.853082
O O3 0.632138 0.816300 0.483684
O O4 0.740766 0.581746 0.836547
O O5 0.273642 0.694076 0.737712
O O6 0.254098 0.978640 0.535065
O O7 0.209888 0.946525 0.336612
O O8 0.490698 0.020252 0.362160
O O9 0.168564 0.877054 0.193548
O O10 0.437019 0.160084 0.984481
O O11 0.188182 0.227814 0.939725
O O12 0.135223 0.361920 0.995933
O O13 0.000000 0.500000 0.000000
O O14 0.708021 0.305033 0.740898
O O15 0.770520 0.416956 0.414963
O O16 0.000000 0.500000 0.500000
O O17 0.717385 0.191297 0.072074
#
# Coordination Sequence:
#
# PCOD9072441 Si02
#       8
#     2   2   2   2   2   2   2   2
#     4  11  22  40  71 103 130 173 226 276 320 404
#     4  10  19  37  64  96 135 168 210 269 342 382
#     4  10  22  43  70  96 127 175 231 279 322 404
#     4  12  24  40  67 100 145 174 206 272 350 406
#     4  12  27  45  68  94 141 178 217 286 345 387
#     4  10  23  40  67 100 133 173 230 277 328 384
#     4  11  24  44  70  98 130 179 229 271 327 399
#     4  10  19  36  66  99 129 168 219 276 316 393
#
# _framework density 21.774525000000001
#
# number of rings (size 3 to 8) (size 9 to 14) (size 15 to 20)
#    0.000    1.250    3.750    2.250    3.500    3.500 
#    0.000    5.000    0.000    0.000    0.000    0.000 
#    0.000    0.000    0.000    0.000    0.000    0.000 
#
# Total GULP energy -89293.683655 kJ/mol
# GULP energy per Si atom -5580.855228 kJ/mol
# Density = 2.172497 g / cm^3
# Si number density = 21.774525 Si / 1000 Ang^3
#
#
#
# Elastic Constant Matrix: (Units=GPa)
#
#
# Indices 1 2 3 4 5 6 
#
# 1 74.9583 38.7730 11.7937 7.9950 -0.1361 -13.6866
# 2 38.7730 164.3503 26.7338 -17.7018 -5.3522 -39.2735
# 3 11.7937 26.7338 45.8290 -6.8602 10.9080 -12.5600
# 4 7.9950 -17.7018 -6.8602 51.7671 -11.3337 6.4873
# 5 -0.1361 -5.3522 10.9080 -11.3337 23.9977 -2.6155
# 6 -13.6866 -39.2735 -12.5600 6.4873 -2.6155 45.3990
#
#
#
# Elastic Compliance Matrix: (Units=1/GPa)
#
#
# Indices 1 2 3 4 5 6 
#
# 1 0.016364 -0.003708 -0.001799 -0.004680 -0.001932 0.001785
# 2 -0.003708 0.009678 -0.004009 0.004032 0.006512 0.005945
# 3 -0.001799 -0.004009 0.028719 -0.000749 -0.013959 0.003238
# 4 -0.004680 0.004032 -0.000749 0.024172 0.012535 -0.000862
# 5 -0.001932 0.006512 -0.013959 0.012535 0.055661 0.002604
# 6 0.001785 0.005945 0.003238 -0.000862 0.002604 0.028877
#
#
# Mechanical properties :
#
#
# Convention : Reuss Voigt Hill
#
# Bulk Modulus (GPa) = 27.98854 48.85985 38.42419
# Shear Modulus (GPa) = 25.71843 38.08854 31.90348
#
# Velocity S-wave (km/s) = 3.44048 4.18691 3.83191
# Velocity P-wave (km/s) = 5.35390 6.77210 6.10432
#
# Compressibility (1/GPa) = 0.03572891
#
# Stress axis : x y z
#
# Youngs Moduli (GPa) = 61.11112 103.32421 34.81957
#
# Poissons Ratio (x) = 0.38316 0.06265
# Poissons Ratio (y) = 0.22662 0.13958
# Poissons Ratio (z) = 0.10996 0.41418
#
# Static dielectric constant tensor:
#      x y z
#    x 1.842050 0.026000 0.026550 
#    y 0.026000 1.854870 -0.001030 
#    z 0.026550 -0.001030 1.822310 
# 
# From -- ./inp_files/398232.got.cif
#   From: 2010.05.17/outbox.ucp.g08.bks.cvg/sg2_200_cif.got.tgz:398232.got - 2010.06.11 11:32:03.
