data_PCOD9072025
_publ_section_title
;
Structure prediction by ZEFSAII (Michael W. Deem and Ramdas Pophale) SiO2 
 PCOD9072025
Probable space group: P -1
;
_chemical_formula_sum "Si O2"
_cell_formula_units_Z 16
_cell_length_a 15.000000
_cell_length_b 15.000000
_cell_length_c 12.000000
_cell_angle_alpha 130.000000
_cell_angle_beta 110.000000
_cell_angle_gamma 30.000000
_cell_volume 856.505752
_symmetry_space_group_name_H-M "P -1"
_symmetry_group_IT_number 2
_symmetry_cell_setting 'triclinic'
loop_
_space_group_symop_operation_xyz
x,y,z
-x,-y,-z
loop_
_atom_site_type_symbol
_atom_site_label
_atom_site_fract_x
_atom_site_fract_y
_atom_site_fract_z
Si Si1 0.922603 0.253194 0.137846
Si Si2 0.747894 0.261484 0.242097
Si Si3 0.188553 0.318391 0.345540
Si Si4 0.558392 0.834092 0.480382
Si Si5 0.840943 0.834849 0.493668
Si Si6 0.928588 0.180175 0.469190
Si Si7 0.329296 0.928993 0.150318
Si Si8 0.671447 0.412443 0.753211
O O1 0.797479 0.291657 0.183332
O O2 0.749779 0.544382 0.277919
O O3 0.114898 0.089619 0.166457
O O4 0.060687 0.045967 0.930254
O O5 0.785513 0.288838 0.394030
O O6 0.512996 0.466256 0.284581
O O7 0.347944 0.225126 0.408758
O O8 0.000000 0.500000 0.500000
O O9 0.047092 0.524859 0.351222
O O10 0.306465 0.067348 0.173595
O O11 0.500000 0.000000 0.500000
O O12 0.335276 0.011652 0.546677
O O13 0.946146 0.842342 0.526945
O O14 0.694582 0.003776 0.679213
O O15 0.775588 0.369209 0.661672
O O16 0.123626 0.878249 0.340791
O O17 0.540072 0.627355 0.963419
#
# Coordination Sequence:
#
# PCOD9072025 Si02
#       8
#     2   2   2   2   2   2   2   2
#     4  10  19  32  51  87 109 126 181 225 253 317
#     4  10  20  36  56  75 107 142 174 222 266 306
#     4  10  18  34  52  80 113 134 170 220 266 315
#     4  12  19  29  51  83 110 136 167 214 273 316
#     4  11  21  33  57  80 105 143 175 218 267 309
#     4  11  22  39  55  75 110 147 177 218 267 314
#     4  10  18  36  54  79 110 136 170 225 263 306
#     4  10  24  37  53  80 108 141 185 217 260 323
#
# _framework density 18.680551999999999
#
# number of rings (size 3 to 8) (size 9 to 14) (size 15 to 20)
#    0.000    1.500    6.250    1.125    1.750    0.500 
#    0.000    0.625    0.000    0.750    0.000    0.000 
#    0.000    0.000    0.000    0.000    0.000    0.000 
#
# Total GULP energy -89129.028255 kJ/mol
# GULP energy per Si atom -5570.564266 kJ/mol
# Density = 1.863803 g / cm^3
# Si number density = 18.680552 Si / 1000 Ang^3
#
#
#
# Elastic Constant Matrix: (Units=GPa)
#
#
# Indices 1 2 3 4 5 6 
#
# 1 16.4071 15.2469 40.8946 -13.3792 4.9159 -11.7112
# 2 15.2469 58.8063 4.6905 9.1700 -8.5005 -27.5795
# 3 40.8946 4.6905 23.0764 23.9848 -8.8582 -7.2727
# 4 -13.3792 9.1700 23.9848 17.3990 2.0436 7.4023
# 5 4.9159 -8.5005 -8.8582 2.0436 16.5149 -1.4532
# 6 -11.7112 -27.5795 -7.2727 7.4023 -1.4532 27.0268
#
#
#
# Elastic Compliance Matrix: (Units=1/GPa)
#
#
# Indices 1 2 3 4 5 6 
#
# 1 0.018922 0.019244 0.009827 -0.027625 0.016387 0.038928
# 2 0.019244 0.038317 -0.012952 -0.009020 0.012306 0.047086
# 3 0.009827 -0.012952 0.003715 0.016019 -0.010719 -0.012923
# 4 -0.027625 -0.009020 0.016019 0.028483 0.006508 -0.024315
# 5 0.016387 0.012306 -0.010719 0.006508 0.057042 0.018059
# 6 0.038928 0.047086 -0.012923 -0.024315 0.018059 0.106071
#
#
# Mechanical properties :
#
#
# Convention : Reuss Voigt Hill
#
# Bulk Modulus (GPa) = 10.73071 24.43931 17.58501
# Shear Modulus (GPa) = 19.89040 14.68532 17.28786
#
# Velocity S-wave (km/s) = 3.26661 2.80684 3.04542
# Velocity P-wave (km/s) = 4.47040 4.85959 4.66905
#
# Compressibility (1/GPa) = 0.09319045
#
# Stress axis : x y z
#
# Youngs Moduli (GPa) = 52.84790 26.09809 269.18197
#
# Poissons Ratio (x) = -0.50222 -2.64526
# Poissons Ratio (y) = -1.01698 3.48657
# Poissons Ratio (z) = -0.51934 0.33803
#
# Static dielectric constant tensor:
#      x y z
#    x 1.688030 0.009360 0.062670 
#    y 0.009360 1.763840 -0.020630 
#    z 0.062670 -0.020630 1.663920 
# 
# From -- ./inp_files/258580.got.cif
#   From: 2010.05.17/outbox.ucp.g08.bks.cvg/sg2_130_cif.got.tgz:258580.got - 2010.06.11 11:32:03.
