data_PCOD9072706
_publ_section_title
;
Structure prediction by ZEFSAII (Michael W. Deem and Ramdas Pophale) SiO2 
 PCOD9072706
Probable space group: P -1
;
_chemical_formula_sum "Si O2"
_cell_formula_units_Z 16
_cell_length_a 9.000000
_cell_length_b 15.000000
_cell_length_c 12.000000
_cell_angle_alpha 70.000000
_cell_angle_beta 110.000000
_cell_angle_gamma 150.000000
_cell_volume 757.522634
_symmetry_space_group_name_H-M "P -1"
_symmetry_group_IT_number 2
_symmetry_cell_setting 'triclinic'
loop_
_space_group_symop_operation_xyz
x,y,z
-x,-y,-z
loop_
_atom_site_type_symbol
_atom_site_label
_atom_site_fract_x
_atom_site_fract_y
_atom_site_fract_z
Si Si1 0.421577 0.059243 0.691901
Si Si2 0.459045 0.166522 0.034620
Si Si3 0.712115 0.305603 0.449244
Si Si4 0.165902 0.204788 0.988666
Si Si5 0.133330 0.703079 0.740038
Si Si6 0.301816 0.440883 0.144406
Si Si7 0.764759 0.202030 0.936785
Si Si8 0.198280 0.184658 0.270673
O O1 0.549733 0.160845 0.564726
O O2 0.692487 0.187295 0.796210
O O3 0.279348 0.881852 0.718404
O O4 0.146682 0.986577 0.698601
O O5 0.292410 0.178513 0.966980
O O6 0.650569 0.259178 0.155176
O O7 0.681379 0.257144 0.954159
O O8 0.176604 0.951136 0.062265
O O9 0.851405 0.318515 0.375002
O O10 0.441327 0.235003 0.360772
O O11 0.000000 0.500000 0.500000
O O12 0.186435 0.183352 0.132450
O O13 0.387467 0.392275 0.910944
O O14 0.827781 0.553219 0.797961
O O15 0.315416 0.349811 0.253514
O O16 0.059271 0.319066 0.031001
O O17 0.500000 0.000000 0.000000
#
# Coordination Sequence:
#
# PCOD9072706 Si02
#       8
#     2   2   2   2   2   2   2   2
#     4  11  23  42  70  88 127 173 215 251 314 382
#     4  10  20  35  61  94 132 159 202 254 324 384
#     4  12  28  45  63  92 125 172 221 267 305 365
#     4  11  21  35  59 100 134 160 201 261 327 378
#     4  10  22  45  64  92 126 168 213 259 313 385
#     4  10  23  37  68  97 131 161 203 265 328 372
#     4  11  18  37  65  97 124 162 204 255 321 387
#     4  11  22  43  62  92 128 164 213 256 311 378
#
# _framework density 21.121480999999999
#
# number of rings (size 3 to 8) (size 9 to 14) (size 15 to 20)
#    0.000    1.250    6.250    1.125    1.750    4.000 
#    0.000    2.500    0.000    0.000    0.000    0.000 
#    0.000    0.000    0.000    0.000    0.000    0.000 
#
# Total GULP energy -89079.826115 kJ/mol
# GULP energy per Si atom -5567.489132 kJ/mol
# Density = 2.107341 g / cm^3
# Si number density = 21.121481 Si / 1000 Ang^3
#
#
#
# Elastic Constant Matrix: (Units=GPa)
#
#
# Indices 1 2 3 4 5 6 
#
# 1 102.2941 1.1529 38.5130 -3.7739 -9.6760 16.5330
# 2 1.1529 7.7146 7.5345 -14.7129 -16.0685 4.8624
# 3 38.5130 7.5345 127.4472 1.0789 -20.9246 2.7679
# 4 -3.7739 -14.7129 1.0789 29.2628 3.2253 -5.1287
# 5 -9.6760 -16.0685 -20.9246 3.2253 41.8274 0.3496
# 6 16.5330 4.8624 2.7679 -5.1287 0.3496 18.9478
#
#
#
# Elastic Compliance Matrix: (Units=1/GPa)
#
#
# Indices 1 2 3 4 5 6 
#
# 1 0.011748 -0.014671 -0.003096 -0.006680 -0.003887 -0.007771
# 2 -0.014671 -0.178082 0.004293 -0.077881 -0.063971 0.037973
# 3 -0.003096 0.004293 0.009430 0.000858 0.005581 0.000351
# 4 -0.006680 -0.077881 0.000858 0.002301 -0.031437 0.026892
# 5 -0.003887 -0.063971 0.005581 -0.031437 0.003563 0.010417
# 6 -0.007771 0.037973 0.000351 0.026892 0.010417 0.056848
#
#
# Mechanical properties :
#
#
# Convention : Reuss Voigt Hill
#
# Bulk Modulus (GPa) = -5.43921 36.87299 15.71689
# Shear Modulus (GPa) = -38.90163 30.69128 -4.10517
#
# Velocity S-wave (km/s) = -4.29628 3.81607 -1.39564
# Velocity P-wave (km/s) = 5.21455 6.07552 2.20460
#
# Compressibility (1/GPa) = -0.18385025
#
# Stress axis : x y z
#
# Youngs Moduli (GPa) = 85.11790 -5.61540 106.04985
#
# Poissons Ratio (x) = -0.08238 0.32830
# Poissons Ratio (y) = 1.24873 -0.45528
# Poissons Ratio (z) = 0.26350 0.02411
#
# Static dielectric constant tensor:
#      x y z
#    x 1.915240 -0.122330 -0.009680 
#    y -0.122330 1.966070 -0.022640 
#    z -0.009680 -0.022640 1.709030 
# 
# From -- ./inp_files/185333.got.cif
#   From: 2010.05.17/outbox.ucp.g08.bks.cvg/sg2_93_cif.got.tgz:185333.got - 2010.06.11 11:32:03.
