data_PCOD9072032
_publ_section_title
;
Structure prediction by ZEFSAII (Michael W. Deem and Ramdas Pophale) SiO2 
 PCOD9072032
Probable space group: P -1
;
_chemical_formula_sum "Si O2"
_cell_formula_units_Z 16
_cell_length_a 8.034370
_cell_length_b 11.580603
_cell_length_c 18.174188
_cell_angle_alpha 44.075136
_cell_angle_beta 68.430841
_cell_angle_gamma 35.875647
_cell_volume 586.153835
_symmetry_space_group_name_H-M "P -1"
_symmetry_group_IT_number 2
_symmetry_cell_setting 'triclinic'
loop_
_space_group_symop_operation_xyz
x,y,z
-x,-y,-z
loop_
_atom_site_type_symbol
_atom_site_label
_atom_site_fract_x
_atom_site_fract_y
_atom_site_fract_z
Si Si1 0.957653 0.640814 0.790514
Si Si2 0.521264 0.656958 0.831950
Si Si3 0.378510 0.190728 0.047322
Si Si4 0.073194 0.244201 0.575467
Si Si5 0.498333 0.230790 0.690950
Si Si6 0.389388 0.540129 0.332914
Si Si7 0.632882 0.007378 0.542974
Si Si8 0.127067 0.921198 0.919171
O O1 0.714373 0.670161 0.822527
O O2 0.799159 0.922862 0.730947
O O3 0.949069 0.699881 0.679174
O O4 0.300260 0.308048 0.922760
O O5 0.267248 0.779348 0.877681
O O6 0.307831 0.894413 0.689830
O O7 0.804199 0.295716 0.945207
O O8 0.636079 0.120695 0.070153
O O9 0.509667 0.910607 0.182357
O O10 0.000000 0.500000 0.000000
O O11 0.334955 0.188503 0.564621
O O12 0.818700 0.479910 0.442823
O O13 0.914579 0.327123 0.642149
O O14 0.556027 0.360113 0.662191
O O15 0.653629 0.185918 0.444070
O O16 0.250086 0.728006 0.195211
O O17 0.500000 0.000000 0.500000
#
# Coordination Sequence:
#
# PCOD9072032 Si02
#       8
#     2   2   2   2   2   2   2   2
#     4  10  20  34  53  82 120 147 188 231 287 334
#     4   9  18  28  48  80 116 148 177 227 282 334
#     4  10  19  29  49  83 121 150 174 237 290 331
#     4  10  21  35  59  84 113 147 191 238 284 329
#     4  11  20  33  56  92 120 142 186 242 288 331
#     4  11  22  34  61  86 115 149 191 238 283 337
#     4  11  24  41  59  81 115 155 192 232 285 342
#     4  10  18  30  50  82 120 146 186 222 287 341
#
# _framework density 27.296588
#
# number of rings (size 3 to 8) (size 9 to 14) (size 15 to 20)
#    0.000    1.750    3.750    2.250   10.500    0.000 
#    0.000    0.625    0.000    9.750    0.000    0.000 
#    0.000    0.000    0.000    0.000    0.000    0.000 
#
# Total GULP energy -89381.606222 kJ/mol
# GULP energy per Si atom -5586.350389 kJ/mol
# Density = 2.723446 g / cm^3
# Si number density = 27.296588 Si / 1000 Ang^3
#
#
#
# Elastic Constant Matrix: (Units=GPa)
#
#
# Indices 1 2 3 4 5 6 
#
# 1 81.8544 26.8728 43.0182 -10.4758 -2.6894 31.2908
# 2 26.8728 70.6251 41.9020 1.8509 -1.3301 16.3269
# 3 43.0182 41.9020 314.9605 -15.8623 12.5394 41.3813
# 4 -10.4758 1.8509 -15.8623 44.3491 11.7916 2.4987
# 5 -2.6894 -1.3301 12.5394 11.7916 58.6307 0.9583
# 6 31.2908 16.3269 41.3813 2.4987 0.9583 41.8710
#
#
#
# Elastic Compliance Matrix: (Units=1/GPa)
#
#
# Indices 1 2 3 4 5 6 
#
# 1 0.019397 -0.004481 -0.000063 0.005504 -0.000093 -0.013013
# 2 -0.004481 0.017309 -0.001647 -0.002565 0.001082 -0.001645
# 3 -0.000063 -0.001647 0.003993 0.002001 -0.001242 -0.003348
# 4 0.005504 -0.002565 0.002001 0.026490 -0.005454 -0.006547
# 5 -0.000093 0.001082 -0.001242 -0.005454 0.018426 0.000779
# 6 -0.013013 -0.001645 -0.003348 -0.006547 0.000779 0.037931
#
#
# Mechanical properties :
#
#
# Convention : Reuss Voigt Hill
#
# Bulk Modulus (GPa) = 35.31382 76.78067 56.04724
# Shear Modulus (GPa) = 34.39601 52.67995 43.53798
#
# Velocity S-wave (km/s) = 3.55362 4.39784 3.99807
# Velocity P-wave (km/s) = 5.45919 7.34693 6.47225
#
# Compressibility (1/GPa) = 0.02831753
#
# Stress axis : x y z
#
# Youngs Moduli (GPa) = 51.55553 57.77247 250.45363
#
# Poissons Ratio (x) = 0.25888 0.01565
# Poissons Ratio (y) = 0.23102 0.41248
# Poissons Ratio (z) = 0.00322 0.09515
#
# Static dielectric constant tensor:
#      x y z
#    x 2.029380 -0.033940 0.035830 
#    y -0.033940 2.400380 -0.071010 
#    z 0.035830 -0.071010 2.263560 
# 
# From -- ./inp_files/259878.got.cif
#   From: 2010.05.17/outbox.cif.g08.bks.cpg/sg2_130_cif.got.tgz:259878.got - 2010.06.03 11:33:40.
