data_PCOD9072401
_publ_section_title
;
Structure prediction by ZEFSAII (Michael W. Deem and Ramdas Pophale) SiO2 
 PCOD9072401
Probable space group: P -1
;
_chemical_formula_sum "Si O2"
_cell_formula_units_Z 16
_cell_length_a 7.283088
_cell_length_b 6.993141
_cell_length_c 16.167017
_cell_angle_alpha 97.340596
_cell_angle_beta 117.674302
_cell_angle_gamma 59.017924
_cell_volume 618.422229
_symmetry_space_group_name_H-M "P -1"
_symmetry_group_IT_number 2
_symmetry_cell_setting 'triclinic'
loop_
_space_group_symop_operation_xyz
x,y,z
-x,-y,-z
loop_
_atom_site_type_symbol
_atom_site_label
_atom_site_fract_x
_atom_site_fract_y
_atom_site_fract_z
Si Si1 0.723447 0.684970 0.961235
Si Si2 0.905197 0.147634 0.381914
Si Si3 0.058623 0.417819 0.737158
Si Si4 0.410887 0.754626 0.187839
Si Si5 0.689409 0.161406 0.005997
Si Si6 0.216635 0.642413 0.472280
Si Si7 0.992271 0.961669 0.217630
Si Si8 0.398438 0.218657 0.237050
O O1 0.597638 0.692000 0.848964
O O2 0.704680 0.923928 0.981577
O O3 0.580257 0.666181 0.007282
O O4 0.000000 0.500000 0.000000
O O5 0.857675 0.345640 0.446190
O O6 0.641717 0.170190 0.329937
O O7 0.116130 0.905471 0.446250
O O8 0.982864 0.114548 0.299949
O O9 0.931154 0.422349 0.624520
O O10 0.129672 0.178579 0.783557
O O11 0.851059 0.609459 0.760666
O O12 0.305091 0.415287 0.773128
O O13 0.278303 0.767113 0.074171
O O14 0.259206 0.758290 0.234927
O O15 0.398369 0.990390 0.213243
O O16 0.868598 0.106426 0.117317
O O17 0.500000 0.500000 0.500000
#
# Coordination Sequence:
#
# PCOD9072401 Si02
#       8
#     2   2   2   2   2   2   2   2
#     4  10  18  30  56  85 116 155 199 239 287 340
#     4  10  20  36  61  89 114 153 198 238 299 354
#     4  11  22  40  63  86 118 157 196 243 300 353
#     4  11  23  39  58  90 122 156 201 242 291 350
#     4  10  19  34  54  83 119 156 199 236 284 349
#     4  10  19  35  64  90 112 152 197 241 300 362
#     4  11  21  41  61  85 124 160 195 246 292 348
#     4  11  19  37  61  86 120 156 194 246 293 345
#
# _framework density 25.872291000000001
#
# number of rings (size 3 to 8) (size 9 to 14) (size 15 to 20)
#    0.000    1.500    5.000    3.375    0.000    0.000 
#    2.250    0.625    0.000    9.000    0.000    0.000 
#    0.000    0.000    0.000    0.000    0.000    0.000 
#
# Total GULP energy -89597.914551 kJ/mol
# GULP energy per Si atom -5599.869659 kJ/mol
# Density = 2.581340 g / cm^3
# Si number density = 25.872291 Si / 1000 Ang^3
#
#
#
# Elastic Constant Matrix: (Units=GPa)
#
#
# Indices 1 2 3 4 5 6 
#
# 1 103.6892 40.6094 33.5915 2.6600 -7.3764 -34.1198
# 2 40.6094 178.3068 54.7894 15.6818 -10.8024 -46.0280
# 3 33.5915 54.7894 162.8406 22.7330 5.1707 -24.2926
# 4 2.6600 15.6818 22.7330 52.6949 -13.8297 -3.4428
# 5 -7.3764 -10.8024 5.1707 -13.8297 30.5366 2.0044
# 6 -34.1198 -46.0280 -24.2926 -3.4428 2.0044 54.5100
#
#
#
# Elastic Compliance Matrix: (Units=1/GPa)
#
#
# Indices 1 2 3 4 5 6 
#
# 1 0.012882 -0.000569 -0.001802 0.001663 0.003526 0.006755
# 2 -0.000569 0.007845 -0.001706 -0.000616 0.002294 0.005385
# 3 -0.001802 -0.001706 0.007883 -0.003840 -0.004169 0.000855
# 4 0.001663 -0.000616 -0.003840 0.023772 0.011608 -0.000116
# 5 0.003526 0.002294 -0.004169 0.011608 0.040273 0.001538
# 6 0.006755 0.005385 0.000855 -0.000116 0.001538 0.027438
#
#
# Mechanical properties :
#
#
# Convention : Reuss Voigt Hill
#
# Bulk Modulus (GPa) = 48.88592 78.09079 63.48835
# Shear Modulus (GPa) = 37.01914 48.60472 42.81193
#
# Velocity S-wave (km/s) = 3.78675 4.33903 4.07226
# Velocity P-wave (km/s) = 6.16891 7.43987 6.83400
#
# Compressibility (1/GPa) = 0.02045579
#
# Stress axis : x y z
#
# Youngs Moduli (GPa) = 77.62859 127.46523 126.85914
#
# Poissons Ratio (x) = 0.07253 0.22864
# Poissons Ratio (y) = 0.04417 0.21639
# Poissons Ratio (z) = 0.13991 0.21742
#
# Static dielectric constant tensor:
#      x y z
#    x 2.032690 0.044550 -0.045410 
#    y 0.044550 2.053850 -0.027400 
#    z -0.045410 -0.027400 2.095590 
# 
# From -- ./inp_files/498053.got.cif
#   From: 2010.05.17/outbox.cif.g08.bks.cpg/sg2_250_cif.got.tgz:498053.got - 2010.06.03 11:33:40.
