data_PCOD9072011
_publ_section_title
;
Structure prediction by ZEFSAII (Michael W. Deem and Ramdas Pophale) SiO2 
 PCOD9072011
Probable space group: P -1
;
_chemical_formula_sum "Si O2"
_cell_formula_units_Z 16
_cell_length_a 8.451393
_cell_length_b 9.141174
_cell_length_c 13.630432
_cell_angle_alpha 61.647561
_cell_angle_beta 136.644965
_cell_angle_gamma 113.605261
_cell_volume 633.547868
_symmetry_space_group_name_H-M "P -1"
_symmetry_group_IT_number 2
_symmetry_cell_setting 'triclinic'
loop_
_space_group_symop_operation_xyz
x,y,z
-x,-y,-z
loop_
_atom_site_type_symbol
_atom_site_label
_atom_site_fract_x
_atom_site_fract_y
_atom_site_fract_z
Si Si1 0.337847 0.038985 0.657143
Si Si2 0.902036 0.742045 0.208918
Si Si3 0.739014 0.477116 0.667492
Si Si4 0.968671 0.173431 0.555461
Si Si5 0.345410 0.576440 0.763519
Si Si6 0.836848 0.272427 0.186201
Si Si7 0.749013 0.846135 0.896441
Si Si8 0.145074 0.676520 0.037216
O O1 0.198653 0.979216 0.516090
O O2 0.249352 0.894488 0.742124
O O3 0.604960 0.008154 0.768997
O O4 0.211084 0.187746 0.600036
O O5 0.103843 0.632076 0.295480
O O6 0.001686 0.853711 0.307771
O O7 0.706308 0.617482 0.214204
O O8 0.795579 0.820892 0.040618
O O9 0.500000 0.500000 0.500000
O O10 0.705483 0.376743 0.786910
O O11 0.895565 0.650753 0.708059
O O12 0.834783 0.332680 0.413950
O O13 0.286321 0.593968 0.847218
O O14 0.584908 0.688968 0.828201
O O15 0.759180 0.261034 0.043516
O O16 0.987281 0.818347 0.959643
O O17 0.000000 0.500000 0.000000
#
# Coordination Sequence:
#
# PCOD9072011 Si02
#       8
#     2   2   2   2   2   2   2   2
#     4   9  19  36  52  70  99 136 172 204 242 295
#     4  10  18  30  50  78 102 124 163 213 254 293
#     4   9  18  30  47  73 105 129 156 204 256 298
#     4   9  18  32  52  71  99 133 167 206 250 293
#     4   9  18  33  52  77 104 127 161 209 253 295
#     4   8  16  32  50  70  96 129 165 198 237 296
#     4   9  18  31  51  75 103 130 160 201 249 302
#     4   9  17  30  49  73 100 131 163 198 244 296
#
# _framework density 25.254602999999999
#
# number of rings (size 3 to 8) (size 9 to 14) (size 15 to 20)
#    0.000    3.250    0.000    1.500    0.000    6.500 
#    0.000    7.500    0.000   23.250    0.000    0.000 
#    0.000    0.000    0.000    0.000    0.000    0.000 
#
# Total GULP energy -89350.471045 kJ/mol
# GULP energy per Si atom -5584.404440 kJ/mol
# Density = 2.519712 g / cm^3
# Si number density = 25.254603 Si / 1000 Ang^3
#
#
#
# Elastic Constant Matrix: (Units=GPa)
#
#
# Indices 1 2 3 4 5 6 
#
# 1 40.5516 11.1346 50.7904 2.0507 -3.4394 -8.4387
# 2 11.1346 54.9532 24.9869 2.0248 2.2544 9.8133
# 3 50.7904 24.9869 168.8828 1.0533 11.0170 -21.6229
# 4 2.0507 2.0248 1.0533 22.2787 -5.9507 1.5364
# 5 -3.4394 2.2544 11.0170 -5.9507 49.0070 2.5376
# 6 -8.4387 9.8133 -21.6229 1.5364 2.5376 27.0912
#
#
#
# Elastic Compliance Matrix: (Units=1/GPa)
#
#
# Indices 1 2 3 4 5 6 
#
# 1 0.042082 -0.004204 -0.011746 -0.001853 0.005311 0.004864
# 2 -0.004204 0.023034 -0.003760 -0.000640 0.000067 -0.012625
# 3 -0.011746 -0.003760 0.011138 -0.000540 -0.003581 0.006959
# 4 -0.001853 -0.000640 -0.000540 0.047001 0.005935 -0.003998
# 5 0.005311 0.000067 -0.003581 0.005935 0.022491 -0.003672
# 6 0.004864 -0.012625 0.006959 -0.003998 -0.003672 0.049126
#
#
# Mechanical properties :
#
#
# Convention : Reuss Voigt Hill
#
# Bulk Modulus (GPa) = 27.14895 48.69014 37.91954
# Shear Modulus (GPa) = 20.27808 31.50709 25.89259
#
# Velocity S-wave (km/s) = 2.83670 3.53594 3.20545
# Velocity P-wave (km/s) = 4.63709 5.99934 5.36165
#
# Compressibility (1/GPa) = 0.03683384
#
# Stress axis : x y z
#
# Youngs Moduli (GPa) = 23.76286 43.41364 89.78064
#
# Poissons Ratio (x) = 0.18251 1.05458
# Poissons Ratio (y) = 0.09990 0.33761
# Poissons Ratio (z) = 0.27912 0.16325
#
# Static dielectric constant tensor:
#      x y z
#    x 2.051580 0.005130 0.064110 
#    y 0.005130 2.111410 -0.014480 
#    z 0.064110 -0.014480 2.031750 
# 
# From -- ./inp_files/499086.got.cif
#   From: 2010.05.17/outbox.cif.g08.bks.cpg/sg2_250_cif.got.tgz:499086.got - 2010.06.03 11:33:40.
