data_PCOD9072743
_publ_section_title
;
Structure prediction by ZEFSAII (Michael W. Deem and Ramdas Pophale) SiO2 
 PCOD9072743
Probable space group: P -1
;
_chemical_formula_sum "Si O2"
_cell_formula_units_Z 14
_cell_length_a 18.000000
_cell_length_b 12.000000
_cell_length_c 12.000000
_cell_angle_alpha 60.000000
_cell_angle_beta 30.000000
_cell_angle_gamma 40.000000
_cell_volume 717.332707
_symmetry_space_group_name_H-M "P -1"
_symmetry_group_IT_number 2
_symmetry_cell_setting 'triclinic'
loop_
_space_group_symop_operation_xyz
x,y,z
-x,-y,-z
loop_
_atom_site_type_symbol
_atom_site_label
_atom_site_fract_x
_atom_site_fract_y
_atom_site_fract_z
Si Si1 0.226136 0.445097 0.375166
Si Si2 0.722039 0.749957 0.967434
Si Si3 0.970682 0.664177 0.913934
Si Si4 0.549565 0.583785 0.694714
Si Si5 0.266440 0.513262 0.048061
Si Si6 0.327760 0.996204 0.698401
Si Si7 0.268083 0.120049 0.472018
O O1 0.370488 0.446019 0.265641
O O2 0.300798 0.410596 0.168388
O O3 0.276083 0.263240 0.432183
O O4 0.945634 0.646349 0.655293
O O5 0.705751 0.607193 0.030259
O O6 0.799424 0.753908 0.986590
O O7 0.455181 0.975117 0.203190
O O8 0.208619 0.562099 0.610453
O O9 0.000000 0.500000 0.000000
O O10 0.891965 0.808239 0.044173
O O11 0.403583 0.807579 0.739291
O O12 0.422599 0.536955 0.846926
O O13 0.995605 0.731676 0.293765
O O14 0.311491 0.004105 0.582410
O O15 0.500000 0.000000 0.500000
#
# Coordination Sequence:
#
# PCOD9072743 Si02
#       7
#     2   2   2   2   2   2   2
#     4  10  21  40  62  83 112 159 203 231 274 344
#     4  10  20  36  60  87 113 152 195 238 284 336
#     4  11  19  36  63  86 109 150 202 236 275 345
#     4  11  23  39  60  87 119 152 191 239 290 344
#     4  11  25  38  55  88 126 153 183 239 299 340
#     4  12  20  38  65  87 110 149 198 241 281 338
#     4  11  21  39  63  88 115 150 198 240 283 341
#
# _framework density 19.516746000000001
#
# number of rings (size 3 to 8) (size 9 to 14) (size 15 to 20)
#    0.000    1.143    4.286    3.857    0.000    4.000 
#    0.000    5.000    0.000    6.857    0.000    0.000 
#    0.000    0.000    0.000    0.000    0.000    0.000 
#
# Total GULP energy -77998.764151 kJ/mol
# GULP energy per Si atom -5571.340297 kJ/mol
# Density = 1.947232 g / cm^3
# Si number density = 19.516746 Si / 1000 Ang^3
#
#
#
# Elastic Constant Matrix: (Units=GPa)
#
#
# Indices 1 2 3 4 5 6 
#
# 1 63.0751 28.6888 33.5903 -9.0881 -17.4406 15.0391
# 2 28.6888 42.9552 35.2287 6.5778 -5.2418 7.2700
# 3 33.5903 35.2287 88.1712 11.9549 -7.7564 14.3135
# 4 -9.0881 6.5778 11.9549 32.0011 11.4918 2.7561
# 5 -17.4406 -5.2418 -7.7564 11.4918 43.2230 -5.7728
# 6 15.0391 7.2700 14.3135 2.7561 -5.7728 31.2866
#
#
#
# Elastic Compliance Matrix: (Units=1/GPa)
#
#
# Indices 1 2 3 4 5 6 
#
# 1 0.031868 -0.016817 -0.005304 0.013469 0.005053 -0.009239
# 2 -0.016817 0.043956 -0.010350 -0.010194 -0.000137 0.003478
# 3 -0.005304 -0.010350 0.019005 -0.006741 0.001422 -0.002884
# 4 0.013469 -0.010194 -0.006741 0.043672 -0.009507 -0.006623
# 5 0.005053 -0.000137 0.001422 -0.009507 0.028344 0.003020
# 6 -0.009239 0.003478 -0.002884 -0.006623 0.003020 0.038056
#
#
# Mechanical properties :
#
#
# Convention : Reuss Voigt Hill
#
# Bulk Modulus (GPa) = 33.45888 43.24637 38.35263
# Shear Modulus (GPa) = 17.86966 27.74838 22.80902
#
# Velocity S-wave (km/s) = 3.02918 3.77473 3.42232
# Velocity P-wave (km/s) = 5.42360 6.41910 5.94224
#
# Compressibility (1/GPa) = 0.02988743
#
# Stress axis : x y z
#
# Youngs Moduli (GPa) = 31.37951 22.75009 52.61845
#
# Poissons Ratio (x) = 0.38258 0.27906
# Poissons Ratio (y) = 0.52770 0.54462
# Poissons Ratio (z) = 0.16642 0.23547
#
# Static dielectric constant tensor:
#      x y z
#    x 1.712620 -0.079370 0.022840 
#    y -0.079370 1.670200 0.019350 
#    z 0.022840 0.019350 1.738100 
# 
# From -- ./inp_files/216085.got.cif
#   From: 2010.05.17/outbox.ucp.g08.bks.cvg/sg2_109_cif.got.tgz:216085.got - 2010.06.11 11:32:03.
