data_PCOD9072364
_publ_section_title
;
Structure prediction by ZEFSAII (Michael W. Deem and Ramdas Pophale) SiO2 
 PCOD9072364
Probable space group: P -1
;
_chemical_formula_sum "Si O2"
_cell_formula_units_Z 14
_cell_length_a 20.993777
_cell_length_b 11.179484
_cell_length_c 12.118756
_cell_angle_alpha 139.085536
_cell_angle_beta 146.636424
_cell_angle_gamma 20.957088
_cell_volume 555.195390
_symmetry_space_group_name_H-M "P -1"
_symmetry_group_IT_number 2
_symmetry_cell_setting 'triclinic'
loop_
_space_group_symop_operation_xyz
x,y,z
-x,-y,-z
loop_
_atom_site_type_symbol
_atom_site_label
_atom_site_fract_x
_atom_site_fract_y
_atom_site_fract_z
Si Si1 0.128312 0.641445 0.945262
Si Si2 0.816217 0.713809 0.059670
Si Si3 0.456372 0.727435 0.755049
Si Si4 0.910410 0.320289 0.562105
Si Si5 0.279764 0.762772 0.009168
Si Si6 0.536045 0.154454 0.782253
Si Si7 0.025097 0.150097 0.361052
O O1 0.050587 0.610783 0.906443
O O2 0.373912 0.373115 0.133576
O O3 0.094933 0.606458 0.748769
O O4 0.000000 0.000000 0.000000
O O5 0.951203 0.704490 0.200592
O O6 0.666390 0.986955 0.133027
O O7 0.666745 0.846214 0.835645
O O8 0.600126 0.408534 0.819181
O O9 0.276842 0.858512 0.517836
O O10 0.657012 0.658801 0.442874
O O11 0.000000 0.000000 0.500000
O O12 0.949482 0.317588 0.487661
O O13 0.305896 0.929604 0.117882
O O14 0.416586 0.451298 0.904212
O O15 0.055018 0.953444 0.819456
#
# Coordination Sequence:
#
# PCOD9072364 Si02
#       7
#     2   2   2   2   2   2   2
#     4  11  24  38  51  73 108 148 187 220 257 313
#     4  10  20  33  53  81 108 138 179 222 264 315
#     4   9  18  33  55  77 101 133 175 227 275 312
#     4  10  18  30  55  89 113 131 167 223 279 321
#     4   8  14  26  47  79 107 129 160 206 265 321
#     4   9  15  26  47  77 112 136 159 207 267 319
#     4   9  18  32  52  76 104 138 175 217 264 311
#
# _framework density 25.216348
#
# number of rings (size 3 to 8) (size 9 to 14) (size 15 to 20)
#    0.000    2.571    0.000    5.571    0.000    4.000 
#    0.000    0.000    0.000    7.714    0.000   15.000 
#    0.000    0.000    0.000    0.000    0.000    0.000 
#
# Total GULP energy -78171.600401 kJ/mol
# GULP energy per Si atom -5583.685743 kJ/mol
# Density = 2.515895 g / cm^3
# Si number density = 25.216348 Si / 1000 Ang^3
#
#
#
# Elastic Constant Matrix: (Units=GPa)
#
#
# Indices 1 2 3 4 5 6 
#
# 1 106.5541 21.1920 52.7062 -14.6345 19.3172 20.1711
# 2 21.1920 78.3302 29.2102 -7.5261 6.5002 17.3026
# 3 52.7062 29.2102 152.9689 -50.2521 30.3259 7.8292
# 4 -14.6345 -7.5261 -50.2521 28.4697 -4.2279 -5.9495
# 5 19.3172 6.5002 30.3259 -4.2279 43.4096 -3.5637
# 6 20.1711 17.3026 7.8292 -5.9495 -3.5637 38.9972
#
#
#
# Elastic Compliance Matrix: (Units=1/GPa)
#
#
# Indices 1 2 3 4 5 6 
#
# 1 0.013094 -0.000480 -0.004372 -0.002987 -0.003522 -0.006460
# 2 -0.000480 0.015352 -0.003722 -0.004179 -0.000425 -0.006492
# 3 -0.004372 -0.003722 0.021656 0.034506 -0.008936 0.004013
# 4 -0.002987 -0.004179 0.034506 0.093585 -0.012246 0.009630
# 5 -0.003522 -0.000425 -0.008936 -0.012246 0.030102 0.004687
# 6 -0.006460 -0.006492 0.004013 0.009630 0.004687 0.032956
#
#
# Mechanical properties :
#
#
# Convention : Reuss Voigt Hill
#
# Bulk Modulus (GPa) = 30.34603 60.45224 45.39913
# Shear Modulus (GPa) = 21.28747 37.82494 29.55620
#
# Velocity S-wave (km/s) = 2.90865 3.87721 3.42732
# Velocity P-wave (km/s) = 4.83123 6.63846 5.80559
#
# Compressibility (1/GPa) = 0.03295324
#
# Stress axis : x y z
#
# Youngs Moduli (GPa) = 76.36971 65.13666 46.17607
#
# Poissons Ratio (x) = 0.03126 0.20190
# Poissons Ratio (y) = 0.03665 0.17189
# Poissons Ratio (z) = 0.33392 0.24247
#
# Static dielectric constant tensor:
#      x y z
#    x 2.022330 -0.079470 -0.026110 
#    y -0.079470 2.119780 0.046380 
#    z -0.026110 0.046380 2.067900 
# 
# From -- ./inp_files/178357.got.cif
#   From: 2010.05.17/outbox.cif.g08.bks.cpg/sg2_90_cif.got.tgz:178357.got - 2010.06.03 11:33:40.
