data_PCOD9072561
_publ_section_title
;
Structure prediction by ZEFSAII (Michael W. Deem and Ramdas Pophale) SiO2 
 PCOD9072561
Probable space group: P -1
;
_chemical_formula_sum "Si O2"
_cell_formula_units_Z 16
_cell_length_a 12.000000
_cell_length_b 15.000000
_cell_length_c 9.000000
_cell_angle_alpha 110.000000
_cell_angle_beta 120.000000
_cell_angle_gamma 120.000000
_cell_volume 745.925389
_symmetry_space_group_name_H-M "P -1"
_symmetry_group_IT_number 2
_symmetry_cell_setting 'triclinic'
loop_
_space_group_symop_operation_xyz
x,y,z
-x,-y,-z
loop_
_atom_site_type_symbol
_atom_site_label
_atom_site_fract_x
_atom_site_fract_y
_atom_site_fract_z
Si Si1 0.489552 0.758201 0.776338
Si Si2 0.253403 0.370602 0.698534
Si Si3 0.298136 0.805157 0.881245
Si Si4 0.895410 0.236230 0.575838
Si Si5 0.881954 0.613221 0.680330
Si Si6 0.011815 0.989863 0.677221
Si Si7 0.155989 0.918564 0.264605
Si Si8 0.532185 0.104556 0.400849
O O1 0.394795 0.766090 0.854786
O O2 0.299740 0.570958 0.483211
O O3 0.557905 0.870081 0.753903
O O4 0.719825 0.846487 0.020897
O O5 0.245341 0.409554 0.551190
O O6 0.142030 0.375868 0.746617
O O7 0.500000 0.500000 0.000000
O O8 0.101822 0.182804 0.476880
O O9 0.242936 0.834503 0.713059
O O10 0.069905 0.663709 0.746955
O O11 0.453775 0.959089 0.186463
O O12 0.876645 0.136893 0.619698
O O13 0.803407 0.263497 0.640637
O O14 0.996693 0.757416 0.955089
O O15 0.898298 0.002778 0.711660
O O16 0.000000 0.000000 0.500000
O O17 0.408038 0.048153 0.440802
#
# Coordination Sequence:
#
# PCOD9072561 Si02
#       8
#     2   2   2   2   2   2   2   2
#     4  11  21  39  66  93 122 166 214 248 310 372
#     4  11  23  44  65  93 126 164 210 259 309 373
#     4   9  19  38  67  91 121 164 209 264 302 369
#     4  10  19  39  65  89 125 157 209 253 310 368
#     4  10  23  40  62  94 130 163 207 259 315 364
#     4  12  24  40  65  92 122 165 215 255 310 381
#     4  11  24  40  62  94 129 166 203 259 319 370
#     4  10  21  39  64  94 122 165 209 263 309 364
#
# _framework density 21.449867000000001
#
# number of rings (size 3 to 8) (size 9 to 14) (size 15 to 20)
#    0.000    1.500    1.250    6.000    0.000    2.500 
#    2.250    2.500    0.000    0.000    0.000    0.000 
#    0.000    0.000    0.000    0.000    0.000    0.000 
#
# Total GULP energy -89150.906585 kJ/mol
# GULP energy per Si atom -5571.931662 kJ/mol
# Density = 2.140105 g / cm^3
# Si number density = 21.449867 Si / 1000 Ang^3
#
#
#
# Elastic Constant Matrix: (Units=GPa)
#
#
# Indices 1 2 3 4 5 6 
#
# 1 135.4317 3.4214 39.0755 -1.8031 1.6208 8.8116
# 2 3.4214 36.9788 23.2863 -9.7774 -6.9477 7.4397
# 3 39.0755 23.2863 64.5299 4.2932 15.6849 10.2643
# 4 -1.8031 -9.7774 4.2932 25.8124 -8.1425 -3.6176
# 5 1.6208 -6.9477 15.6849 -8.1425 33.8267 0.1240
# 6 8.8116 7.4397 10.2643 -3.6176 0.1240 26.2562
#
#
#
# Elastic Compliance Matrix: (Units=1/GPa)
#
#
# Indices 1 2 3 4 5 6 
#
# 1 0.012276 0.017349 -0.018447 0.015328 0.015218 0.000216
# 2 0.017349 0.100787 -0.068990 0.073097 0.069446 0.002333
# 3 -0.018447 -0.068990 0.072093 -0.060168 -0.061159 -0.010445
# 4 0.015328 0.073097 -0.060168 0.099947 0.066196 0.011124
# 5 0.015218 0.069446 -0.061159 0.066196 0.087361 0.007832
# 6 0.000216 0.002333 -0.010445 0.011124 0.007832 0.042932
#
#
# Mechanical properties :
#
#
# Convention : Reuss Voigt Hill
#
# Bulk Modulus (GPa) = 22.23182 40.94519 31.58850
# Shear Modulus (GPa) = 8.76325 28.58956 18.67640
#
# Velocity S-wave (km/s) = 2.02344 3.65479 2.95396
# Velocity P-wave (km/s) = 3.98072 6.07785 5.13743
#
# Compressibility (1/GPa) = 0.04498057
#
# Stress axis : x y z
#
# Youngs Moduli (GPa) = 81.46014 9.92193 13.87093
#
# Poissons Ratio (x) = -0.17214 0.25588
# Poissons Ratio (y) = -1.41329 0.95695
# Poissons Ratio (z) = 1.50273 0.68451
#
# Static dielectric constant tensor:
#      x y z
#    x 1.803540 -0.002990 0.107380 
#    y -0.002990 1.857890 0.030930 
#    z 0.107380 0.030930 1.848710 
# 
# From -- ./inp_files/245110.got.cif
#   From: 2010.05.17/outbox.ucp.g08.bks.cvg/sg2_123_cif.got.tgz:245110.got - 2010.06.11 11:32:03.
