data_PCOD9072172
_publ_section_title
;
Structure prediction by ZEFSAII (Michael W. Deem and Ramdas Pophale) SiO2 
 PCOD9072172
Probable space group: P -1
;
_chemical_formula_sum "Si O2"
_cell_formula_units_Z 16
_cell_length_a 12.000000
_cell_length_b 12.000000
_cell_length_c 15.000000
_cell_angle_alpha 30.000000
_cell_angle_beta 70.000000
_cell_angle_gamma 90.000000
_cell_volume 787.799770
_symmetry_space_group_name_H-M "P -1"
_symmetry_group_IT_number 2
_symmetry_cell_setting 'triclinic'
loop_
_space_group_symop_operation_xyz
x,y,z
-x,-y,-z
loop_
_atom_site_type_symbol
_atom_site_label
_atom_site_fract_x
_atom_site_fract_y
_atom_site_fract_z
Si Si1 0.358100 0.848300 0.575215
Si Si2 0.483069 0.764324 0.066179
Si Si3 0.496748 0.151708 0.645845
Si Si4 0.849054 0.175777 0.001335
Si Si5 0.397448 0.386116 0.195279
Si Si6 0.159191 0.356644 0.377342
Si Si7 0.076070 0.203445 0.060383
Si Si8 0.294766 0.176806 0.897238
O O1 0.431208 0.888734 0.430180
O O2 0.207091 0.516493 0.851135
O O3 0.500000 0.000000 0.500000
O O4 0.314510 0.052985 0.455749
O O5 0.514449 0.018276 0.820875
O O6 0.499333 0.571765 0.126114
O O7 0.298094 0.547025 0.280718
O O8 0.593998 0.862268 0.051747
O O9 0.590906 0.490032 0.393812
O O10 0.317386 0.988468 0.792919
O O11 0.797580 0.004575 0.039878
O O12 0.910597 0.490190 0.736243
O O13 0.969432 0.198991 0.017646
O O14 0.260266 0.399992 0.233952
O O15 0.500000 0.500000 0.000000
O O16 0.036319 0.040223 0.667712
O O17 0.172346 0.128026 0.034528
#
# Coordination Sequence:
#
# PCOD9072172 Si02
#       8
#     2   2   2   2   2   2   2   2
#     4  11  23  41  67  92 122 164 211 259 322 374
#     4   9  20  39  64  92 126 156 221 255 303 373
#     4  10  21  40  63  98 122 160 216 266 300 377
#     4  11  23  43  62  89 133 166 209 262 317 370
#     4  10  18  41  66  90 123 162 207 258 310 366
#     4   9  23  41  62  94 130 163 210 262 311 373
#     4  11  25  41  61  93 131 161 212 261 314 387
#     4  11  23  38  65  93 123 174 210 258 317 366
#
# _framework density 20.309729000000001
#
# number of rings (size 3 to 8) (size 9 to 14) (size 15 to 20)
#    0.750    1.000    1.250    3.000    1.750    6.000 
#    2.250    0.625    0.000    0.000    0.000    0.000 
#    0.000    0.000    0.000    0.000    0.000    0.000 
#
# Total GULP energy -89209.037321 kJ/mol
# GULP energy per Si atom -5575.564833 kJ/mol
# Density = 2.026350 g / cm^3
# Si number density = 20.309729 Si / 1000 Ang^3
#
#
#
# Elastic Constant Matrix: (Units=GPa)
#
#
# Indices 1 2 3 4 5 6 
#
# 1 99.9739 5.4860 43.8286 -1.8430 -1.0840 13.4402
# 2 5.4860 61.8636 30.2126 -1.8096 -1.7822 8.9781
# 3 43.8286 30.2126 131.8365 6.0573 -6.3254 11.1373
# 4 -1.8430 -1.8096 6.0573 18.4271 -3.4607 -6.3877
# 5 -1.0840 -1.7822 -6.3254 -3.4607 25.3809 0.1317
# 6 13.4402 8.9781 11.1373 -6.3877 0.1317 29.3892
#
#
#
# Elastic Compliance Matrix: (Units=1/GPa)
#
#
# Indices 1 2 3 4 5 6 
#
# 1 0.012341 0.001595 -0.004174 0.001240 -0.000210 -0.004279
# 2 0.001595 0.018968 -0.004582 0.002137 0.000572 -0.004326
# 3 -0.004174 -0.004582 0.010445 -0.004596 0.001485 -0.001655
# 4 0.001240 0.002137 -0.004596 0.062389 0.007492 0.014049
# 5 -0.000210 0.000572 0.001485 0.007492 0.040818 0.000804
# 6 -0.004279 -0.004326 -0.001655 0.014049 0.000804 0.040981
#
#
# Mechanical properties :
#
#
# Convention : Reuss Voigt Hill
#
# Bulk Modulus (GPa) = 36.45437 50.30315 43.37876
# Shear Modulus (GPa) = 23.87678 28.91590 26.39634
#
# Velocity S-wave (km/s) = 3.43247 3.77735 3.60903
# Velocity P-wave (km/s) = 5.80494 6.62165 6.22670
#
# Compressibility (1/GPa) = 0.02743155
#
# Stress axis : x y z
#
# Youngs Moduli (GPa) = 81.03290 52.72092 95.73878
#
# Poissons Ratio (x) = -0.08410 0.39959
# Poissons Ratio (y) = -0.12926 0.43872
# Poissons Ratio (z) = 0.33821 0.24159
#
# Static dielectric constant tensor:
#      x y z
#    x 1.743440 -0.030640 0.035070 
#    y -0.030640 1.775460 -0.025730 
#    z 0.035070 -0.025730 1.720710 
# 
# From -- ./inp_files/517462.got.cif
#   From: 2010.05.17/outbox.ucp.g08.bks.cvg/sg2_259_cif.got.tgz:517462.got - 2010.06.11 11:32:03.
