data_PCOD9072114
_publ_section_title
;
Structure prediction by ZEFSAII (Michael W. Deem and Ramdas Pophale) SiO2 
 PCOD9072114
Probable space group: P -1
;
_chemical_formula_sum "Si O2"
_cell_formula_units_Z 12
_cell_length_a 15.000000
_cell_length_b 9.000000
_cell_length_c 12.000000
_cell_angle_alpha 50.000000
_cell_angle_beta 30.000000
_cell_angle_gamma 40.000000
_cell_volume 519.584618
_symmetry_space_group_name_H-M "P -1"
_symmetry_group_IT_number 2
_symmetry_cell_setting 'triclinic'
loop_
_space_group_symop_operation_xyz
x,y,z
-x,-y,-z
loop_
_atom_site_type_symbol
_atom_site_label
_atom_site_fract_x
_atom_site_fract_y
_atom_site_fract_z
Si Si1 0.181473 0.727389 0.932923
Si Si2 0.212745 0.512842 0.242775
Si Si3 0.162288 0.324494 0.703012
Si Si4 0.052949 0.781430 0.480092
Si Si5 0.457162 0.868030 0.459818
Si Si6 0.596613 0.965634 0.791007
O O1 0.382497 0.709249 0.670126
O O2 0.209721 0.621363 0.075612
O O3 0.065092 0.627049 0.041322
O O4 0.000000 0.000000 0.000000
O O5 0.225081 0.663205 0.253332
O O6 0.401729 0.247318 0.162941
O O7 0.000000 0.500000 0.500000
O O8 0.116488 0.566598 0.594282
O O9 0.323134 0.207630 0.685492
O O10 0.280225 0.131685 0.568154
O O11 0.834975 0.883213 0.600339
O O12 0.000000 0.000000 0.500000
O O13 0.479557 0.849184 0.312598
O O14 0.500000 0.000000 0.000000
#
# Coordination Sequence:
#
# PCOD9072114 Si02
#       6
#     2   2   2   2   2   2
#     4  10  18  36  69  98 127 179 223 273 350 400
#     4  10  18  40  71  87 133 187 219 274 341 403
#     4  10  19  41  69 100 134 173 230 285 338 407
#     4  11  22  42  67  99 137 179 231 279 337 411
#     4  10  22  40  71 102 131 177 234 278 346 413
#     4  11  23  45  66  96 137 180 226 283 346 403
#
# _framework density 23.095372000000001
#
# number of rings (size 3 to 8) (size 9 to 14) (size 15 to 20)
#    0.000    1.667    5.000    3.000    0.000    1.333 
#   12.000    7.500    0.000    0.000    0.000    0.000 
#    0.000    0.000    0.000    0.000    0.000    0.000 
#
# Total GULP energy -66824.923549 kJ/mol
# GULP energy per Si atom -5568.743629 kJ/mol
# Density = 2.304281 g / cm^3
# Si number density = 23.095372 Si / 1000 Ang^3
#
#
#
# Elastic Constant Matrix: (Units=GPa)
#
#
# Indices 1 2 3 4 5 6 
#
# 1 23.6404 79.4921 -24.8678 10.7448 43.7794 70.5297
# 2 79.4921 67.5857 77.3766 -29.4334 -9.9548 -17.2542
# 3 -24.8678 77.3766 -12.1881 -9.2630 62.8861 84.5326
# 4 10.7448 -29.4334 -9.2630 17.6785 -15.4598 3.0905
# 5 43.7794 -9.9548 62.8861 -15.4598 14.1031 -32.2815
# 6 70.5297 -17.2542 84.5326 3.0905 -32.2815 -14.7518
#
#
#
# Elastic Compliance Matrix: (Units=1/GPa)
#
#
# Indices 1 2 3 4 5 6 
#
# 1 -0.011606 0.027216 0.013081 0.077534 0.015107 -0.029183
# 2 0.027216 -0.018336 -0.025252 -0.077852 -0.015275 0.023982
# 3 0.013081 -0.025252 -0.010125 -0.067504 -0.006940 0.035098
# 4 0.077534 -0.077852 -0.067504 -0.186202 -0.019390 0.078359
# 5 0.015107 -0.015275 -0.006940 -0.019390 0.021437 -0.000647
# 6 -0.029183 0.023982 0.035098 0.078359 -0.000647 -0.016409
#
#
# Mechanical properties :
#
#
# Convention : Reuss Voigt Hill
#
# Bulk Modulus (GPa) = -100.21201 38.11552 -31.04824
# Shear Modulus (GPa) = -19.63434 -0.12490 -9.87962
#
# Velocity S-wave (km/s) = -2.91888 -0.23280 -2.07052
# Velocity P-wave (km/s) = 7.40571 4.05797 4.38049
#
# Compressibility (1/GPa) = -0.00997884
#
# Stress axis : x y z
#
# Youngs Moduli (GPa) = -86.15984 -54.53703 -98.76291
#
# Poissons Ratio (x) = 1.48429 1.29187
# Poissons Ratio (y) = 2.34495 -2.49399
# Poissons Ratio (z) = 1.12702 -1.37719
#
# Static dielectric constant tensor:
#      x y z
#    x 1.702160 -0.176450 -0.189360 
#    y -0.176450 1.578640 -0.217800 
#    z -0.189360 -0.217800 1.782750 
# 
# From -- ./inp_files/147158.got.cif
#   From: 2010.05.17/outbox.ucp.g08.bks.cvg/sg2_74_cif.got.tgz:147158.got - 2010.06.11 11:32:03.
