data_PCOD9072291
_publ_section_title
;
Structure prediction by ZEFSAII (Michael W. Deem and Ramdas Pophale) SiO2 
 PCOD9072291
Probable space group: P -1
;
_chemical_formula_sum "Si O2"
_cell_formula_units_Z 16
_cell_length_a 7.760326
_cell_length_b 11.939720
_cell_length_c 10.471825
_cell_angle_alpha 67.293247
_cell_angle_beta 131.919988
_cell_angle_gamma 113.237195
_cell_volume 652.675675
_symmetry_space_group_name_H-M "P -1"
_symmetry_group_IT_number 2
_symmetry_cell_setting 'triclinic'
loop_
_space_group_symop_operation_xyz
x,y,z
-x,-y,-z
loop_
_atom_site_type_symbol
_atom_site_label
_atom_site_fract_x
_atom_site_fract_y
_atom_site_fract_z
Si Si1 0.763273 0.574614 0.078270
Si Si2 0.624792 0.314712 0.829043
Si Si3 0.326405 0.095123 0.883088
Si Si4 0.428852 0.425611 0.365982
Si Si5 0.083678 0.673668 0.788630
Si Si6 0.817656 0.291134 0.651996
Si Si7 0.537801 0.788809 0.821004
Si Si8 0.860122 0.012560 0.790147
O O1 0.907943 0.472820 0.149195
O O2 0.911804 0.635331 0.248457
O O3 0.500000 0.500000 0.000000
O O4 0.702498 0.688524 0.916172
O O5 0.389401 0.208616 0.765743
O O6 0.597934 0.455369 0.783559
O O7 0.745092 0.303976 0.758360
O O8 0.790462 0.279723 0.037500
O O9 0.062066 0.015767 0.783051
O O10 0.375010 0.161916 0.015505
O O11 0.500000 0.000000 0.000000
O O12 0.500000 0.500000 0.500000
O O13 0.636877 0.357043 0.456991
O O14 0.191989 0.328565 0.329650
O O15 0.257915 0.735849 0.732485
O O16 0.798289 0.147060 0.686464
O O17 0.629350 0.904882 0.724540
O O18 0.000000 0.000000 0.000000
#
# Coordination Sequence:
#
# PCOD9072291 Si02
#       8
#     2   2   2   2   2   2   2   2
#     4  10  18  30  54  81 112 138 186 223 266 320
#     4  10  20  33  54  85 113 143 181 229 271 316
#     4  10  19  30  53  83 110 133 182 237 274 304
#     4  10  20  33  52  80 116 147 178 223 275 328
#     4  10  19  34  55  86 113 140 187 225 268 323
#     4  11  20  35  57  82 112 146 185 222 273 329
#     4   9  19  33  54  83 106 145 186 224 268 323
#     4  10  18  34  55  78 109 143 189 223 269 328
#
# _framework density 24.514474
#
# number of rings (size 3 to 8) (size 9 to 14) (size 15 to 20)
#    0.000    2.000    5.000    1.875    0.000    0.000 
#    0.000    1.250    0.000    0.000    0.000   14.000 
#    0.000    0.000    0.000    0.000    0.000    0.000 
#
# Total GULP energy -89287.082004 kJ/mol
# GULP energy per Si atom -5580.442625 kJ/mol
# Density = 2.445868 g / cm^3
# Si number density = 24.514474 Si / 1000 Ang^3
#
#
#
# Elastic Constant Matrix: (Units=GPa)
#
#
# Indices 1 2 3 4 5 6 
#
# 1 102.2963 45.2486 19.2026 -12.3569 24.1624 22.2564
# 2 45.2486 133.6669 42.4110 -23.6422 21.7809 36.3373
# 3 19.2026 42.4110 58.5442 2.7461 31.9304 15.0498
# 4 -12.3569 -23.6422 2.7461 31.8075 -9.3048 11.5318
# 5 24.1624 21.7809 31.9304 -9.3048 40.0083 -0.8863
# 6 22.2564 36.3373 15.0498 11.5318 -0.8863 54.5317
#
#
#
# Elastic Compliance Matrix: (Units=1/GPa)
#
#
# Indices 1 2 3 4 5 6 
#
# 1 0.013992 -0.002187 0.003688 0.002848 -0.009674 -0.006030
# 2 -0.002187 0.018446 -0.014792 0.020547 0.007607 -0.011538
# 3 0.003688 -0.014792 0.049501 -0.025178 -0.039550 -0.000628
# 4 0.002848 0.020547 -0.025178 0.063951 0.021595 -0.021078
# 5 -0.009674 0.007607 -0.039550 0.021595 0.063421 0.006258
# 6 -0.006030 -0.011538 -0.000628 -0.021078 0.006258 0.033220
#
#
# Mechanical properties :
#
#
# Convention : Reuss Voigt Hill
#
# Bulk Modulus (GPa) = 18.06503 56.47019 37.26761
# Shear Modulus (GPa) = 17.38735 37.77920 27.58327
#
# Velocity S-wave (km/s) = 2.66610 3.92994 3.35801
# Velocity P-wave (km/s) = 4.10641 6.60894 5.50185
#
# Compressibility (1/GPa) = 0.05535558
#
# Stress axis : x y z
#
# Youngs Moduli (GPa) = 71.47095 54.21118 20.20174
#
# Poissons Ratio (x) = 0.11857 -0.07450
# Poissons Ratio (y) = 0.15632 0.29883
# Poissons Ratio (z) = -0.26359 0.80192
#
# Static dielectric constant tensor:
#      x y z
#    x 2.025460 0.058320 -0.019120 
#    y 0.058320 2.044860 0.014250 
#    z -0.019120 0.014250 2.074390 
# 
# From -- ./inp_files/501776.got.cif
#   From: 2010.05.17/outbox.cif.g08.bks.cpg/sg2_251_cif.got.tgz:501776.got - 2010.06.03 11:33:40.
