data_PCOD9072124
_publ_section_title
;
Structure prediction by ZEFSAII (Michael W. Deem and Ramdas Pophale) SiO2 
 PCOD9072124
Probable space group: P -1
;
_chemical_formula_sum "Si O2"
_cell_formula_units_Z 16
_cell_length_a 5.509438
_cell_length_b 12.933663
_cell_length_c 18.525497
_cell_angle_alpha 52.689428
_cell_angle_beta 117.392385
_cell_angle_gamma 107.064311
_cell_volume 932.016161
_symmetry_space_group_name_H-M "P -1"
_symmetry_group_IT_number 2
_symmetry_cell_setting 'triclinic'
loop_
_space_group_symop_operation_xyz
x,y,z
-x,-y,-z
loop_
_atom_site_type_symbol
_atom_site_label
_atom_site_fract_x
_atom_site_fract_y
_atom_site_fract_z
Si Si1 0.176453 0.616448 0.440014
Si Si2 0.468382 0.162970 0.393073
Si Si3 0.049721 0.801010 0.458764
Si Si4 0.675126 0.313071 0.140901
Si Si5 0.779192 0.558300 0.605426
Si Si6 0.239896 0.431296 0.231747
Si Si7 0.171501 0.928834 0.652239
Si Si8 0.299841 0.536298 0.054466
O O1 0.059725 0.748195 0.400853
O O2 0.478744 0.600739 0.520486
O O3 0.171300 0.577329 0.372128
O O4 0.000000 0.500000 0.500000
O O5 0.646911 0.154330 0.493459
O O6 0.453167 0.315016 0.306672
O O7 0.651593 0.095239 0.385432
O O8 0.150873 0.117783 0.378844
O O9 0.966642 0.677861 0.550375
O O10 0.850832 0.920465 0.393721
O O11 0.685618 0.164022 0.230006
O O12 0.466347 0.408067 0.111245
O O13 0.964714 0.370969 0.184502
O O14 0.621458 0.341507 0.036984
O O15 0.798351 0.541452 0.700723
O O16 0.317668 0.547486 0.138427
O O17 0.000000 0.500000 0.000000
#
# Coordination Sequence:
#
# PCOD9072124 Si02
#       8
#     2   2   2   2   2   2   2   2
#     4   9  20  35  50  70  98 135 180 227 261 301
#     4  11  21  33  47  78 108 145 177 211 246 316
#     4  11  21  33  50  70 105 145 174 217 257 304
#     4   9  18  32  46  74 102 136 172 213 251 315
#     4  10  20  34  51  73 101 136 182 220 265 306
#     4  10  18  30  52  72 102 139 169 217 259 306
#     4  11  23  33  51  75 110 144 181 209 253 313
#     4   9  17  30  49  68 100 134 172 212 262 301
#
# _framework density 17.167083999999999
#
# number of rings (size 3 to 8) (size 9 to 14) (size 15 to 20)
#    0.000    2.000    2.500    2.250    1.750    0.000 
#    0.000    0.000    0.000    0.000    0.000    0.875 
#    0.000   18.000    0.000    0.500    0.000    0.000 
#
# Total GULP energy -89076.517106 kJ/mol
# GULP energy per Si atom -5567.282319 kJ/mol
# Density = 1.712801 g / cm^3
# Si number density = 17.167084 Si / 1000 Ang^3
#
#
#
# Elastic Constant Matrix: (Units=GPa)
#
#
# Indices 1 2 3 4 5 6 
#
# 1 76.0362 33.7691 24.5239 -0.4909 3.5245 -9.8663
# 2 33.7691 91.8373 50.6537 0.8636 -11.8013 -38.0734
# 3 24.5239 50.6537 110.1881 -1.4161 -17.6747 -18.5538
# 4 -0.4909 0.8636 -1.4161 17.1771 -12.8404 -0.2593
# 5 3.5245 -11.8013 -17.6747 -12.8404 37.4388 4.2558
# 6 -9.8663 -38.0734 -18.5538 -0.2593 4.2558 32.6383
#
#
#
# Elastic Compliance Matrix: (Units=1/GPa)
#
#
# Indices 1 2 3 4 5 6 
#
# 1 0.016808 -0.007476 -0.001929 -0.003559 -0.005612 -0.004033
# 2 -0.007476 0.029092 -0.006388 0.001347 0.004193 0.027509
# 3 -0.001929 -0.006388 0.013415 0.006488 0.006869 -0.001252
# 4 -0.003559 0.001347 0.006488 0.082561 0.032064 0.000659
# 5 -0.005612 0.004193 0.006869 0.032064 0.042595 0.001801
# 6 -0.004033 0.027509 -0.001252 0.000659 0.001801 0.060568
#
#
# Mechanical properties :
#
#
# Convention : Reuss Voigt Hill
#
# Bulk Modulus (GPa) = 36.06271 55.10611 45.58441
# Shear Modulus (GPa) = 17.49057 28.72516 23.10786
#
# Velocity S-wave (km/s) = 3.19540 4.09500 3.67284
# Velocity P-wave (km/s) = 5.88783 7.38432 6.67813
#
# Compressibility (1/GPa) = 0.02772948
#
# Stress axis : x y z
#
# Youngs Moduli (GPa) = 59.49588 34.37415 74.54093
#
# Poissons Ratio (x) = 0.25699 0.14379
# Poissons Ratio (y) = 0.44480 0.47613
# Poissons Ratio (z) = 0.11477 0.21957
#
# Static dielectric constant tensor:
#      x y z
#    x 1.702410 0.006890 -0.012240 
#    y 0.006890 1.620510 0.000210 
#    z -0.012240 0.000210 1.636540 
# 
# From -- ./inp_files/75718.got.cif
#   From: 2010.05.17/outbox.cif.g08.bks.cpg/sg2_38_cif.got.tgz:75718.got - 2010.06.03 11:33:40.
