data_PCOD9072694
_publ_section_title
;
Structure prediction by ZEFSAII (Michael W. Deem and Ramdas Pophale) SiO2 
 PCOD9072694
Probable space group: P -1
;
_chemical_formula_sum "Si O2"
_cell_formula_units_Z 16
_cell_length_a 12.000000
_cell_length_b 18.000000
_cell_length_c 9.000000
_cell_angle_alpha 130.000000
_cell_angle_beta 80.000000
_cell_angle_gamma 140.000000
_cell_volume 729.599496
_symmetry_space_group_name_H-M "P -1"
_symmetry_group_IT_number 2
_symmetry_cell_setting 'triclinic'
loop_
_space_group_symop_operation_xyz
x,y,z
-x,-y,-z
loop_
_atom_site_type_symbol
_atom_site_label
_atom_site_fract_x
_atom_site_fract_y
_atom_site_fract_z
Si Si1 0.364111 0.319621 0.384862
Si Si2 0.902153 0.981742 0.187246
Si Si3 0.652874 0.019842 0.016243
Si Si4 0.206326 0.719120 0.180822
Si Si5 0.920695 0.032771 0.654614
Si Si6 0.327294 0.002980 0.668659
Si Si7 0.030719 0.712183 0.967854
Si Si8 0.540582 0.301716 0.538719
O O1 0.500000 0.500000 0.500000
O O2 0.519438 0.382510 0.549317
O O3 0.267007 0.167199 0.098703
O O4 0.142787 0.201344 0.359505
O O5 0.973064 0.928401 0.164283
O O6 0.794637 0.985041 0.317973
O O7 0.660416 0.996211 0.154994
O O8 0.892123 0.216813 0.128872
O O9 0.500000 0.000000 0.000000
O O10 0.539438 0.848884 0.730864
O O11 0.207415 0.813960 0.407395
O O12 0.436041 0.827584 0.257690
O O13 0.000000 0.500000 0.000000
O O14 0.204960 0.771513 0.087689
O O15 0.649123 0.827879 0.460225
O O16 0.000000 0.000000 0.500000
O O17 0.986695 0.193954 0.834542
O O18 0.797328 0.483928 0.757349
#
# Coordination Sequence:
#
# PCOD9072694 Si02
#       8
#     2   2   2   2   2   2   2   2
#     4  10  20  35  58  92 124 154 194 250 309 362
#     4  10  21  38  61  89 122 159 203 249 307 368
#     4  11  23  42  67  93 125 168 212 262 317 369
#     4  11  27  44  64  93 128 169 212 261 316 378
#     4  10  22  41  64  89 125 172 208 252 310 372
#     4  11  24  45  66  92 128 168 213 259 317 378
#     4  11  24  42  66  97 128 164 214 263 314 376
#     4  10  23  38  63  96 125 159 208 259 311 369
#
# _framework density 21.929839999999999
#
# number of rings (size 3 to 8) (size 9 to 14) (size 15 to 20)
#    0.000    1.500    2.500    1.500    5.250    5.000 
#    0.000    0.000    0.000    0.000    0.000    0.000 
#    0.000    0.000    0.000    0.000    0.000    0.000 
#
# Total GULP energy -89193.559439 kJ/mol
# GULP energy per Si atom -5574.597465 kJ/mol
# Density = 2.187993 g / cm^3
# Si number density = 21.929840 Si / 1000 Ang^3
#
#
#
# Elastic Constant Matrix: (Units=GPa)
#
#
# Indices 1 2 3 4 5 6 
#
# 1 109.9297 54.2489 21.4755 19.3010 -17.4676 13.2805
# 2 54.2489 54.8602 31.1814 -1.5529 -22.2040 -4.1466
# 3 21.4755 31.1814 13.2154 11.8953 -3.1843 17.5324
# 4 19.3010 -1.5529 11.8953 22.9755 -3.9310 -3.6879
# 5 -17.4676 -22.2040 -3.1843 -3.9310 18.0243 -6.7935
# 6 13.2805 -4.1466 17.5324 -3.6879 -6.7935 31.7402
#
#
#
# Elastic Compliance Matrix: (Units=1/GPa)
#
#
# Indices 1 2 3 4 5 6 
#
# 1 0.015320 -0.003501 -0.014603 -0.003765 0.008071 0.002489
# 2 -0.003501 0.004229 0.026746 -0.013307 -0.001905 -0.014710
# 3 -0.014603 0.026746 0.003009 0.020352 0.030077 0.016745
# 4 -0.003765 -0.013307 0.020352 0.031192 -0.013680 -0.010709
# 5 0.008071 -0.001905 0.030077 -0.013680 0.059890 -0.009010
# 6 0.002489 -0.014710 0.016745 -0.010709 -0.009010 0.016121
#
#
# Mechanical properties :
#
#
# Convention : Reuss Voigt Hill
#
# Bulk Modulus (GPa) = 25.10025 43.53520 34.31773
# Shear Modulus (GPa) = 39.75895 19.28795 29.52345
#
# Velocity S-wave (km/s) = 4.26256 2.96890 3.67313
# Velocity P-wave (km/s) = 5.97465 5.62563 5.80276
#
# Compressibility (1/GPa) = 0.03984024
#
# Stress axis : x y z
#
# Youngs Moduli (GPa) = 65.27348 236.46704 332.38122
#
# Poissons Ratio (x) = 0.82785 4.85390
# Poissons Ratio (y) = 0.22852 -8.88973
# Poissons Ratio (z) = 0.95321 -6.32445
#
# Static dielectric constant tensor:
#      x y z
#    x 1.846030 -0.085530 0.022960 
#    y -0.085530 1.859480 -0.036650 
#    z 0.022960 -0.036650 1.848290 
# 
# From -- ./inp_files/81154.got.cif
#   From: 2010.05.17/outbox.ucp.g08.bks.cvg/sg2_41_cif.got.tgz:81154.got - 2010.06.11 11:32:03.
