data_PCOD9072393
_publ_section_title
;
Structure prediction by ZEFSAII (Michael W. Deem and Ramdas Pophale) SiO2 
 PCOD9072393
Probable space group: P -1
;
_chemical_formula_sum "Si O2"
_cell_formula_units_Z 14
_cell_length_a 7.545578
_cell_length_b 15.567339
_cell_length_c 10.602127
_cell_angle_alpha 135.326700
_cell_angle_beta 51.759163
_cell_angle_gamma 107.540939
_cell_volume 665.620101
_symmetry_space_group_name_H-M "P -1"
_symmetry_group_IT_number 2
_symmetry_cell_setting 'triclinic'
loop_
_space_group_symop_operation_xyz
x,y,z
-x,-y,-z
loop_
_atom_site_type_symbol
_atom_site_label
_atom_site_fract_x
_atom_site_fract_y
_atom_site_fract_z
Si Si1 0.054062 0.897217 0.058601
Si Si2 0.953204 0.164158 0.293637
Si Si3 0.856669 0.681350 0.030627
Si Si4 0.544707 0.396342 0.760644
Si Si5 0.340988 0.397367 0.226345
Si Si6 0.548336 0.799969 0.835347
Si Si7 0.733563 0.544312 0.418562
O O1 0.089307 0.839705 0.841498
O O2 0.310695 0.891778 0.992913
O O3 0.939409 0.808159 0.102825
O O4 0.907929 0.040680 0.252305
O O5 0.789722 0.292928 0.553614
O O6 0.227751 0.152167 0.177369
O O7 0.655202 0.678025 0.215725
O O8 0.757398 0.651302 0.906211
O O9 0.072982 0.562586 0.844069
O O10 0.549196 0.486654 0.734415
O O11 0.500000 0.500000 0.000000
O O12 0.507527 0.277151 0.097783
O O13 0.167680 0.442582 0.468240
O O14 0.644816 0.690523 0.572761
O O15 0.500000 0.500000 0.500000
#
# Coordination Sequence:
#
# PCOD9072393 Si02
#       7
#     2   2   2   2   2   2   2
#     4  11  22  38  64  88 113 153 204 239 282 345
#     4  11  23  40  61  86 117 157 196 241 287 342
#     4  11  18  36  55  85 118 155 191 233 296 348
#     4  10  22  35  60  86 118 159 191 232 300 354
#     4   9  19  32  58  83 114 147 190 242 288 336
#     4  10  20  35  62  88 115 146 193 254 286 331
#     4  10  18  30  56  84 111 146 190 246 283 332
#
# _framework density 21.033017000000001
#
# number of rings (size 3 to 8) (size 9 to 14) (size 15 to 20)
#    0.857    0.857    2.857    3.429    0.000    0.571 
#    0.000    2.857   12.571    3.429    0.000    0.000 
#    0.000    0.000    0.000    0.000    0.000    0.000 
#
# Total GULP energy -77963.187740 kJ/mol
# GULP energy per Si atom -5568.799124 kJ/mol
# Density = 2.098514 g / cm^3
# Si number density = 21.033017 Si / 1000 Ang^3
#
#
#
# Elastic Constant Matrix: (Units=GPa)
#
#
# Indices 1 2 3 4 5 6 
#
# 1 59.7295 0.6873 19.3065 -2.1985 -18.9063 5.8692
# 2 0.6873 108.7699 39.8846 -0.7284 -20.3890 -12.2485
# 3 19.3065 39.8846 64.7604 5.0294 -13.5817 -13.7882
# 4 -2.1985 -0.7284 5.0294 23.8447 3.7344 -12.5620
# 5 -18.9063 -20.3890 -13.5817 3.7344 25.9492 0.9464
# 6 5.8692 -12.2485 -13.7882 -12.5620 0.9464 18.6169
#
#
#
# Elastic Compliance Matrix: (Units=1/GPa)
#
#
# Indices 1 2 3 4 5 6 
#
# 1 0.028934 0.005569 -0.011312 -0.009368 0.021660 -0.021258
# 2 0.005569 0.014417 -0.007804 0.002549 0.010820 0.003120
# 3 -0.011312 -0.007804 0.027697 0.004827 -0.001384 0.022273
# 4 -0.009368 0.002549 0.004827 0.073235 -0.014965 0.058383
# 5 0.021660 0.010820 -0.001384 -0.014965 0.064764 -0.014124
# 6 -0.021258 0.003120 0.022273 0.058383 -0.014124 0.119077
#
#
# Mechanical properties :
#
#
# Convention : Reuss Voigt Hill
#
# Bulk Modulus (GPa) = 22.75068 39.22406 30.98737
# Shear Modulus (GPa) = 13.51829 25.24092 19.37960
#
# Velocity S-wave (km/s) = 2.53794 3.46795 3.03873
# Velocity P-wave (km/s) = 4.40775 5.89278 5.20352
#
# Compressibility (1/GPa) = 0.04395474
#
# Stress axis : x y z
#
# Youngs Moduli (GPa) = 34.56085 69.36477 36.10510
#
# Poissons Ratio (x) = -0.38626 0.40841
# Poissons Ratio (y) = -0.19245 0.28175
# Poissons Ratio (z) = 0.39094 0.54129
#
# Static dielectric constant tensor:
#      x y z
#    x 1.833180 0.015190 0.017770 
#    y 0.015190 1.822620 0.029820 
#    z 0.017770 0.029820 1.782520 
# 
# From -- ./inp_files/506723.got.cif
#   From: 2010.05.17/outbox.cif.g08.bks.cpg/sg2_254_cif.got.tgz:506723.got - 2010.06.03 11:33:40.
