data_PCOD9072697
_publ_section_title
;
Structure prediction by ZEFSAII (Michael W. Deem and Ramdas Pophale) SiO2 
 PCOD9072697
Probable space group: P -1
;
_chemical_formula_sum "Si O2"
_cell_formula_units_Z 16
_cell_length_a 9.611381
_cell_length_b 11.844734
_cell_length_c 7.811008
_cell_angle_alpha 90.880132
_cell_angle_beta 102.921942
_cell_angle_gamma 51.042623
_cell_volume 664.707581
_symmetry_space_group_name_H-M "P -1"
_symmetry_group_IT_number 2
_symmetry_cell_setting 'triclinic'
loop_
_space_group_symop_operation_xyz
x,y,z
-x,-y,-z
loop_
_atom_site_type_symbol
_atom_site_label
_atom_site_fract_x
_atom_site_fract_y
_atom_site_fract_z
Si Si1 0.808127 0.532974 0.926012
Si Si2 0.523124 0.248142 0.357377
Si Si3 0.514188 0.299354 0.866117
Si Si4 0.995397 0.169535 0.658119
Si Si5 0.832179 0.010551 0.660469
Si Si6 0.135301 0.727862 0.925528
Si Si7 0.310494 0.581556 0.617594
Si Si8 0.360298 0.968304 0.938017
O O1 0.659808 0.621324 0.046136
O O2 0.857062 0.376396 0.940501
O O3 0.696771 0.635526 0.732709
O O4 0.000000 0.500000 0.000000
O O5 0.587773 0.347272 0.363642
O O6 0.597917 0.138110 0.212051
O O7 0.619361 0.135714 0.540116
O O8 0.442108 0.407397 0.684560
O O9 0.687748 0.283481 0.985179
O O10 0.604023 0.129230 0.889254
O O11 0.075060 0.086720 0.492892
O O12 0.837386 0.340241 0.573275
O O13 0.161939 0.116825 0.827962
O O14 0.902504 0.103493 0.707124
O O15 0.939500 0.886950 0.835407
O O16 0.190894 0.645866 0.757992
O O17 0.500000 0.000000 0.000000
#
# Coordination Sequence:
#
# PCOD9072697 Si02
#       8
#     2   2   2   2   2   2   2   2
#     4  10  18  25  37  61  91 110 127 164 216 255
#     4   9  15  27  41  62  86 105 132 169 210 239
#     4  10  16  27  43  63  83 106 142 167 200 241
#     4   8  13  21  35  59  83  99 132 165 209 236
#     4   8  13  21  41  61  78 103 132 172 205 237
#     4  10  13  24  42  63  81 102 137 165 203 247
#     4   9  13  23  44  62  77  98 134 178 207 230
#     4  10  17  24  36  59  90 114 131 161 207 248
#
# _framework density 24.070734999999999
#
# number of rings (size 3 to 8) (size 9 to 14) (size 15 to 20)
#    0.000    2.750    5.000    2.250    0.000    0.000 
#    0.000    1.250    0.000    0.000    0.000    3.500 
#    0.000   16.000    0.000    1.500    0.000    0.000 
#
# Total GULP energy -89225.017295 kJ/mol
# GULP energy per Si atom -5576.563581 kJ/mol
# Density = 2.401595 g / cm^3
# Si number density = 24.070735 Si / 1000 Ang^3
#
#
#
# Elastic Constant Matrix: (Units=GPa)
#
#
# Indices 1 2 3 4 5 6 
#
# 1 70.3682 45.8603 72.2547 -5.6254 25.0937 3.0349
# 2 45.8603 72.2323 36.8152 -42.4426 5.0896 -30.7332
# 3 72.2547 36.8152 207.7618 -60.7041 18.2851 -9.8170
# 4 -5.6254 -42.4426 -60.7041 50.8079 -14.0547 -0.7521
# 5 25.0937 5.0896 18.2851 -14.0547 43.5919 -1.4265
# 6 3.0349 -30.7332 -9.8170 -0.7521 -1.4265 34.9612
#
#
#
# Elastic Compliance Matrix: (Units=1/GPa)
#
#
# Indices 1 2 3 4 5 6 
#
# 1 -0.000800 0.016884 0.003382 0.019365 0.003852 0.016435
# 2 0.016884 -0.006297 -0.009540 -0.018026 -0.011139 -0.010522
# 3 0.003382 -0.009540 0.004207 -0.003812 -0.004080 -0.007747
# 4 0.019365 -0.018026 -0.003812 -0.000326 -0.008169 -0.018937
# 5 0.003852 -0.011139 -0.004080 -0.008169 0.020754 -0.010601
# 6 0.016435 -0.010522 -0.007747 -0.018937 -0.010601 0.014912
#
#
# Mechanical properties :
#
#
# Convention : Reuss Voigt Hill
#
# Bulk Modulus (GPa) = 53.87047 73.35807 63.61427
# Shear Modulus (GPa) = 290.95978 38.90102 164.93040
#
# Velocity S-wave (km/s) = 11.00633 4.02445 8.28660
# Velocity P-wave (km/s) = 13.56274 7.22061 10.86474
#
# Compressibility (1/GPa) = 0.01856304
#
# Stress axis : x y z
#
# Youngs Moduli (GPa) = -1250.33481 -158.80849 237.71367
#
# Poissons Ratio (x) = 2.68134 -0.80396
# Poissons Ratio (y) = 21.11082 2.26771
# Poissons Ratio (z) = 4.22869 -1.51498
#
# Static dielectric constant tensor:
#      x y z
#    x 1.622640 0.163490 0.065200 
#    y 0.163490 1.773230 -0.105060 
#    z 0.065200 -0.105060 1.900250 
# 
# From -- ./inp_files/302919.got.cif
#   From: 2010.05.17/outbox.cif.g08.bks.cpg/sg2_152_cif.got.tgz:302919.got - 2010.06.03 11:33:40.
