data_PCOD9072425
_publ_section_title
;
Structure prediction by ZEFSAII (Michael W. Deem and Ramdas Pophale) SiO2 
 PCOD9072425
Probable space group: P -1
;
_chemical_formula_sum "Si O2"
_cell_formula_units_Z 14
_cell_length_a 13.186499
_cell_length_b 9.042825
_cell_length_c 12.221909
_cell_angle_alpha 98.291373
_cell_angle_beta 43.784778
_cell_angle_gamma 131.470720
_cell_volume 578.073434
_symmetry_space_group_name_H-M "P -1"
_symmetry_group_IT_number 2
_symmetry_cell_setting 'triclinic'
loop_
_space_group_symop_operation_xyz
x,y,z
-x,-y,-z
loop_
_atom_site_type_symbol
_atom_site_label
_atom_site_fract_x
_atom_site_fract_y
_atom_site_fract_z
Si Si1 0.792706 0.023419 0.256353
Si Si2 0.243669 0.519844 0.545756
Si Si3 0.236989 0.844541 0.231333
Si Si4 0.628044 0.688689 0.638183
Si Si5 0.076810 0.785493 0.583801
Si Si6 0.521804 0.357027 0.020276
Si Si7 0.167617 0.301342 0.805476
O O1 0.510135 0.810211 0.406110
O O2 0.858946 0.900365 0.206763
O O3 0.827949 0.136294 0.356292
O O4 0.982937 0.219050 0.030458
O O5 0.311252 0.434405 0.407017
O O6 0.134044 0.355908 0.723851
O O7 0.024338 0.428913 0.647144
O O8 0.215930 0.822825 0.376960
O O9 0.500000 0.000000 0.000000
O O10 0.276795 0.047868 0.175676
O O11 0.453261 0.559124 0.653797
O O12 0.868721 0.994761 0.469494
O O13 0.454066 0.597775 0.863759
O O14 0.779026 0.503982 0.786481
O O15 0.500000 0.500000 0.000000
#
# Coordination Sequence:
#
# PCOD9072425 Si02
#       7
#     2   2   2   2   2   2   2
#     4  10  19  32  60  94 127 161 195 259 319 373
#     4  11  20  36  60  87 127 164 206 249 312 377
#     4  11  28  46  61  85 128 177 214 255 308 371
#     4  10  18  33  58  98 129 156 194 257 320 371
#     4  11  20  39  62  89 125 163 208 258 316 361
#     4  11  23  37  66  96 125 159 210 258 312 374
#     4  10  18  30  56  94 134 155 191 248 329 376
#
# _framework density 24.218377
#
# number of rings (size 3 to 8) (size 9 to 14) (size 15 to 20)
#    0.000    1.429    4.286    2.571    0.000    4.000 
#    0.000    0.714    0.000    1.714    0.000    0.000 
#    0.000    0.000    0.000    0.000    0.000    0.000 
#
# Total GULP energy -78238.474634 kJ/mol
# GULP energy per Si atom -5588.462474 kJ/mol
# Density = 2.416325 g / cm^3
# Si number density = 24.218377 Si / 1000 Ang^3
#
#
#
# Elastic Constant Matrix: (Units=GPa)
#
#
# Indices 1 2 3 4 5 6 
#
# 1 62.9719 17.6785 41.7719 4.7756 -4.1581 18.8295
# 2 17.6785 98.6934 49.5998 -5.1847 0.7771 19.3426
# 3 41.7719 49.5998 189.7849 10.5088 11.7523 29.1477
# 4 4.7756 -5.1847 10.5088 38.0067 1.3445 5.3613
# 5 -4.1581 0.7771 11.7523 1.3445 40.9825 -8.1436
# 6 18.8295 19.3426 29.1477 5.3613 -8.1436 32.7391
#
#
#
# Elastic Compliance Matrix: (Units=1/GPa)
#
#
# Indices 1 2 3 4 5 6 
#
# 1 0.020791 -0.000525 -0.003209 -0.000671 0.001406 -0.008330
# 2 -0.000525 0.012788 -0.002465 0.003343 -0.000855 -0.005819
# 3 -0.003209 -0.002465 0.007495 -0.001338 -0.003167 -0.003939
# 4 -0.000671 0.003343 -0.001338 0.028049 -0.001746 -0.005426
# 5 0.001406 -0.000855 -0.003167 -0.001746 0.027438 0.009627
# 6 -0.008330 -0.005819 -0.003939 -0.005426 0.009627 0.045564
#
#
# Mechanical properties :
#
#
# Convention : Reuss Voigt Hill
#
# Bulk Modulus (GPa) = 34.87343 63.28340 49.07841
# Shear Modulus (GPa) = 30.47264 38.50568 34.48916
#
# Velocity S-wave (km/s) = 3.55102 3.99173 3.77781
# Velocity P-wave (km/s) = 5.58962 6.88711 6.27200
#
# Compressibility (1/GPa) = 0.02867513
#
# Stress axis : x y z
#
# Youngs Moduli (GPa) = 48.09740 78.19803 133.42301
#
# Poissons Ratio (x) = 0.04105 0.42822
# Poissons Ratio (y) = 0.02525 0.32890
# Poissons Ratio (z) = 0.15437 0.19277
#
# Static dielectric constant tensor:
#      x y z
#    x 1.972780 -0.078450 -0.037490 
#    y -0.078450 2.020040 0.032890 
#    z -0.037490 0.032890 1.899930 
# 
# From -- ./inp_files/262856.got.cif
#   From: 2010.05.17/outbox.cif.g08.bks.cpg/sg2_132_cif.got.tgz:262856.got - 2010.06.03 11:33:40.
