data_PCOD9072241
_publ_section_title
;
Structure prediction by ZEFSAII (Michael W. Deem and Ramdas Pophale) SiO2 
 PCOD9072241
Probable space group: P -1
;
_chemical_formula_sum "Si O2"
_cell_formula_units_Z 16
_cell_length_a 9.192141
_cell_length_b 14.126179
_cell_length_c 8.396985
_cell_angle_alpha 74.697319
_cell_angle_beta 116.560870
_cell_angle_gamma 61.958264
_cell_volume 688.250735
_symmetry_space_group_name_H-M "P -1"
_symmetry_group_IT_number 2
_symmetry_cell_setting 'triclinic'
loop_
_space_group_symop_operation_xyz
x,y,z
-x,-y,-z
loop_
_atom_site_type_symbol
_atom_site_label
_atom_site_fract_x
_atom_site_fract_y
_atom_site_fract_z
Si Si1 0.992187 0.140103 0.018086
Si Si2 0.484783 0.657173 0.864584
Si Si3 0.133034 0.373078 0.784862
Si Si4 0.798319 0.043412 0.487290
Si Si5 0.844763 0.652437 0.570844
Si Si6 0.649261 0.117308 0.849811
Si Si7 0.503981 0.912438 0.913003
Si Si8 0.195402 0.632067 0.950191
O O1 0.895896 0.280776 0.973639
O O2 0.102923 0.038754 0.267494
O O3 0.189448 0.041434 0.033511
O O4 0.785393 0.158184 0.856735
O O5 0.371813 0.795066 0.658669
O O6 0.304169 0.672847 0.874576
O O7 0.684380 0.616797 0.091782
O O8 0.608119 0.528659 0.867937
O O9 0.098883 0.364444 0.584369
O O10 0.915465 0.509434 0.699062
O O11 0.259645 0.223953 0.971844
O O12 0.666283 0.010301 0.348217
O O13 0.000000 0.000000 0.500000
O O14 0.586021 0.784827 0.397487
O O15 0.992796 0.663111 0.744656
O O16 0.593126 0.136166 0.001422
O O17 0.500000 0.000000 0.000000
#
# Coordination Sequence:
#
# PCOD9072241 Si02
#       8
#     2   2   2   2   2   2   2   2
#     4  11  22  37  57  77 108 148 184 218 265 324
#     4   9  18  32  52  77 111 135 177 223 268 315
#     4   8  16  31  50  74 106 139 167 216 266 318
#     4  11  19  34  56  81 105 139 183 221 265 317
#     4   9  17  30  51  77 105 131 179 218 264 314
#     4  10  22  38  54  75 111 148 176 217 274 323
#     4  10  20  34  55  82 110 135 174 224 271 315
#     4  10  18  30  53  83 102 138 179 227 263 314
#
# _framework density 23.247343000000001
#
# number of rings (size 3 to 8) (size 9 to 14) (size 15 to 20)
#    0.000    2.250    2.500    1.500    3.500    1.500 
#    0.000    0.000    2.750    3.750    0.000    0.000 
#    0.000    0.000    0.000    0.000    0.000    0.000 
#
# Total GULP energy -89280.424431 kJ/mol
# GULP energy per Si atom -5580.026527 kJ/mol
# Density = 2.319443 g / cm^3
# Si number density = 23.247343 Si / 1000 Ang^3
#
#
#
# Elastic Constant Matrix: (Units=GPa)
#
#
# Indices 1 2 3 4 5 6 
#
# 1 47.8578 30.4109 8.2729 -5.6984 14.3607 -9.3718
# 2 30.4109 160.0520 6.3314 -12.2290 29.2275 5.4710
# 3 8.2729 6.3314 61.3809 -7.2626 27.2966 8.6229
# 4 -5.6984 -12.2290 -7.2626 33.8284 -3.8741 6.6709
# 5 14.3607 29.2275 27.2966 -3.8741 28.1435 2.2466
# 6 -9.3718 5.4710 8.6229 6.6709 2.2466 36.0689
#
#
#
# Elastic Compliance Matrix: (Units=1/GPa)
#
#
# Indices 1 2 3 4 5 6 
#
# 1 0.028313 -0.003368 0.001007 0.000706 -0.012490 0.008274
# 2 -0.003368 0.009515 0.006472 0.003414 -0.013680 -0.003645
# 3 0.001007 0.006472 0.035069 0.007064 -0.039642 -0.007941
# 4 0.000706 0.003414 0.007064 0.033343 -0.005541 -0.007845
# 5 -0.012490 -0.013680 -0.039642 -0.005541 0.093519 0.003507
# 6 0.008274 -0.003645 -0.007941 -0.007845 0.003507 0.033558
#
#
# Mechanical properties :
#
#
# Convention : Reuss Voigt Hill
#
# Bulk Modulus (GPa) = 12.32741 39.92455 26.12598
# Shear Modulus (GPa) = 19.83057 34.55986 27.19522
#
# Velocity S-wave (km/s) = 2.92383 3.85985 3.42397
# Velocity P-wave (km/s) = 4.08810 6.08898 5.18596
#
# Compressibility (1/GPa) = 0.08112002
#
# Stress axis : x y z
#
# Youngs Moduli (GPa) = 35.31911 105.09354 28.51499
#
# Poissons Ratio (x) = 0.35391 -0.02871
# Poissons Ratio (y) = 0.11894 -0.18454
# Poissons Ratio (z) = -0.03556 -0.68015
#
# Static dielectric constant tensor:
#      x y z
#    x 1.945710 0.022480 -0.001340 
#    y 0.022480 1.952430 -0.059160 
#    z -0.001340 -0.059160 1.900840 
# 
# From -- ./inp_files/207128.got.cif
#   From: 2010.05.17/outbox.cif.g08.bks.cpg/sg2_104_cif.got.tgz:207128.got - 2010.06.03 11:33:40.
