data_PCOD9072967
_publ_section_title
;
Structure prediction by ZEFSAII (Michael W. Deem and Ramdas Pophale) SiO2 
 PCOD9072967
Probable space group: P -1
;
_chemical_formula_sum "Si O2"
_cell_formula_units_Z 16
_cell_length_a 6.000000
_cell_length_b 9.000000
_cell_length_c 18.000000
_cell_angle_alpha 60.000000
_cell_angle_beta 80.000000
_cell_angle_gamma 60.000000
_cell_volume 725.212580
_symmetry_space_group_name_H-M "P -1"
_symmetry_group_IT_number 2
_symmetry_cell_setting 'triclinic'
loop_
_space_group_symop_operation_xyz
x,y,z
-x,-y,-z
loop_
_atom_site_type_symbol
_atom_site_label
_atom_site_fract_x
_atom_site_fract_y
_atom_site_fract_z
Si Si1 0.866391 0.585033 0.904280
Si Si2 0.435091 0.003955 0.125699
Si Si3 0.088357 0.162533 0.958211
Si Si4 0.814983 0.192635 0.705908
Si Si5 0.600548 0.054483 0.556008
Si Si6 0.334995 0.607204 0.607428
Si Si7 0.983268 0.212526 0.287280
Si Si8 0.869701 0.629673 0.400867
O O1 0.610816 0.796575 0.879241
O O2 0.002666 0.656188 0.814808
O O3 0.869767 0.390299 0.920368
O O4 0.000000 0.500000 0.000000
O O5 0.723838 0.869002 0.114146
O O6 0.324048 0.879441 0.207631
O O7 0.261707 0.097962 0.038870
O O8 0.000000 0.000000 0.000000
O O9 0.601571 0.402648 0.631302
O O10 0.028284 0.259877 0.688935
O O11 0.958483 0.998490 0.695367
O O12 0.698711 0.205155 0.483492
O O13 0.380812 0.188458 0.594011
O O14 0.500000 0.000000 0.500000
O O15 0.800373 0.865522 0.639345
O O16 0.144640 0.532735 0.607838
O O17 0.281978 0.668482 0.681366
O O18 0.000000 0.500000 0.500000
#
# Coordination Sequence:
#
# PCOD9072967 Si02
#       8
#     2   2   2   2   2   2   2   2
#     4   9  20  41  66  92 131 169 210 269 332 387
#     4   9  21  39  62  91 128 164 210 268 320 393
#     4  10  20  39  65  94 125 164 211 264 333 385
#     4  11  23  42  64  95 128 175 224 269 330 390
#     4  12  24  43  64  95 136 182 223 276 332 391
#     4  12  24  42  66  93 136 174 224 280 329 390
#     4  11  23  41  66  97 131 176 223 272 332 401
#     4  12  23  41  66  93 132 177 225 272 332 389
#
# _framework density 22.062495999999999
#
# number of rings (size 3 to 8) (size 9 to 14) (size 15 to 20)
#    0.000    1.250    2.500    3.750    0.000    2.500 
#    0.000    0.000    5.500    0.000    0.000    0.000 
#    0.000    0.000    0.000    0.000    0.000    0.000 
#
# Total GULP energy -89089.398650 kJ/mol
# GULP energy per Si atom -5568.087416 kJ/mol
# Density = 2.201228 g / cm^3
# Si number density = 22.062496 Si / 1000 Ang^3
#
#
#
# Elastic Constant Matrix: (Units=GPa)
#
#
# Indices 1 2 3 4 5 6 
#
# 1 42.4257 40.4575 25.2177 1.7272 -28.5930 22.5960
# 2 40.4575 145.5474 19.7068 -11.0469 -18.7096 20.6903
# 3 25.2177 19.7068 118.9486 -12.1761 -29.3067 13.5641
# 4 1.7272 -11.0469 -12.1761 39.2661 -3.1633 -3.3961
# 5 -28.5930 -18.7096 -29.3067 -3.1633 33.6664 -9.0395
# 6 22.5960 20.6903 13.5641 -3.3961 -9.0395 24.1184
#
#
#
# Elastic Compliance Matrix: (Units=1/GPa)
#
#
# Indices 1 2 3 4 5 6 
#
# 1 0.165805 -0.019371 0.004551 -0.011821 0.105101 -0.103555
# 2 -0.019371 0.010518 -0.000131 0.003634 -0.008641 0.006472
# 3 0.004551 -0.000131 0.011647 0.003952 0.012874 -0.005320
# 4 -0.011821 0.003634 0.003952 0.029188 0.000896 0.010181
# 5 0.105101 -0.008641 0.012874 0.000896 0.110184 -0.056871
# 6 -0.103555 0.006472 -0.005320 0.010181 -0.056871 0.116039
#
#
# Mechanical properties :
#
#
# Convention : Reuss Voigt Hill
#
# Bulk Modulus (GPa) = 6.32635 53.07618 29.70127
# Shear Modulus (GPa) = 9.50622 34.17949 21.84285
#
# Velocity S-wave (km/s) = 2.07801 3.94027 3.14991
# Velocity P-wave (km/s) = 2.93789 6.69406 5.16922
#
# Compressibility (1/GPa) = 0.15806894
#
# Stress axis : x y z
#
# Youngs Moduli (GPa) = 6.03117 95.07691 85.85964
#
# Poissons Ratio (x) = 1.84172 -0.39077
# Poissons Ratio (y) = 0.11683 0.01124
# Poissons Ratio (z) = -0.02745 0.01245
#
# Static dielectric constant tensor:
#      x y z
#    x 2.222170 -0.107430 0.202380 
#    y -0.107430 1.870310 -0.004060 
#    z 0.202380 -0.004060 1.903820 
# 
# From -- ./inp_files/348423.got.cif
#   From: 2010.05.17/outbox.ucp.g08.bks.cvg/sg2_175_cif.got.tgz:348423.got - 2010.06.11 11:32:03.
