data_PCOD9072597
_publ_section_title
;
Structure prediction by ZEFSAII (Michael W. Deem and Ramdas Pophale) SiO2 
 PCOD9072597
Probable space group: P -1
;
_chemical_formula_sum "Si O2"
_cell_formula_units_Z 16
_cell_length_a 9.000000
_cell_length_b 12.000000
_cell_length_c 9.000000
_cell_angle_alpha 80.000000
_cell_angle_beta 130.000000
_cell_angle_gamma 90.000000
_cell_volume 725.212580
_symmetry_space_group_name_H-M "P -1"
_symmetry_group_IT_number 2
_symmetry_cell_setting 'triclinic'
loop_
_space_group_symop_operation_xyz
x,y,z
-x,-y,-z
loop_
_atom_site_type_symbol
_atom_site_label
_atom_site_fract_x
_atom_site_fract_y
_atom_site_fract_z
Si Si1 0.124458 0.057576 0.342803
Si Si2 0.442483 0.001188 0.787733
Si Si3 0.276557 0.829245 0.081935
Si Si4 0.744058 0.571841 0.010775
Si Si5 0.919850 0.197683 0.731210
Si Si6 0.687964 0.815872 0.834151
Si Si7 0.527413 0.606901 0.182958
Si Si8 0.882240 0.450405 0.570028
O O1 0.231224 0.058198 0.572819
O O2 0.251621 0.118410 0.288849
O O3 0.117988 0.924331 0.328916
O O4 0.902364 0.123592 0.156305
O O5 0.610821 0.068689 0.816200
O O6 0.490021 0.877906 0.768347
O O7 0.500000 0.000000 0.000000
O O8 0.190229 0.781771 0.186163
O O9 0.442028 0.735293 0.140701
O O10 0.636099 0.604035 0.093490
O O11 0.976223 0.546563 0.197675
O O12 0.689742 0.680899 0.843911
O O13 0.657359 0.460851 0.930558
O O14 0.868478 0.314563 0.576130
O O15 0.146882 0.181174 0.932153
O O16 0.677248 0.534233 0.411410
O O17 0.000000 0.500000 0.500000
#
# Coordination Sequence:
#
# PCOD9072597 Si02
#       8
#     2   2   2   2   2   2   2   2
#     4  11  23  42  67  92 125 178 209 255 330 385
#     4  12  25  39  62  97 130 162 212 267 319 374
#     4  11  23  42  60  97 135 159 216 272 309 379
#     4   9  20  38  62  88 122 173 216 252 314 383
#     4  10  20  41  68  90 126 174 215 259 316 383
#     4  10  19  41  66  91 128 165 217 263 309 388
#     4  10  21  38  60  91 128 171 210 259 318 374
#     4   9  20  38  61  90 121 163 214 259 302 373
#
# _framework density 22.062495999999999
#
# number of rings (size 3 to 8) (size 9 to 14) (size 15 to 20)
#    0.000    1.750    2.500    1.875    1.750    2.000 
#    2.250    8.125    0.000    0.000    0.000    0.000 
#    0.000    0.000    0.000    0.000    0.000    0.000 
#
# Total GULP energy -89351.115842 kJ/mol
# GULP energy per Si atom -5584.444740 kJ/mol
# Density = 2.201228 g / cm^3
# Si number density = 22.062496 Si / 1000 Ang^3
#
#
#
# Elastic Constant Matrix: (Units=GPa)
#
#
# Indices 1 2 3 4 5 6 
#
# 1 22.9382 8.9650 15.2314 -10.4412 4.6712 7.2117
# 2 8.9650 64.6847 36.6381 -27.3740 -7.1176 13.1447
# 3 15.2314 36.6381 116.5482 -22.0771 11.1950 -1.8652
# 4 -10.4412 -27.3740 -22.0771 37.4114 2.2044 2.9747
# 5 4.6712 -7.1176 11.1950 2.2044 27.6609 -10.1682
# 6 7.2117 13.1447 -1.8652 2.9747 -10.1682 38.7336
#
#
#
# Elastic Compliance Matrix: (Units=1/GPa)
#
#
# Indices 1 2 3 4 5 6 
#
# 1 0.064075 0.004968 -0.004604 0.021362 -0.016681 -0.019857
# 2 0.004968 0.029931 -0.006807 0.020011 0.003612 -0.011999
# 3 -0.004604 -0.006807 0.012022 0.000940 -0.005052 0.002348
# 4 0.021362 0.020011 0.000940 0.049766 -0.009022 -0.016914
# 5 -0.016681 0.003612 -0.005052 -0.009022 0.048166 0.014974
# 6 -0.019857 -0.011999 0.002348 -0.016914 0.014974 0.038929
#
#
# Mechanical properties :
#
#
# Convention : Reuss Voigt Hill
#
# Bulk Modulus (GPa) = 10.73634 36.20444 23.47039
# Shear Modulus (GPa) = 17.43231 30.31696 23.87464
#
# Velocity S-wave (km/s) = 2.81398 3.71096 3.29315
# Velocity P-wave (km/s) = 3.92872 5.89976 5.01209
#
# Compressibility (1/GPa) = 0.09314160
#
# Stress axis : x y z
#
# Youngs Moduli (GPa) = 15.60669 33.41034 83.17750
#
# Poissons Ratio (x) = -0.16597 0.38298
# Poissons Ratio (y) = -0.07753 0.56615
# Poissons Ratio (z) = 0.07186 0.22741
#
# Static dielectric constant tensor:
#      x y z
#    x 1.841110 0.027500 0.017750 
#    y 0.027500 1.796210 -0.004540 
#    z 0.017750 -0.004540 1.832000 
# 
# From -- ./inp_files/187062.got.cif
#   From: 2010.05.17/outbox.ucp.g08.bks.cvg/sg2_94_cif.got.tgz:187062.got - 2010.06.11 11:32:03.
