data_PCOD9072709
_publ_section_title
;
Structure prediction by ZEFSAII (Michael W. Deem and Ramdas Pophale) SiO2 
 PCOD9072709
Probable space group: P -1
;
_chemical_formula_sum "Si O2"
_cell_formula_units_Z 16
_cell_length_a 9.000000
_cell_length_b 15.000000
_cell_length_c 15.000000
_cell_angle_alpha 50.000000
_cell_angle_beta 40.000000
_cell_angle_gamma 80.000000
_cell_volume 759.999475
_symmetry_space_group_name_H-M "P -1"
_symmetry_group_IT_number 2
_symmetry_cell_setting 'triclinic'
loop_
_space_group_symop_operation_xyz
x,y,z
-x,-y,-z
loop_
_atom_site_type_symbol
_atom_site_label
_atom_site_fract_x
_atom_site_fract_y
_atom_site_fract_z
Si Si1 0.559128 0.113869 0.038181
Si Si2 0.155475 0.921763 0.704322
Si Si3 0.200172 0.404694 0.903085
Si Si4 0.265256 0.560145 0.268805
Si Si5 0.861267 0.133259 0.464086
Si Si6 0.317508 0.360745 0.259042
Si Si7 0.961906 0.411415 0.194412
Si Si8 0.038906 0.897039 0.268624
O O1 0.622971 0.272877 0.913109
O O2 0.843228 0.131139 0.856057
O O3 0.397831 0.018903 0.264549
O O4 0.315439 0.009134 0.139035
O O5 0.078934 0.894964 0.647343
O O6 0.500000 0.000000 0.500000
O O7 0.101368 0.021006 0.720593
O O8 0.977123 0.764212 0.941127
O O9 0.495790 0.441265 0.785198
O O10 0.203687 0.518988 0.766244
O O11 0.999066 0.384576 0.091648
O O12 0.212260 0.459376 0.271167
O O13 0.000000 0.500000 0.500000
O O14 0.155624 0.243098 0.324856
O O15 0.779853 0.243655 0.425395
O O16 0.205494 0.257102 0.465204
O O17 0.683161 0.472664 0.011911
#
# Coordination Sequence:
#
# PCOD9072709 Si02
#       8
#     2   2   2   2   2   2   2   2
#     4  10  21  39  63  92 129 162 210 267 317 371
#     4  11  22  40  64  92 126 170 216 259 325 386
#     4   9  19  35  59  87 122 162 213 262 297 378
#     4  11  20  38  65  94 122 171 221 257 308 382
#     4  10  23  40  61  96 133 163 206 277 323 377
#     4  10  20  35  62  96 125 168 209 267 319 374
#     4   9  18  37  58  89 125 163 207 253 326 371
#     4  10  20  38  63  90 125 169 209 261 309 377
#
# _framework density 21.052645999999999
#
# number of rings (size 3 to 8) (size 9 to 14) (size 15 to 20)
#    0.000    2.000    2.500    1.125    0.000    3.000 
#    4.500    0.625    0.000    1.500    0.000    0.000 
#    0.000    0.000    0.000    0.000    0.000    0.000 
#
# Total GULP energy -89089.743786 kJ/mol
# GULP energy per Si atom -5568.108987 kJ/mol
# Density = 2.100473 g / cm^3
# Si number density = 21.052646 Si / 1000 Ang^3
#
#
#
# Elastic Constant Matrix: (Units=GPa)
#
#
# Indices 1 2 3 4 5 6 
#
# 1 35.7789 33.7950 20.4047 -8.9795 8.5208 -18.9662
# 2 33.7950 141.0981 39.1218 -14.1287 8.3558 -35.3872
# 3 20.4047 39.1218 85.7925 -22.7196 18.6992 -27.5988
# 4 -8.9795 -14.1287 -22.7196 35.7634 -10.2370 4.0301
# 5 8.5208 8.3558 18.6992 -10.2370 29.9050 -7.0679
# 6 -18.9662 -35.3872 -27.5988 4.0301 -7.0679 45.0260
#
#
#
# Elastic Compliance Matrix: (Units=1/GPa)
#
#
# Indices 1 2 3 4 5 6 
#
# 1 0.043055 -0.006385 -0.001381 0.004613 -0.005440 0.011004
# 2 -0.006385 0.010243 -0.001716 0.001288 0.001519 0.004432
# 3 -0.001381 -0.001716 0.018862 0.008287 -0.006214 0.007914
# 4 0.004613 0.001288 0.008287 0.036214 0.006931 0.005882
# 5 -0.005440 0.001519 -0.006214 0.006931 0.041039 0.000915
# 6 0.011004 0.004432 0.007914 0.005882 0.000915 0.034795
#
#
# Mechanical properties :
#
#
# Convention : Reuss Voigt Hill
#
# Bulk Modulus (GPa) = 18.79915 49.92361 34.36138
# Shear Modulus (GPa) = 22.63405 33.42875 28.03140
#
# Velocity S-wave (km/s) = 3.28245 3.98912 3.65292
# Velocity P-wave (km/s) = 4.82856 6.70691 5.84370
#
# Compressibility (1/GPa) = 0.05319388
#
# Stress axis : x y z
#
# Youngs Moduli (GPa) = 23.22617 97.62678 53.01694
#
# Poissons Ratio (x) = 0.62339 0.07322
# Poissons Ratio (y) = 0.14831 0.09100
# Poissons Ratio (z) = 0.03208 0.16758
#
# Static dielectric constant tensor:
#      x y z
#    x 1.844580 -0.048590 -0.003330 
#    y -0.048590 1.793000 -0.055260 
#    z -0.003330 -0.055260 1.799240 
# 
# From -- ./inp_files/281858.got.cif
#   From: 2010.05.17/outbox.ucp.g08.bks.cvg/sg2_141_cif.got.tgz:281858.got - 2010.06.11 11:32:03.
