data_PCOD9072069
_publ_section_title
;
Structure prediction by ZEFSAII (Michael W. Deem and Ramdas Pophale) SiO2 
 PCOD9072069
Probable space group: P -1
;
_chemical_formula_sum "Si O2"
_cell_formula_units_Z 16
_cell_length_a 9.000000
_cell_length_b 15.000000
_cell_length_c 12.000000
_cell_angle_alpha 70.000000
_cell_angle_beta 130.000000
_cell_angle_gamma 140.000000
_cell_volume 759.581896
_symmetry_space_group_name_H-M "P -1"
_symmetry_group_IT_number 2
_symmetry_cell_setting 'triclinic'
loop_
_space_group_symop_operation_xyz
x,y,z
-x,-y,-z
loop_
_atom_site_type_symbol
_atom_site_label
_atom_site_fract_x
_atom_site_fract_y
_atom_site_fract_z
Si Si1 0.260592 0.540799 0.543302
Si Si2 0.251172 0.544331 0.276394
Si Si3 0.161517 0.120192 0.287544
Si Si4 0.302066 0.069639 0.163746
Si Si5 0.137943 0.838615 0.038122
Si Si6 0.599493 0.842230 0.222653
Si Si7 0.579067 0.506162 0.845988
Si Si8 0.579278 0.317641 0.028133
O O1 0.230594 0.500952 0.414026
O O2 0.556689 0.715281 0.609653
O O3 0.326046 0.479466 0.685905
O O4 0.000000 0.500000 0.500000
O O5 0.491183 0.717411 0.303835
O O6 0.297686 0.491833 0.214332
O O7 0.928602 0.467758 0.128393
O O8 0.286030 0.084691 0.280153
O O9 0.948902 0.114199 0.116920
O O10 0.946183 0.996491 0.328820
O O11 0.529030 0.228254 0.146360
O O12 0.272033 0.950759 0.157610
O O13 0.000000 0.000000 0.000000
O O14 0.833182 0.662497 0.964406
O O15 0.394480 0.858417 0.128401
O O16 0.536631 0.781416 0.092896
O O17 0.454770 0.377468 0.922412
#
# Coordination Sequence:
#
# PCOD9072069 Si02
#       8
#     2   2   2   2   2   2   2   2
#     4  11  25  45  60  87 128 174 215 249 303 381
#     4  11  22  39  66  94 128 161 205 258 319 370
#     4  10  22  38  59  85 129 168 201 250 310 365
#     4  10  20  34  56  90 126 165 193 250 311 364
#     4  10  18  35  60  98 125 152 200 259 316 367
#     4  11  19  36  63  97 128 148 206 268 312 364
#     4  10  21  40  66  95 124 162 208 260 314 367
#     4  11  19  37  67  96 129 151 205 264 319 359
#
# _framework density 21.064219999999999
#
# number of rings (size 3 to 8) (size 9 to 14) (size 15 to 20)
#    0.000    1.500    5.000    2.250    0.000    0.500 
#    4.500    5.000    0.000    3.750    0.000    0.000 
#    0.000    0.000    0.000    0.000    0.000    0.000 
#
# Total GULP energy -89114.711613 kJ/mol
# GULP energy per Si atom -5569.669476 kJ/mol
# Density = 2.101628 g / cm^3
# Si number density = 21.064220 Si / 1000 Ang^3
#
#
#
# Elastic Constant Matrix: (Units=GPa)
#
#
# Indices 1 2 3 4 5 6 
#
# 1 86.5012 40.5710 25.7921 -20.9745 3.7255 -7.7441
# 2 40.5710 89.9070 10.6755 -2.8964 9.9226 -22.1332
# 3 25.7921 10.6755 48.5336 1.2396 1.7705 -3.1641
# 4 -20.9745 -2.8964 1.2396 13.2076 -4.4290 0.3337
# 5 3.7255 9.9226 1.7705 -4.4290 23.5351 2.2025
# 6 -7.7441 -22.1332 -3.1641 0.3337 2.2025 26.8622
#
#
#
# Elastic Compliance Matrix: (Units=1/GPa)
#
#
# Indices 1 2 3 4 5 6 
#
# 1 0.041877 -0.017691 -0.021224 0.070273 0.016326 -0.007216
# 2 -0.017691 0.022929 0.006669 -0.028900 -0.014314 0.016110
# 3 -0.021224 0.006669 0.032036 -0.038557 -0.009531 0.004410
# 4 0.070273 -0.028900 -0.038557 0.199295 0.042783 -0.014079
# 5 0.016326 -0.014314 -0.009531 0.042783 0.055956 -0.013330
# 6 -0.007216 0.016110 0.004410 -0.014079 -0.013330 0.050208
#
#
# Mechanical properties :
#
#
# Convention : Reuss Voigt Hill
#
# Bulk Modulus (GPa) = 30.91269 42.11322 36.51295
# Shear Modulus (GPa) = 10.46950 22.58118 16.52534
#
# Velocity S-wave (km/s) = 2.23183 3.27772 2.80397
# Velocity P-wave (km/s) = 4.62047 5.86180 5.27776
#
# Compressibility (1/GPa) = 0.03234917
#
# Stress axis : x y z
#
# Youngs Moduli (GPa) = 23.87954 43.61304 31.21451
#
# Poissons Ratio (x) = 0.77158 0.66250
# Poissons Ratio (y) = 0.42246 -0.20817
# Poissons Ratio (z) = 0.50682 -0.29085
#
# Static dielectric constant tensor:
#      x y z
#    x 1.806000 -0.112870 -0.015090 
#    y -0.112870 1.073080 -0.027360 
#    z -0.015090 -0.027360 1.743480 
# 
# From -- ./inp_files/398991.got.cif
#   From: 2010.05.17/outbox.ucp.g08.bks.cvg/sg2_200_cif.got.tgz:398991.got - 2010.06.11 11:32:03.
