data_PCOD9072509
_publ_section_title
;
Structure prediction by ZEFSAII (Michael W. Deem and Ramdas Pophale) SiO2 
 PCOD9072509
Probable space group: P -1
;
_chemical_formula_sum "Si O2"
_cell_formula_units_Z 14
_cell_length_a 9.000000
_cell_length_b 12.000000
_cell_length_c 9.000000
_cell_angle_alpha 50.000000
_cell_angle_beta 60.000000
_cell_angle_gamma 60.000000
_cell_volume 621.029576
_symmetry_space_group_name_H-M "P -1"
_symmetry_group_IT_number 2
_symmetry_cell_setting 'triclinic'
loop_
_space_group_symop_operation_xyz
x,y,z
-x,-y,-z
loop_
_atom_site_type_symbol
_atom_site_label
_atom_site_fract_x
_atom_site_fract_y
_atom_site_fract_z
Si Si1 0.809044 0.489500 0.557576
Si Si2 0.719082 0.105955 0.542536
Si Si3 0.060164 0.144512 0.193796
Si Si4 0.457842 0.249908 0.346310
Si Si5 0.322443 0.548561 0.641952
Si Si6 0.218588 0.364182 0.111908
Si Si7 0.803653 0.330706 0.963000
O O1 0.659443 0.630800 0.578924
O O2 0.818293 0.463609 0.401337
O O3 0.774873 0.349970 0.786271
O O4 0.000000 0.500000 0.500000
O O5 0.551907 0.107400 0.521823
O O6 0.700145 0.279041 0.449820
O O7 0.897908 0.074769 0.381123
O O8 0.761282 0.987232 0.756564
O O9 0.082035 0.283993 0.168337
O O10 0.989160 0.211454 0.013354
O O11 0.336423 0.243990 0.270767
O O12 0.625948 0.303811 0.149321
O O13 0.500000 0.500000 0.500000
O O14 0.317553 0.428707 0.874671
O O15 0.173570 0.514487 0.108010
#
# Coordination Sequence:
#
# PCOD9072509 Si02
#       7
#     2   2   2   2   2   2   2
#     4  11  22  32  56  90 116 139 187 249 283 324
#     4  10  22  38  57  83 120 151 184 238 291 339
#     4  10  21  37  59  86 113 148 195 238 280 334
#     4  10  20  38  58  84 116 149 190 237 285 339
#     4  12  21  37  60  86 112 153 191 232 291 342
#     4  11  20  33  64  86 107 147 201 236 271 339
#     4  10  19  38  59  83 114 150 192 235 282 342
#
# _framework density 22.543209999999998
#
# number of rings (size 3 to 8) (size 9 to 14) (size 15 to 20)
#    0.000    1.429    4.286    3.857    4.000    0.571 
#    0.000    1.429    0.000    0.000    0.000    0.000 
#    0.000    0.000    0.000    0.000    0.000    0.000 
#
# Total GULP energy -77935.934689 kJ/mol
# GULP energy per Si atom -5566.852478 kJ/mol
# Density = 2.249190 g / cm^3
# Si number density = 22.543210 Si / 1000 Ang^3
#
#
#
# Elastic Constant Matrix: (Units=GPa)
#
#
# Indices 1 2 3 4 5 6 
#
# 1 85.3118 2.2208 -5.9518 0.3265 27.9644 -14.6333
# 2 2.2208 23.4369 24.7282 -6.8223 20.3939 -14.5305
# 3 -5.9518 24.7282 45.0302 9.3902 17.5729 -16.4240
# 4 0.3265 -6.8223 9.3902 28.0865 -3.2035 9.6603
# 5 27.9644 20.3939 17.5729 -3.2035 42.3481 -6.7268
# 6 -14.6333 -14.5305 -16.4240 9.6603 -6.7268 29.6672
#
#
#
# Elastic Compliance Matrix: (Units=1/GPa)
#
#
# Indices 1 2 3 4 5 6 
#
# 1 0.031961 0.011773 0.031058 -0.025328 -0.035392 0.038947
# 2 0.011773 0.381659 -0.191501 0.138751 -0.098562 0.019192
# 3 0.031058 -0.191501 0.184561 -0.131635 -0.004416 0.065562
# 4 -0.025328 0.138751 -0.131635 0.134894 0.005178 -0.060160
# 5 -0.035392 -0.098562 -0.004416 0.005178 0.088775 -0.049733
# 6 0.038947 0.019192 0.065562 -0.060160 -0.049733 0.106926
#
#
# Mechanical properties :
#
#
# Convention : Reuss Voigt Hill
#
# Bulk Modulus (GPa) = 3.32403 21.75259 12.53831
# Shear Modulus (GPa) = 3.76962 28.87247 16.32104
#
# Velocity S-wave (km/s) = 1.29453 3.58265 2.69362
# Velocity P-wave (km/s) = 1.92669 5.17534 3.90488
#
# Compressibility (1/GPa) = 0.30083988
#
# Stress axis : x y z
#
# Youngs Moduli (GPa) = 31.28847 2.62014 5.41827
#
# Poissons Ratio (x) = -0.03085 -0.16828
# Poissons Ratio (y) = -0.36837 1.03761
# Poissons Ratio (z) = -0.97175 0.50176
#
# Static dielectric constant tensor:
#      x y z
#    x 2.067640 -0.069400 0.132300 
#    y -0.069400 1.863080 -0.036120 
#    z 0.132300 -0.036120 1.939440 
# 
# From -- ./inp_files/183931.got.cif
#   From: 2010.05.17/outbox.ucp.g08.bks.cvg/sg2_92_cif.got.tgz:183931.got - 2010.06.11 11:32:03.
