data_PCOD9072787
_publ_section_title
;
Structure prediction by ZEFSAII (Michael W. Deem and Ramdas Pophale) SiO2 
 PCOD9072787
Probable space group: P -1
;
_chemical_formula_sum "Si O2"
_cell_formula_units_Z 16
_cell_length_a 5.795794
_cell_length_b 11.941398
_cell_length_c 12.674850
_cell_angle_alpha 135.731785
_cell_angle_beta 94.795135
_cell_angle_gamma 96.652807
_cell_volume 590.385978
_symmetry_space_group_name_H-M "P -1"
_symmetry_group_IT_number 2
_symmetry_cell_setting 'triclinic'
loop_
_space_group_symop_operation_xyz
x,y,z
-x,-y,-z
loop_
_atom_site_type_symbol
_atom_site_label
_atom_site_fract_x
_atom_site_fract_y
_atom_site_fract_z
Si Si1 0.518773 0.133434 0.180621
Si Si2 0.444540 0.925038 0.608492
Si Si3 0.299725 0.696842 0.164648
Si Si4 0.958954 0.801985 0.079790
Si Si5 0.495390 0.539868 0.870985
Si Si6 0.923920 0.834530 0.576709
Si Si7 0.872426 0.381130 0.225043
Si Si8 0.751583 0.620662 0.619933
O O1 0.541232 0.083725 0.268683
O O2 0.743027 0.279009 0.250871
O O3 0.294211 0.212647 0.219589
O O4 0.500000 0.000000 0.000000
O O5 0.665197 0.847306 0.528914
O O6 0.161003 0.848256 0.522393
O O7 0.524983 0.118233 0.707168
O O8 0.044249 0.724088 0.137767
O O9 0.353238 0.595788 0.199033
O O10 0.359511 0.579452 0.996052
O O11 0.002531 0.993275 0.236189
O O12 0.109373 0.749757 0.955100
O O13 0.689923 0.713384 0.979714
O O14 0.292065 0.509013 0.754510
O O15 0.880497 0.686535 0.559920
O O16 0.129990 0.460175 0.336830
O O17 0.500000 0.500000 0.500000
#
# Coordination Sequence:
#
# PCOD9072787 Si02
#       8
#     2   2   2   2   2   2   2   2
#     4  11  22  37  61  87 122 157 200 253 314 383
#     4  10  19  35  54  86 117 160 204 255 302 374
#     4   9  18  30  49  80 123 159 195 248 315 369
#     4  10  19  32  54  83 123 156 201 250 309 375
#     4  10  18  31  50  81 121 160 200 248 314 371
#     4  10  20  36  56  84 117 157 204 252 309 369
#     4  11  22  34  54  83 116 162 204 248 311 371
#     4  11  25  41  57  85 123 166 211 259 311 370
#
# _framework density 27.100912000000001
#
# number of rings (size 3 to 8) (size 9 to 14) (size 15 to 20)
#    0.000    1.750    2.500    4.125    1.750    1.500 
#    0.000    0.000    0.000    0.000    0.000    8.750 
#    0.000    0.000    0.000    0.000    0.000    0.000 
#
# Total GULP energy -89522.094507 kJ/mol
# GULP energy per Si atom -5595.130907 kJ/mol
# Density = 2.703923 g / cm^3
# Si number density = 27.100912 Si / 1000 Ang^3
#
#
#
# Elastic Constant Matrix: (Units=GPa)
#
#
# Indices 1 2 3 4 5 6 
#
# 1 140.0534 22.0429 38.7059 -0.0379 17.6463 -24.3821
# 2 22.0429 99.6198 29.0775 8.5630 20.9570 -25.5402
# 3 38.7059 29.0775 88.2314 -10.8528 -0.3447 -21.7502
# 4 -0.0379 8.5630 -10.8528 26.7181 -14.1597 10.6981
# 5 17.6463 20.9570 -0.3447 -14.1597 49.9256 4.2626
# 6 -24.3821 -25.5402 -21.7502 10.6981 4.2626 51.5517
#
#
#
# Elastic Compliance Matrix: (Units=1/GPa)
#
#
# Indices 1 2 3 4 5 6 
#
# 1 0.010704 0.004609 -0.005727 -0.012420 -0.009992 0.008333
# 2 0.004609 0.023233 -0.009011 -0.029527 -0.021336 0.017780
# 3 -0.005727 -0.009011 0.018022 0.017922 0.011375 -0.004229
# 4 -0.012420 -0.029527 0.017922 0.093227 0.046433 -0.036127
# 5 -0.009992 -0.021336 0.011375 0.046433 0.047822 -0.024087
# 6 0.008333 0.017780 -0.004229 -0.036127 -0.024087 0.039853
#
#
# Mechanical properties :
#
#
# Convention : Reuss Voigt Hill
#
# Bulk Modulus (GPa) = 31.54385 56.39523 43.96954
# Shear Modulus (GPa) = 18.96198 41.51097 30.23647
#
# Velocity S-wave (km/s) = 2.64802 3.91796 3.34383
# Velocity P-wave (km/s) = 4.58410 6.42820 5.58282
#
# Compressibility (1/GPa) = 0.03170190
#
# Stress axis : x y z
#
# Youngs Moduli (GPa) = 93.42465 43.04153 55.48672
#
# Poissons Ratio (x) = -0.19839 0.31778
# Poissons Ratio (y) = -0.43062 0.49999
# Poissons Ratio (z) = 0.53506 0.38785
#
# Static dielectric constant tensor:
#      x y z
#    x 2.252390 -0.016820 0.005790 
#    y -0.016820 2.119580 0.010590 
#    z 0.005790 0.010590 2.131630 
# 
# From -- ./inp_files/82517.got.cif
#   From: 2010.05.17/outbox.cif.g08.bks.cpg/sg2_42_cif.got.tgz:82517.got - 2010.06.03 11:33:40.
