data_PCOD9072046
_publ_section_title
;
Structure prediction by ZEFSAII (Michael W. Deem and Ramdas Pophale) SiO2 
 PCOD9072046
Probable space group: P -1
;
_chemical_formula_sum "Si O2"
_cell_formula_units_Z 16
_cell_length_a 18.000000
_cell_length_b 12.000000
_cell_length_c 12.000000
_cell_angle_alpha 110.000000
_cell_angle_beta 20.000000
_cell_angle_gamma 110.000000
_cell_volume 831.335389
_symmetry_space_group_name_H-M "P -1"
_symmetry_group_IT_number 2
_symmetry_cell_setting 'triclinic'
loop_
_space_group_symop_operation_xyz
x,y,z
-x,-y,-z
loop_
_atom_site_type_symbol
_atom_site_label
_atom_site_fract_x
_atom_site_fract_y
_atom_site_fract_z
Si Si1 0.836119 0.676506 0.790397
Si Si2 0.158346 0.245458 0.793228
Si Si3 0.363306 0.164409 0.696083
Si Si4 0.622553 0.663123 0.676189
Si Si5 0.795934 0.426268 0.888234
Si Si6 0.552120 0.290867 0.819418
Si Si7 0.705215 0.111429 0.370875
Si Si8 0.934873 0.470568 0.261144
O O1 0.832012 0.556264 0.826267
O O2 0.058576 0.671902 0.406853
O O3 0.800072 0.784956 0.962954
O O4 0.641068 0.664172 0.970810
O O5 0.318717 0.234754 0.669059
O O6 0.257723 0.232111 0.526923
O O7 0.955885 0.149502 0.051149
O O8 0.058899 0.374997 0.983087
O O9 0.592387 0.175545 0.445560
O O10 0.328486 0.027294 0.659157
O O11 0.782019 0.560870 0.448269
O O12 0.448200 0.611690 0.813620
O O13 0.519504 0.707203 0.950970
O O14 0.887780 0.451109 0.890312
O O15 0.596773 0.165484 0.653621
O O16 0.764469 0.382755 0.541857
#
# Coordination Sequence:
#
# PCOD9072046 Si02
#       8
#     2   2   2   2   2   2   2   2
#     4  10  18  34  61  85 109 146 197 236 269 325
#     4  11  24  38  58  86 119 150 183 234 292 339
#     4  10  20  41  64  87 106 144 200 239 279 332
#     4  12  24  36  53  88 124 152 183 225 290 344
#     4  11  21  32  56  84 114 153 184 232 275 325
#     4  10  19  37  60  83 113 149 195 236 272 332
#     4   9  22  40  68  82 106 145 198 245 278 326
#     4  11  21  38  56  83 117 156 195 226 269 342
#
# _framework density 19.246143
#
# number of rings (size 3 to 8) (size 9 to 14) (size 15 to 20)
#    0.000    1.500    3.750    2.625    1.750    1.500 
#    0.000    0.625    0.000    2.250    0.000    0.000 
#    0.000    0.000    0.000    0.000    0.000    0.000 
#
# Total GULP energy -89146.843226 kJ/mol
# GULP energy per Si atom -5571.677702 kJ/mol
# Density = 1.920234 g / cm^3
# Si number density = 19.246143 Si / 1000 Ang^3
#
#
#
# Elastic Constant Matrix: (Units=GPa)
#
#
# Indices 1 2 3 4 5 6 
#
# 1 103.1409 26.3789 56.0871 -1.4296 7.8325 17.0219
# 2 26.3789 50.1566 16.8891 20.5108 4.0141 11.9126
# 3 56.0871 16.8891 42.3895 8.8908 -0.4948 -10.9076
# 4 -1.4296 20.5108 8.8908 13.7153 1.0625 3.0519
# 5 7.8325 4.0141 -0.4948 1.0625 35.5507 -4.5842
# 6 17.0219 11.9126 -10.9076 3.0519 -4.5842 10.4968
#
#
#
# Elastic Compliance Matrix: (Units=1/GPa)
#
#
# Indices 1 2 3 4 5 6 
#
# 1 -0.000306 -0.016325 0.014661 0.006551 0.006454 0.035173
# 2 -0.016325 0.095548 -0.001798 -0.131589 -0.009706 -0.049809
# 3 0.014661 -0.001798 -0.010999 0.021788 -0.009457 -0.043629
# 4 0.006551 -0.131589 0.021788 0.231856 0.020029 0.102690
# 5 0.006454 -0.009706 -0.009457 0.020029 0.026624 -0.003475
# 6 0.035173 -0.049809 -0.043629 0.102690 -0.003475 0.018045
#
#
# Mechanical properties :
#
#
# Convention : Reuss Voigt Hill
#
# Bulk Modulus (GPa) = 12.93357 43.82191 28.37774
# Shear Modulus (GPa) = 12.70758 18.37469 15.54113
#
# Velocity S-wave (km/s) = 2.57235 3.09321 2.84473
# Velocity P-wave (km/s) = 3.94428 5.96455 5.05634
#
# Compressibility (1/GPa) = 0.07731817
#
# Stress axis : x y z
#
# Youngs Moduli (GPa) = -3266.44984 10.46598 -90.91900
#
# Poissons Ratio (x) = 0.17086 1.33301
# Poissons Ratio (y) = -53.32639 -0.16350
# Poissons Ratio (z) = 47.89103 0.01882
#
# Static dielectric constant tensor:
#      x y z
#    x 1.676640 -0.019120 -0.006170 
#    y -0.019120 1.649540 -0.000480 
#    z -0.006170 -0.000480 1.731830 
# 
# From -- ./inp_files/282852.got.cif
#   From: 2010.05.17/outbox.ucp.g08.bks.cvg/sg2_142_cif.got.tgz:282852.got - 2010.06.11 11:32:03.
