data_PCOD9072043
_publ_section_title
;
Structure prediction by ZEFSAII (Michael W. Deem and Ramdas Pophale) SiO2 
 PCOD9072043
Probable space group: P -1
;
_chemical_formula_sum "Si O2"
_cell_formula_units_Z 16
_cell_length_a 8.777360
_cell_length_b 9.861909
_cell_length_c 18.663918
_cell_angle_alpha 146.347886
_cell_angle_beta 67.202467
_cell_angle_gamma 109.471772
_cell_volume 825.147211
_symmetry_space_group_name_H-M "P -1"
_symmetry_group_IT_number 2
_symmetry_cell_setting 'triclinic'
loop_
_space_group_symop_operation_xyz
x,y,z
-x,-y,-z
loop_
_atom_site_type_symbol
_atom_site_label
_atom_site_fract_x
_atom_site_fract_y
_atom_site_fract_z
Si Si1 0.694234 0.170449 0.573936
Si Si2 0.973620 0.596081 0.340931
Si Si3 0.190408 0.348236 0.463610
Si Si4 0.241225 0.635568 0.834073
Si Si5 0.920444 0.100424 0.308743
Si Si6 0.859670 0.910632 0.863817
Si Si7 0.643490 0.787979 0.294890
Si Si8 0.409714 0.362928 0.297116
O O1 0.552636 0.190164 0.668446
O O2 0.653749 0.380152 0.613149
O O3 0.874627 0.214839 0.592718
O O4 0.674088 0.918812 0.424209
O O5 0.827490 0.666515 0.454068
O O6 0.899648 0.535060 0.250773
O O7 0.057093 0.338318 0.234463
O O8 0.134035 0.625380 0.579887
O O9 0.351538 0.329371 0.375331
O O10 0.053486 0.156342 0.372158
O O11 0.309528 0.492438 0.827676
O O12 0.396658 0.657964 0.761654
O O13 0.175010 0.896369 0.983621
O O14 0.015781 0.988479 0.175149
O O15 0.764160 0.935533 0.285959
O O16 0.691499 0.833889 0.819236
#
# Coordination Sequence:
#
# PCOD9072043 Si02
#       8
#     2   2   2   2   2   2   2   2
#     4   9  17  31  50  74  93 127 158 197 242 280
#     4  10  19  33  51  69 101 128 158 196 239 291
#     4   9  15  29  52  74  91 120 164 198 244 268
#     4  11  22  30  45  77 104 130 151 190 247 291
#     4   9  15  30  54  72  89 122 166 207 223 275
#     4   9  19  34  53  68  93 133 167 195 226 278
#     4  10  18  30  51  73  99 120 162 200 235 285
#     4   9  17  32  54  72  93 120 168 209 226 270
#
# _framework density 19.39048
#
# number of rings (size 3 to 8) (size 9 to 14) (size 15 to 20)
#    0.000    2.500    2.500    2.250    0.000    1.500 
#    0.000    0.000    0.000    0.750    0.000    0.000 
#    0.000    0.000    0.000    0.000    0.000    0.000 
#
# Total GULP energy -89148.768599 kJ/mol
# GULP energy per Si atom -5571.798037 kJ/mol
# Density = 1.934635 g / cm^3
# Si number density = 19.390480 Si / 1000 Ang^3
#
#
#
# Elastic Constant Matrix: (Units=GPa)
#
#
# Indices 1 2 3 4 5 6 
#
# 1 41.4264 19.2834 18.6711 -10.7899 -2.5691 19.6181
# 2 19.2834 68.9962 8.4362 -3.7585 -6.5773 31.3310
# 3 18.6711 8.4362 59.8984 -11.1286 -4.1064 4.8719
# 4 -10.7899 -3.7585 -11.1286 15.9584 1.5257 -5.4229
# 5 -2.5691 -6.5773 -4.1064 1.5257 16.8944 -0.0616
# 6 19.6181 31.3310 4.8719 -5.4229 -0.0616 25.0829
#
#
#
# Elastic Compliance Matrix: (Units=1/GPa)
#
#
# Indices 1 2 3 4 5 6 
#
# 1 0.050094 0.010017 -0.010394 0.012272 0.007712 -0.047002
# 2 0.010017 0.040051 -0.004411 -0.008434 0.016591 -0.058788
# 3 -0.010394 -0.004411 0.021708 0.010983 0.001029 0.011801
# 4 0.012272 -0.008434 0.010983 0.082901 -0.006174 0.016712
# 5 0.007712 0.016591 0.001029 -0.006174 0.067528 -0.028124
# 6 -0.047002 -0.058788 0.011801 0.016712 -0.028124 0.151314
#
#
# Mechanical properties :
#
#
# Convention : Reuss Voigt Hill
#
# Bulk Modulus (GPa) = 9.77746 29.23360 19.50553
# Shear Modulus (GPa) = 10.93459 19.84916 15.39188
#
# Velocity S-wave (km/s) = 2.37727 3.20293 2.82048
# Velocity P-wave (km/s) = 3.54803 5.36539 4.54840
#
# Compressibility (1/GPa) = 0.10227603
#
# Stress axis : x y z
#
# Youngs Moduli (GPa) = 19.96247 24.96814 46.06697
#
# Poissons Ratio (x) = -0.25012 0.47883
# Poissons Ratio (y) = -0.19997 0.20322
# Poissons Ratio (z) = 0.20750 0.11014
#
# Static dielectric constant tensor:
#      x y z
#    x 1.701920 0.005410 -0.016230 
#    y 0.005410 1.709100 -0.011880 
#    z -0.016230 -0.011880 1.657110 
# 
# From -- ./inp_files/251930.got.cif
#   From: 2010.05.17/outbox.cif.g08.bks.cpg/sg2_126_cif.got.tgz:251930.got - 2010.06.03 11:33:40.
