data_PCOD9072867
_publ_section_title
;
Structure prediction by ZEFSAII (Michael W. Deem and Ramdas Pophale) SiO2 
 PCOD9072867
Probable space group: P -1
;
_chemical_formula_sum "Si O2"
_cell_formula_units_Z 16
_cell_length_a 9.000000
_cell_length_b 15.000000
_cell_length_c 18.000000
_cell_angle_alpha 150.000000
_cell_angle_beta 140.000000
_cell_angle_gamma 40.000000
_cell_volume 740.097418
_symmetry_space_group_name_H-M "P -1"
_symmetry_group_IT_number 2
_symmetry_cell_setting 'triclinic'
loop_
_space_group_symop_operation_xyz
x,y,z
-x,-y,-z
loop_
_atom_site_type_symbol
_atom_site_label
_atom_site_fract_x
_atom_site_fract_y
_atom_site_fract_z
Si Si1 0.678285 0.847811 0.336343
Si Si2 0.200348 0.718825 0.857209
Si Si3 0.585618 0.726372 0.885354
Si Si4 0.981927 0.079938 0.653554
Si Si5 0.188474 0.013445 0.191696
Si Si6 0.197376 0.934090 0.787356
Si Si7 0.107894 0.432889 0.895301
Si Si8 0.464710 0.670193 0.256394
O O1 0.462732 0.977627 0.296058
O O2 0.772010 0.637993 0.188078
O O3 0.551992 0.807401 0.334326
O O4 0.916002 0.915162 0.465025
O O5 0.403088 0.758140 0.908653
O O6 0.297906 0.496809 0.747487
O O7 0.186796 0.834336 0.011557
O O8 0.943836 0.806664 0.780292
O O9 0.408564 0.746471 0.760456
O O10 0.822648 0.548173 0.861404
O O11 0.698285 0.893239 0.038822
O O12 0.699668 0.198405 0.649385
O O13 0.111922 0.239212 0.800668
O O14 0.107963 0.961897 0.689176
O O15 0.026187 0.032172 0.216874
O O16 0.271746 0.560463 0.077452
#
# Coordination Sequence:
#
# PCOD9072867 Si02
#       8
#     2   2   2   2   2   2   2   2
#     4  12  26  40  61  94 131 160 197 256 318 359
#     4  10  21  37  61  92 119 156 206 259 294 354
#     4  10  20  38  60  92 117 160 207 254 293 358
#     4  12  24  42  61  92 129 164 199 250 316 366
#     4  10  21  38  59  90 126 155 199 255 312 351
#     4  10  21  36  62  88 124 158 202 250 310 355
#     4  12  23  41  65  92 121 162 215 252 290 363
#     4  12  22  39  66  93 118 160 216 253 292 360
#
# _framework density 21.618776
#
# number of rings (size 3 to 8) (size 9 to 14) (size 15 to 20)
#    0.000    1.000    5.000    2.250    1.750    0.000 
#    0.000    2.500    0.000    0.000    0.000    0.000 
#    0.000    0.000    0.000    0.000    0.000    0.000 
#
# Total GULP energy -89118.282798 kJ/mol
# GULP energy per Si atom -5569.892675 kJ/mol
# Density = 2.156957 g / cm^3
# Si number density = 21.618776 Si / 1000 Ang^3
#
#
#
# Elastic Constant Matrix: (Units=GPa)
#
#
# Indices 1 2 3 4 5 6 
#
# 1 40.3862 -3.6629 -5.6605 -2.7655 21.8761 1.8341
# 2 -3.6629 111.0998 15.2848 -16.9514 6.8989 5.9245
# 3 -5.6605 15.2848 43.1489 -13.2005 9.1332 7.9545
# 4 -2.7655 -16.9514 -13.2005 26.0119 -7.1142 0.7021
# 5 21.8761 6.8989 9.1332 -7.1142 22.4468 9.7106
# 6 1.8341 5.9245 7.9545 0.7021 9.7106 30.3695
#
#
#
# Elastic Compliance Matrix: (Units=1/GPa)
#
#
# Indices 1 2 3 4 5 6 
#
# 1 0.084028 0.003851 0.026662 -0.004055 -0.104109 0.020573
# 2 0.003851 0.010381 -0.000263 0.005796 -0.004637 -0.000840
# 3 0.026662 -0.000263 0.038335 0.011751 -0.037881 0.000241
# 4 -0.004055 0.005796 0.011751 0.053306 0.019186 -0.011331
# 5 -0.104109 -0.004637 -0.037881 0.019186 0.187680 -0.043340
# 6 0.020573 -0.000840 0.000241 -0.011331 -0.043340 0.045906
#
#
# Mechanical properties :
#
#
# Convention : Reuss Voigt Hill
#
# Bulk Modulus (GPa) = 5.17475 22.95086 14.06280
# Shear Modulus (GPa) = 11.80497 28.34386 20.07442
#
# Velocity S-wave (km/s) = 2.33931 3.62481 3.05054
# Velocity P-wave (km/s) = 3.11373 5.30643 4.35049
#
# Compressibility (1/GPa) = 0.19324606
#
# Stress axis : x y z
#
# Youngs Moduli (GPa) = 11.90076 96.32909 26.08585
#
# Poissons Ratio (x) = -0.37099 -0.69551
# Poissons Ratio (y) = -0.04583 0.00685
# Poissons Ratio (z) = -0.31730 0.02530
#
# Static dielectric constant tensor:
#      x y z
#    x 1.810970 0.031100 -0.087960 
#    y 0.031100 1.842510 -0.050950 
#    z -0.087960 -0.050950 1.855870 
# 
# From -- ./inp_files/209490.got.cif
#   From: 2010.05.17/outbox.ucp.g08.bks.cvg/sg2_105_cif.got.tgz:209490.got - 2010.06.11 11:32:03.
