data_PCOD9072665
_publ_section_title
;
Structure prediction by ZEFSAII (Michael W. Deem and Ramdas Pophale) SiO2 
 PCOD9072665
Probable space group: P -1
;
_chemical_formula_sum "Si O2"
_cell_formula_units_Z 16
_cell_length_a 15.000000
_cell_length_b 9.000000
_cell_length_c 12.000000
_cell_angle_alpha 140.000000
_cell_angle_beta 130.000000
_cell_angle_gamma 70.000000
_cell_volume 759.581896
_symmetry_space_group_name_H-M "P -1"
_symmetry_group_IT_number 2
_symmetry_cell_setting 'triclinic'
loop_
_space_group_symop_operation_xyz
x,y,z
-x,-y,-z
loop_
_atom_site_type_symbol
_atom_site_label
_atom_site_fract_x
_atom_site_fract_y
_atom_site_fract_z
Si Si1 0.668343 0.485261 0.506385
Si Si2 0.250722 0.966984 0.032530
Si Si3 0.074409 0.201811 0.590943
Si Si4 0.930438 0.583357 0.725755
Si Si5 0.977188 0.952567 0.784252
Si Si6 0.319153 0.546819 0.961530
Si Si7 0.516193 0.982726 0.873218
Si Si8 0.444231 0.505710 0.820682
O O1 0.797053 0.429495 0.572905
O O2 0.569455 0.281377 0.380521
O O3 0.615249 0.497192 0.347798
O O4 0.701766 0.756471 0.732748
O O5 0.340843 0.960148 0.001148
O O6 0.110309 0.912064 0.859687
O O7 0.272938 0.777393 0.030598
O O8 0.212495 0.343138 0.819585
O O9 0.006469 0.408572 0.649056
O O10 0.075932 0.086056 0.403762
O O11 0.000000 0.000000 0.500000
O O12 0.908310 0.748872 0.700966
O O13 0.000418 0.783449 0.989334
O O14 0.344875 0.441506 0.801462
O O15 0.450607 0.621399 0.168640
O O16 0.500000 0.000000 0.000000
O O17 0.483746 0.211085 0.928373
#
# Coordination Sequence:
#
# PCOD9072665 Si02
#       8
#     2   2   2   2   2   2   2   2
#     4  10  20  34  59  89 114 147 193 246 305 346
#     4  10  20  36  59  84 115 151 199 247 291 358
#     4  12  26  38  64  90 125 165 199 250 316 360
#     4  10  22  40  66  94 119 158 208 252 299 365
#     4  10  22  41  65  91 120 159 209 255 295 364
#     4  10  21  39  54  84 114 154 205 234 293 367
#     4   9  19  32  55  82 111 147 186 238 290 347
#     4   9  20  36  59  80 117 153 190 247 288 354
#
# _framework density 21.064219999999999
#
# number of rings (size 3 to 8) (size 9 to 14) (size 15 to 20)
#    0.000    2.000    1.250    1.500    7.000    2.000 
#    0.000    0.000    0.000    0.000    0.000    0.000 
#    0.000    0.000    0.000    0.000    0.000    0.000 
#
# Total GULP energy -89186.738446 kJ/mol
# GULP energy per Si atom -5574.171153 kJ/mol
# Density = 2.101628 g / cm^3
# Si number density = 21.064220 Si / 1000 Ang^3
#
#
#
# Elastic Constant Matrix: (Units=GPa)
#
#
# Indices 1 2 3 4 5 6 
#
# 1 51.6099 2.9334 9.8614 11.5873 12.5468 14.9071
# 2 2.9334 26.7800 21.6559 10.3691 4.5015 8.1089
# 3 9.8614 21.6559 42.8096 7.1086 7.3248 0.3172
# 4 11.5873 10.3691 7.1086 17.3951 11.9552 6.9301
# 5 12.5468 4.5015 7.3248 11.9552 35.7003 3.1973
# 6 14.9071 8.1089 0.3172 6.9301 3.1973 21.5910
#
#
#
# Elastic Compliance Matrix: (Units=1/GPa)
#
#
# Indices 1 2 3 4 5 6 
#
# 1 0.033511 0.025341 -0.016822 -0.017948 -0.003166 -0.026177
# 2 0.025341 0.108332 -0.053781 -0.048056 0.008432 -0.043216
# 3 -0.016822 -0.053781 0.052741 0.014654 -0.005466 0.027144
# 4 -0.017948 -0.048056 0.014654 0.111964 -0.027993 -0.001567
# 5 -0.003166 0.008432 -0.005466 -0.027993 0.038341 0.002407
# 6 -0.026177 -0.043216 0.027144 -0.001567 0.002407 0.080367
#
#
# Mechanical properties :
#
#
# Convention : Reuss Voigt Hill
#
# Bulk Modulus (GPa) = 9.61005 21.12233 15.36619
# Shear Modulus (GPa) = 9.08320 20.72054 14.90187
#
# Velocity S-wave (km/s) = 2.07882 3.13978 2.66268
# Velocity P-wave (km/s) = 3.21468 4.81598 4.09437
#
# Compressibility (1/GPa) = 0.10405778
#
# Stress axis : x y z
#
# Youngs Moduli (GPa) = 29.84131 9.23092 18.96045
#
# Poissons Ratio (x) = -0.23392 0.31896
# Poissons Ratio (y) = -0.75621 1.01972
# Poissons Ratio (z) = 0.50200 0.49645
#
# Static dielectric constant tensor:
#      x y z
#    x 1.831500 -0.005610 0.015080 
#    y -0.005610 1.777820 0.034010 
#    z 0.015080 0.034010 1.794090 
# 
# From -- ./inp_files/406782.got.cif
#   From: 2010.05.17/outbox.ucp.g08.bks.cvg/sg2_204_cif.got.tgz:406782.got - 2010.06.11 11:32:03.
