data_PCOD9072226
_publ_section_title
;
Structure prediction by ZEFSAII (Michael W. Deem and Ramdas Pophale) SiO2 
 PCOD9072226
Probable space group: P -1
;
_chemical_formula_sum "Si O2"
_cell_formula_units_Z 14
_cell_length_a 16.228685
_cell_length_b 5.332789
_cell_length_c 8.955180
_cell_angle_alpha 77.041042
_cell_angle_beta 109.278822
_cell_angle_gamma 134.167714
_cell_volume 524.729645
_symmetry_space_group_name_H-M "P -1"
_symmetry_group_IT_number 2
_symmetry_cell_setting 'triclinic'
loop_
_space_group_symop_operation_xyz
x,y,z
-x,-y,-z
loop_
_atom_site_type_symbol
_atom_site_label
_atom_site_fract_x
_atom_site_fract_y
_atom_site_fract_z
Si Si1 0.502100 0.212989 0.106940
Si Si2 0.198921 0.643285 0.835540
Si Si3 0.435297 0.724054 0.362913
Si Si4 0.637923 0.741560 0.368902
Si Si5 0.834887 0.971349 0.046138
Si Si6 0.912214 0.108473 0.732453
Si Si7 0.949848 0.727848 0.640875
O O1 0.607150 0.467330 0.259517
O O2 0.405691 0.888612 0.205928
O O3 0.500000 0.500000 0.000000
O O4 0.500000 0.000000 0.000000
O O5 0.238237 0.431472 0.914133
O O6 0.055833 0.349537 0.779297
O O7 0.261628 0.886457 0.697151
O O8 0.225238 0.888200 0.954921
O O9 0.525034 0.703905 0.336769
O O10 0.343447 0.359197 0.446406
O O11 0.500000 0.000000 0.500000
O O12 0.948132 0.163304 0.197813
O O13 0.873699 0.052662 0.887872
O O14 0.894892 0.347571 0.611383
O O15 0.866149 0.755580 0.676234
O O16 0.000000 0.000000 0.500000
#
# Coordination Sequence:
#
# PCOD9072226 Si02
#       7
#     2   2   2   2   2   2   2
#     4  11  21  37  61  87 114 149 187 229 286 353
#     4  10  20  32  58  85 110 140 187 242 267 317
#     4   9  20  37  60  86 111 147 194 226 286 342
#     4  10  21  37  60  89 114 148 195 236 284 338
#     4  10  20  35  56  81 110 147 189 227 276 322
#     4  10  19  36  55  81 108 149 189 226 273 326
#     4  10  18  30  53  80 104 140 188 228 267 328
#
# _framework density 26.680408
#
# number of rings (size 3 to 8) (size 9 to 14) (size 15 to 20)
#    0.000    2.000    1.429    4.714    4.000    0.000 
#    0.000    0.000    0.000   27.429    0.000    0.000 
#    0.000    0.000    0.000    0.000    0.000    0.000 
#
# Total GULP energy -78202.830424 kJ/mol
# GULP energy per Si atom -5585.916459 kJ/mol
# Density = 2.661968 g / cm^3
# Si number density = 26.680408 Si / 1000 Ang^3
#
#
#
# Elastic Constant Matrix: (Units=GPa)
#
#
# Indices 1 2 3 4 5 6 
#
# 1 106.2736 45.2375 29.3219 7.6458 -5.1225 -33.6848
# 2 45.2375 116.8702 26.6296 -29.1120 4.0761 -33.7891
# 3 29.3219 26.6296 165.9514 -32.8708 -2.9579 -4.5844
# 4 7.6458 -29.1120 -32.8708 66.3999 -8.6505 -6.8883
# 5 -5.1225 4.0761 -2.9579 -8.6505 40.0774 -5.1357
# 6 -33.6848 -33.7891 -4.5844 -6.8883 -5.1357 64.0029
#
#
#
# Elastic Compliance Matrix: (Units=1/GPa)
#
#
# Indices 1 2 3 4 5 6 
#
# 1 0.013783 -0.004627 -0.002356 -0.004107 0.001728 0.004339
# 2 -0.004627 0.013733 0.000219 0.007290 0.000324 0.005641
# 3 -0.002356 0.000219 0.007232 0.004080 0.001081 -0.000080
# 4 -0.004107 0.007290 0.004080 0.021799 0.004339 0.004674
# 5 0.001728 0.000324 0.001081 0.004339 0.026638 0.003763
# 6 0.004339 0.005641 -0.000080 0.004674 0.003763 0.021685
#
#
# Mechanical properties :
#
#
# Convention : Reuss Voigt Hill
#
# Bulk Modulus (GPa) = 47.12090 65.71927 56.42008
# Shear Modulus (GPa) = 39.84950 53.28979 46.56965
#
# Velocity S-wave (km/s) = 3.86889 4.47401 4.18241
# Velocity P-wave (km/s) = 6.13655 7.16760 6.67202
#
# Compressibility (1/GPa) = 0.02122201
#
# Stress axis : x y z
#
# Youngs Moduli (GPa) = 72.55095 72.81684 138.27252
#
# Poissons Ratio (x) = 0.33693 0.32572
# Poissons Ratio (y) = 0.33570 -0.03034
# Poissons Ratio (z) = 0.17090 -0.01598
#
# Static dielectric constant tensor:
#      x y z
#    x 2.305130 0.200050 0.140380 
#    y 0.200050 2.435980 0.164840 
#    z 0.140380 0.164840 2.141630 
# 
# From -- ./inp_files/56590.got.cif
#   From: 2010.05.17/outbox.cif.g08.bks.cpg/sg2_29_cif.got.tgz:56590.got - 2010.06.03 11:33:40.
