data_PCOD9072371
_publ_section_title
;
Structure prediction by ZEFSAII (Michael W. Deem and Ramdas Pophale) SiO2 
 PCOD9072371
Probable space group: P -1
;
_chemical_formula_sum "Si O2"
_cell_formula_units_Z 14
_cell_length_a 7.247739
_cell_length_b 17.586538
_cell_length_c 8.925888
_cell_angle_alpha 116.460816
_cell_angle_beta 113.966638
_cell_angle_gamma 41.830857
_cell_volume 674.026889
_symmetry_space_group_name_H-M "P -1"
_symmetry_group_IT_number 2
_symmetry_cell_setting 'triclinic'
loop_
_space_group_symop_operation_xyz
x,y,z
-x,-y,-z
loop_
_atom_site_type_symbol
_atom_site_label
_atom_site_fract_x
_atom_site_fract_y
_atom_site_fract_z
Si Si1 0.787911 0.108167 0.681734
Si Si2 0.607081 0.605686 0.610927
Si Si3 0.274525 0.597000 0.718163
Si Si4 0.285054 0.324952 0.855927
Si Si5 0.785187 0.781833 0.510802
Si Si6 0.085511 0.559202 0.884160
Si Si7 0.076557 0.855848 0.535251
O O1 0.604916 0.201860 0.835945
O O2 0.545536 0.135173 0.520048
O O3 0.924325 0.135789 0.638284
O O4 0.992503 0.972860 0.671886
O O5 0.488481 0.604082 0.728672
O O6 0.639611 0.515991 0.433893
O O7 0.254875 0.582072 0.873364
O O8 0.376758 0.735042 0.580079
O O9 0.108169 0.428528 0.295533
O O10 0.972538 0.713695 0.658162
O O11 0.129763 0.316868 0.665844
O O12 0.256486 0.431875 0.899875
O O13 0.127046 0.349082 0.977180
O O14 0.861764 0.848889 0.520744
#
# Coordination Sequence:
#
# PCOD9072371 Si02
#       7
#     2   2   2   2   2   2   2
#     4   9  18  33  49  79  95 132 161 207 242 291
#     4  10  19  31  51  78  97 126 166 210 237 293
#     4  10  19  31  55  74  98 126 170 200 253 279
#     4   9  21  34  50  72 105 130 167 190 257 287
#     4   9  18  34  50  77  97 127 163 214 231 293
#     4  11  19  36  49  73 104 136 153 208 241 304
#     4  10  18  30  56  75  98 124 171 204 248 274
#
# _framework density 20.770685
#
# number of rings (size 3 to 8) (size 9 to 14) (size 15 to 20)
#    0.857    1.429    1.429    2.571    0.000    0.000 
#    2.571    2.143    0.000    3.429    0.000    0.000 
#    0.000    0.000    0.000    0.000    0.000    0.000 
#
# Total GULP energy -78089.919316 kJ/mol
# GULP energy per Si atom -5577.851380 kJ/mol
# Density = 2.072341 g / cm^3
# Si number density = 20.770685 Si / 1000 Ang^3
#
#
#
# Elastic Constant Matrix: (Units=GPa)
#
#
# Indices 1 2 3 4 5 6 
#
# 1 90.8698 31.3530 17.0481 -4.8816 -26.7102 24.6470
# 2 31.3530 115.7299 11.3052 9.0433 -16.1963 8.3697
# 3 17.0481 11.3052 36.1250 3.1467 -20.4469 7.4227
# 4 -4.8816 9.0433 3.1467 23.1798 -10.0122 -7.7009
# 5 -26.7102 -16.1963 -20.4469 -10.0122 39.7166 -9.5987
# 6 24.6470 8.3697 7.4227 -7.7009 -9.5987 32.4292
#
#
#
# Elastic Compliance Matrix: (Units=1/GPa)
#
#
# Indices 1 2 3 4 5 6 
#
# 1 0.017722 -0.003296 -0.000601 0.006842 0.010088 -0.007870
# 2 -0.003296 0.010075 -0.001024 -0.004891 -0.000124 -0.001059
# 3 -0.000601 -0.001024 0.039660 0.002890 0.019894 -0.001782
# 4 0.006842 -0.004891 0.002890 0.062166 0.023935 0.017248
# 5 0.010088 -0.000124 0.019894 0.023935 0.050207 0.008356
# 6 -0.007870 -0.001059 -0.001782 0.017248 0.008356 0.044068
#
#
# Mechanical properties :
#
#
# Convention : Reuss Voigt Hill
#
# Bulk Modulus (GPa) = 17.35670 40.23750 28.79710
# Shear Modulus (GPa) = 19.76696 31.26636 25.51666
#
# Velocity S-wave (km/s) = 3.08827 3.88404 3.50879
# Velocity P-wave (km/s) = 4.59250 6.28719 5.50544
#
# Compressibility (1/GPa) = 0.05761464
#
# Stress axis : x y z
#
# Youngs Moduli (GPa) = 56.42614 99.25294 25.21414
#
# Poissons Ratio (x) = 0.32716 0.01516
# Poissons Ratio (y) = 0.18599 0.02583
# Poissons Ratio (z) = 0.03392 0.10166
#
# Static dielectric constant tensor:
#      x y z
#    x 1.748630 -0.010360 -0.013140 
#    y -0.010360 1.733780 -0.004180 
#    z -0.013140 -0.004180 1.770460 
# 
# From -- ./inp_files/264513.got.cif
#   From: 2010.05.17/outbox.cif.g08.bks.cpg/sg2_133_cif.got.tgz:264513.got - 2010.06.03 11:33:40.
