data_PCOD9072105
_publ_section_title
;
Structure prediction by ZEFSAII (Michael W. Deem and Ramdas Pophale) SiO2 
 PCOD9072105
Probable space group: P -1
;
_chemical_formula_sum "Si O2"
_cell_formula_units_Z 16
_cell_length_a 7.524371
_cell_length_b 16.589576
_cell_length_c 18.665473
_cell_angle_alpha 30.193104
_cell_angle_beta 65.855572
_cell_angle_gamma 42.865086
_cell_volume 601.530615
_symmetry_space_group_name_H-M "P -1"
_symmetry_group_IT_number 2
_symmetry_cell_setting 'triclinic'
loop_
_space_group_symop_operation_xyz
x,y,z
-x,-y,-z
loop_
_atom_site_type_symbol
_atom_site_label
_atom_site_fract_x
_atom_site_fract_y
_atom_site_fract_z
Si Si1 0.048609 0.736566 0.969608
Si Si2 0.047310 0.082321 0.580136
Si Si3 0.735849 0.431408 0.087997
Si Si4 0.469305 0.849834 0.081666
Si Si5 0.453011 0.381432 0.545944
Si Si6 0.937435 0.666993 0.513961
Si Si7 0.758384 0.452849 0.763530
Si Si8 0.181144 0.578401 0.765460
O O1 0.130007 0.597319 0.988102
O O2 0.320812 0.700301 0.957845
O O3 0.125151 0.586330 0.143762
O O4 0.676606 0.073143 0.768368
O O5 0.649251 0.308005 0.498406
O O6 0.217415 0.068689 0.627791
O O7 0.100739 0.164879 0.440668
O O8 0.179766 0.817192 0.740735
O O9 0.900393 0.394694 0.159374
O O10 0.714891 0.585640 0.298886
O O11 0.610206 0.704417 0.092121
O O12 0.500000 0.000000 0.000000
O O13 0.052806 0.129449 0.934386
O O14 0.500000 0.500000 0.500000
O O15 0.056525 0.608532 0.456982
O O16 0.746879 0.628220 0.588231
O O17 0.418316 0.578388 0.728300
#
# Coordination Sequence:
#
# PCOD9072105 Si02
#       8
#     2   2   2   2   2   2   2   2
#     4   9  17  30  50  77 103 134 181 216 252 305
#     4   9  18  32  51  74 103 142 180 208 254 311
#     4   9  18  32  51  75 104 141 181 216 248 303
#     4   9  17  30  50  74 103 131 167 215 261 312
#     4   9  16  29  50  76 102 134 179 213 258 306
#     4   9  17  30  51  78 103 134 175 215 260 309
#     4  10  18  30  51  82 107 134 169 218 266 307
#     4  10  19  31  49  78 107 136 176 211 265 310
#
# _framework density 26.598813
#
# number of rings (size 3 to 8) (size 9 to 14) (size 15 to 20)
#    0.000    2.750    1.250    0.750    0.000    0.000 
#    0.000    3.125    0.000    6.750    3.250    0.000 
#    0.000    0.000    0.000    0.000    0.000    0.000 
#
# Total GULP energy -89186.100006 kJ/mol
# GULP energy per Si atom -5574.131250 kJ/mol
# Density = 2.653827 g / cm^3
# Si number density = 26.598813 Si / 1000 Ang^3
#
#
#
# Elastic Constant Matrix: (Units=GPa)
#
#
# Indices 1 2 3 4 5 6 
#
# 1 97.4553 37.0845 18.1701 2.2480 -31.9484 8.3105
# 2 37.0845 139.0145 9.1614 6.6859 -5.1936 37.3171
# 3 18.1701 9.1614 58.8365 -6.1717 -24.0116 7.1271
# 4 2.2480 6.6859 -6.1717 34.2876 -1.8660 -1.2950
# 5 -31.9484 -5.1936 -24.0116 -1.8660 29.3393 1.2057
# 6 8.3105 37.3171 7.1271 -1.2950 1.2057 36.6274
#
#
#
# Elastic Compliance Matrix: (Units=1/GPa)
#
#
# Indices 1 2 3 4 5 6 
#
# 1 0.018922 -0.004052 0.005088 0.001713 0.024239 -0.001892
# 2 -0.004052 0.011092 -0.000587 -0.002536 -0.002668 -0.010269
# 3 0.005088 -0.000587 0.029351 0.006439 0.030156 -0.007033
# 4 0.001713 -0.002536 0.006439 0.031241 0.008601 0.001763
# 5 0.024239 -0.002668 0.030156 0.008601 0.085692 -0.011166
# 6 -0.001892 -0.010269 -0.007033 0.001763 -0.011166 0.039992
#
#
# Mechanical properties :
#
#
# Convention : Reuss Voigt Hill
#
# Bulk Modulus (GPa) = 16.59369 47.12647 31.86008
# Shear Modulus (GPa) = 21.23327 35.44354 28.33841
#
# Velocity S-wave (km/s) = 2.82845 3.65433 3.26759
# Velocity P-wave (km/s) = 4.11326 5.96335 5.12252
#
# Compressibility (1/GPa) = 0.06026386
#
# Stress axis : x y z
#
# Youngs Moduli (GPa) = 52.84779 90.15472 34.07077
#
# Poissons Ratio (x) = 0.36530 -0.17336
# Poissons Ratio (y) = 0.21414 0.01999
# Poissons Ratio (z) = -0.26890 0.05290
#
# Static dielectric constant tensor:
#      x y z
#    x 2.138060 -0.046820 0.098690 
#    y -0.046820 2.200320 -0.016720 
#    z 0.098690 -0.016720 2.286220 
# 
# From -- ./inp_files/389334.got.cif
#   From: 2010.05.17/outbox.cif.g08.bks.cpg/sg2_195_cif.got.tgz:389334.got - 2010.06.03 11:33:40.
