data_PCOD9072878
_publ_section_title
;
Structure prediction by ZEFSAII (Michael W. Deem and Ramdas Pophale) SiO2 
 PCOD9072878
Probable space group: P -1
;
_chemical_formula_sum "Si O2"
_cell_formula_units_Z 15
_cell_length_a 18.000000
_cell_length_b 6.000000
_cell_length_c 9.000000
_cell_angle_alpha 50.000000
_cell_angle_beta 110.000000
_cell_angle_gamma 120.000000
_cell_volume 644.526612
_symmetry_space_group_name_H-M "P -1"
_symmetry_group_IT_number 2
_symmetry_cell_setting 'triclinic'
loop_
_space_group_symop_operation_xyz
x,y,z
-x,-y,-z
loop_
_atom_site_type_symbol
_atom_site_label
_atom_site_fract_x
_atom_site_fract_y
_atom_site_fract_z
Si Si1 0.717486 0.339321 0.018618
Si Si2 0.430768 0.397523 0.230508
Si Si3 0.880389 0.586888 0.851994
Si Si4 0.400450 0.268222 0.933217
Si Si5 0.051102 0.825522 0.724550
Si Si6 0.166808 0.544570 0.452456
Si Si7 0.000000 0.500000 0.500000
Si Si8 0.340083 0.834643 0.617945
O O1 0.708431 0.209168 0.236943
O O2 0.687284 0.022040 0.037217
O O3 0.644313 0.473227 0.884063
O O4 0.806945 0.600079 0.906756
O O5 0.524102 0.683800 0.156292
O O6 0.408394 0.164170 0.456665
O O7 0.425844 0.230825 0.136552
O O8 0.838917 0.418144 0.743292
O O9 0.970289 0.869786 0.737632
O O10 0.914433 0.362912 0.061082
O O11 0.385084 0.588463 0.768634
O O12 0.018941 0.618437 0.642745
O O13 0.125920 0.163492 0.606593
O O14 0.263411 0.711174 0.500019
O O15 0.103573 0.643200 0.470016
#
# Coordination Sequence:
#
# PCOD9072878 Si02
#       8
#     2   2   2   2   2   2   1   2
#     4  11  23  39  62  93 123 159 207 257 306 367
#     4  10  23  41  64  92 122 162 205 252 312 370
#     4  10  21  39  61  85 119 159 198 244 302 356
#     4  10  22  43  64  89 126 160 202 257 311 370
#     4  10  22  41  61  87 121 160 201 249 303 359
#     4  11  23  40  60  86 121 160 201 249 302 360
#     4  10  20  38  62  86 116 152 198 246 294 352
#     4  11  24  39  62  92 123 162 208 252 305 368
#
# _framework density 23.272894999999998
#
# number of rings (size 3 to 8) (size 9 to 14) (size 15 to 20)
#    0.000    1.600    0.000    4.800    0.000    6.933 
#    0.000   19.333    0.000    0.000    0.000    0.000 
#    0.000    0.000    0.000    0.000    0.000    0.000 
#
# Total GULP energy -83509.955226 kJ/mol
# GULP energy per Si atom -5567.330348 kJ/mol
# Density = 2.321992 g / cm^3
# Si number density = 23.272895 Si / 1000 Ang^3
#
#
#
# Elastic Constant Matrix: (Units=GPa)
#
#
# Indices 1 2 3 4 5 6 
#
# 1 122.8499 -15.7614 25.0366 -2.9511 -26.4071 11.4596
# 2 -15.7614 21.9042 16.9712 -1.4976 -7.6948 11.9516
# 3 25.0366 16.9712 130.0511 10.9511 -21.4772 -4.9181
# 4 -2.9511 -1.4976 10.9511 22.9283 4.2307 -4.3692
# 5 -26.4071 -7.6948 -21.4772 4.2307 46.8408 0.9078
# 6 11.4596 11.9516 -4.9181 -4.3692 0.9078 28.1436
#
#
#
# Elastic Compliance Matrix: (Units=1/GPa)
#
#
# Indices 1 2 3 4 5 6 
#
# 1 0.021676 0.043798 -0.008449 0.001162 0.016003 -0.029238
# 2 0.043798 0.162876 -0.026814 0.003991 0.040583 -0.092377
# 3 -0.008449 -0.026814 0.013443 -0.005616 -0.002815 0.016395
# 4 0.001162 0.003991 -0.005616 0.048641 -0.005747 0.004587
# 5 0.016003 0.040583 -0.002815 -0.005747 0.036776 -0.026321
# 6 -0.029238 -0.092377 0.016395 0.004587 -0.026321 0.091093
#
#
# Mechanical properties :
#
#
# Convention : Reuss Voigt Hill
#
# Bulk Modulus (GPa) = 4.64975 36.36644 20.50810
# Shear Modulus (GPa) = 11.65165 36.15313 23.90239
#
# Velocity S-wave (km/s) = 2.23996 3.94565 3.20824
# Velocity P-wave (km/s) = 2.94824 6.03470 4.74919
#
# Compressibility (1/GPa) = 0.21506520
#
# Stress axis : x y z
#
# Youngs Moduli (GPa) = 46.13359 6.13963 74.38819
#
# Poissons Ratio (x) = -0.26890 0.62852
# Poissons Ratio (y) = -2.02054 1.99462
# Poissons Ratio (z) = 0.38979 0.16463
#
# Static dielectric constant tensor:
#      x y z
#    x 1.938790 -0.032860 -0.004530 
#    y -0.032860 1.964500 -0.023280 
#    z -0.004530 -0.023280 1.853820 
# 
# From -- ./inp_files/105989.got.cif
#   From: 2010.05.17/outbox.ucp.g08.bks.cvg/sg2_53_cif.got.tgz:105989.got - 2010.06.11 11:32:03.
