data_PCOD9072731
_publ_section_title
;
Structure prediction by ZEFSAII (Michael W. Deem and Ramdas Pophale) SiO2 
 PCOD9072731
Probable space group: P -1
;
_chemical_formula_sum "Si O2"
_cell_formula_units_Z 14
_cell_length_a 9.000000
_cell_length_b 24.000000
_cell_length_c 30.000000
_cell_angle_alpha 170.000000
_cell_angle_beta 40.000000
_cell_angle_gamma 140.000000
_cell_volume 719.348201
_symmetry_space_group_name_H-M "P -1"
_symmetry_group_IT_number 2
_symmetry_cell_setting 'triclinic'
loop_
_space_group_symop_operation_xyz
x,y,z
-x,-y,-z
loop_
_atom_site_type_symbol
_atom_site_label
_atom_site_fract_x
_atom_site_fract_y
_atom_site_fract_z
Si Si1 0.101221 0.634806 0.407233
Si Si2 0.751386 0.197813 0.082655
Si Si3 0.170746 0.006547 0.776736
Si Si4 0.981461 0.767779 0.167125
Si Si5 0.550479 0.368686 0.835801
Si Si6 0.350832 0.304735 0.676338
Si Si7 0.678023 0.798366 0.506516
O O1 0.371201 0.554805 0.274409
O O2 0.900642 0.364038 0.221648
O O3 0.098144 0.767321 0.563177
O O4 0.051884 0.944980 0.633649
O O5 0.699592 0.474337 0.275865
O O6 0.950198 0.012044 0.864926
O O7 0.500000 0.000000 0.000000
O O8 0.415586 0.897104 0.652448
O O9 0.258110 0.373347 0.028178
O O10 0.703830 0.646958 0.142706
O O11 0.123439 0.936158 0.309312
O O12 0.153857 0.521863 0.911782
O O13 0.643250 0.023601 0.554041
O O14 0.500000 0.500000 0.000000
O O15 0.302020 0.238385 0.581585
#
# Coordination Sequence:
#
# PCOD9072731 Si02
#       7
#     2   2   2   2   2   2   2
#     4   9  20  41  61  87 124 153 197 253 303 354
#     4  11  25  43  65  90 114 155 208 255 308 356
#     4  11  22  43  61  85 130 159 195 251 297 349
#     4  10  20  36  58  88 126 162 200 238 287 357
#     4  11  21  39  58  92 130 164 196 238 291 357
#     4  10  20  39  63  88 126 166 194 239 295 357
#     4  10  22  39  63  92 117 159 206 244 296 361
#
# _framework density 19.462063000000001
#
# number of rings (size 3 to 8) (size 9 to 14) (size 15 to 20)
#    0.000    1.714    4.286    1.714    0.000    3.429 
#    0.000   15.714    0.000    0.000    0.000    0.000 
#    0.000    0.000    0.000    0.000    0.000    0.000 
#
# Total GULP energy -78146.095776 kJ/mol
# GULP energy per Si atom -5581.863984 kJ/mol
# Density = 1.941777 g / cm^3
# Si number density = 19.462063 Si / 1000 Ang^3
#
#
#
# Elastic Constant Matrix: (Units=GPa)
#
#
# Indices 1 2 3 4 5 6 
#
# 1 166.4569 40.7911 44.0869 -5.5895 12.9924 18.9123
# 2 40.7911 129.6077 41.2789 -11.0155 15.4198 22.2455
# 3 44.0869 41.2789 80.8728 -12.7648 3.1320 7.3182
# 4 -5.5895 -11.0155 -12.7648 32.8550 6.8742 -0.8860
# 5 12.9924 15.4198 3.1320 6.8742 46.4033 5.7714
# 6 18.9123 22.2455 7.3182 -0.8860 5.7714 34.1432
#
#
#
# Elastic Compliance Matrix: (Units=1/GPa)
#
#
# Indices 1 2 3 4 5 6 
#
# 1 0.007497 -0.000628 -0.003479 -0.000090 -0.001296 -0.002781
# 2 -0.000628 0.010650 -0.004157 0.002291 -0.002779 -0.005171
# 3 -0.003479 -0.004157 0.016993 0.004560 0.000403 0.001043
# 4 -0.000090 0.002291 0.004560 0.034213 -0.006049 -0.000510
# 5 -0.001296 -0.002779 0.000403 -0.006049 0.023924 -0.001759
# 6 -0.002781 -0.005171 0.001043 -0.000510 -0.001759 0.034259
#
#
# Mechanical properties :
#
#
# Convention : Reuss Voigt Hill
#
# Bulk Modulus (GPa) = 53.72426 69.91679 61.82053
# Shear Modulus (GPa) = 33.27429 39.39902 36.33666
#
# Velocity S-wave (km/s) = 4.13934 4.50422 4.32563
# Velocity P-wave (km/s) = 7.10704 7.94061 7.53536
#
# Compressibility (1/GPa) = 0.01861356
#
# Stress axis : x y z
#
# Youngs Moduli (GPa) = 133.38840 93.89851 58.84777
#
# Poissons Ratio (x) = 0.05893 0.20473
# Poissons Ratio (y) = 0.08371 0.24461
# Poissons Ratio (z) = 0.46405 0.39030
#
# Static dielectric constant tensor:
#      x y z
#    x 1.712370 -0.001840 0.017430 
#    y -0.001840 1.684590 0.001140 
#    z 0.017430 0.001140 1.744130 
# 
# From -- ./inp_files/622732.got.cif
#   From: 2010.05.17/outbox.ucp.g08.bks.cvg/sg2_312_cif.got.tgz:622732.got - 2010.06.11 11:32:03.
