data_PCOD9072357
_publ_section_title
;
Structure prediction by ZEFSAII (Michael W. Deem and Ramdas Pophale) SiO2 
 PCOD9072357
Probable space group: P -1
;
_chemical_formula_sum "Si O2"
_cell_formula_units_Z 16
_cell_length_a 9.429135
_cell_length_b 21.525485
_cell_length_c 16.932147
_cell_angle_alpha 159.545176
_cell_angle_beta 142.101320
_cell_angle_gamma 47.791455
_cell_volume 700.303451
_symmetry_space_group_name_H-M "P -1"
_symmetry_group_IT_number 2
_symmetry_cell_setting 'triclinic'
loop_
_space_group_symop_operation_xyz
x,y,z
-x,-y,-z
loop_
_atom_site_type_symbol
_atom_site_label
_atom_site_fract_x
_atom_site_fract_y
_atom_site_fract_z
Si Si1 0.406718 0.455191 0.776734
Si Si2 0.658932 0.808498 0.418277
Si Si3 0.829436 0.072990 0.452089
Si Si4 0.259079 0.410694 0.049405
Si Si5 0.872291 0.913857 0.112504
Si Si6 0.556233 0.114229 0.825580
Si Si7 0.510450 0.573264 0.501520
Si Si8 0.985577 0.384371 0.259310
O O1 0.352009 0.295108 0.626777
O O2 0.586846 0.439929 0.768053
O O3 0.159187 0.475558 0.657552
O O4 0.533283 0.650675 0.111734
O O5 0.527343 0.964808 0.563955
O O6 0.937282 0.911777 0.638538
O O7 0.823317 0.969216 0.243613
O O8 0.562148 0.006185 0.293406
O O9 0.000000 0.000000 0.500000
O O10 0.981929 0.291162 0.767815
O O11 0.286910 0.489468 0.244982
O O12 0.401662 0.256061 0.917595
O O13 0.617698 0.799353 0.822213
O O14 0.003996 0.751570 0.972029
O O15 0.837801 0.241834 0.091940
O O16 0.500000 0.500000 0.500000
O O17 0.271031 0.479521 0.510049
#
# Coordination Sequence:
#
# PCOD9072357 Si02
#       8
#     2   2   2   2   2   2   2   2
#     4  10  20  34  58  79 116 144 190 231 273 326
#     4  10  20  36  54  82 112 153 183 227 281 323
#     4  10  18  30  55  88 109 139 179 236 280 321
#     4  10  20  33  56  85 115 139 185 233 277 324
#     4   9  19  36  57  80 109 146 184 225 278 332
#     4   9  19  32  55  82 110 139 185 231 275 327
#     4  10  20  36  58  86 113 145 179 230 284 331
#     4   8  20  34  57  80 105 144 182 228 269 334
#
# _framework density 22.847238999999998
#
# number of rings (size 3 to 8) (size 9 to 14) (size 15 to 20)
#    0.750    1.750    1.250    1.500    3.500    3.500 
#    0.000    1.250    2.750    0.750    0.000    0.000 
#    0.000    0.000    0.000    0.000    0.000    0.000 
#
# Total GULP energy -89160.637506 kJ/mol
# GULP energy per Si atom -5572.539844 kJ/mol
# Density = 2.279524 g / cm^3
# Si number density = 22.847239 Si / 1000 Ang^3
#
#
#
# Elastic Constant Matrix: (Units=GPa)
#
#
# Indices 1 2 3 4 5 6 
#
# 1 154.0733 21.7519 50.6871 -7.7936 6.0562 26.9016
# 2 21.7519 25.5929 26.8229 -1.9662 -6.5189 6.5730
# 3 50.6871 26.8229 66.7870 -8.1481 -10.9890 1.8343
# 4 -7.7936 -1.9662 -8.1481 17.7853 8.9347 1.0894
# 5 6.0562 -6.5189 -10.9890 8.9347 43.8392 -3.9313
# 6 26.9016 6.5730 1.8343 1.0894 -3.9313 30.7931
#
#
#
# Elastic Compliance Matrix: (Units=1/GPa)
#
#
# Indices 1 2 3 4 5 6 
#
# 1 0.011843 0.002047 -0.009905 0.004425 -0.005710 -0.011078
# 2 0.002047 0.074154 -0.031155 -0.005609 0.002713 -0.015216
# 3 -0.009905 -0.031155 0.036221 0.004932 0.006042 0.013743
# 4 0.004425 -0.005609 0.004932 0.067598 -0.014634 -0.007222
# 5 -0.005710 0.002713 0.006042 -0.014634 0.029244 0.008300
# 6 -0.011078 -0.015216 0.013743 -0.007222 0.008300 0.045898
#
#
# Mechanical properties :
#
#
# Convention : Reuss Voigt Hill
#
# Bulk Modulus (GPa) = 22.62895 49.44187 36.03541
# Shear Modulus (GPa) = 13.97756 28.29627 21.13692
#
# Velocity S-wave (km/s) = 2.47611 3.52305 3.04491
# Velocity P-wave (km/s) = 4.25450 6.18355 5.30741
#
# Compressibility (1/GPa) = 0.04419119
#
# Stress axis : x y z
#
# Youngs Moduli (GPa) = 84.44049 13.48538 27.60800
#
# Poissons Ratio (x) = -0.02760 0.27346
# Poissons Ratio (y) = -0.17283 0.86013
# Poissons Ratio (z) = 0.83640 0.42014
#
# Static dielectric constant tensor:
#      x y z
#    x 1.876870 -0.003440 0.042030 
#    y -0.003440 1.918920 0.025410 
#    z 0.042030 0.025410 1.937850 
# 
# From -- ./inp_files/563215.got.cif
#   From: 2010.05.17/outbox.cif.g08.bks.cpg/sg2_282_cif.got.tgz:563215.got - 2010.06.03 11:33:40.
