data_PCOD9072385
_publ_section_title
;
Structure prediction by ZEFSAII (Michael W. Deem and Ramdas Pophale) SiO2 
 PCOD9072385
Probable space group: P -1
;
_chemical_formula_sum "Si O2"
_cell_formula_units_Z 14
_cell_length_a 15.000000
_cell_length_b 15.000000
_cell_length_c 27.000000
_cell_angle_alpha 20.000000
_cell_angle_beta 160.000000
_cell_angle_gamma 160.000000
_cell_volume 621.679612
_symmetry_space_group_name_H-M "P -1"
_symmetry_group_IT_number 2
_symmetry_cell_setting 'triclinic'
loop_
_space_group_symop_operation_xyz
x,y,z
-x,-y,-z
loop_
_atom_site_type_symbol
_atom_site_label
_atom_site_fract_x
_atom_site_fract_y
_atom_site_fract_z
Si Si1 0.570347 0.727520 0.181663
Si Si2 0.758298 0.082321 0.465961
Si Si3 0.489347 0.422606 0.112576
Si Si4 0.417057 0.431649 0.612257
Si Si5 0.770296 0.935348 0.661592
Si Si6 0.499599 0.088014 0.192980
Si Si7 0.075849 0.528125 0.217451
O O1 0.569139 0.651684 0.279376
O O2 0.332656 0.409622 0.200456
O O3 0.890758 0.838518 0.263877
O O4 0.500000 0.000000 0.000000
O O5 0.492177 0.773904 0.467967
O O6 0.806383 0.984734 0.595749
O O7 0.654576 0.330512 0.287151
O O8 0.071717 0.213694 0.531981
O O9 0.504983 0.238398 0.169259
O O10 0.639503 0.762745 0.995301
O O11 0.155332 0.361442 0.980348
O O12 0.686288 0.436695 0.718492
O O13 0.500000 0.000000 0.500000
O O14 0.833307 0.213593 0.279448
O O15 0.285936 0.740083 0.259969
#
# Coordination Sequence:
#
# PCOD9072385 Si02
#       7
#     2   2   2   2   2   2   2
#     4  10  21  39  59  82 112 153 181 224 281 333
#     4  10  22  37  56  80 113 146 173 222 285 318
#     4   9  21  35  59  76 107 144 187 220 271 318
#     4  10  22  38  54  80 117 139 176 228 274 323
#     4  10  21  39  58  85 116 143 184 234 272 328
#     4   9  20  34  58  76 109 136 189 230 262 306
#     4  10  19  36  55  78 105 144 180 228 262 317
#
# _framework density 22.519638
#
# number of rings (size 3 to 8) (size 9 to 14) (size 15 to 20)
#    0.857    1.429    0.000    2.143    2.000    1.143 
#    2.571    4.286    0.000    0.000    0.000    0.000 
#    0.000    0.000    0.000    0.000    0.000    0.000 
#
# Total GULP energy -77951.820983 kJ/mol
# GULP energy per Si atom -5567.987213 kJ/mol
# Density = 2.246838 g / cm^3
# Si number density = 22.519638 Si / 1000 Ang^3
#
#
#
# Elastic Constant Matrix: (Units=GPa)
#
#
# Indices 1 2 3 4 5 6 
#
# 1 39.5195 3.6944 17.9577 3.0879 29.0953 20.8070
# 2 3.6944 71.7470 35.2135 -0.3163 -2.2827 19.3989
# 3 17.9577 35.2135 56.9440 -8.8347 1.5980 28.3586
# 4 3.0879 -0.3163 -8.8347 22.8782 12.2083 8.6932
# 5 29.0953 -2.2827 1.5980 12.2083 33.2328 10.6628
# 6 20.8070 19.3989 28.3586 8.6932 10.6628 26.6149
#
#
#
# Elastic Compliance Matrix: (Units=1/GPa)
#
#
# Indices 1 2 3 4 5 6 
#
# 1 -1.287950 -0.047546 -0.703139 -1.359031 1.079117 1.802321
# 2 -0.047546 0.019470 -0.042535 -0.060185 0.044634 0.070078
# 3 -0.703139 -0.042535 -0.273287 -0.649129 0.592689 0.846467
# 4 -1.359031 -0.060185 -0.649129 -1.297881 1.125464 1.771013
# 5 1.079117 0.044634 0.592689 1.125464 -0.862770 -1.529638
# 6 1.802321 0.070078 0.846467 1.771013 -1.529638 -2.290087
#
#
# Mechanical properties :
#
#
# Convention : Reuss Voigt Hill
#
# Bulk Modulus (GPa) = -0.31967 31.32687 15.50360
# Shear Modulus (GPa) = -0.91763 23.96817 11.52527
#
# Velocity S-wave (km/s) = -0.63904 3.26594 2.26473
# Velocity P-wave (km/s) = 0.82870 5.30687 3.70649
#
# Compressibility (1/GPa) = -3.12820791
#
# Stress axis : x y z
#
# Youngs Moduli (GPa) = -0.77643 51.36190 -3.65916
#
# Poissons Ratio (x) = 2.44206 -2.57290
# Poissons Ratio (y) = -0.03692 -0.15564
# Poissons Ratio (z) = -0.54594 2.18470
#
# Static dielectric constant tensor:
#      x y z
#    x 1.840490 -0.035290 -0.018360 
#    y -0.035290 1.876760 0.009110 
#    z -0.018360 0.009110 1.900870 
# 
# From -- ./inp_files/43103.got.cif
#   From: 2010.05.17/outbox.ucp.g08.bks.cvg/sg2_22_cif.got.tgz:43103.got - 2010.06.11 11:32:03.
