data_PCOD9072103
_publ_section_title
;
Structure prediction by ZEFSAII (Michael W. Deem and Ramdas Pophale) SiO2 
 PCOD9072103
Probable space group: P -1
;
_chemical_formula_sum "Si O2"
_cell_formula_units_Z 16
_cell_length_a 21.000000
_cell_length_b 12.000000
_cell_length_c 9.000000
_cell_angle_alpha 100.000000
_cell_angle_beta 80.000000
_cell_angle_gamma 30.000000
_cell_volume 840.889555
_symmetry_space_group_name_H-M "P -1"
_symmetry_group_IT_number 2
_symmetry_cell_setting 'triclinic'
loop_
_space_group_symop_operation_xyz
x,y,z
-x,-y,-z
loop_
_atom_site_type_symbol
_atom_site_label
_atom_site_fract_x
_atom_site_fract_y
_atom_site_fract_z
Si Si1 0.700004 0.661681 0.648224
Si Si2 0.837566 0.354303 0.837043
Si Si3 0.461007 0.277401 0.450133
Si Si4 0.379877 0.630870 0.971524
Si Si5 0.042196 0.080498 0.217333
Si Si6 0.478701 0.210980 0.765195
Si Si7 0.130582 0.970996 0.809337
Si Si8 0.643292 0.201483 0.283188
O O1 0.762958 0.517169 0.749737
O O2 0.577167 0.763179 0.655160
O O3 0.856017 0.415683 0.413964
O O4 0.615937 0.921345 0.738703
O O5 0.920815 0.095013 0.749290
O O6 0.692197 0.576497 0.070327
O O7 0.984069 0.194684 0.802817
O O8 0.509552 0.152695 0.563879
O O9 0.288289 0.632322 0.626021
O O10 0.603798 0.134179 0.303649
O O11 0.447623 0.394416 0.853972
O O12 0.376037 0.718988 0.853904
O O13 0.500000 0.500000 0.000000
O O14 0.189843 0.924663 0.175056
O O15 0.072624 0.027463 0.013347
O O16 0.184797 0.014556 0.790273
O O17 0.500000 0.500000 0.500000
#
# Coordination Sequence:
#
# PCOD9072103 Si02
#       8
#     2   2   2   2   2   2   2   2
#     4  12  25  35  59  93 122 152 195 245 298 349
#     4  11  21  37  59  85 119 155 198 248 288 337
#     4  11  20  37  62  89 119 154 197 245 285 355
#     4  10  21  38  66  84 115 155 196 248 288 347
#     4  10  20  37  59  88 113 154 205 236 290 345
#     4  11  23  42  56  87 123 158 190 238 310 350
#     4  10  18  36  62  84 116 151 202 246 283 340
#     4   9  18  34  59  92 107 147 203 242 280 334
#
# _framework density 19.027469
#
# number of rings (size 3 to 8) (size 9 to 14) (size 15 to 20)
#    0.000    1.500    6.250    2.250    3.500    1.000 
#    0.000    0.625    0.000    2.250    0.000    0.000 
#    0.000    0.000    0.000    0.000    0.000    0.000 
#
# Total GULP energy -89134.009287 kJ/mol
# GULP energy per Si atom -5570.875580 kJ/mol
# Density = 1.898416 g / cm^3
# Si number density = 19.027469 Si / 1000 Ang^3
#
#
#
# Elastic Constant Matrix: (Units=GPa)
#
#
# Indices 1 2 3 4 5 6 
#
# 1 76.1876 46.3515 31.6195 -38.3211 -16.3433 -20.5875
# 2 46.3515 71.0320 14.3806 -13.9375 -8.8308 -4.4944
# 3 31.6195 14.3806 26.1704 -8.6639 -24.7835 5.7585
# 4 -38.3211 -13.9375 -8.6639 17.9444 7.5307 6.7724
# 5 -16.3433 -8.8308 -24.7835 7.5307 13.4667 -0.1884
# 6 -20.5875 -4.4944 5.7585 6.7724 -0.1884 29.3834
#
#
#
# Elastic Compliance Matrix: (Units=1/GPa)
#
#
# Indices 1 2 3 4 5 6 
#
# 1 -0.240587 0.070527 -0.141854 -0.390387 -0.289069 -0.041855
# 2 0.070527 -0.003855 0.042781 0.125038 0.092045 0.012212
# 3 -0.141854 0.042781 -0.129616 -0.214498 -0.262967 -0.019692
# 4 -0.390387 0.125038 -0.214498 -0.549130 -0.480699 -0.088879
# 5 -0.289069 0.092045 -0.262967 -0.480699 -0.431745 -0.028897
# 6 -0.041855 0.012212 -0.019692 -0.088879 -0.028897 0.030734
#
#
# Mechanical properties :
#
#
# Convention : Reuss Voigt Hill
#
# Bulk Modulus (GPa) = -2.31938 39.78814 18.73438
# Shear Modulus (GPa) = -3.54403 17.56146 7.00871
#
# Velocity S-wave (km/s) = -1.36625 3.04131 1.92132
# Velocity P-wave (km/s) = 1.92625 5.76967 3.84569
#
# Compressibility (1/GPa) = -0.43114990
#
# Stress axis : x y z
#
# Youngs Moduli (GPa) = -4.15650 -259.42503 -7.71510
#
# Poissons Ratio (x) = 18.29641 -1.09442
# Poissons Ratio (y) = 0.29314 0.33006
# Poissons Ratio (z) = -0.58962 11.09841
#
# Static dielectric constant tensor:
#      x y z
#    x 1.676180 -0.018820 -0.008920 
#    y -0.018820 1.639800 0.045960 
#    z -0.008920 0.045960 1.667760 
# 
# From -- ./inp_files/181672.got.cif
#   From: 2010.05.17/outbox.ucp.g08.bks.cvg/sg2_91_cif.got.tgz:181672.got - 2010.06.11 11:32:03.
