data_PCOD9072419
_publ_section_title
;
Structure prediction by ZEFSAII (Michael W. Deem and Ramdas Pophale) SiO2 
 PCOD9072419
Probable space group: P -1
;
_chemical_formula_sum "Si O2"
_cell_formula_units_Z 16
_cell_length_a 12.000000
_cell_length_b 9.000000
_cell_length_c 9.000000
_cell_angle_alpha 110.000000
_cell_angle_beta 70.000000
_cell_angle_gamma 70.000000
_cell_volume 733.231569
_symmetry_space_group_name_H-M "P -1"
_symmetry_group_IT_number 2
_symmetry_cell_setting 'triclinic'
loop_
_space_group_symop_operation_xyz
x,y,z
-x,-y,-z
loop_
_atom_site_type_symbol
_atom_site_label
_atom_site_fract_x
_atom_site_fract_y
_atom_site_fract_z
Si Si1 0.252376 0.360540 0.902534
Si Si2 0.020743 0.703729 0.268071
Si Si3 0.097449 0.694418 0.557616
Si Si4 0.626815 0.415580 0.182740
Si Si5 0.915305 0.054173 0.900977
Si Si6 0.230670 0.313166 0.545655
Si Si7 0.540344 0.053591 0.344172
Si Si8 0.361268 0.662232 0.519023
O O1 0.337644 0.466692 0.904793
O O2 0.232776 0.363788 0.734873
O O3 0.342046 0.147233 0.841421
O O4 0.103753 0.495191 0.090994
O O5 0.098743 0.685586 0.378381
O O6 0.033085 0.835387 0.188163
O O7 0.865961 0.773618 0.419443
O O8 0.150626 0.496057 0.542244
O O9 0.204990 0.757422 0.572265
O O10 0.952716 0.860482 0.743990
O O11 0.460002 0.515146 0.297551
O O12 0.635642 0.443493 0.367077
O O13 0.748696 0.201436 0.038073
O O14 0.000000 0.000000 0.000000
O O15 0.389978 0.174193 0.374666
O O16 0.599033 0.186361 0.402717
O O17 0.500000 0.000000 0.500000
#
# Coordination Sequence:
#
# PCOD9072419 Si02
#       8
#     2   2   2   2   2   2   2   2
#     4  10  20  41  61  94 120 155 218 257 300 364
#     4  11  26  41  62  94 129 168 200 257 320 366
#     4  12  24  42  62  92 133 165 203 253 319 377
#     4  10  19  36  61  92 118 151 212 254 297 361
#     4  11  23  41  63  93 125 160 215 255 300 373
#     4  11  21  42  65  90 123 168 212 258 301 368
#     4  10  21  35  64  95 115 152 218 262 295 356
#     4  11  19  37  63  91 123 156 203 260 313 353
#
# _framework density 21.821210000000001
#
# number of rings (size 3 to 8) (size 9 to 14) (size 15 to 20)
#    0.000    1.250    5.000    2.625    3.500    1.000 
#    0.000    4.375    0.000    0.000    0.000    0.000 
#    0.000    0.000    0.000    0.000    0.000    0.000 
#
# Total GULP energy -89162.943409 kJ/mol
# GULP energy per Si atom -5572.683963 kJ/mol
# Density = 2.177154 g / cm^3
# Si number density = 21.821210 Si / 1000 Ang^3
#
#
#
# Elastic Constant Matrix: (Units=GPa)
#
#
# Indices 1 2 3 4 5 6 
#
# 1 34.9894 17.5555 6.2971 -17.4013 -14.1916 5.3835
# 2 17.5555 139.3842 40.1842 8.5697 -1.1833 -9.8137
# 3 6.2971 40.1842 62.2404 2.1048 -2.6758 -20.2729
# 4 -17.4013 8.5697 2.1048 28.7219 -3.9602 -13.4839
# 5 -14.1916 -1.1833 -2.6758 -3.9602 24.0645 0.0554
# 6 5.3835 -9.8137 -20.2729 -13.4839 0.0554 22.5049
#
#
#
# Elastic Compliance Matrix: (Units=1/GPa)
#
#
# Indices 1 2 3 4 5 6 
#
# 1 0.128526 -0.024566 0.017673 0.118306 0.095919 0.045110
# 2 -0.024566 0.014037 -0.011330 -0.027943 -0.019621 -0.014902
# 3 0.017673 -0.011330 0.035369 0.034504 0.019377 0.043319
# 4 0.118306 -0.027943 0.034504 0.169105 0.099849 0.091671
# 5 0.095919 -0.019621 0.019377 0.099849 0.115638 0.045494
# 6 0.045110 -0.014902 0.043319 0.091671 0.045494 0.120981
#
#
# Mechanical properties :
#
#
# Convention : Reuss Voigt Hill
#
# Bulk Modulus (GPa) = 7.06780 40.52083 23.79431
# Shear Modulus (GPa) = 7.49328 26.56342 17.02835
#
# Velocity S-wave (km/s) = 1.85510 3.49280 2.79652
# Velocity P-wave (km/s) = 2.79902 5.90559 4.62117
#
# Compressibility (1/GPa) = 0.14148684
#
# Stress axis : x y z
#
# Youngs Moduli (GPa) = 7.78051 71.23965 28.27301
#
# Poissons Ratio (x) = 1.75010 -0.49968
# Poissons Ratio (y) = 0.19114 0.32033
# Poissons Ratio (z) = -0.13751 0.80713
#
# Static dielectric constant tensor:
#      x y z
#    x 1.980600 -0.022480 -0.037670 
#    y -0.022480 1.820290 0.049610 
#    z -0.037670 0.049610 1.827020 
# 
# From -- ./inp_files/244981.got.cif
#   From: 2010.05.17/outbox.ucp.g08.bks.cvg/sg2_123_cif.got.tgz:244981.got - 2010.06.11 11:32:03.
