data_PCOD9072190
_publ_section_title
;
Structure prediction by ZEFSAII (Michael W. Deem and Ramdas Pophale) SiO2 
 PCOD9072190
Probable space group: P -1
;
_chemical_formula_sum "Si O2"
_cell_formula_units_Z 14
_cell_length_a 17.041693
_cell_length_b 6.386818
_cell_length_c 7.072739
_cell_angle_alpha 62.490502
_cell_angle_beta 120.461552
_cell_angle_gamma 119.044728
_cell_volume 555.818149
_symmetry_space_group_name_H-M "P -1"
_symmetry_group_IT_number 2
_symmetry_cell_setting 'triclinic'
loop_
_space_group_symop_operation_xyz
x,y,z
-x,-y,-z
loop_
_atom_site_type_symbol
_atom_site_label
_atom_site_fract_x
_atom_site_fract_y
_atom_site_fract_z
Si Si1 0.864248 0.548749 0.685253
Si Si2 0.705737 0.949738 0.514154
Si Si3 0.947603 0.566056 0.179050
Si Si4 0.396593 0.790655 0.996166
Si Si5 0.906451 0.085336 0.572406
Si Si6 0.346134 0.631505 0.429799
Si Si7 0.544429 0.656434 0.682307
O O1 0.952091 0.464772 0.756940
O O2 0.754089 0.377666 0.589026
O O3 0.886840 0.835824 0.530000
O O4 0.879896 0.569634 0.922286
O O5 0.819667 0.021861 0.642991
O O6 0.679000 0.669175 0.508749
O O7 0.632855 0.894938 0.626235
O O8 0.676154 0.122793 0.255267
O O9 0.987789 0.818955 0.244128
O O10 0.900908 0.322011 0.348991
O O11 0.362880 0.759630 0.188085
O O12 0.411673 0.526582 0.075993
O O13 0.500000 0.000000 0.000000
O O14 0.451255 0.710604 0.625806
O O15 0.500000 0.500000 0.500000
#
# Coordination Sequence:
#
# PCOD9072190 Si02
#       7
#     2   2   2   2   2   2   2
#     4  10  20  35  54  74 105 132 168 211 255 296
#     4   9  15  25  41  67  96 124 157 198 241 290
#     4  10  21  36  52  77 100 132 174 212 249 306
#     4  10  12  21  40  64  98 123 155 203 232 281
#     4  10  20  34  55  75 102 134 169 208 258 294
#     4   9  16  24  40  69  95 124 158 196 243 292
#     4   8  14  22  36  65  96 120 156 191 238 289
#
# _framework density 25.188092000000001
#
# number of rings (size 3 to 8) (size 9 to 14) (size 15 to 20)
#    0.000    2.857    4.286    1.714    0.000    0.000 
#    0.000    0.000    0.000    0.857    0.000    1.000 
#    0.000    0.286    0.000    0.000    0.000    0.000 
#
# Total GULP energy -78189.926589 kJ/mol
# GULP energy per Si atom -5584.994756 kJ/mol
# Density = 2.513076 g / cm^3
# Si number density = 25.188092 Si / 1000 Ang^3
#
#
#
# Elastic Constant Matrix: (Units=GPa)
#
#
# Indices 1 2 3 4 5 6 
#
# 1 113.3661 18.1927 19.8592 -3.1378 6.6806 14.4202
# 2 18.1927 109.1502 24.6849 -15.0165 -7.5493 35.4372
# 3 19.8592 24.6849 130.8128 -16.5890 -3.3174 3.9474
# 4 -3.1378 -15.0165 -16.5890 31.4062 -2.3785 -5.0142
# 5 6.6806 -7.5493 -3.3174 -2.3785 27.9953 -2.1552
# 6 14.4202 35.4372 3.9474 -5.0142 -2.1552 35.4719
#
#
#
# Elastic Compliance Matrix: (Units=1/GPa)
#
#
# Indices 1 2 3 4 5 6 
#
# 1 0.009767 -0.000415 -0.001472 -0.000814 -0.002970 -0.003687
# 2 -0.000415 0.014870 -0.001713 0.004219 0.003209 -0.013705
# 3 -0.001472 -0.001713 0.008680 0.004045 0.001416 0.002002
# 4 -0.000814 0.004219 0.004045 0.036471 0.004996 0.001125
# 5 -0.002970 0.003209 0.001416 0.004996 0.037953 0.000856
# 6 -0.003687 -0.013705 0.002002 0.001125 0.000856 0.043370
#
#
# Mechanical properties :
#
#
# Convention : Reuss Voigt Hill
#
# Bulk Modulus (GPa) = 38.28967 53.20030 45.74498
# Shear Modulus (GPa) = 29.93717 38.34752 34.14235
#
# Velocity S-wave (km/s) = 3.45127 3.90609 3.68570
# Velocity P-wave (km/s) = 5.57819 6.44286 6.02605
#
# Compressibility (1/GPa) = 0.02611671
#
# Stress axis : x y z
#
# Youngs Moduli (GPa) = 102.38611 67.24874 115.21150
#
# Poissons Ratio (x) = 0.02793 0.16955
# Poissons Ratio (y) = 0.04253 0.19737
# Poissons Ratio (z) = 0.15067 0.11520
#
# Static dielectric constant tensor:
#      x y z
#    x 2.148730 -0.116170 0.021710 
#    y -0.116170 2.058260 -0.040500 
#    z 0.021710 -0.040500 1.964320 
# 
# From -- ./inp_files/220208.got.cif
#   From: 2010.05.17/outbox.cif.g08.bks.cpg/sg2_111_cif.got.tgz:220208.got - 2010.06.03 11:33:40.
