data_PCOD9072342
_publ_section_title
;
Structure prediction by ZEFSAII (Michael W. Deem and Ramdas Pophale) SiO2 
 PCOD9072342
Probable space group: P -1
;
_chemical_formula_sum "Si O2"
_cell_formula_units_Z 12
_cell_length_a 12.722411
_cell_length_b 5.673907
_cell_length_c 8.929496
_cell_angle_alpha 107.923835
_cell_angle_beta 127.965761
_cell_angle_gamma 95.796565
_cell_volume 445.828548
_symmetry_space_group_name_H-M "P -1"
_symmetry_group_IT_number 2
_symmetry_cell_setting 'triclinic'
loop_
_space_group_symop_operation_xyz
x,y,z
-x,-y,-z
loop_
_atom_site_type_symbol
_atom_site_label
_atom_site_fract_x
_atom_site_fract_y
_atom_site_fract_z
Si Si1 0.198132 0.646645 0.557935
Si Si2 0.565929 0.287663 0.822392
Si Si3 0.476696 0.225065 0.169204
Si Si4 0.942631 0.095487 0.321262
Si Si5 0.054016 0.789208 0.175125
Si Si6 0.324912 0.060718 0.311334
O O1 0.349791 0.626385 0.658779
O O2 0.189908 0.830204 0.728509
O O3 0.152277 0.771139 0.397934
O O4 0.069777 0.363200 0.424873
O O5 0.588189 0.588656 0.942407
O O6 0.686130 0.232893 0.817087
O O7 0.538963 0.087463 0.901030
O O8 0.428101 0.159368 0.565289
O O9 0.408413 0.236502 0.277278
O O10 0.000000 0.000000 0.500000
O O11 0.927329 0.870367 0.143337
O O12 0.164346 0.016037 0.209348
O O13 0.000000 0.500000 0.000000
#
# Coordination Sequence:
#
# PCOD9072342 Si02
#       6
#     2   2   2   2   2   2
#     4  10  19  36  58  84 110 149 193 239 287 337
#     4   9  17  28  49  80 109 137 179 235 292 326
#     4  10  18  30  55  83 109 142 182 246 291 332
#     4   9  21  36  55  79 112 150 195 237 279 339
#     4  11  21  36  55  83 120 154 185 229 285 352
#     4   9  18  29  47  81 113 144 183 228 288 340
#
# _framework density 26.916177000000001
#
# number of rings (size 3 to 8) (size 9 to 14) (size 15 to 20)
#    1.000    1.333    1.667    1.500    2.333    2.000 
#    0.000    0.000    0.000    1.000    0.000   11.667 
#    0.000    0.000    0.000    0.000    0.000    0.000 
#
# Total GULP energy -67058.719263 kJ/mol
# GULP energy per Si atom -5588.226605 kJ/mol
# Density = 2.685491 g / cm^3
# Si number density = 26.916177 Si / 1000 Ang^3
#
#
#
# Elastic Constant Matrix: (Units=GPa)
#
#
# Indices 1 2 3 4 5 6 
#
# 1 177.8730 33.1739 36.8235 10.7768 -10.0276 -4.4277
# 2 33.1739 146.8379 26.5403 17.9652 -11.3007 12.3781
# 3 36.8235 26.5403 71.4768 18.9394 -20.4877 -3.1330
# 4 10.7768 17.9652 18.9394 54.7225 -10.8270 -13.3421
# 5 -10.0276 -11.3007 -20.4877 -10.8270 34.1520 15.7096
# 6 -4.4277 12.3781 -3.1330 -13.3421 15.7096 47.5091
#
#
#
# Elastic Compliance Matrix: (Units=1/GPa)
#
#
# Indices 1 2 3 4 5 6 
#
# 1 0.006441 -0.001055 -0.003161 0.000268 -0.000720 0.000980
# 2 -0.001055 0.008096 -0.001232 -0.002441 0.002623 -0.003842
# 3 -0.003161 -0.001232 0.020324 -0.004704 0.011020 -0.003598
# 4 0.000268 -0.002441 -0.004704 0.022332 0.000569 0.006434
# 5 -0.000720 0.002623 0.011020 0.000569 0.043244 -0.014163
# 6 0.000980 -0.003842 -0.003598 0.006434 -0.014163 0.028394
#
#
# Mechanical properties :
#
#
# Convention : Reuss Voigt Hill
#
# Bulk Modulus (GPa) = 41.72832 65.47366 53.60099
# Shear Modulus (GPa) = 33.84912 47.25338 40.55125
#
# Velocity S-wave (km/s) = 3.55008 4.19450 3.88567
# Velocity P-wave (km/s) = 5.68690 6.91638 6.33155
#
# Compressibility (1/GPa) = 0.02396454
#
# Stress axis : x y z
#
# Youngs Moduli (GPa) = 155.26460 123.52337 49.20251
#
# Poissons Ratio (x) = 0.13027 0.15553
# Poissons Ratio (y) = 0.16374 0.06064
# Poissons Ratio (z) = 0.49079 0.15223
#
# Static dielectric constant tensor:
#      x y z
#    x 2.083210 0.014920 -0.048670 
#    y 0.014920 2.106510 0.044770 
#    z -0.048670 0.044770 2.124430 
# 
# From -- ./inp_files/408103.got.cif
#   From: 2010.05.17/outbox.cif.g08.bks.cpg/sg2_205_cif.got.tgz:408103.got - 2010.06.03 11:33:40.
