data_PCOD9072296
_publ_section_title
;
Structure prediction by ZEFSAII (Michael W. Deem and Ramdas Pophale) SiO2 
 PCOD9072296
Probable space group: P -1
;
_chemical_formula_sum "Si O2"
_cell_formula_units_Z 16
_cell_length_a 15.000000
_cell_length_b 15.000000
_cell_length_c 15.000000
_cell_angle_alpha 140.000000
_cell_angle_beta 30.000000
_cell_angle_gamma 150.000000
_cell_volume 842.010594
_symmetry_space_group_name_H-M "P -1"
_symmetry_group_IT_number 2
_symmetry_cell_setting 'triclinic'
loop_
_space_group_symop_operation_xyz
x,y,z
-x,-y,-z
loop_
_atom_site_type_symbol
_atom_site_label
_atom_site_fract_x
_atom_site_fract_y
_atom_site_fract_z
Si Si1 0.152017 0.324706 0.464179
Si Si2 0.046907 0.267003 0.308279
Si Si3 0.345105 0.975861 0.245592
Si Si4 0.575168 0.277542 0.428621
Si Si5 0.626347 0.207494 0.533914
Si Si6 0.692124 0.912511 0.836527
Si Si7 0.910376 0.890779 0.209245
Si Si8 0.789023 0.794240 0.051281
O O1 0.250892 0.508096 0.570064
O O2 0.296383 0.251452 0.297121
O O3 0.152702 0.363543 0.386550
O O4 0.893259 0.165505 0.601999
O O5 0.863099 0.288887 0.445296
O O6 0.942989 0.065590 0.276899
O O7 0.209461 0.308607 0.114179
O O8 0.516837 0.147572 0.295277
O O9 0.287866 0.025305 0.237483
O O10 0.471426 0.891930 0.047309
O O11 0.645024 0.239133 0.434140
O O12 0.329440 0.226973 0.622655
O O13 0.451843 0.240489 0.750238
O O14 0.500000 0.000000 0.500000
O O15 0.891832 0.044465 0.839537
O O16 0.873317 0.782973 0.067877
O O17 0.000000 0.000000 0.000000
#
# Coordination Sequence:
#
# PCOD9072296 Si02
#       8
#     2   2   2   2   2   2   2   2
#     4  11  24  43  61  96 134 160 206 267 311 377
#     4  10  19  34  57  82 121 166 204 245 302 356
#     4  11  23  46  67  95 118 167 212 259 322 378
#     4  11  23  39  65  95 129 166 211 256 321 368
#     4  11  18  33  56  85 120 166 207 251 292 363
#     4  10  23  43  71  89 125 163 210 262 320 382
#     4   9  18  37  58  92 121 163 206 252 306 374
#     4   9  17  28  52  86 111 158 208 240 296 356
#
# _framework density 19.002136
#
# number of rings (size 3 to 8) (size 9 to 14) (size 15 to 20)
#    0.000    1.750    6.250    0.375    1.750    5.000 
#    2.250    3.750    0.000    0.000    0.000    0.000 
#    0.000    0.000    0.000    0.000    0.000    0.000 
#
# Total GULP energy -89081.259009 kJ/mol
# GULP energy per Si atom -5567.578688 kJ/mol
# Density = 1.895889 g / cm^3
# Si number density = 19.002136 Si / 1000 Ang^3
#
#
#
# Elastic Constant Matrix: (Units=GPa)
#
#
# Indices 1 2 3 4 5 6 
#
# 1 167.8226 23.4024 50.4278 3.1673 -4.1902 0.0858
# 2 23.4024 81.7286 26.9507 14.5923 3.1081 6.5154
# 3 50.4278 26.9507 118.7702 2.2103 5.1293 2.7717
# 4 3.1673 14.5923 2.2103 18.8867 3.0229 3.3869
# 5 -4.1902 3.1081 5.1293 3.0229 47.1427 4.1817
# 6 0.0858 6.5154 2.7717 3.3869 4.1817 19.8928
#
#
#
# Elastic Compliance Matrix: (Units=1/GPa)
#
#
# Indices 1 2 3 4 5 6 
#
# 1 0.006972 -0.001128 -0.002754 -0.000229 0.000959 0.000561
# 2 -0.001128 0.015695 -0.002814 -0.011114 0.000139 -0.002881
# 3 -0.002754 -0.002814 0.010261 0.001729 -0.001240 -0.000530
# 4 -0.000229 -0.011114 0.001729 0.063043 -0.002922 -0.006719
# 5 0.000959 0.000139 -0.001240 -0.002922 0.021965 -0.003997
# 6 0.000561 -0.002881 -0.000530 -0.006719 -0.003997 0.053268
#
#
# Mechanical properties :
#
#
# Convention : Reuss Voigt Hill
#
# Bulk Modulus (GPa) = 51.19145 63.32035 57.25590
# Shear Modulus (GPa) = 26.16297 35.02049 30.59173
#
# Velocity S-wave (km/s) = 3.71461 4.29765 4.01672
# Velocity P-wave (km/s) = 6.73766 7.61718 7.19088
#
# Compressibility (1/GPa) = 0.01953451
#
# Stress axis : x y z
#
# Youngs Moduli (GPa) = 143.43960 63.71280 97.45291
#
# Poissons Ratio (x) = 0.07189 0.26841
# Poissons Ratio (y) = 0.16184 0.27427
# Poissons Ratio (z) = 0.39506 0.17931
#
# Static dielectric constant tensor:
#      x y z
#    x 1.684610 0.035470 0.015600 
#    y 0.035470 1.719920 0.018230 
#    z 0.015600 0.018230 1.683610 
# 
# From -- ./inp_files/534407.got.cif
#   From: 2010.05.17/outbox.ucp.g08.bks.cvg/sg2_268_cif.got.tgz:534407.got - 2010.06.11 11:32:03.
