data_PCOD9072331
_publ_section_title
;
Structure prediction by ZEFSAII (Michael W. Deem and Ramdas Pophale) SiO2 
 PCOD9072331
Probable space group: P -1
;
_chemical_formula_sum "Si O2"
_cell_formula_units_Z 14
_cell_length_a 12.149314
_cell_length_b 8.452310
_cell_length_c 12.047094
_cell_angle_alpha 88.736758
_cell_angle_beta 55.411799
_cell_angle_gamma 45.763230
_cell_volume 564.265652
_symmetry_space_group_name_H-M "P -1"
_symmetry_group_IT_number 2
_symmetry_cell_setting 'triclinic'
loop_
_space_group_symop_operation_xyz
x,y,z
-x,-y,-z
loop_
_atom_site_type_symbol
_atom_site_label
_atom_site_fract_x
_atom_site_fract_y
_atom_site_fract_z
Si Si1 0.348454 0.243057 0.316284
Si Si2 0.764804 0.812864 0.819096
Si Si3 0.355132 0.537966 0.410364
Si Si4 0.569595 0.336785 0.851862
Si Si5 0.210374 0.754504 0.726386
Si Si6 0.688092 0.611828 0.168830
Si Si7 0.857377 0.862592 0.978630
O O1 0.171479 0.364658 0.316824
O O2 0.254873 0.458191 0.456764
O O3 0.497432 0.941347 0.272747
O O4 0.572332 0.130548 0.145701
O O5 0.914308 0.685649 0.847324
O O6 0.733062 0.025504 0.795887
O O7 0.500000 0.000000 0.000000
O O8 0.324197 0.663451 0.310692
O O9 0.228431 0.746794 0.584624
O O10 0.637985 0.262687 0.294972
O O11 0.353554 0.454193 0.913885
O O12 0.500000 0.500000 0.000000
O O13 0.348028 0.460950 0.699801
O O14 0.943592 0.958150 0.906922
O O15 0.972943 0.361469 0.015962
#
# Coordination Sequence:
#
# PCOD9072331 Si02
#       7
#     2   2   2   2   2   2   2
#     4  10  18  30  55  79 101 135 172 212 253 305
#     4   9  18  32  51  73 103 135 164 208 259 302
#     4  10  19  35  52  76 104 138 172 203 259 309
#     4  10  18  32  51  78 103 136 168 209 256 309
#     4   8  19  35  53  70 108 138 166 213 254 298
#     4   8  18  33  53  76 103 135 171 213 254 293
#     4   9  17  34  53  76 106 131 171 216 254 291
#
# _framework density 24.811007
#
# number of rings (size 3 to 8) (size 9 to 14) (size 15 to 20)
#    0.857    2.000    0.000    2.143    0.000    1.143 
#    2.571    1.429    0.000    0.000    0.000    0.000 
#    0.000    0.000    0.000    0.000    0.000    0.000 
#
# Total GULP energy -77962.087032 kJ/mol
# GULP energy per Si atom -5568.720502 kJ/mol
# Density = 2.475454 g / cm^3
# Si number density = 24.811007 Si / 1000 Ang^3
#
#
#
# Elastic Constant Matrix: (Units=GPa)
#
#
# Indices 1 2 3 4 5 6 
#
# 1 150.8947 27.1914 20.5157 11.1549 37.1677 -2.9194
# 2 27.1914 103.5673 22.7306 -9.9899 19.6445 10.4183
# 3 20.5157 22.7306 96.7221 -13.7872 18.7466 3.5975
# 4 11.1549 -9.9899 -13.7872 25.5731 -1.4729 8.1091
# 5 37.1677 19.6445 18.7466 -1.4729 42.2693 -1.0098
# 6 -2.9194 10.4183 3.5975 8.1091 -1.0098 37.5494
#
#
#
# Elastic Compliance Matrix: (Units=1/GPa)
#
#
# Indices 1 2 3 4 5 6 
#
# 1 0.009400 -0.001759 -0.001264 -0.006699 -0.007059 0.002597
# 2 -0.001759 0.012077 -0.000646 0.006487 -0.003671 -0.004925
# 3 -0.001264 -0.000646 0.012779 0.007893 -0.004052 -0.002957
# 4 -0.006699 0.006487 0.007893 0.053498 0.000890 -0.014606
# 5 -0.007059 -0.003671 -0.004052 0.000890 0.033436 0.001565
# 6 0.002597 -0.004925 -0.002957 -0.014606 0.001565 0.031680
#
#
# Mechanical properties :
#
#
# Convention : Reuss Voigt Hill
#
# Bulk Modulus (GPa) = 37.14837 54.67329 45.91083
# Shear Modulus (GPa) = 29.55441 39.79479 34.67460
#
# Velocity S-wave (km/s) = 3.45509 4.00924 3.74244
# Velocity P-wave (km/s) = 5.56075 6.59664 6.10072
#
# Compressibility (1/GPa) = 0.02691908
#
# Stress axis : x y z
#
# Youngs Moduli (GPa) = 106.38159 82.80461 78.25294
#
# Poissons Ratio (x) = 0.14566 0.09889
# Poissons Ratio (y) = 0.18713 0.05052
# Poissons Ratio (z) = 0.13444 0.05346
#
# Static dielectric constant tensor:
#      x y z
#    x 2.079060 0.002080 -0.038840 
#    y 0.002080 1.975710 0.008510 
#    z -0.038840 0.008510 2.171080 
# 
# From -- ./inp_files/417813.got.cif
#   From: 2010.05.17/outbox.cif.g08.bks.cpg/sg2_209_cif.got.tgz:417813.got - 2010.06.03 11:33:40.
