data_PCOD9072495
_publ_section_title
;
Structure prediction by ZEFSAII (Michael W. Deem and Ramdas Pophale) SiO2 
 PCOD9072495
Probable space group: P -1
;
_chemical_formula_sum "Si O2"
_cell_formula_units_Z 16
_cell_length_a 9.399548
_cell_length_b 21.431849
_cell_length_c 27.779395
_cell_angle_alpha 18.791855
_cell_angle_beta 37.919807
_cell_angle_gamma 29.517844
_cell_volume 866.382104
_symmetry_space_group_name_H-M "P -1"
_symmetry_group_IT_number 2
_symmetry_cell_setting 'triclinic'
loop_
_space_group_symop_operation_xyz
x,y,z
-x,-y,-z
loop_
_atom_site_type_symbol
_atom_site_label
_atom_site_fract_x
_atom_site_fract_y
_atom_site_fract_z
Si Si1 0.393001 0.090270 0.408544
Si Si2 0.752722 0.898143 0.904403
Si Si3 0.351410 0.627754 0.894990
Si Si4 0.569871 0.601109 0.673492
Si Si5 0.278976 0.935145 0.110332
Si Si6 0.352437 0.710017 0.026615
Si Si7 0.163894 0.107543 0.856078
Si Si8 0.251474 0.518810 0.741124
O O1 0.525056 0.226698 0.258003
O O2 0.037531 0.280979 0.358576
O O3 0.500000 0.000000 0.500000
O O4 0.507276 0.854688 0.517291
O O5 0.999613 0.807568 0.864906
O O6 0.788119 0.038724 0.834341
O O7 0.417564 0.059589 0.857478
O O8 0.811742 0.653825 0.089547
O O9 0.447091 0.433047 0.968837
O O10 0.500000 0.500000 0.000000
O O11 0.566421 0.480851 0.812611
O O12 0.334621 0.629898 0.678680
O O13 0.893964 0.396356 0.713335
O O14 0.458013 0.668325 0.232732
O O15 0.500000 0.000000 0.000000
O O16 0.983347 0.144769 0.007947
O O17 0.334534 0.933659 0.891154
O O18 0.000000 0.000000 0.000000
#
# Coordination Sequence:
#
# PCOD9072495 Si02
#       8
#     2   2   2   2   2   2   2   2
#     4  12  26  40  62  91 128 167 205 251 310 370
#     4  11  21  35  63  95 120 156 212 257 307 355
#     4  12  23  41  61  90 128 167 206 252 308 369
#     4  11  21  39  62  90 127 157 207 257 310 362
#     4  10  18  30  60  93 118 149 210 257 293 350
#     4  11  19  36  61  91 122 156 205 257 303 355
#     4  10  19  36  63  94 122 155 206 262 306 356
#     4  11  20  38  62  93 119 162 207 258 302 362
#
# _framework density 18.467604000000001
#
# number of rings (size 3 to 8) (size 9 to 14) (size 15 to 20)
#    0.000    1.000    7.500    3.375    1.750    0.500 
#    0.000    0.625    0.000    1.500    0.000    0.000 
#    0.000    0.000    0.000    0.000    0.000    0.000 
#
# Total GULP energy -89255.705847 kJ/mol
# GULP energy per Si atom -5578.481615 kJ/mol
# Density = 1.842557 g / cm^3
# Si number density = 18.467604 Si / 1000 Ang^3
#
#
#
# Elastic Constant Matrix: (Units=GPa)
#
#
# Indices 1 2 3 4 5 6 
#
# 1 126.5224 38.1316 27.2354 -3.0429 10.2140 4.7492
# 2 38.1316 103.1213 21.2077 -12.7741 4.8010 12.5428
# 3 27.2354 21.2077 52.7338 -6.7712 2.5763 6.2423
# 4 -3.0429 -12.7741 -6.7712 20.4789 4.3519 0.1465
# 5 10.2140 4.8010 2.5763 4.3519 30.5641 -16.5583
# 6 4.7492 12.5428 6.2423 0.1465 -16.5583 44.8239
#
#
#
# Elastic Compliance Matrix: (Units=1/GPa)
#
#
# Indices 1 2 3 4 5 6 
#
# 1 0.009784 -0.002714 -0.003850 -0.000909 -0.002810 -0.000776
# 2 -0.002714 0.012903 -0.001956 0.008034 -0.004708 -0.004816
# 3 -0.003850 -0.001956 0.023144 0.006558 -0.003164 -0.003458
# 4 -0.000909 0.008034 0.006558 0.059041 -0.014605 -0.008653
# 5 -0.002810 -0.004708 -0.003164 -0.014605 0.047361 0.019599
# 6 -0.000776 -0.004816 -0.003458 -0.008653 0.019599 0.031490
#
#
# Mechanical properties :
#
#
# Convention : Reuss Voigt Hill
#
# Bulk Modulus (GPa) = 34.73045 50.61409 42.67227
# Shear Modulus (GPa) = 23.76888 32.22689 27.99788
#
# Velocity S-wave (km/s) = 3.59145 4.18191 3.89788
# Velocity P-wave (km/s) = 6.00375 7.12631 6.58898
#
# Compressibility (1/GPa) = 0.02879318
#
# Stress axis : x y z
#
# Youngs Moduli (GPa) = 102.20362 77.50018 43.20785
#
# Poissons Ratio (x) = 0.21031 0.16633
# Poissons Ratio (y) = 0.27735 0.08451
# Poissons Ratio (z) = 0.39344 0.15159
#
# Static dielectric constant tensor:
#      x y z
#    x 1.685840 0.043130 0.005370 
#    y 0.043130 1.677150 -0.021600 
#    z 0.005370 -0.021600 1.626140 
# 
# From -- ./inp_files/403083.got.cif
#   From: 2010.05.17/outbox.cif.g08.bks.cpg/sg2_202_cif.got.tgz:403083.got - 2010.06.03 11:33:40.
