data_PCOD9072548
_publ_section_title
;
Structure prediction by ZEFSAII (Michael W. Deem and Ramdas Pophale) SiO2 
 PCOD9072548
Probable space group: P -1
;
_chemical_formula_sum "Si O2"
_cell_formula_units_Z 16
_cell_length_a 12.000000
_cell_length_b 9.000000
_cell_length_c 18.000000
_cell_angle_alpha 140.000000
_cell_angle_beta 50.000000
_cell_angle_gamma 100.000000
_cell_volume 729.599496
_symmetry_space_group_name_H-M "P -1"
_symmetry_group_IT_number 2
_symmetry_cell_setting 'triclinic'
loop_
_space_group_symop_operation_xyz
x,y,z
-x,-y,-z
loop_
_atom_site_type_symbol
_atom_site_label
_atom_site_fract_x
_atom_site_fract_y
_atom_site_fract_z
Si Si1 0.896673 0.661699 0.028069
Si Si2 0.334798 0.669681 0.835363
Si Si3 0.572601 0.838072 0.768722
Si Si4 0.734721 0.657434 0.352730
Si Si5 0.489096 0.863668 0.245580
Si Si6 0.629454 0.260396 0.978466
Si Si7 0.899395 0.172023 0.223963
Si Si8 0.042553 0.713834 0.592058
O O1 0.711188 0.704787 0.102833
O O2 0.812667 0.007439 0.207266
O O3 0.000000 0.500000 0.000000
O O4 0.069574 0.462840 0.817777
O O5 0.401924 0.836079 0.832460
O O6 0.394430 0.362906 0.656768
O O7 0.368378 0.675466 0.910600
O O8 0.110793 0.893968 0.000737
O O9 0.734734 0.499517 0.604528
O O10 0.597543 0.920231 0.706988
O O11 0.560771 0.071488 0.917142
O O12 0.789736 0.429144 0.309029
O O13 0.622258 0.966999 0.565619
O O14 0.495849 0.583907 0.121103
O O15 0.853952 0.044345 0.775151
O O16 0.938358 0.265132 0.319781
O O17 0.000000 0.500000 0.500000
#
# Coordination Sequence:
#
# PCOD9072548 Si02
#       8
#     2   2   2   2   2   2   2   2
#     4  11  24  40  63  93 132 169 200 259 326 376
#     4  10  21  37  64  91 122 163 212 262 312 370
#     4  11  21  39  68  91 118 166 220 258 305 382
#     4  11  23  40  62  97 129 160 211 261 315 377
#     4  12  24  41  65  96 128 167 208 260 319 377
#     4  10  23  42  59  89 131 165 205 264 320 363
#     4  10  19  39  60  89 128 158 205 264 312 366
#     4   9  19  36  60  85 117 163 207 250 301 367
#
# _framework density 21.929839999999999
#
# number of rings (size 3 to 8) (size 9 to 14) (size 15 to 20)
#    0.000    1.500    1.250    6.000    1.750    3.000 
#    2.250    0.000    0.000    2.250    0.000    0.000 
#    0.000    0.000    0.000    0.000    0.000    0.000 
#
# Total GULP energy -89129.234836 kJ/mol
# GULP energy per Si atom -5570.577177 kJ/mol
# Density = 2.187993 g / cm^3
# Si number density = 21.929840 Si / 1000 Ang^3
#
#
#
# Elastic Constant Matrix: (Units=GPa)
#
#
# Indices 1 2 3 4 5 6 
#
# 1 71.2607 -15.4926 20.8240 -8.1226 28.8943 2.8861
# 2 -15.4926 39.1251 32.8253 9.5234 5.2429 -0.9937
# 3 20.8240 32.8253 99.0363 8.2926 28.1514 9.8216
# 4 -8.1226 9.5234 8.2926 20.5950 -2.0011 -4.2611
# 5 28.8943 5.2429 28.1514 -2.0011 32.6935 -1.6605
# 6 2.8861 -0.9937 9.8216 -4.2611 -1.6605 18.3199
#
#
#
# Elastic Compliance Matrix: (Units=1/GPa)
#
#
# Indices 1 2 3 4 5 6 
#
# 1 0.030573 0.019669 -0.005733 0.002319 -0.025218 -0.002422
# 2 0.019669 0.052672 -0.018767 -0.008564 -0.009843 0.006936
# 3 -0.005733 -0.018767 0.023551 -0.007631 -0.013469 -0.015737
# 4 0.002319 -0.008564 -0.007631 0.061358 0.010589 0.018492
# 5 -0.025218 -0.009843 -0.013469 0.010589 0.067677 0.019257
# 6 -0.002422 0.006936 -0.015737 0.018492 0.019257 0.069826
#
#
# Mechanical properties :
#
#
# Convention : Reuss Voigt Hill
#
# Bulk Modulus (GPa) = 10.29498 31.74839 21.02168
# Shear Modulus (GPa) = 14.38034 25.73938 20.05986
#
# Velocity S-wave (km/s) = 2.56353 3.42967 3.02773
# Velocity P-wave (km/s) = 3.66973 5.49474 4.67221
#
# Compressibility (1/GPa) = 0.09713474
#
# Stress axis : x y z
#
# Youngs Moduli (GPa) = 32.70912 18.98526 42.46075
#
# Poissons Ratio (x) = -0.37343 0.24344
# Poissons Ratio (y) = -0.64337 0.79685
# Poissons Ratio (z) = 0.18753 0.35629
#
# Static dielectric constant tensor:
#      x y z
#    x 1.883740 0.105970 0.021880 
#    y 0.105970 1.920890 0.048030 
#    z 0.021880 0.048030 1.963080 
# 
# From -- ./inp_files/186164.got.cif
#   From: 2010.05.17/outbox.ucp.g08.bks.cvg/sg2_94_cif.got.tgz:186164.got - 2010.06.11 11:32:03.
