data_PCOD9072620
_publ_section_title
;
Structure prediction by ZEFSAII (Michael W. Deem and Ramdas Pophale) SiO2 
 PCOD9072620
Probable space group: P -1
;
_chemical_formula_sum "Si O2"
_cell_formula_units_Z 16
_cell_length_a 9.000000
_cell_length_b 9.000000
_cell_length_c 12.000000
_cell_angle_alpha 80.000000
_cell_angle_beta 60.000000
_cell_angle_gamma 80.000000
_cell_volume 824.681318
_symmetry_space_group_name_H-M "P -1"
_symmetry_group_IT_number 2
_symmetry_cell_setting 'triclinic'
loop_
_space_group_symop_operation_xyz
x,y,z
-x,-y,-z
loop_
_atom_site_type_symbol
_atom_site_label
_atom_site_fract_x
_atom_site_fract_y
_atom_site_fract_z
Si Si1 0.930207 0.110600 0.180317
Si Si2 0.006470 0.249482 0.519039
Si Si3 0.450475 0.002729 0.235535
Si Si4 0.760569 0.729918 0.858421
Si Si5 0.222712 0.932081 0.528891
Si Si6 0.790734 0.131888 0.003878
Si Si7 0.202860 0.503056 0.298080
Si Si8 0.434233 0.716957 0.126344
O O1 0.784012 0.093522 0.331677
O O2 0.858948 0.195963 0.084671
O O3 0.072225 0.197899 0.175991
O O4 0.047109 0.959963 0.109067
O O5 0.140773 0.366326 0.412654
O O6 0.869940 0.201956 0.482526
O O7 0.909924 0.344161 0.642417
O O8 0.100166 0.089101 0.540662
O O9 0.392718 0.964148 0.388569
O O10 0.400156 0.860571 0.201238
O O11 0.337352 0.153315 0.210773
O O12 0.646715 0.026439 0.122290
O O13 0.814076 0.566688 0.807497
O O14 0.626569 0.714846 0.009218
O O15 0.688084 0.244385 0.940631
O O16 0.392267 0.561035 0.219869
#
# Coordination Sequence:
#
# PCOD9072620 Si02
#       8
#     2   2   2   2   2   2   2   2
#     4  11  20  35  57  83 109 146 187 229 268 324
#     4  10  20  31  53  86 112 138 178 237 276 320
#     4  11  19  36  59  84 109 141 186 236 274 314
#     4  11  19  35  56  83 110 145 184 230 271 324
#     4  11  19  35  59  79 111 144 184 228 278 317
#     4  10  22  36  55  81 113 146 187 228 269 322
#     4  11  20  31  51  87 116 138 178 228 284 324
#     4  11  20  35  56  83 112 145 181 229 278 320
#
# _framework density 19.401433999999998
#
# number of rings (size 3 to 8) (size 9 to 14) (size 15 to 20)
#    0.000    1.250    6.250    2.625    0.000    0.500 
#    0.000    0.625    0.000    0.000    0.000    5.250 
#    0.000    0.000    0.000    0.000    0.000    0.000 
#
# Total GULP energy -89090.221434 kJ/mol
# GULP energy per Si atom -5568.138840 kJ/mol
# Density = 1.935728 g / cm^3
# Si number density = 19.401434 Si / 1000 Ang^3
#
#
#
# Elastic Constant Matrix: (Units=GPa)
#
#
# Indices 1 2 3 4 5 6 
#
# 1 9.1960 -10.3896 13.7710 2.7562 -9.6481 -11.4207
# 2 -10.3896 66.9091 30.4658 11.6828 -2.2320 9.9141
# 3 13.7710 30.4658 144.9881 10.3591 -14.7258 11.9163
# 4 2.7562 11.6828 10.3591 36.5515 14.2893 -5.8141
# 5 -9.6481 -2.2320 -14.7258 14.2893 16.4272 -9.6821
# 6 -11.4207 9.9141 11.9163 -5.8141 -9.6821 2.4568
#
#
#
# Elastic Compliance Matrix: (Units=1/GPa)
#
#
# Indices 1 2 3 4 5 6 
#
# 1 0.019217 0.014543 -0.000591 -0.008914 -0.021020 -0.070423
# 2 0.014543 0.025151 -0.002621 -0.015684 0.008395 -0.025208
# 3 -0.000591 -0.002621 0.009469 -0.007313 0.013993 -0.000260
# 4 -0.008914 -0.015684 -0.007313 0.056737 -0.037534 0.043673
# 5 -0.021020 0.008395 0.013993 -0.037534 0.056740 -0.064681
# 6 -0.070423 -0.025208 -0.000260 0.043673 -0.064681 0.031095
#
#
# Mechanical properties :
#
#
# Convention : Reuss Voigt Hill
#
# Bulk Modulus (GPa) = 13.07209 32.08752 22.57980
# Shear Modulus (GPa) = 24.84509 23.57018 24.20763
#
# Velocity S-wave (km/s) = 3.58240 3.48928 3.53615
# Velocity P-wave (km/s) = 4.88506 5.72783 5.32315
#
# Compressibility (1/GPa) = 0.07649885
#
# Stress axis : x y z
#
# Youngs Moduli (GPa) = 52.03790 39.75953 105.60650
#
# Poissons Ratio (x) = -0.57823 0.06243
# Poissons Ratio (y) = -0.75680 0.27682
# Poissons Ratio (z) = 0.03076 0.10422
#
# Static dielectric constant tensor:
#      x y z
#    x 1.693140 0.009080 -0.020450 
#    y 0.009080 1.656910 0.008750 
#    z -0.020450 0.008750 1.759090 
# 
# From -- ./inp_files/203158.got.cif
#   From: 2010.05.17/outbox.ucp.g08.bks.cvg/sg2_102_cif.got.tgz:203158.got - 2010.06.11 11:32:03.
