data_PCOD9072106
_publ_section_title
;
Structure prediction by ZEFSAII (Michael W. Deem and Ramdas Pophale) SiO2 
 PCOD9072106
Probable space group: P -1
;
_chemical_formula_sum "Si O2"
_cell_formula_units_Z 16
_cell_length_a 12.000000
_cell_length_b 15.000000
_cell_length_c 9.000000
_cell_angle_alpha 110.000000
_cell_angle_beta 50.000000
_cell_angle_gamma 140.000000
_cell_volume 759.581896
_symmetry_space_group_name_H-M "P -1"
_symmetry_group_IT_number 2
_symmetry_cell_setting 'triclinic'
loop_
_space_group_symop_operation_xyz
x,y,z
-x,-y,-z
loop_
_atom_site_type_symbol
_atom_site_label
_atom_site_fract_x
_atom_site_fract_y
_atom_site_fract_z
Si Si1 0.405055 0.373994 0.809409
Si Si2 0.300581 0.523052 0.121744
Si Si3 0.997554 0.211718 0.899772
Si Si4 0.393325 0.685739 0.844043
Si Si5 0.119479 0.159709 0.478709
Si Si6 0.481086 0.947064 0.822530
Si Si7 0.203474 0.464327 0.664426
Si Si8 0.041650 0.746330 0.510993
O O1 0.523920 0.369535 0.832866
O O2 0.146133 0.229857 0.904506
O O3 0.568656 0.446661 0.568667
O O4 0.399136 0.478565 0.932595
O O5 0.076359 0.368977 0.314164
O O6 0.295565 0.604502 0.046057
O O7 0.000823 0.151457 0.714513
O O8 0.150779 0.373612 0.800689
O O9 0.750977 0.129624 0.095571
O O10 0.618909 0.733425 0.667291
O O11 0.464033 0.827392 0.815799
O O12 0.231177 0.577792 0.784805
O O13 0.081008 0.213916 0.404986
O O14 0.000000 0.000000 0.500000
O O15 0.697538 0.092213 0.626351
O O16 0.500000 0.000000 0.000000
O O17 0.013490 0.348674 0.638812
#
# Coordination Sequence:
#
# PCOD9072106 Si02
#       8
#     2   2   2   2   2   2   2   2
#     4  10  18  36  62  99 126 163 210 265 332 360
#     4  10  21  36  65  98 132 164 210 275 323 380
#     4  11  20  35  63  93 129 167 208 267 316 375
#     4  12  22  38  69 106 119 160 228 272 314 376
#     4  11  19  34  64  96 122 161 217 270 303 371
#     4  12  24  43  63  93 135 173 210 259 327 393
#     4  10  19  34  67  95 123 157 223 279 296 365
#     4  10  22  40  63  93 132 174 207 265 335 370
#
# _framework density 21.064219999999999
#
# number of rings (size 3 to 8) (size 9 to 14) (size 15 to 20)
#    0.000    1.250    6.250    3.375    0.000    0.500 
#    0.000    1.250    0.000   19.500    0.000    0.000 
#    0.000    0.000    0.000    0.000    0.000    0.000 
#
# Total GULP energy -89070.723895 kJ/mol
# GULP energy per Si atom -5566.920243 kJ/mol
# Density = 2.101628 g / cm^3
# Si number density = 21.064220 Si / 1000 Ang^3
#
#
#
# Elastic Constant Matrix: (Units=GPa)
#
#
# Indices 1 2 3 4 5 6 
#
# 1 79.5558 42.9884 51.4669 -25.2267 -7.7160 7.9365
# 2 42.9884 107.9685 42.4706 -12.6622 4.4024 -6.1446
# 3 51.4669 42.4706 104.6710 -33.6822 -3.7320 8.4762
# 4 -25.2267 -12.6622 -33.6822 31.7287 -2.2034 -0.9989
# 5 -7.7160 4.4024 -3.7320 -2.2034 34.8814 -4.7522
# 6 7.9365 -6.1446 8.4762 -0.9989 -4.7522 26.1529
#
#
#
# Elastic Compliance Matrix: (Units=1/GPa)
#
#
# Indices 1 2 3 4 5 6 
#
# 1 0.024226 -0.007042 -0.004561 0.011813 0.005682 -0.006044
# 2 -0.007042 0.013621 -0.004134 -0.004588 -0.003202 0.005920
# 3 -0.004561 -0.004134 0.018550 0.014390 0.001762 -0.004730
# 4 0.011813 -0.004588 0.014390 0.054682 0.007383 -0.005896
# 5 0.005682 -0.003202 0.001762 0.007383 0.031385 0.002937
# 6 -0.006044 0.005920 -0.004730 -0.005896 0.002937 0.043303
#
#
# Mechanical properties :
#
#
# Convention : Reuss Voigt Hill
#
# Bulk Modulus (GPa) = 40.12363 62.89414 51.50889
# Shear Modulus (GPa) = 22.16820 28.90390 25.53605
#
# Velocity S-wave (km/s) = 3.24761 3.70831 3.48558
# Velocity P-wave (km/s) = 5.75779 6.94684 6.38008
#
# Compressibility (1/GPa) = 0.02492297
#
# Stress axis : x y z
#
# Youngs Moduli (GPa) = 41.27878 73.41377 53.90781
#
# Poissons Ratio (x) = 0.51695 0.24588
# Poissons Ratio (y) = 0.29067 0.22287
# Poissons Ratio (z) = 0.18827 0.30352
#
# Static dielectric constant tensor:
#      x y z
#    x 1.808320 0.026560 -0.019590 
#    y 0.026560 1.926000 0.011000 
#    z -0.019590 0.011000 1.793950 
# 
# From -- ./inp_files/273594.got.cif
#   From: 2010.05.17/outbox.ucp.g08.bks.cvg/sg2_137_cif.got.tgz:273594.got - 2010.06.11 11:32:03.
