data_PCOD9072831
_publ_section_title
;
Structure prediction by ZEFSAII (Michael W. Deem and Ramdas Pophale) SiO2 
 PCOD9072831
Probable space group: P -1
;
_chemical_formula_sum "Si O2"
_cell_formula_units_Z 14
_cell_length_a 14.829549
_cell_length_b 18.692753
_cell_length_c 6.840859
_cell_angle_alpha 88.517192
_cell_angle_beta 63.209649
_cell_angle_gamma 31.504881
_cell_volume 566.185855
_symmetry_space_group_name_H-M "P -1"
_symmetry_group_IT_number 2
_symmetry_cell_setting 'triclinic'
loop_
_space_group_symop_operation_xyz
x,y,z
-x,-y,-z
loop_
_atom_site_type_symbol
_atom_site_label
_atom_site_fract_x
_atom_site_fract_y
_atom_site_fract_z
Si Si1 0.195994 0.513637 0.647005
Si Si2 0.526483 0.362520 0.982619
Si Si3 0.709528 0.358681 0.108885
Si Si4 0.462751 0.291243 0.770650
Si Si5 0.246261 0.079207 0.741139
Si Si6 0.218999 0.314143 0.142898
Si Si7 0.749514 0.791235 0.524232
O O1 0.472383 0.310047 0.535589
O O2 0.992281 0.579146 0.821798
O O3 0.301103 0.468787 0.335360
O O4 0.990360 0.714943 0.915770
O O5 0.382505 0.513686 0.953634
O O6 0.658605 0.211324 0.725973
O O7 0.687683 0.304609 0.991980
O O8 0.500000 0.500000 0.500000
O O9 0.047549 0.144859 0.869938
O O10 0.460473 0.209437 0.835183
O O11 0.104535 0.547379 0.146697
O O12 0.328754 0.077094 0.482754
O O13 0.545213 0.873013 0.590893
O O14 0.326484 0.178324 0.184513
O O15 0.000000 0.500000 0.500000
#
# Coordination Sequence:
#
# PCOD9072831 Si02
#       7
#     2   2   2   2   2   2   2
#     4  11  18  32  51  80 104 134 169 211 267 303
#     4  11  19  32  53  75 104 133 176 215 256 295
#     4  11  20  33  52  76 105 138 175 213 252 309
#     4  10  19  34  51  80 107 134 175 214 255 309
#     4  10  19  33  51  78 114 133 170 211 260 318
#     4  10  18  31  51  75 107 135 175 210 257 309
#     4   9  18  33  52  76 110 140 161 213 265 311
#
# _framework density 24.726863999999999
#
# number of rings (size 3 to 8) (size 9 to 14) (size 15 to 20)
#    0.000    1.714    7.143    0.429    0.000    0.571 
#    0.000    0.000    0.000    0.857    0.000    2.000 
#    0.000    0.000    0.000    0.000    0.000    0.000 
#
# Total GULP energy -78183.825707 kJ/mol
# GULP energy per Si atom -5584.558979 kJ/mol
# Density = 2.467059 g / cm^3
# Si number density = 24.726864 Si / 1000 Ang^3
#
#
#
# Elastic Constant Matrix: (Units=GPa)
#
#
# Indices 1 2 3 4 5 6 
#
# 1 172.2370 31.2906 8.1299 2.2078 -8.8013 -35.4051
# 2 31.2906 72.4491 37.5087 -21.7128 5.0888 -5.8117
# 3 8.1299 37.5087 105.4970 -26.0036 7.2566 -5.7580
# 4 2.2078 -21.7128 -26.0036 42.3889 -1.8383 -1.4609
# 5 -8.8013 5.0888 7.2566 -1.8383 31.3508 -1.9807
# 6 -35.4051 -5.8117 -5.7580 -1.4609 -1.9807 51.4272
#
#
#
# Elastic Compliance Matrix: (Units=1/GPa)
#
#
# Indices 1 2 3 4 5 6 
#
# 1 0.007684 -0.003888 0.000406 -0.001846 0.002899 0.004955
# 2 -0.003888 0.020428 -0.004971 0.007464 -0.002871 -0.000823
# 3 0.000406 -0.004971 0.012670 0.005176 -0.001631 0.001221
# 4 -0.001846 0.007464 0.005176 0.030673 -0.001067 0.000982
# 5 0.002899 -0.002871 -0.001631 -0.001067 0.033666 0.002755
# 6 0.004955 -0.000823 0.001221 0.000982 0.002755 0.023034
#
#
# Mechanical properties :
#
#
# Convention : Reuss Voigt Hill
#
# Bulk Modulus (GPa) = 41.88410 56.00462 48.94436
# Shear Modulus (GPa) = 32.67552 43.25031 37.96292
#
# Velocity S-wave (km/s) = 3.63913 4.18679 3.92253
# Velocity P-wave (km/s) = 5.88500 6.78754 6.35232
#
# Compressibility (1/GPa) = 0.02387541
#
# Stress axis : x y z
#
# Youngs Moduli (GPa) = 130.14857 48.95145 78.92816
#
# Poissons Ratio (x) = 0.19034 -0.03207
# Poissons Ratio (y) = 0.50606 0.39237
# Poissons Ratio (z) = -0.05288 0.24335
#
# Static dielectric constant tensor:
#      x y z
#    x 2.052740 0.021000 0.059590 
#    y 0.021000 2.032730 0.014180 
#    z 0.059590 0.014180 1.966190 
# 
# From -- ./inp_files/100396.got.cif
#   From: 2010.05.17/outbox.cif.g08.bks.cpg/sg2_51_cif.got.tgz:100396.got - 2010.06.03 11:33:40.
