data_PCOD9072799
_publ_section_title
;
Structure prediction by ZEFSAII (Michael W. Deem and Ramdas Pophale) SiO2 
 PCOD9072799
Probable space group: P -1
;
_chemical_formula_sum "Si O2"
_cell_formula_units_Z 14
_cell_length_a 12.000000
_cell_length_b 18.000000
_cell_length_c 9.000000
_cell_angle_alpha 140.000000
_cell_angle_beta 70.000000
_cell_angle_gamma 140.000000
_cell_volume 647.049418
_symmetry_space_group_name_H-M "P -1"
_symmetry_group_IT_number 2
_symmetry_cell_setting 'triclinic'
loop_
_space_group_symop_operation_xyz
x,y,z
-x,-y,-z
loop_
_atom_site_type_symbol
_atom_site_label
_atom_site_fract_x
_atom_site_fract_y
_atom_site_fract_z
Si Si1 0.960553 0.454705 0.774003
Si Si2 0.912541 0.806004 0.802209
Si Si3 0.514961 0.708227 0.262577
Si Si4 0.746856 0.064107 0.301356
Si Si5 0.749945 0.663207 0.994063
Si Si6 0.895985 0.174898 0.744918
Si Si7 0.328275 0.580652 0.834537
O O1 0.144448 0.511330 0.740079
O O2 0.744000 0.199373 0.470453
O O3 0.016243 0.625787 0.943591
O O4 0.000000 0.500000 0.000000
O O5 0.833664 0.739495 0.905292
O O6 0.724398 0.591994 0.460700
O O7 0.116762 0.889380 0.814075
O O8 0.000000 0.000000 0.000000
O O9 0.410773 0.574587 0.257061
O O10 0.669163 0.944875 0.562730
O O11 0.644803 0.700972 0.135689
O O12 0.349395 0.598368 0.032534
O O13 0.863427 0.149079 0.541278
O O14 0.538680 0.817197 0.043688
O O15 0.939414 0.787538 0.213862
#
# Coordination Sequence:
#
# PCOD9072799 Si02
#       7
#     2   2   2   2   2   2   2
#     4   9  18  33  59  88 112 145 187 234 278 322
#     4  11  23  38  58  82 112 152 188 229 280 335
#     4  10  22  37  58  85 114 149 185 233 282 328
#     4   9  20  37  59  84 113 149 187 234 277 324
#     4  11  23  37  56  84 117 147 185 231 283 338
#     4  10  20  37  60  85 113 148 187 231 280 330
#     4  10  21  39  58  85 116 145 192 233 273 332
#
# _framework density 21.636678
#
# number of rings (size 3 to 8) (size 9 to 14) (size 15 to 20)
#    0.000    2.000    0.000    4.714    0.000   12.000 
#    0.000    2.857    0.000    5.143    0.000    0.000 
#    0.000    0.000    0.000    0.000    0.000    0.000 
#
# Total GULP energy -77992.002651 kJ/mol
# GULP energy per Si atom -5570.857332 kJ/mol
# Density = 2.158743 g / cm^3
# Si number density = 21.636678 Si / 1000 Ang^3
#
#
#
# Elastic Constant Matrix: (Units=GPa)
#
#
# Indices 1 2 3 4 5 6 
#
# 1 95.4660 20.4571 25.8015 15.8580 -16.2260 -7.9447
# 2 20.4571 147.8232 41.1709 24.5652 -21.7464 -25.3457
# 3 25.8015 41.1709 104.7926 43.3955 -31.4117 -9.3899
# 4 15.8580 24.5652 43.3955 35.6582 -11.3733 -10.1143
# 5 -16.2260 -21.7464 -31.4117 -11.3733 35.1369 9.4439
# 6 -7.9447 -25.3457 -9.3899 -10.1143 9.4439 28.9992
#
#
#
# Elastic Compliance Matrix: (Units=1/GPa)
#
#
# Indices 1 2 3 4 5 6 
#
# 1 0.011868 -0.000388 -0.000102 -0.003535 0.003904 0.000375
# 2 -0.000388 0.008820 -0.001632 -0.001700 0.001675 0.005935
# 3 -0.000102 -0.001632 0.024968 -0.026658 0.014633 -0.007432
# 4 -0.003535 -0.001700 -0.026658 0.064268 -0.009598 0.014455
# 5 0.003904 0.001675 0.014633 -0.009598 0.044078 -0.010430
# 6 0.000375 0.005935 -0.007432 0.014455 -0.010430 0.045806
#
#
# Mechanical properties :
#
#
# Convention : Reuss Voigt Hill
#
# Bulk Modulus (GPa) = 24.14712 58.10452 41.12582
# Shear Modulus (GPa) = 22.95115 37.33569 30.14342
#
# Velocity S-wave (km/s) = 3.26045 4.15851 3.73656
# Velocity P-wave (km/s) = 5.03573 7.06898 6.13715
#
# Compressibility (1/GPa) = 0.04141280
#
# Stress axis : x y z
#
# Youngs Moduli (GPa) = 84.26326 113.38454 40.05092
#
# Poissons Ratio (x) = 0.04398 0.00407
# Poissons Ratio (y) = 0.03269 0.06535
# Poissons Ratio (z) = 0.00857 0.18500
#
# Static dielectric constant tensor:
#      x y z
#    x 1.845340 0.086010 -0.004270 
#    y 0.086010 1.850420 0.082400 
#    z -0.004270 0.082400 1.876280 
# 
# From -- ./inp_files/280088.got.cif
#   From: 2010.05.17/outbox.ucp.g08.bks.cvg/sg2_141_cif.got.tgz:280088.got - 2010.06.11 11:32:03.
