data_PCOD9072611
_publ_section_title
;
Structure prediction by ZEFSAII (Michael W. Deem and Ramdas Pophale) SiO2 
 PCOD9072611
Probable space group: P -1
;
_chemical_formula_sum "Si O2"
_cell_formula_units_Z 16
_cell_length_a 12.802293
_cell_length_b 14.413336
_cell_length_c 5.357660
_cell_angle_alpha 80.558928
_cell_angle_beta 91.711061
_cell_angle_gamma 123.152439
_cell_volume 814.329677
_symmetry_space_group_name_H-M "P -1"
_symmetry_group_IT_number 2
_symmetry_cell_setting 'triclinic'
loop_
_space_group_symop_operation_xyz
x,y,z
-x,-y,-z
loop_
_atom_site_type_symbol
_atom_site_label
_atom_site_fract_x
_atom_site_fract_y
_atom_site_fract_z
Si Si1 0.535668 0.906509 0.022344
Si Si2 0.878570 0.228602 0.338917
Si Si3 0.104789 0.638444 0.220682
Si Si4 0.622080 0.990940 0.491137
Si Si5 0.844803 0.651296 0.685229
Si Si6 0.832052 0.519452 0.245289
Si Si7 0.665699 0.351854 0.951452
Si Si8 0.575050 0.513368 0.748835
O O1 0.591387 0.909016 0.293290
O O2 0.420468 0.782040 0.009290
O O3 0.629131 0.946040 0.779859
O O4 0.500000 0.000000 0.000000
O O5 0.876856 0.292826 0.557465
O O6 0.012609 0.240109 0.357953
O O7 0.750553 0.107283 0.391275
O O8 0.879218 0.287896 0.055495
O O9 0.209996 0.612272 0.211393
O O10 0.963478 0.529749 0.254068
O O11 0.500000 0.000000 0.500000
O O12 0.830358 0.584243 0.457879
O O13 0.709427 0.633907 0.698308
O O14 0.841955 0.590127 0.968632
O O15 0.713846 0.397479 0.216650
O O16 0.602639 0.414798 0.813771
O O17 0.500000 0.500000 0.500000
O O18 0.500000 0.500000 0.000000
#
# Coordination Sequence:
#
# PCOD9072611 Si02
#       8
#     2   2   2   2   2   2   2   2
#     4  10  21  33  50  77 110 146 185 217 261 328
#     4  10  19  33  54  81 118 154 180 220 272 336
#     4  10  19  31  51  81 114 149 180 210 271 355
#     4  10  18  31  47  75 112 148 183 216 249 313
#     4   9  19  36  56  81 110 145 186 225 280 340
#     4   9  19  32  51  81 115 146 176 210 270 357
#     4  11  22  37  57  80 115 155 181 229 283 325
#     4  11  24  41  59  82 109 143 193 243 281 328
#
# _framework density 19.648063
#
# number of rings (size 3 to 8) (size 9 to 14) (size 15 to 20)
#    0.000    2.000    0.000    5.625    0.000    6.000 
#    0.000    7.500    0.000    0.000    0.000    5.250 
#    0.000    0.000    0.000    0.000    0.000    0.000 
#
# Total GULP energy -89214.301725 kJ/mol
# GULP energy per Si atom -5575.893858 kJ/mol
# Density = 1.960334 g / cm^3
# Si number density = 19.648063 Si / 1000 Ang^3
#
#
#
# Elastic Constant Matrix: (Units=GPa)
#
#
# Indices 1 2 3 4 5 6 
#
# 1 124.4556 30.8673 31.4586 -2.1343 -1.2073 24.1131
# 2 30.8673 88.3769 20.6767 8.0413 3.4734 33.1580
# 3 31.4586 20.6767 156.2155 15.9736 -1.4603 9.5748
# 4 -2.1343 8.0413 15.9736 22.8972 4.2673 2.3451
# 5 -1.2073 3.4734 -1.4603 4.2673 32.3715 -1.4369
# 6 24.1131 33.1580 9.5748 2.3451 -1.4369 33.8058
#
#
#
# Elastic Compliance Matrix: (Units=1/GPa)
#
#
# Indices 1 2 3 4 5 6 
#
# 1 0.009942 -0.001227 -0.001832 0.003258 -0.000259 -0.005606
# 2 -0.001227 0.018838 -0.000809 -0.003968 -0.002344 -0.017198
# 3 -0.001832 -0.000809 0.007403 -0.005293 0.001069 0.000415
# 4 0.003258 -0.003968 -0.005293 0.050319 -0.006355 -0.000693
# 5 -0.000259 -0.002344 0.001069 -0.006355 0.032196 0.003990
# 6 -0.005606 -0.017198 0.000415 -0.000693 0.003990 0.050548
#
#
# Mechanical properties :
#
#
# Convention : Reuss Voigt Hill
#
# Bulk Modulus (GPa) = 35.14979 59.45035 47.30007
# Shear Modulus (GPa) = 26.81499 36.88457 31.84978
#
# Velocity S-wave (km/s) = 3.69828 4.33744 4.03055
# Velocity P-wave (km/s) = 6.01373 7.44364 6.76656
#
# Compressibility (1/GPa) = 0.02844967
#
# Stress axis : x y z
#
# Youngs Moduli (GPa) = 100.58547 53.08330 135.07962
#
# Poissons Ratio (x) = 0.06511 0.24741
# Poissons Ratio (y) = 0.12338 0.10921
# Poissons Ratio (z) = 0.18423 0.04292
#
# Static dielectric constant tensor:
#      x y z
#    x 1.724930 0.037360 -0.015150 
#    y 0.037360 1.703370 0.003150 
#    z -0.015150 0.003150 1.782900 
# 
# From -- ./inp_files/70611.got.cif
#   From: 2010.05.17/outbox.cif.g08.bks.cpg/sg2_36_cif.got.tgz:70611.got - 2010.06.03 11:33:40.
