data_PCOD9072891
_publ_section_title
;
Structure prediction by ZEFSAII (Michael W. Deem and Ramdas Pophale) SiO2 
 PCOD9072891
Probable space group: P -1
;
_chemical_formula_sum "Si O2"
_cell_formula_units_Z 16
_cell_length_a 11.588444
_cell_length_b 15.530992
_cell_length_c 17.444906
_cell_angle_alpha 27.791619
_cell_angle_beta 28.242675
_cell_angle_gamma 44.269475
_cell_volume 663.647298
_symmetry_space_group_name_H-M "P -1"
_symmetry_group_IT_number 2
_symmetry_cell_setting 'triclinic'
loop_
_space_group_symop_operation_xyz
x,y,z
-x,-y,-z
loop_
_atom_site_type_symbol
_atom_site_label
_atom_site_fract_x
_atom_site_fract_y
_atom_site_fract_z
Si Si1 0.872553 0.966861 0.192483
Si Si2 0.353106 0.147798 0.435326
Si Si3 0.566636 0.361060 0.356063
Si Si4 0.891594 0.962486 0.497935
Si Si5 0.778475 0.370317 0.918172
Si Si6 0.843140 0.412740 0.581149
Si Si7 0.974669 0.669649 0.792986
Si Si8 0.379621 0.864447 0.952420
O O1 0.838421 0.852161 0.384016
O O2 0.600029 0.851587 0.405364
O O3 0.132251 0.941470 0.025758
O O4 0.896785 0.192987 0.009226
O O5 0.202568 0.066137 0.510742
O O6 0.500000 0.000000 0.500000
O O7 0.563221 0.342782 0.130758
O O8 0.345565 0.457863 0.426129
O O9 0.764345 0.373346 0.300015
O O10 0.744843 0.475547 0.092793
O O11 0.968479 0.778511 0.630659
O O12 0.666120 0.979800 0.675184
O O13 0.071966 0.177917 0.236084
O O14 0.987067 0.560138 0.616918
O O15 0.645912 0.296265 0.972430
O O16 0.000000 0.500000 0.500000
O O17 0.660892 0.213723 0.876259
#
# Coordination Sequence:
#
# PCOD9072891 Si02
#       8
#     2   2   2   2   2   2   2   2
#     4  11  20  32  56  91 110 137 171 237 294 326
#     4   9  19  34  54  84 116 141 172 231 289 331
#     4  11  20  34  52  87 117 138 188 225 276 326
#     4  10  20  39  58  82 110 145 198 215 273 330
#     4   9  18  30  50  78 113 142 170 210 288 334
#     4  10  18  31  51  79 118 137 168 239 281 318
#     4  10  22  34  56  79 110 159 183 230 249 323
#     4  10  18  31  55  82 111 134 178 240 280 310
#
# _framework density 24.109193000000001
#
# number of rings (size 3 to 8) (size 9 to 14) (size 15 to 20)
#    0.000    2.000    3.750    2.625    1.750    0.000 
#    0.000    2.500    0.000    3.000    6.500    4.375 
#    0.000    0.000    0.000    0.000    0.000    0.000 
#
# Total GULP energy -89136.709117 kJ/mol
# GULP energy per Si atom -5571.044320 kJ/mol
# Density = 2.405432 g / cm^3
# Si number density = 24.109193 Si / 1000 Ang^3
#
#
#
# Elastic Constant Matrix: (Units=GPa)
#
#
# Indices 1 2 3 4 5 6 
#
# 1 131.6372 23.0577 42.4420 6.0454 13.0906 -18.8889
# 2 23.0577 49.3295 22.9602 9.1472 -1.7361 -13.9820
# 3 42.4420 22.9602 142.4460 15.9059 25.4108 2.0861
# 4 6.0454 9.1472 15.9059 37.1763 -7.1530 11.4378
# 5 13.0906 -1.7361 25.4108 -7.1530 36.8406 3.1796
# 6 -18.8889 -13.9820 2.0861 11.4378 3.1796 39.2407
#
#
#
# Elastic Compliance Matrix: (Units=1/GPa)
#
#
# Indices 1 2 3 4 5 6 
#
# 1 0.009670 -0.001894 -0.001796 -0.002516 -0.003212 0.005069
# 2 -0.001894 0.027539 -0.003454 -0.008122 0.001801 0.011306
# 3 -0.001796 -0.003454 0.009849 -0.004174 -0.007057 -0.000831
# 4 -0.002516 -0.008122 -0.004174 0.038387 0.012230 -0.016063
# 5 -0.003212 0.001801 -0.007057 0.012230 0.036219 -0.007029
# 6 0.005069 0.011306 -0.000831 -0.016063 -0.007029 0.037248
#
#
# Mechanical properties :
#
#
# Convention : Reuss Voigt Hill
#
# Bulk Modulus (GPa) = 30.51648 55.59248 43.05448
# Shear Modulus (GPa) = 27.15562 38.31505 32.73533
#
# Velocity S-wave (km/s) = 3.35977 3.99084 3.68882
# Velocity P-wave (km/s) = 5.26648 6.65916 6.00334
#
# Compressibility (1/GPa) = 0.03276918
#
# Stress axis : x y z
#
# Youngs Moduli (GPa) = 103.41509 36.31233 101.52952
#
# Poissons Ratio (x) = 0.06876 0.18237
# Poissons Ratio (y) = 0.19584 0.35073
# Poissons Ratio (z) = 0.18576 0.12544
#
# Static dielectric constant tensor:
#      x y z
#    x 2.007710 -0.083470 0.016830 
#    y -0.083470 2.025770 0.005130 
#    z 0.016830 0.005130 2.157650 
# 
# From -- ./inp_files/570329.got.cif
#   From: 2010.05.17/outbox.cif.g08.bks.cpg/sg2_286_cif.got.tgz:570329.got - 2010.06.03 11:33:40.
