data_PCOD9072182
_publ_section_title
;
Structure prediction by ZEFSAII (Michael W. Deem and Ramdas Pophale) SiO2 
 PCOD9072182
Probable space group: P -1
;
_chemical_formula_sum "Si O2"
_cell_formula_units_Z 16
_cell_length_a 13.661517
_cell_length_b 11.621081
_cell_length_c 13.889094
_cell_angle_alpha 99.505670
_cell_angle_beta 149.019484
_cell_angle_gamma 62.174705
_cell_volume 859.655786
_symmetry_space_group_name_H-M "P -1"
_symmetry_group_IT_number 2
_symmetry_cell_setting 'triclinic'
loop_
_space_group_symop_operation_xyz
x,y,z
-x,-y,-z
loop_
_atom_site_type_symbol
_atom_site_label
_atom_site_fract_x
_atom_site_fract_y
_atom_site_fract_z
Si Si1 0.103858 0.773750 0.040242
Si Si2 0.591469 0.227181 0.188394
Si Si3 0.127083 0.238995 0.793716
Si Si4 0.419259 0.546292 0.666927
Si Si5 0.154019 0.953263 0.271364
Si Si6 0.041282 0.007472 0.677174
Si Si7 0.994229 0.639262 0.089495
Si Si8 0.585006 0.653401 0.665436
O O1 0.365063 0.632115 0.193915
O O2 0.127537 0.862323 0.155929
O O3 0.004683 0.702674 0.006372
O O4 0.923922 0.897269 0.825236
O O5 0.524034 0.383376 0.190126
O O6 0.767881 0.155734 0.233962
O O7 0.356828 0.235619 0.972358
O O8 0.775744 0.105099 0.411415
O O9 0.089021 0.249587 0.878104
O O10 0.861861 0.388152 0.549996
O O11 0.145584 0.097436 0.756735
O O12 0.419613 0.628416 0.582288
O O13 0.433571 0.822418 0.523696
O O14 0.996134 0.997203 0.241661
O O15 0.264507 0.475204 0.306842
O O16 0.794206 0.616145 0.909126
#
# Coordination Sequence:
#
# PCOD9072182 Si02
#       8
#     2   2   2   2   2   2   2   2
#     4  10  22  33  52  75 109 140 176 208 262 315
#     4  10  20  34  54  83 105 131 178 222 259 308
#     4  11  17  31  56  79 104 136 172 217 268 301
#     4  10  19  35  53  80 106 136 172 222 257 306
#     4  11  19  36  51  75 107 144 171 212 261 315
#     4  10  20  34  54  79 110 135 170 221 264 303
#     4  10  18  30  52  81 106 134 172 219 253 318
#     4  10  18  31  52  78 107 135 173 214 264 306
#
# _framework density 18.612100000000002
#
# number of rings (size 3 to 8) (size 9 to 14) (size 15 to 20)
#    0.000    1.750    5.000    1.125    0.000    2.500 
#    0.000    0.625    0.000    0.750    0.000    0.000 
#    0.000    0.000    0.000    0.000    0.000    0.000 
#
# Total GULP energy -89120.132030 kJ/mol
# GULP energy per Si atom -5570.008252 kJ/mol
# Density = 1.856974 g / cm^3
# Si number density = 18.612100 Si / 1000 Ang^3
#
#
#
# Elastic Constant Matrix: (Units=GPa)
#
#
# Indices 1 2 3 4 5 6 
#
# 1 51.9192 32.7954 27.6059 -14.3388 6.9749 -16.4361
# 2 32.7954 78.2447 34.9551 -6.9908 0.3069 -14.3378
# 3 27.6059 34.9551 80.8504 -5.8701 17.7882 3.9258
# 4 -14.3388 -6.9908 -5.8701 38.0025 8.4142 1.5124
# 5 6.9749 0.3069 17.7882 8.4142 24.3096 0.8443
# 6 -16.4361 -14.3378 3.9258 1.5124 0.8443 29.6292
#
#
#
# Elastic Compliance Matrix: (Units=1/GPa)
#
#
# Indices 1 2 3 4 5 6 
#
# 1 0.039987 -0.008904 -0.007083 0.014222 -0.011740 0.018420
# 2 -0.008904 0.021319 -0.008841 -0.003193 0.009637 0.006437
# 3 -0.007083 -0.008841 0.022680 0.002984 -0.015105 -0.010934
# 4 0.014222 -0.003193 0.002984 0.035503 -0.018675 0.004668
# 5 -0.011740 0.009637 -0.015105 -0.018675 0.061923 -0.000659
# 6 0.018420 0.006437 -0.010934 0.004668 -0.000659 0.048313
#
#
# Mechanical properties :
#
#
# Convention : Reuss Voigt Hill
#
# Bulk Modulus (GPa) = 29.12886 44.63634 36.88260
# Shear Modulus (GPa) = 17.19255 26.09878 21.64567
#
# Velocity S-wave (km/s) = 3.04259 3.74872 3.41396
# Velocity P-wave (km/s) = 5.29411 6.54001 5.94976
#
# Compressibility (1/GPa) = 0.03433021
#
# Stress axis : x y z
#
# Youngs Moduli (GPa) = 25.00802 46.90738 44.09106
#
# Poissons Ratio (x) = 0.41766 0.31228
# Poissons Ratio (y) = 0.22267 0.38983
# Poissons Ratio (z) = 0.17712 0.41473
#
# Static dielectric constant tensor:
#      x y z
#    x 1.650800 -0.044920 0.012380 
#    y -0.044920 1.692620 0.002530 
#    z 0.012380 0.002530 1.685370 
# 
# From -- ./inp_files/268209.got.cif
#   From: 2010.05.17/outbox.cif.g08.bks.cpg/sg2_135_cif.got.tgz:268209.got - 2010.06.03 11:33:40.
