data_PCOD9072945
_publ_section_title
;
Structure prediction by ZEFSAII (Michael W. Deem and Ramdas Pophale) SiO2 
 PCOD9072945
Probable space group: P -1
;
_chemical_formula_sum "Si O2"
_cell_formula_units_Z 16
_cell_length_a 9.000000
_cell_length_b 12.000000
_cell_length_c 15.000000
_cell_angle_alpha 140.000000
_cell_angle_beta 70.000000
_cell_angle_gamma 130.000000
_cell_volume 759.581896
_symmetry_space_group_name_H-M "P -1"
_symmetry_group_IT_number 2
_symmetry_cell_setting 'triclinic'
loop_
_space_group_symop_operation_xyz
x,y,z
-x,-y,-z
loop_
_atom_site_type_symbol
_atom_site_label
_atom_site_fract_x
_atom_site_fract_y
_atom_site_fract_z
Si Si1 0.423885 0.632816 0.121213
Si Si2 0.770922 0.409913 0.491087
Si Si3 0.991176 0.716291 0.098907
Si Si4 0.290632 0.973394 0.811023
Si Si5 0.483364 0.189800 0.089948
Si Si6 0.934999 0.542068 0.195440
Si Si7 0.690264 0.266070 0.625681
Si Si8 0.126067 0.148447 0.239759
O O1 0.597338 0.887256 0.216194
O O2 0.368787 0.616070 0.225050
O O3 0.500000 0.500000 0.000000
O O4 0.230025 0.512911 0.023096
O O5 0.710616 0.340331 0.564692
O O6 0.771252 0.611383 0.589954
O O7 0.000000 0.500000 0.500000
O O8 0.680251 0.214333 0.317154
O O9 0.016862 0.709606 0.195808
O O10 0.026080 0.937232 0.196608
O O11 0.110160 0.674363 0.978761
O O12 0.409898 0.131943 0.967024
O O13 0.061451 0.895176 0.806007
O O14 0.706104 0.432453 0.205056
O O15 0.302364 0.169029 0.163514
O O16 0.500000 0.000000 0.000000
O O17 0.102132 0.651854 0.310235
O O18 0.500000 0.000000 0.500000
#
# Coordination Sequence:
#
# PCOD9072945 Si02
#       8
#     2   2   2   2   2   2   2   2
#     4  11  21  36  69 103 130 169 230 293 335 399
#     4  10  25  44  67  98 143 185 233 280 344 409
#     4  10  20  39  63 103 134 177 227 282 347 406
#     4  11  23  43  69  99 140 186 231 285 344 410
#     4  12  25  40  69 106 140 178 228 297 354 399
#     4  10  23  39  67  98 140 176 224 286 353 406
#     4  11  24  44  71 100 132 184 238 280 347 421
#     4  11  24  42  69 105 138 185 236 279 339 428
#
# _framework density 21.064219999999999
#
# number of rings (size 3 to 8) (size 9 to 14) (size 15 to 20)
#    0.000    1.250    5.000    0.375    5.250    0.000 
#    0.000    0.625    0.000    7.500    0.000    0.000 
#    0.000    0.000    0.000    0.000    0.000    0.000 
#
# Total GULP energy -89106.012443 kJ/mol
# GULP energy per Si atom -5569.125778 kJ/mol
# Density = 2.101628 g / cm^3
# Si number density = 21.064220 Si / 1000 Ang^3
#
#
#
# Elastic Constant Matrix: (Units=GPa)
#
#
# Indices 1 2 3 4 5 6 
#
# 1 85.1240 31.5765 34.7067 -0.8575 -5.1415 12.8090
# 2 31.5765 76.7338 23.8444 10.5903 -11.5383 15.5737
# 3 34.7067 23.8444 90.2081 12.0263 -13.8231 2.9136
# 4 -0.8575 10.5903 12.0263 28.3882 -1.3411 -6.8069
# 5 -5.1415 -11.5383 -13.8231 -1.3411 39.6320 4.7926
# 6 12.8090 15.5737 2.9136 -6.8069 4.7926 35.2958
#
#
#
# Elastic Compliance Matrix: (Units=1/GPa)
#
#
# Indices 1 2 3 4 5 6 
#
# 1 0.016255 -0.005259 -0.005498 0.004214 -0.000933 -0.002185
# 2 -0.005259 0.019321 -0.000762 -0.008949 0.005465 -0.009021
# 3 -0.005498 -0.000762 0.014873 -0.006142 0.004122 -0.000640
# 4 0.004214 -0.008949 -0.006142 0.043967 -0.004160 0.011970
# 5 -0.000933 0.005465 0.004122 -0.004160 0.028862 -0.007134
# 6 -0.002185 -0.009021 -0.000640 0.011970 -0.007134 0.036436
#
#
# Mechanical properties :
#
#
# Convention : Reuss Voigt Hill
#
# Bulk Modulus (GPa) = 36.48122 48.03567 42.25845
# Shear Modulus (GPa) = 26.05685 31.45909 28.75797
#
# Velocity S-wave (km/s) = 3.52094 3.86876 3.69894
# Velocity P-wave (km/s) = 5.82117 6.54295 6.19259
#
# Compressibility (1/GPa) = 0.02741136
#
# Stress axis : x y z
#
# Youngs Moduli (GPa) = 61.51973 51.75812 67.23460
#
# Poissons Ratio (x) = 0.27219 0.36966
# Poissons Ratio (y) = 0.32353 0.05122
# Poissons Ratio (z) = 0.33824 0.03943
#
# Static dielectric constant tensor:
#      x y z
#    x 2.023570 0.083610 -0.149650 
#    y 0.083610 1.738120 -0.189230 
#    z -0.149650 -0.189230 1.613790 
# 
# From -- ./inp_files/500972.got.cif
#   From: 2010.05.17/outbox.ucp.g08.bks.cvg/sg2_251_cif.got.tgz:500972.got - 2010.06.11 11:32:03.
