data_PCOD9072554
_publ_section_title
;
Structure prediction by ZEFSAII (Michael W. Deem and Ramdas Pophale) SiO2 
 PCOD9072554
Probable space group: P -1
;
_chemical_formula_sum "Si O2"
_cell_formula_units_Z 16
_cell_length_a 9.000000
_cell_length_b 15.000000
_cell_length_c 27.000000
_cell_angle_alpha 160.000000
_cell_angle_beta 140.000000
_cell_angle_gamma 50.000000
_cell_volume 750.501489
_symmetry_space_group_name_H-M "P -1"
_symmetry_group_IT_number 2
_symmetry_cell_setting 'triclinic'
loop_
_space_group_symop_operation_xyz
x,y,z
-x,-y,-z
loop_
_atom_site_type_symbol
_atom_site_label
_atom_site_fract_x
_atom_site_fract_y
_atom_site_fract_z
Si Si1 0.407342 0.287010 0.255215
Si Si2 0.529786 0.844151 0.604953
Si Si3 0.054859 0.318090 0.098476
Si Si4 0.408901 0.726754 0.981805
Si Si5 0.825845 0.486954 0.994523
Si Si6 0.785785 0.137638 0.630428
Si Si7 0.153857 0.238027 0.271955
Si Si8 0.974506 0.649168 0.392491
O O1 0.570424 0.609833 0.457566
O O2 0.196115 0.223896 0.128215
O O3 0.257312 0.252374 0.250235
O O4 0.523483 0.048682 0.162468
O O5 0.619992 0.746376 0.627598
O O6 0.237892 0.787434 0.504064
O O7 0.680220 0.164168 0.801531
O O8 0.200650 0.635221 0.289143
O O9 0.781682 0.299442 0.035309
O O10 0.030625 0.074450 0.925802
O O11 0.618415 0.613811 0.993146
O O12 0.231251 0.553247 0.802083
O O13 0.000000 0.500000 0.000000
O O14 0.012363 0.668842 0.178540
O O15 0.500000 0.000000 0.500000
O O16 0.880750 0.892858 0.511599
O O17 0.028167 0.471200 0.359016
#
# Coordination Sequence:
#
# PCOD9072554 Si02
#       8
#     2   2   2   2   2   2   2   2
#     4  10  20  37  67 103 130 163 197 264 323 377
#     4  11  23  39  70  99 129 166 209 263 317 376
#     4  11  20  41  70  97 130 163 212 255 321 377
#     4  11  22  40  68 100 132 162 208 262 314 382
#     4  12  29  47  61  88 131 174 218 265 312 375
#     4  12  29  45  64  88 128 176 218 263 313 377
#     4  10  19  39  63 103 133 156 204 268 319 371
#     4  11  22  40  68 101 129 165 207 261 321 374
#
# _framework density 21.319078000000001
#
# number of rings (size 3 to 8) (size 9 to 14) (size 15 to 20)
#    0.000    1.000    5.000    3.750    8.750    2.000 
#    0.000    2.500    0.000    0.000    0.000    0.000 
#    0.000    0.000    0.000    0.000    0.000    0.000 
#
# Total GULP energy -89153.079624 kJ/mol
# GULP energy per Si atom -5572.067477 kJ/mol
# Density = 2.127056 g / cm^3
# Si number density = 21.319078 Si / 1000 Ang^3
#
#
#
# Elastic Constant Matrix: (Units=GPa)
#
#
# Indices 1 2 3 4 5 6 
#
# 1 21.3538 18.2302 43.2916 21.4925 19.8348 8.0867
# 2 18.2302 133.5515 85.3615 25.7204 25.9468 13.6640
# 3 43.2916 85.3615 168.3238 31.8760 -5.4098 -31.9766
# 4 21.4925 25.7204 31.8760 50.7075 -2.4675 -11.9100
# 5 19.8348 25.9468 -5.4098 -2.4675 10.4036 -26.2140
# 6 8.0867 13.6640 -31.9766 -11.9100 -26.2140 -21.1260
#
#
#
# Elastic Compliance Matrix: (Units=1/GPa)
#
#
# Indices 1 2 3 4 5 6 
#
# 1 0.062620 -0.006981 -0.002981 -0.012194 -0.006957 0.039473
# 2 -0.006981 0.008921 -0.002016 0.000773 0.001113 0.004333
# 3 -0.002981 -0.002016 0.007086 -0.003911 -0.003432 -0.006707
# 4 -0.012194 0.000773 -0.003911 0.024438 -0.001264 -0.010456
# 5 -0.006957 0.001113 -0.003432 -0.001264 0.027750 -0.030469
# 6 0.039473 0.004333 -0.006707 -0.010456 -0.030469 0.024432
#
#
# Mechanical properties :
#
#
# Convention : Reuss Voigt Hill
#
# Bulk Modulus (GPa) = 18.29131 68.55507 43.42319
# Shear Modulus (GPa) = 25.32590 19.75341 22.53965
#
# Velocity S-wave (km/s) = 3.45040 3.04725 3.25507
# Velocity P-wave (km/s) = 4.94692 6.67888 5.87705
#
# Compressibility (1/GPa) = 0.05467078
#
# Stress axis : x y z
#
# Youngs Moduli (GPa) = 15.96942 112.09539 141.12136
#
# Poissons Ratio (x) = 0.78257 0.42062
# Poissons Ratio (y) = 0.11149 0.28452
# Poissons Ratio (z) = 0.04760 0.22600
#
# Static dielectric constant tensor:
#      x y z
#    x 1.767440 0.060840 -0.039750 
#    y 0.060840 1.940040 -0.081380 
#    z -0.039750 -0.081380 1.986560 
# 
# From -- ./inp_files/262061.got.cif
#   From: 2010.05.17/outbox.ucp.g08.bks.cvg/sg2_132_cif.got.tgz:262061.got - 2010.06.11 11:32:03.
