data_PCOD9072616
_publ_section_title
;
Structure prediction by ZEFSAII (Michael W. Deem and Ramdas Pophale) SiO2 
 PCOD9072616
Probable space group: P -1
;
_chemical_formula_sum "Si O2"
_cell_formula_units_Z 16
_cell_length_a 9.485474
_cell_length_b 16.468321
_cell_length_c 12.055868
_cell_angle_alpha 137.255521
_cell_angle_beta 75.230311
_cell_angle_gamma 135.280035
_cell_volume 745.860936
_symmetry_space_group_name_H-M "P -1"
_symmetry_group_IT_number 2
_symmetry_cell_setting 'triclinic'
loop_
_space_group_symop_operation_xyz
x,y,z
-x,-y,-z
loop_
_atom_site_type_symbol
_atom_site_label
_atom_site_fract_x
_atom_site_fract_y
_atom_site_fract_z
Si Si1 0.758884 0.575060 0.647565
Si Si2 0.061507 0.886832 0.097616
Si Si3 0.897674 0.271172 0.886566
Si Si4 0.228901 0.231225 0.333949
Si Si5 0.506454 0.750897 0.889900
Si Si6 0.329206 0.925985 0.702162
Si Si7 0.367043 0.768340 0.718886
Si Si8 0.976091 0.596814 0.255638
O O1 0.469060 0.408356 0.536736
O O2 0.842707 0.691533 0.632079
O O3 0.765686 0.436129 0.505889
O O4 0.900909 0.726065 0.870989
O O5 0.004913 0.777334 0.110840
O O6 0.055130 0.027001 0.229388
O O7 0.346119 0.048354 0.180470
O O8 0.969911 0.315674 0.788411
O O9 0.606500 0.080958 0.765108
O O10 0.987710 0.459117 0.103915
O O11 0.328244 0.220915 0.195273
O O12 0.365585 0.751310 0.834541
O O13 0.294314 0.549215 0.796931
O O14 0.662021 0.929533 0.122473
O O15 0.275439 0.821419 0.723484
O O16 0.160406 0.768410 0.480868
#
# Coordination Sequence:
#
# PCOD9072616 Si02
#       8
#     2   2   2   2   2   2   2   2
#     4   9  16  30  50  71  92 120 152 186 232 269
#     4   9  16  29  48  68  90 117 148 191 233 261
#     4   9  19  32  46  68  92 116 162 199 216 264
#     4   9  19  31  46  73  97 116 152 190 223 275
#     4   9  19  30  42  68  99 123 148 183 226 280
#     4  10  18  31  48  68  95 124 151 185 231 272
#     4   9  19  30  45  73  98 117 151 190 223 275
#     4  10  19  31  47  65  91 129 156 185 229 268
#
# _framework density 21.451720000000002
#
# number of rings (size 3 to 8) (size 9 to 14) (size 15 to 20)
#    0.000    3.000    0.000    1.875    0.000    5.500 
#    0.000    0.000    0.000    0.750    0.000   24.500 
#    0.000    0.000    0.000    0.000    0.000    0.000 
#
# Total GULP energy -89338.719313 kJ/mol
# GULP energy per Si atom -5583.669957 kJ/mol
# Density = 2.140289 g / cm^3
# Si number density = 21.451720 Si / 1000 Ang^3
#
#
#
# Elastic Constant Matrix: (Units=GPa)
#
#
# Indices 1 2 3 4 5 6 
#
# 1 80.7382 31.5239 26.7230 4.3231 -4.0703 -25.6298
# 2 31.5239 116.5693 34.7316 2.6281 -0.1019 -22.1810
# 3 26.7230 34.7316 173.2756 17.6943 3.3692 -15.1221
# 4 4.3231 2.6281 17.6943 31.2328 -1.5625 -5.2476
# 5 -4.0703 -0.1019 3.3692 -1.5625 23.7109 3.5570
# 6 -25.6298 -22.1810 -15.1221 -5.2476 3.5570 31.1820
#
#
#
# Elastic Compliance Matrix: (Units=1/GPa)
#
#
# Indices 1 2 3 4 5 6 
#
# 1 0.017552 -0.002028 -0.001318 0.000623 0.001389 0.012292
# 2 -0.002028 0.010559 -0.001422 0.001068 -0.000845 0.005431
# 3 -0.001318 -0.001422 0.006707 -0.003448 -0.001525 0.000751
# 4 0.000623 0.001068 -0.003448 0.034776 0.002111 0.005211
# 5 0.001389 -0.000845 -0.001525 0.002111 0.043486 -0.004804
# 6 0.012292 0.005431 0.000751 0.005211 -0.004804 0.047825
#
#
# Mechanical properties :
#
#
# Convention : Reuss Voigt Hill
#
# Bulk Modulus (GPa) = 39.55519 61.83779 50.69649
# Shear Modulus (GPa) = 27.95324 35.73210 31.84267
#
# Velocity S-wave (km/s) = 3.61373 4.08573 3.85696
# Velocity P-wave (km/s) = 5.99093 7.15169 6.59689
#
# Compressibility (1/GPa) = 0.02528113
#
# Stress axis : x y z
#
# Youngs Moduli (GPa) = 56.97238 94.70256 149.10137
#
# Poissons Ratio (x) = 0.19204 0.19657
# Poissons Ratio (y) = 0.11553 0.21209
# Poissons Ratio (z) = 0.07511 0.13471
#
# Static dielectric constant tensor:
#      x y z
#    x 1.900550 0.011950 -0.006350 
#    y 0.011950 1.771660 0.046340 
#    z -0.006350 0.046340 1.783380 
# 
# From -- ./inp_files/436882.got.cif
#   From: 2010.05.17/outbox.cif.g08.bks.cpg/sg2_219_cif.got.tgz:436882.got - 2010.06.03 11:33:40.
