data_PCOD9072486
_publ_section_title
;
Structure prediction by ZEFSAII (Michael W. Deem and Ramdas Pophale) SiO2 
 PCOD9072486
Probable space group: P -1
;
_chemical_formula_sum "Si O2"
_cell_formula_units_Z 16
_cell_length_a 12.000000
_cell_length_b 9.000000
_cell_length_c 18.000000
_cell_angle_alpha 100.000000
_cell_angle_beta 130.000000
_cell_angle_gamma 40.000000
_cell_volume 729.599496
_symmetry_space_group_name_H-M "P -1"
_symmetry_group_IT_number 2
_symmetry_cell_setting 'triclinic'
loop_
_space_group_symop_operation_xyz
x,y,z
-x,-y,-z
loop_
_atom_site_type_symbol
_atom_site_label
_atom_site_fract_x
_atom_site_fract_y
_atom_site_fract_z
Si Si1 0.319718 0.419875 0.015260
Si Si2 0.273503 0.177587 0.051973
Si Si3 0.125107 0.141046 0.471515
Si Si4 0.697645 0.169743 0.015769
Si Si5 0.849818 0.714632 0.353100
Si Si6 0.807361 0.045656 0.781552
Si Si7 0.419833 0.559818 0.781267
Si Si8 0.453539 0.221275 0.505767
O O1 0.343322 0.221912 0.016921
O O2 0.478873 0.328098 0.001108
O O3 0.479340 0.360362 0.148034
O O4 0.983502 0.771257 0.886866
O O5 0.555805 0.935203 0.204125
O O6 0.000000 0.500000 0.000000
O O7 0.176621 0.099845 0.981374
O O8 0.194605 0.125212 0.584879
O O9 0.974178 0.437209 0.407728
O O10 0.903234 0.204940 0.360162
O O11 0.409901 0.847441 0.519063
O O12 0.529247 0.383920 0.889787
O O13 0.942858 0.060071 0.143160
O O14 0.109895 0.551745 0.400750
O O15 0.601157 0.327174 0.771027
O O16 0.636194 0.122488 0.646420
O O17 0.500000 0.000000 0.500000
#
# Coordination Sequence:
#
# PCOD9072486 Si02
#       8
#     2   2   2   2   2   2   2   2
#     4  11  24  37  61  94 127 168 207 261 318 376
#     4  12  25  43  61  89 131 170 206 255 323 381
#     4  10  19  37  65  92 122 160 209 265 310 363
#     4  11  22  40  61  92 125 165 215 262 307 376
#     4  10  22  39  60  92 124 164 208 257 312 375
#     4  11  21  38  67  96 121 163 214 264 317 367
#     4  11  19  38  65  94 125 161 214 264 313 370
#     4  10  21  36  63  96 125 156 209 266 311 367
#
# _framework density 21.929839999999999
#
# number of rings (size 3 to 8) (size 9 to 14) (size 15 to 20)
#    0.000    1.250    2.500    6.375    1.750    0.000 
#    2.250    0.625    0.000    1.500    0.000    0.000 
#    0.000    0.000    0.000    0.000    0.000    0.000 
#
# Total GULP energy -89275.761508 kJ/mol
# GULP energy per Si atom -5579.735094 kJ/mol
# Density = 2.187993 g / cm^3
# Si number density = 21.929840 Si / 1000 Ang^3
#
#
#
# Elastic Constant Matrix: (Units=GPa)
#
#
# Indices 1 2 3 4 5 6 
#
# 1 45.0128 0.0329 11.0206 -7.9318 -4.2407 -15.2164
# 2 0.0329 88.2768 28.6592 16.7525 -12.8412 -17.4086
# 3 11.0206 28.6592 60.9615 3.8510 36.6906 0.5045
# 4 -7.9318 16.7525 3.8510 28.3592 -0.2931 9.8521
# 5 -4.2407 -12.8412 36.6906 -0.2931 2.9502 -3.0721
# 6 -15.2164 -17.4086 0.5045 9.8521 -3.0721 42.4286
#
#
#
# Elastic Compliance Matrix: (Units=1/GPa)
#
#
# Indices 1 2 3 4 5 6 
#
# 1 0.023189 -0.002655 0.003081 0.005761 -0.010685 0.005079
# 2 -0.002655 0.010305 0.004730 -0.009116 -0.014214 0.004307
# 3 0.003081 0.004730 0.000687 -0.003703 0.021806 0.005477
# 4 0.005761 -0.009116 -0.003703 0.047020 0.006773 -0.012058
# 5 -0.010685 -0.014214 0.021806 0.006773 -0.022449 -0.013122
# 6 0.005079 0.004307 0.005477 -0.012058 -0.013122 0.028942
#
#
# Mechanical properties :
#
#
# Convention : Reuss Voigt Hill
#
# Bulk Modulus (GPa) = 22.47461 30.40849 26.44155
# Shear Modulus (GPa) = 54.22272 25.05018 39.63645
#
# Velocity S-wave (km/s) = 4.97787 3.38344 4.25599
# Velocity P-wave (km/s) = 6.58101 5.39999 6.01953
#
# Compressibility (1/GPa) = 0.04449465
#
# Stress axis : x y z
#
# Youngs Moduli (GPa) = 43.12429 97.04132 1454.86920
#
# Poissons Ratio (x) = 0.25765 -4.48302
# Poissons Ratio (y) = 0.11450 -6.88220
# Poissons Ratio (z) = -0.13288 -0.45905
#
# Static dielectric constant tensor:
#      x y z
#    x 1.975690 0.023650 0.016000 
#    y 0.023650 1.865950 -0.056350 
#    z 0.016000 -0.056350 1.779440 
# 
# From -- ./inp_files/451886.got.cif
#   From: 2010.05.17/outbox.ucp.g08.bks.cvg/sg2_226_cif.got.tgz:451886.got - 2010.06.11 11:32:03.
