data_PCOD9072606
_publ_section_title
;
Structure prediction by ZEFSAII (Michael W. Deem and Ramdas Pophale) SiO2 
 PCOD9072606
Probable space group: P -1
;
_chemical_formula_sum "Si O2"
_cell_formula_units_Z 16
_cell_length_a 15.000000
_cell_length_b 9.000000
_cell_length_c 15.000000
_cell_angle_alpha 130.000000
_cell_angle_beta 40.000000
_cell_angle_gamma 100.000000
_cell_volume 759.999475
_symmetry_space_group_name_H-M "P -1"
_symmetry_group_IT_number 2
_symmetry_cell_setting 'triclinic'
loop_
_space_group_symop_operation_xyz
x,y,z
-x,-y,-z
loop_
_atom_site_type_symbol
_atom_site_label
_atom_site_fract_x
_atom_site_fract_y
_atom_site_fract_z
Si Si1 0.792313 0.968073 0.864471
Si Si2 0.628464 0.705132 0.936526
Si Si3 0.235103 0.262797 0.469423
Si Si4 0.252474 0.692724 0.814337
Si Si5 0.594295 0.552705 0.713778
Si Si6 0.035122 0.773421 0.440460
Si Si7 0.970122 0.640503 0.982247
Si Si8 0.624822 0.199820 0.415801
O O1 0.747669 0.785330 0.847895
O O2 0.968913 0.847781 0.623008
O O3 0.776583 0.098945 0.018664
O O4 0.619028 0.204860 0.035363
O O5 0.629045 0.566999 0.795759
O O6 0.754305 0.481562 0.825436
O O7 0.426677 0.966539 0.220526
O O8 0.301064 0.390571 0.410779
O O9 0.099330 0.264491 0.512291
O O10 0.109589 0.426989 0.716298
O O11 0.409116 0.404578 0.625323
O O12 0.300242 0.731525 0.695090
O O13 0.060864 0.763408 0.980703
O O14 0.625997 0.314592 0.553034
O O15 0.000000 0.000000 0.500000
O O16 0.000000 0.500000 0.000000
O O17 0.761732 0.887494 0.203246
#
# Coordination Sequence:
#
# PCOD9072606 Si02
#       8
#     2   2   2   2   2   2   2   2
#     4  10  21  41  66  99 127 158 219 265 314 381
#     4  11  23  42  71  93 126 170 209 272 321 364
#     4  11  24  45  64  96 130 163 219 265 313 383
#     4  10  23  42  67  97 127 165 220 271 321 368
#     4  10  19  42  72  96 124 160 219 272 315 365
#     4  12  27  40  61  98 132 172 208 255 322 389
#     4  12  28  43  64  95 134 178 214 255 324 396
#     4  10  23  42  69  97 125 168 217 276 316 371
#
# _framework density 21.052645999999999
#
# number of rings (size 3 to 8) (size 9 to 14) (size 15 to 20)
#    0.000    1.250    3.750    1.500    7.000    1.000 
#    4.500    0.000    0.000    0.000    0.000    0.000 
#    0.000    0.000    0.000    0.000    0.000    0.000 
#
# Total GULP energy -89210.871170 kJ/mol
# GULP energy per Si atom -5575.679448 kJ/mol
# Density = 2.100473 g / cm^3
# Si number density = 21.052646 Si / 1000 Ang^3
#
#
#
# Elastic Constant Matrix: (Units=GPa)
#
#
# Indices 1 2 3 4 5 6 
#
# 1 68.4249 0.5416 26.0417 11.2083 0.0604 -2.7455
# 2 0.5416 21.6539 19.1288 16.4492 5.6762 -20.4267
# 3 26.0417 19.1288 123.1221 25.4496 -1.3180 -19.6719
# 4 11.2083 16.4492 25.4496 31.3765 -6.6531 -8.6999
# 5 0.0604 5.6762 -1.3180 -6.6531 21.8538 4.7035
# 6 -2.7455 -20.4267 -19.6719 -8.6999 4.7035 20.6353
#
#
#
# Elastic Compliance Matrix: (Units=1/GPa)
#
#
# Indices 1 2 3 4 5 6 
#
# 1 0.015634 -0.009007 -0.003658 -0.000100 0.004497 -0.011391
# 2 -0.009007 -0.113812 -0.009191 0.052978 0.070188 -0.116285
# 3 -0.003658 -0.009191 0.010663 -0.002244 0.002562 -0.000950
# 4 -0.000100 0.052978 -0.002244 0.018864 -0.021755 0.063203
# 5 0.004497 0.070188 0.002562 -0.021755 0.007796 0.061570
# 6 -0.011391 -0.116285 -0.000950 0.063203 0.061570 -0.056457
#
#
# Mechanical properties :
#
#
# Convention : Reuss Voigt Hill
#
# Bulk Modulus (GPa) = -7.62031 33.84724 13.11346
# Shear Modulus (GPa) = -42.61072 25.93903 -8.33584
#
# Velocity S-wave (km/s) = -4.50378 3.51394 -1.99201
# Velocity P-wave (km/s) = 5.53831 5.70754 0.97549
#
# Compressibility (1/GPa) = -0.13122832
#
# Stress axis : x y z
#
# Youngs Moduli (GPa) = 63.96477 -8.78645 93.77977
#
# Poissons Ratio (x) = -0.07914 0.34309
# Poissons Ratio (y) = 0.57612 0.86197
# Poissons Ratio (z) = 0.23401 -0.08076
#
# Static dielectric constant tensor:
#      x y z
#    x 1.863070 0.050460 0.030400 
#    y 0.050460 1.849850 0.048060 
#    z 0.030400 0.048060 1.814810 
# 
# From -- ./inp_files/308901.got.cif
#   From: 2010.05.17/outbox.ucp.g08.bks.cvg/sg2_155_cif.got.tgz:308901.got - 2010.06.11 11:32:03.
