data_PCOD9072685
_publ_section_title
;
Structure prediction by ZEFSAII (Michael W. Deem and Ramdas Pophale) SiO2 
 PCOD9072685
Probable space group: P -1
;
_chemical_formula_sum "Si O2"
_cell_formula_units_Z 16
_cell_length_a 6.000000
_cell_length_b 12.000000
_cell_length_c 12.000000
_cell_angle_alpha 80.000000
_cell_angle_beta 60.000000
_cell_angle_gamma 80.000000
_cell_volume 733.050061
_symmetry_space_group_name_H-M "P -1"
_symmetry_group_IT_number 2
_symmetry_cell_setting 'triclinic'
loop_
_space_group_symop_operation_xyz
x,y,z
-x,-y,-z
loop_
_atom_site_type_symbol
_atom_site_label
_atom_site_fract_x
_atom_site_fract_y
_atom_site_fract_z
Si Si1 0.101582 0.190955 0.951971
Si Si2 0.237714 0.925064 0.641921
Si Si3 0.632463 0.040264 0.144883
Si Si4 0.825767 0.768719 0.826456
Si Si5 0.905945 0.648831 0.277458
Si Si6 0.218675 0.153256 0.550303
Si Si7 0.868478 0.651136 0.620339
Si Si8 0.344654 0.554354 0.371131
O O1 0.028316 0.289677 0.863995
O O2 0.332066 0.090494 0.883352
O O3 0.166189 0.251292 0.040511
O O4 0.864302 0.113475 0.035215
O O5 0.339513 0.963224 0.729084
O O6 0.479427 0.887018 0.512208
O O7 0.092656 0.816465 0.719474
O O8 0.078164 0.039057 0.615729
O O9 0.381117 0.121516 0.159189
O O10 0.806015 0.664434 0.764664
O O11 0.833987 0.755605 0.356871
O O12 0.635336 0.590082 0.321399
O O13 0.160882 0.590910 0.296735
O O14 0.159120 0.219981 0.439663
O O15 0.662467 0.581044 0.618690
O O16 0.149834 0.597370 0.513942
#
# Coordination Sequence:
#
# PCOD9072685 Si02
#       8
#     2   2   2   2   2   2   2   2
#     4  10  23  38  61  88 125 169 208 252 313 377
#     4  10  20  35  56  96 127 161 203 251 316 385
#     4  10  20  39  56  89 127 164 208 250 303 390
#     4  11  22  37  63  88 126 169 207 257 310 383
#     4  11  23  43  66  94 126 169 210 267 319 371
#     4  10  20  37  61  91 132 159 204 259 317 387
#     4  10  22  42  64  93 120 167 212 264 324 369
#     4  10  25  43  69  94 125 162 218 273 318 373
#
# _framework density 21.826612999999998
#
# number of rings (size 3 to 8) (size 9 to 14) (size 15 to 20)
#    0.000    1.750    2.500    1.125    1.750    8.000 
#    0.000    1.250    0.000    0.000    0.000    0.000 
#    0.000    0.000    0.000    0.000    0.000    0.000 
#
# Total GULP energy -89078.445364 kJ/mol
# GULP energy per Si atom -5567.402835 kJ/mol
# Density = 2.177693 g / cm^3
# Si number density = 21.826613 Si / 1000 Ang^3
#
#
#
# Elastic Constant Matrix: (Units=GPa)
#
#
# Indices 1 2 3 4 5 6 
#
# 1 56.1304 -1.4795 13.3230 0.6028 17.8718 -8.2028
# 2 -1.4795 46.8412 12.1223 5.8460 18.4657 -4.1857
# 3 13.3230 12.1223 57.0702 -4.4175 20.5356 -8.6269
# 4 0.6028 5.8460 -4.4175 26.7987 1.3201 12.1715
# 5 17.8718 18.4657 20.5356 1.3201 31.9710 0.0762
# 6 -8.2028 -4.1857 -8.6269 12.1715 0.0762 27.5351
#
#
#
# Elastic Compliance Matrix: (Units=1/GPa)
#
#
# Indices 1 2 3 4 5 6 
#
# 1 0.027020 0.011552 0.000512 -0.008162 -0.021801 0.013634
# 2 0.011552 0.035010 0.000663 -0.013245 -0.026593 0.014899
# 3 0.000512 0.000663 0.024377 0.001333 -0.016399 0.007347
# 4 -0.008162 -0.013245 0.001333 0.052541 0.009251 -0.027278
# 5 -0.021801 -0.026593 -0.016399 0.009251 0.069024 -0.019955
# 6 0.013634 0.014899 0.007347 -0.027278 -0.019955 0.057058
#
#
# Mechanical properties :
#
#
# Convention : Reuss Voigt Hill
#
# Bulk Modulus (GPa) = 8.93968 23.10814 16.02391
# Shear Modulus (GPa) = 18.05951 26.33270 22.19610
#
# Velocity S-wave (km/s) = 2.87959 3.47717 3.19239
# Velocity P-wave (km/s) = 3.89368 5.17021 4.57667
#
# Compressibility (1/GPa) = 0.11186078
#
# Stress axis : x y z
#
# Youngs Moduli (GPa) = 37.00949 28.56335 41.02286
#
# Poissons Ratio (x) = -0.32997 -0.02101
# Poissons Ratio (y) = -0.42754 -0.02718
# Poissons Ratio (z) = -0.01896 -0.01893
#
# Static dielectric constant tensor:
#      x y z
#    x 1.840680 -0.044000 0.002100 
#    y -0.044000 1.862040 -0.052720 
#    z 0.002100 -0.052720 1.913790 
# 
# From -- ./inp_files/66262.got.cif
#   From: 2010.05.17/outbox.ucp.g08.bks.cvg/sg2_34_cif.got.tgz:66262.got - 2010.06.11 11:32:03.
