data_PCOD9072215
_publ_section_title
;
Structure prediction by ZEFSAII (Michael W. Deem and Ramdas Pophale) SiO2 
 PCOD9072215
Probable space group: P -1
;
_chemical_formula_sum "Si O2"
_cell_formula_units_Z 14
_cell_length_a 7.838950
_cell_length_b 5.541941
_cell_length_c 21.251091
_cell_angle_alpha 97.291238
_cell_angle_beta 48.376048
_cell_angle_gamma 123.410203
_cell_volume 532.208495
_symmetry_space_group_name_H-M "P -1"
_symmetry_group_IT_number 2
_symmetry_cell_setting 'triclinic'
loop_
_space_group_symop_operation_xyz
x,y,z
-x,-y,-z
loop_
_atom_site_type_symbol
_atom_site_label
_atom_site_fract_x
_atom_site_fract_y
_atom_site_fract_z
Si Si1 0.747343 0.848368 0.639089
Si Si2 0.692511 0.262687 0.156406
Si Si3 0.834082 0.398181 0.602877
Si Si4 0.631086 0.487650 0.401896
Si Si5 0.821091 0.687451 0.897757
Si Si6 0.770467 0.792259 0.103937
Si Si7 0.823220 0.085961 0.303164
O O1 0.472594 0.720446 0.745685
O O2 0.894411 0.704574 0.623630
O O3 0.640605 0.729079 0.589832
O O4 0.920957 0.215381 0.611913
O O5 0.018692 0.419642 0.105730
O O6 0.576935 0.910015 0.159042
O O7 0.665098 0.444786 0.114673
O O8 0.000000 0.500000 0.500000
O O9 0.482211 0.146004 0.670261
O O10 0.500000 0.500000 0.500000
O O11 0.766112 0.304687 0.359856
O O12 0.821894 0.832294 0.334114
O O13 0.023854 0.053328 0.879487
O O14 0.902742 0.707536 0.805205
O O15 0.500000 0.500000 0.000000
O O16 0.000000 0.000000 0.000000
#
# Coordination Sequence:
#
# PCOD9072215 Si02
#       7
#     2   2   2   2   2   2   2
#     4  10  18  33  52  83 106 138 190 227 278 342
#     4  10  19  36  59  84 112 153 192 238 290 343
#     4  10  18  30  53  77 104 135 175 232 280 320
#     4  10  18  32  56  77 107 149 178 227 288 335
#     4  10  22  37  63  88 116 158 199 240 289 345
#     4  10  20  35  57  84 111 150 195 238 289 342
#     4  10  20  36  53  84 111 141 196 230 278 346
#
# _framework density 26.305478999999998
#
# number of rings (size 3 to 8) (size 9 to 14) (size 15 to 20)
#    0.857    1.143    2.857    3.857    0.000    0.571 
#    0.000    0.000    0.000   27.429    0.000    0.000 
#    0.000    0.000    0.000    0.000    0.000    0.000 
#
# Total GULP energy -78162.188172 kJ/mol
# GULP energy per Si atom -5583.013441 kJ/mol
# Density = 2.624561 g / cm^3
# Si number density = 26.305479 Si / 1000 Ang^3
#
#
#
# Elastic Constant Matrix: (Units=GPa)
#
#
# Indices 1 2 3 4 5 6 
#
# 1 89.4804 65.8640 43.0455 1.7676 -12.7254 -35.9096
# 2 65.8640 198.1398 37.4843 13.7009 -0.1999 -56.6007
# 3 43.0455 37.4843 176.1981 3.5208 -8.3435 -26.0340
# 4 1.7676 13.7009 3.5208 41.5950 -4.5057 -2.5552
# 5 -12.7254 -0.1999 -8.3435 -4.5057 42.2948 4.9172
# 6 -35.9096 -56.6007 -26.0340 -2.5552 4.9172 72.9484
#
#
#
# Elastic Compliance Matrix: (Units=1/GPa)
#
#
# Indices 1 2 3 4 5 6 
#
# 1 0.017998 -0.004370 -0.002653 0.001655 0.004550 0.004273
# 2 -0.004370 0.007793 -0.000058 -0.002351 -0.001996 0.003927
# 3 -0.002653 -0.000058 0.006496 -0.000324 0.000340 0.000933
# 4 0.001655 -0.002351 -0.000324 0.025086 0.003149 -0.000459
# 5 0.004550 -0.001996 0.000340 0.003149 0.025498 -0.000796
# 6 0.004273 0.003927 0.000933 -0.000459 -0.000796 0.019230
#
#
# Mechanical properties :
#
#
# Convention : Reuss Voigt Hill
#
# Bulk Modulus (GPa) = 55.17126 84.06733 69.61929
# Shear Modulus (GPa) = 40.88153 52.52927 46.70540
#
# Velocity S-wave (km/s) = 3.94649 4.47351 4.21824
# Velocity P-wave (km/s) = 6.46415 7.66228 7.08857
#
# Compressibility (1/GPa) = 0.01812538
#
# Stress axis : x y z
#
# Youngs Moduli (GPa) = 55.56145 128.32392 153.93140
#
# Poissons Ratio (x) = 0.56076 0.40846
# Poissons Ratio (y) = 0.24280 0.00887
# Poissons Ratio (z) = 0.14743 0.00739
#
# Static dielectric constant tensor:
#      x y z
#    x 2.352430 0.812510 0.079910 
#    y 0.812510 5.044640 0.156360 
#    z 0.079910 0.156360 2.037510 
# 
# From -- ./inp_files/371493.got.cif
#   From: 2010.05.17/outbox.cif.g08.bks.cpg/sg2_186_cif.got.tgz:371493.got - 2010.06.03 11:33:40.
