data_PCOD9072935
_publ_section_title
;
Structure prediction by ZEFSAII (Michael W. Deem and Ramdas Pophale) SiO2 
 PCOD9072935
Probable space group: P -1
;
_chemical_formula_sum "Si O2"
_cell_formula_units_Z 16
_cell_length_a 11.998019
_cell_length_b 8.225105
_cell_length_c 17.041299
_cell_angle_alpha 117.586745
_cell_angle_beta 29.250177
_cell_angle_gamma 109.667338
_cell_volume 719.409814
_symmetry_space_group_name_H-M "P -1"
_symmetry_group_IT_number 2
_symmetry_cell_setting 'triclinic'
loop_
_space_group_symop_operation_xyz
x,y,z
-x,-y,-z
loop_
_atom_site_type_symbol
_atom_site_label
_atom_site_fract_x
_atom_site_fract_y
_atom_site_fract_z
Si Si1 0.813367 0.186419 0.399718
Si Si2 0.314405 0.792098 0.176718
Si Si3 0.813372 0.143111 0.897104
Si Si4 0.648169 0.654526 0.717420
Si Si5 0.185234 0.380601 0.146447
Si Si6 0.167273 0.732823 0.416147
Si Si7 0.618325 0.570647 0.283240
Si Si8 0.930515 0.556300 0.941411
O O1 0.783787 0.182031 0.510909
O O2 0.559331 0.254627 0.536929
O O3 0.968583 0.345239 0.321785
O O4 0.981926 0.004719 0.226477
O O5 0.203694 0.902437 0.194816
O O6 0.233379 0.589644 0.172286
O O7 0.243910 0.844774 0.320500
O O8 0.589635 0.754228 0.993157
O O9 0.885289 0.344977 0.910395
O O10 0.550024 0.178845 0.097628
O O11 0.686955 0.478576 0.715412
O O12 0.540473 0.568084 0.688322
O O13 0.899041 0.711552 0.567564
O O14 0.139949 0.343920 0.074544
O O15 0.800401 0.462739 0.207373
O O16 0.774719 0.629282 0.128308
#
# Coordination Sequence:
#
# PCOD9072935 Si02
#       8
#     2   2   2   2   2   2   2   2
#     4  11  22  33  50  79 110 135 164 208 261 306
#     4  10  18  32  52  74 103 137 174 208 245 301
#     4  10  21  34  50  77 109 137 164 206 262 306
#     4   9  17  32  52  75 102 135 172 208 252 302
#     4  10  19  32  53  78 102 133 173 213 250 298
#     4  10  18  31  52  74 102 139 174 208 247 299
#     4   9  18  35  58  76  97 133 178 213 247 300
#     4   9  19  37  59  75  95 135 179 213 248 297
#
# _framework density 22.240452999999999
#
# number of rings (size 3 to 8) (size 9 to 14) (size 15 to 20)
#    0.000    2.250    0.000    6.750    0.000    3.500 
#    0.000    1.250    0.000    6.750    0.000    0.000 
#    0.000    0.000    0.000    0.000    0.000    0.000 
#
# Total GULP energy -89354.056292 kJ/mol
# GULP energy per Si atom -5584.628518 kJ/mol
# Density = 2.218983 g / cm^3
# Si number density = 22.240453 Si / 1000 Ang^3
#
#
#
# Elastic Constant Matrix: (Units=GPa)
#
#
# Indices 1 2 3 4 5 6 
#
# 1 59.4301 -5.1397 3.5932 -2.8994 -16.5983 -1.9998
# 2 -5.1397 21.6508 22.9005 15.9714 -11.3896 1.3684
# 3 3.5932 22.9005 123.9346 14.5747 -27.6179 -10.9796
# 4 -2.8994 15.9714 14.5747 29.5088 -4.5539 -8.3677
# 5 -16.5983 -11.3896 -27.6179 -4.5539 42.0773 -1.9021
# 6 -1.9998 1.3684 -10.9796 -8.3677 -1.9021 13.2283
#
#
#
# Elastic Compliance Matrix: (Units=1/GPa)
#
#
# Indices 1 2 3 4 5 6 
#
# 1 0.021135 0.012751 0.000112 -0.002488 0.011687 0.002076
# 2 0.012751 0.162086 -0.022732 -0.098810 0.019064 -0.093469
# 3 0.000112 -0.022732 0.014020 0.012715 0.005502 0.022840
# 4 -0.002488 -0.098810 0.012715 0.104570 -0.004179 0.085945
# 5 0.011687 0.019064 0.005502 -0.004179 0.037013 0.007039
# 6 0.002076 -0.093469 0.022840 0.085945 0.007039 0.159912
#
#
# Mechanical properties :
#
#
# Convention : Reuss Voigt Hill
#
# Bulk Modulus (GPa) = 5.63373 27.52483 16.57928
# Shear Modulus (GPa) = 8.65588 29.20697 18.93143
#
# Velocity S-wave (km/s) = 1.97494 3.62779 2.92073
# Velocity P-wave (km/s) = 2.78193 5.47273 4.34107
#
# Compressibility (1/GPa) = 0.17750220
#
# Stress axis : x y z
#
# Youngs Moduli (GPa) = 47.31514 6.16957 71.32658
#
# Poissons Ratio (x) = -0.07867 -0.00798
# Poissons Ratio (y) = -0.60331 1.62140
# Poissons Ratio (z) = -0.00529 0.14025
#
# Static dielectric constant tensor:
#      x y z
#    x 1.832990 0.004670 0.020830 
#    y 0.004670 1.853820 0.038260 
#    z 0.020830 0.038260 1.869690 
# 
# From -- ./inp_files/180073.got.cif
#   From: 2010.05.17/outbox.cif.g08.bks.cpg/sg2_91_cif.got.tgz:180073.got - 2010.06.03 11:33:40.
