data_PCOD9072838
_publ_section_title
;
Structure prediction by ZEFSAII (Michael W. Deem and Ramdas Pophale) SiO2 
 PCOD9072838
Probable space group: P -1
;
_chemical_formula_sum "Si O2"
_cell_formula_units_Z 14
_cell_length_a 12.000000
_cell_length_b 15.000000
_cell_length_c 9.000000
_cell_angle_alpha 60.000000
_cell_angle_beta 120.000000
_cell_angle_gamma 150.000000
_cell_volume 693.035739
_symmetry_space_group_name_H-M "P -1"
_symmetry_group_IT_number 2
_symmetry_cell_setting 'triclinic'
loop_
_space_group_symop_operation_xyz
x,y,z
-x,-y,-z
loop_
_atom_site_type_symbol
_atom_site_label
_atom_site_fract_x
_atom_site_fract_y
_atom_site_fract_z
Si Si1 0.984663 0.243731 0.575062
Si Si2 0.258668 0.071363 0.548951
Si Si3 0.675558 0.447664 0.959558
Si Si4 0.016820 0.602432 0.303483
Si Si5 0.089510 0.177124 0.219376
Si Si6 0.754170 0.407570 0.724688
Si Si7 0.288074 0.306037 0.933652
O O1 0.891740 0.244310 0.659192
O O2 0.092713 0.400498 0.405667
O O3 0.179172 0.301428 0.732874
O O4 0.820110 0.062910 0.517892
O O5 0.195913 0.143955 0.388030
O O6 0.519192 0.251726 0.610713
O O7 0.135043 0.962155 0.713838
O O8 0.777896 0.627495 0.833527
O O9 0.720874 0.406106 0.879946
O O10 0.411455 0.290225 0.952390
O O11 0.792263 0.490890 0.157926
O O12 0.000000 0.500000 0.500000
O O13 0.147947 0.638820 0.221162
O O14 0.105240 0.169783 0.057089
O O15 0.500000 0.500000 0.000000
#
# Coordination Sequence:
#
# PCOD9072838 Si02
#       7
#     2   2   2   2   2   2   2
#     4  11  22  43  67  96 136 164 217 277 314 385
#     4  11  25  40  64 102 133 174 207 261 337 386
#     4  11  21  42  70  95 129 173 215 272 323 382
#     4  10  23  42  68  94 125 173 227 269 315 378
#     4  10  22  41  60  96 142 154 215 265 323 395
#     4  11  24  42  68  92 131 180 217 258 322 391
#     4  10  20  37  67  95 127 167 208 263 334 373
#
# _framework density 20.200977999999999
#
# number of rings (size 3 to 8) (size 9 to 14) (size 15 to 20)
#    0.000    1.429    4.286    2.143    6.000    2.286 
#    0.000    0.714    0.000    0.000    0.000    0.000 
#    0.000    0.000    0.000    0.000    0.000    0.000 
#
# Total GULP energy -78011.110104 kJ/mol
# GULP energy per Si atom -5572.222150 kJ/mol
# Density = 2.015500 g / cm^3
# Si number density = 20.200978 Si / 1000 Ang^3
#
#
#
# Elastic Constant Matrix: (Units=GPa)
#
#
# Indices 1 2 3 4 5 6 
#
# 1 132.5634 12.3425 13.7001 5.7538 -23.6756 -19.8648
# 2 12.3425 70.3131 5.3668 8.1616 4.4389 -22.3932
# 3 13.7001 5.3668 77.8322 2.7142 -15.4399 -10.5547
# 4 5.7538 8.1616 2.7142 23.6081 -6.0601 -11.9267
# 5 -23.6756 4.4389 -15.4399 -6.0601 41.0820 3.1355
# 6 -19.8648 -22.3932 -10.5547 -11.9267 3.1355 14.1489
#
#
#
# Elastic Compliance Matrix: (Units=1/GPa)
#
#
# Indices 1 2 3 4 5 6 
#
# 1 0.021392 0.026236 0.010803 0.045910 0.011490 0.115770
# 2 0.026236 0.077209 0.023278 0.095490 0.010177 0.254635
# 3 0.010803 0.023278 0.023896 0.040819 0.010942 0.101817
# 4 0.045910 0.095490 0.040819 0.212902 0.030934 0.418646
# 5 0.011490 0.010177 0.010942 0.030934 0.034041 0.058933
# 6 0.115770 0.254635 0.101817 0.418646 0.058933 1.052012
#
#
# Mechanical properties :
#
#
# Convention : Reuss Voigt Hill
#
# Bulk Modulus (GPa) = 4.11301 38.16971 21.14136
# Shear Modulus (GPa) = 3.61831 32.38776 18.00303
#
# Velocity S-wave (km/s) = 1.33979 4.00844 2.98853
# Velocity P-wave (km/s) = 2.10567 6.35291 4.73251
#
# Compressibility (1/GPa) = 0.24313113
#
# Stress axis : x y z
#
# Youngs Moduli (GPa) = 46.74646 12.95177 41.84824
#
# Poissons Ratio (x) = -0.33981 -0.45209
# Poissons Ratio (y) = -1.22645 -0.97413
# Poissons Ratio (z) = -0.50501 -0.30149
#
# Static dielectric constant tensor:
#      x y z
#    x 1.841030 0.033800 0.016480 
#    y 0.033800 1.722910 -0.002060 
#    z 0.016480 -0.002060 1.698830 
# 
# From -- ./inp_files/269861.got.cif
#   From: 2010.05.17/outbox.ucp.g08.bks.cvg/sg2_135_cif.got.tgz:269861.got - 2010.06.11 11:32:03.
