data_PCOD9072653
_publ_section_title
;
Structure prediction by ZEFSAII (Michael W. Deem and Ramdas Pophale) SiO2 
 PCOD9072653
Probable space group: P -1
;
_chemical_formula_sum "Si O2"
_cell_formula_units_Z 16
_cell_length_a 12.207900
_cell_length_b 12.699637
_cell_length_c 11.858374
_cell_angle_alpha 145.285953
_cell_angle_beta 147.123432
_cell_angle_gamma 51.170146
_cell_volume 556.271602
_symmetry_space_group_name_H-M "P -1"
_symmetry_group_IT_number 2
_symmetry_cell_setting 'triclinic'
loop_
_space_group_symop_operation_xyz
x,y,z
-x,-y,-z
loop_
_atom_site_type_symbol
_atom_site_label
_atom_site_fract_x
_atom_site_fract_y
_atom_site_fract_z
Si Si1 0.521579 0.122386 0.784948
Si Si2 0.331885 0.262644 0.456391
Si Si3 0.463844 0.598683 0.443975
Si Si4 0.086495 0.190296 0.375841
Si Si5 0.325326 0.994003 0.716543
Si Si6 0.251782 0.606700 0.962004
Si Si7 0.063875 0.479291 0.905611
Si Si8 0.894858 0.067613 0.315377
O O1 0.299530 0.132534 0.549328
O O2 0.697709 0.259464 0.986392
O O3 0.559129 0.915291 0.609945
O O4 0.489077 0.132297 0.900658
O O5 0.333150 0.345507 0.406344
O O6 0.115500 0.201664 0.276870
O O7 0.512257 0.405947 0.807172
O O8 0.500000 0.500000 0.500000
O O9 0.373056 0.786513 0.551932
O O10 0.294657 0.448485 0.098873
O O11 0.908008 0.069853 0.192688
O O12 0.121685 0.407777 0.633625
O O13 0.293413 0.031819 0.855508
O O14 0.097796 0.995685 0.470000
O O15 0.125980 0.634590 0.994056
O O16 0.926458 0.287559 0.571778
O O17 0.000000 0.500000 0.000000
#
# Coordination Sequence:
#
# PCOD9072653 Si02
#       8
#     2   2   2   2   2   2   2   2
#     4   9  15  24  39  64  96 122 148 192 238 280
#     4   9  16  26  41  64  92 120 158 190 233 278
#     4  10  20  33  50  70  98 133 167 198 233 284
#     4   9  15  24  41  66  96 119 149 191 246 284
#     4   9  17  30  47  71 102 127 158 194 249 287
#     4   9  16  24  41  68  95 120 148 195 247 277
#     4  10  18  31  49  73 101 126 162 199 239 289
#     4   9  17  29  48  74 102 126 149 203 251 288
#
# _framework density 28.762927000000001
#
# number of rings (size 3 to 8) (size 9 to 14) (size 15 to 20)
#    0.000    2.750    1.250    3.000    0.000    2.000 
#    0.000    0.625    0.000    0.750    0.000    3.500 
#    0.000    0.000    0.000    0.000    0.000    0.000 
#
# Total GULP energy -89440.086583 kJ/mol
# GULP energy per Si atom -5590.005411 kJ/mol
# Density = 2.869746 g / cm^3
# Si number density = 28.762927 Si / 1000 Ang^3
#
#
#
# Elastic Constant Matrix: (Units=GPa)
#
#
# Indices 1 2 3 4 5 6 
#
# 1 344.1402 88.0531 38.1186 4.2907 17.1615 71.1701
# 2 88.0531 92.4053 15.6465 11.3432 7.7195 36.9460
# 3 38.1186 15.6465 72.3639 1.5568 13.4133 4.5398
# 4 4.2907 11.3432 1.5568 27.1433 -5.8283 6.2360
# 5 17.1615 7.7195 13.4133 -5.8283 51.2425 -2.6103
# 6 71.1701 36.9460 4.5398 6.2360 -2.6103 77.3467
#
#
#
# Elastic Compliance Matrix: (Units=1/GPa)
#
#
# Indices 1 2 3 4 5 6 
#
# 1 0.004387 -0.002961 -0.001404 0.001090 -0.000666 -0.002650
# 2 -0.002961 0.016635 -0.001227 -0.005770 -0.002092 -0.004755
# 3 -0.001404 -0.001227 0.015430 -0.001111 -0.003462 0.000945
# 4 0.001090 -0.005770 -0.001111 0.040585 0.005346 -0.001273
# 5 -0.000666 -0.002092 -0.003462 0.005346 0.021675 0.002116
# 6 -0.002650 -0.004755 0.000945 -0.001273 0.002116 0.017757
#
#
# Mechanical properties :
#
#
# Convention : Reuss Voigt Hill
#
# Bulk Modulus (GPa) = 39.57551 88.06065 63.81808
# Shear Modulus (GPa) = 36.74409 55.61924 46.18166
#
# Velocity S-wave (km/s) = 3.57806 4.40217 4.01134
# Velocity P-wave (km/s) = 5.55510 7.51806 6.60986
#
# Compressibility (1/GPa) = 0.02526815
#
# Stress axis : x y z
#
# Youngs Moduli (GPa) = 227.96896 60.11309 64.80735
#
# Poissons Ratio (x) = 0.17798 0.09100
# Poissons Ratio (y) = 0.67498 0.07952
# Poissons Ratio (z) = 0.32010 0.07376
#
# Static dielectric constant tensor:
#      x y z
#    x 2.328380 0.071360 -0.038750 
#    y 0.071360 2.322340 -0.072380 
#    z -0.038750 -0.072380 2.224290 
# 
# From -- ./inp_files/254073.got.cif
#   From: 2010.05.17/outbox.cif.g08.bks.cpg/sg2_128_cif.got.tgz:254073.got - 2010.06.03 11:33:40.
