data_PCOD9072613
_publ_section_title
;
Structure prediction by ZEFSAII (Michael W. Deem and Ramdas Pophale) SiO2 
 PCOD9072613
Probable space group: P -1
;
_chemical_formula_sum "Si O2"
_cell_formula_units_Z 14
_cell_length_a 6.918532
_cell_length_b 8.669731
_cell_length_c 11.411238
_cell_angle_alpha 89.860151
_cell_angle_beta 111.138476
_cell_angle_gamma 52.186974
_cell_volume 480.586481
_symmetry_space_group_name_H-M "P -1"
_symmetry_group_IT_number 2
_symmetry_cell_setting 'triclinic'
loop_
_space_group_symop_operation_xyz
x,y,z
-x,-y,-z
loop_
_atom_site_type_symbol
_atom_site_label
_atom_site_fract_x
_atom_site_fract_y
_atom_site_fract_z
Si Si1 0.292995 0.910510 0.720713
Si Si2 0.844875 0.718854 0.529901
Si Si3 0.264320 0.721415 0.155068
Si Si4 0.728097 0.550364 0.995346
Si Si5 0.720439 0.821203 0.137213
Si Si6 0.230293 0.007094 0.304010
Si Si7 0.348884 0.629233 0.580941
O O1 0.476182 0.737418 0.862730
O O2 0.406151 0.775430 0.630002
O O3 0.341842 0.065956 0.754478
O O4 0.987903 0.999113 0.679825
O O5 0.530580 0.847730 0.426684
O O6 0.000000 0.500000 0.500000
O O7 0.022983 0.766103 0.506053
O O8 0.858649 0.777257 0.669193
O O9 0.261548 0.638110 0.027063
O O10 0.226837 0.922126 0.174591
O O11 0.528586 0.535356 0.286826
O O12 0.012815 0.750097 0.162534
O O13 0.709769 0.643380 0.117319
O O14 0.000000 0.500000 0.000000
O O15 0.500000 0.000000 0.000000
O O16 0.500000 0.500000 0.500000
#
# Coordination Sequence:
#
# PCOD9072613 Si02
#       7
#     2   2   2   2   2   2   2
#     4   8  15  26  40  63  94 121 149 197 226 276
#     4  10  18  31  48  63  89 127 166 202 230 266
#     4   9  15  26  42  65  95 122 149 194 232 278
#     4   8  13  21  39  64  93 119 139 185 248 286
#     4   8  13  23  39  62  92 118 144 187 248 287
#     4   9  17  28  46  65  86 122 159 195 244 263
#     4  10  19  30  44  66  97 135 161 186 229 280
#
# _framework density 29.131076
#
# number of rings (size 3 to 8) (size 9 to 14) (size 15 to 20)
#    0.000    3.143    1.429    0.000    0.000    0.000 
#    0.000    6.429    0.000    0.000    0.000    0.000 
#    0.000  144.000    0.000    0.000    0.000    0.000 
#
# Total GULP energy -78219.849165 kJ/mol
# GULP energy per Si atom -5587.132083 kJ/mol
# Density = 2.906477 g / cm^3
# Si number density = 29.131076 Si / 1000 Ang^3
#
#
#
# Elastic Constant Matrix: (Units=GPa)
#
#
# Indices 1 2 3 4 5 6 
#
# 1 123.8493 38.8945 56.1379 4.1632 33.3595 4.1522
# 2 38.8945 197.7956 123.9429 68.5380 19.3867 5.3085
# 3 56.1379 123.9429 192.8571 69.1839 39.5186 18.0061
# 4 4.1632 68.5380 69.1839 119.7489 11.8343 24.7245
# 5 33.3595 19.3867 39.5186 11.8343 58.9414 7.2811
# 6 4.1522 5.3085 18.0061 24.7245 7.2811 37.9607
#
#
#
# Elastic Compliance Matrix: (Units=1/GPa)
#
#
# Indices 1 2 3 4 5 6 
#
# 1 0.010531 -0.000901 -0.002230 0.001962 -0.004516 -0.000380
# 2 -0.000901 0.009329 -0.005146 -0.003070 0.001136 0.003017
# 3 -0.002230 -0.005146 0.010993 -0.002580 -0.003667 -0.001867
# 4 0.001962 -0.003070 -0.002580 0.012987 -0.000114 -0.006998
# 5 -0.004516 0.001136 -0.003667 -0.000114 0.021883 -0.002048
# 6 -0.000380 0.003017 -0.001867 -0.006998 -0.002048 0.031799
#
#
# Mechanical properties :
#
#
# Convention : Reuss Voigt Hill
#
# Bulk Modulus (GPa) = 69.93185 105.82808 87.87997
# Shear Modulus (GPa) = 42.07252 63.03197 52.55224
#
# Velocity S-wave (km/s) = 3.80445 4.65664 4.25195
# Velocity P-wave (km/s) = 6.58456 8.08205 7.37143
#
# Compressibility (1/GPa) = 0.01429964
#
# Stress axis : x y z
#
# Youngs Moduli (GPa) = 94.95677 107.18964 90.96765
#
# Poissons Ratio (x) = 0.09657 0.20281
# Poissons Ratio (y) = 0.08555 0.46816
# Poissons Ratio (z) = 0.21171 0.55164
#
# Static dielectric constant tensor:
#      x y z
#    x 2.239330 0.010590 -0.038040 
#    y 0.010590 2.351040 0.117560 
#    z -0.038040 0.117560 2.213800 
# 
# From -- ./inp_files/196537.got.cif
#   From: 2010.05.17/outbox.cif.g08.bks.cpg/sg2_99_cif.got.tgz:196537.got - 2010.06.03 11:33:40.
