data_PCOD9072268
_publ_section_title
;
Structure prediction by ZEFSAII (Michael W. Deem and Ramdas Pophale) SiO2 
 PCOD9072268
Probable space group: P -1
;
_chemical_formula_sum "Si O2"
_cell_formula_units_Z 16
_cell_length_a 9.000000
_cell_length_b 15.000000
_cell_length_c 12.000000
_cell_angle_alpha 70.000000
_cell_angle_beta 50.000000
_cell_angle_gamma 110.000000
_cell_volume 728.972637
_symmetry_space_group_name_H-M "P -1"
_symmetry_group_IT_number 2
_symmetry_cell_setting 'triclinic'
loop_
_space_group_symop_operation_xyz
x,y,z
-x,-y,-z
loop_
_atom_site_type_symbol
_atom_site_label
_atom_site_fract_x
_atom_site_fract_y
_atom_site_fract_z
Si Si1 0.773689 0.813068 0.541786
Si Si2 0.421205 0.046958 0.212494
Si Si3 0.102526 0.923617 0.113452
Si Si4 0.558600 0.232541 0.861460
Si Si5 0.258402 0.486388 0.873481
Si Si6 0.413653 0.863074 0.654863
Si Si7 0.261227 0.501363 0.385609
Si Si8 0.457121 0.597530 0.489972
O O1 0.447922 0.634417 0.795294
O O2 0.674797 0.879305 0.513628
O O3 0.965298 0.840126 0.335128
O O4 0.043749 0.907897 0.464143
O O5 0.584102 0.121758 0.220171
O O6 0.599443 0.023714 0.087957
O O7 0.503658 0.159212 0.035874
O O8 0.791217 0.780264 0.253158
O O9 0.269891 0.089304 0.983607
O O10 0.592537 0.356604 0.813837
O O11 0.904502 0.338619 0.604078
O O12 0.503528 0.494537 0.742618
O O13 0.270913 0.539586 0.720576
O O14 0.921920 0.313045 0.139383
O O15 0.500000 0.000000 0.500000
O O16 0.274237 0.548171 0.486035
O O17 0.500000 0.500000 0.500000
#
# Coordination Sequence:
#
# PCOD9072268 Si02
#       8
#     2   2   2   2   2   2   2   2
#     4  10  22  42  68  92 123 164 211 252 315 381
#     4  11  21  42  67  90 125 168 204 254 320 371
#     4  10  20  37  66  93 123 155 208 255 312 373
#     4  10  20  33  59  94 130 155 203 254 322 363
#     4  10  20  39  65  80 126 167 211 246 318 360
#     4  12  27  43  63  90 127 168 216 257 305 370
#     4  10  19  33  57  95 127 159 200 261 306 378
#     4   9  17  33  56  89 120 162 198 242 312 370
#
# _framework density 21.948698
#
# number of rings (size 3 to 8) (size 9 to 14) (size 15 to 20)
#    0.000    1.750    0.000    7.500    3.500    0.500 
#    4.500    0.625    5.500    0.000    0.000    0.000 
#    0.000    0.000    0.000    0.000    0.000    0.000 
#
# Total GULP energy -89109.490571 kJ/mol
# GULP energy per Si atom -5569.343161 kJ/mol
# Density = 2.189874 g / cm^3
# Si number density = 21.948698 Si / 1000 Ang^3
#
#
#
# Elastic Constant Matrix: (Units=GPa)
#
#
# Indices 1 2 3 4 5 6 
#
# 1 59.8033 20.5817 20.3420 -13.0716 -2.0716 -18.0379
# 2 20.5817 67.0867 36.9451 -28.2310 -2.7308 -6.2454
# 3 20.3420 36.9451 110.7060 -45.7103 -20.3640 -8.5102
# 4 -13.0716 -28.2310 -45.7103 50.9509 1.2971 -8.4942
# 5 -2.0716 -2.7308 -20.3640 1.2971 40.7387 -4.4215
# 6 -18.0379 -6.2454 -8.5102 -8.4942 -4.4215 28.0007
#
#
#
# Elastic Compliance Matrix: (Units=1/GPa)
#
#
# Indices 1 2 3 4 5 6 
#
# 1 0.025571 -0.002720 0.003534 0.011641 0.004818 0.021232
# 2 -0.002720 0.021840 -0.001693 0.010869 0.000788 0.006026
# 3 0.003534 -0.001693 0.021362 0.021637 0.011882 0.016832
# 4 0.011641 0.010869 0.021637 0.053517 0.014229 0.034981
# 5 0.004818 0.000788 0.011882 0.014229 0.032097 0.016276
# 6 0.021232 0.006026 0.016832 0.034981 0.016276 0.069033
#
#
# Mechanical properties :
#
#
# Convention : Reuss Voigt Hill
#
# Bulk Modulus (GPa) = 14.92185 43.70374 29.31279
# Shear Modulus (GPa) = 20.20080 34.58653 27.39367
#
# Velocity S-wave (km/s) = 3.03704 3.97393 3.53665
# Velocity P-wave (km/s) = 4.37166 6.40399 5.48282
#
# Compressibility (1/GPa) = 0.06701582
#
# Stress axis : x y z
#
# Youngs Moduli (GPa) = 39.10708 45.78825 46.81217
#
# Poissons Ratio (x) = 0.12454 -0.16544
# Poissons Ratio (y) = 0.10636 0.07923
# Poissons Ratio (z) = -0.13821 0.07750
#
# Static dielectric constant tensor:
#      x y z
#    x 1.864530 -0.002780 -0.012750 
#    y -0.002780 1.940470 0.005580 
#    z -0.012750 0.005580 1.828650 
# 
# From -- ./inp_files/398912.got.cif
#   From: 2010.05.17/outbox.ucp.g08.bks.cvg/sg2_200_cif.got.tgz:398912.got - 2010.06.11 11:32:03.
