data_PCOD9072405
_publ_section_title
;
Structure prediction by ZEFSAII (Michael W. Deem and Ramdas Pophale) SiO2 
 PCOD9072405
Probable space group: P -1
;
_chemical_formula_sum "Si O2"
_cell_formula_units_Z 16
_cell_length_a 16.176112
_cell_length_b 8.520726
_cell_length_c 11.100135
_cell_angle_alpha 69.872008
_cell_angle_beta 48.275408
_cell_angle_gamma 49.205211
_cell_volume 853.255153
_symmetry_space_group_name_H-M "P -1"
_symmetry_group_IT_number 2
_symmetry_cell_setting 'triclinic'
loop_
_space_group_symop_operation_xyz
x,y,z
-x,-y,-z
loop_
_atom_site_type_symbol
_atom_site_label
_atom_site_fract_x
_atom_site_fract_y
_atom_site_fract_z
Si Si1 0.802884 0.845842 0.307312
Si Si2 0.353153 0.339220 0.570343
Si Si3 0.737571 0.522625 0.124108
Si Si4 0.980735 0.865439 0.959989
Si Si5 0.097484 0.510956 0.247031
Si Si6 0.885880 0.188955 0.397311
Si Si7 0.028884 0.218194 0.481726
Si Si8 0.605495 0.303287 0.363434
O O1 0.709602 0.766997 0.403498
O O2 0.946463 0.673263 0.283427
O O3 0.718405 0.082285 0.378483
O O4 0.848575 0.878370 0.123657
O O5 0.353702 0.313317 0.723087
O O6 0.249611 0.588519 0.574799
O O7 0.505632 0.262313 0.403707
O O8 0.682122 0.383070 0.197811
O O9 0.887884 0.373655 0.081440
O O10 0.777629 0.566916 0.946236
O O11 0.001133 0.911156 0.793992
O O12 0.000000 0.000000 0.000000
O O13 0.083363 0.643068 0.341203
O O14 0.103560 0.320517 0.345691
O O15 0.951146 0.225644 0.436944
O O16 0.868390 0.016891 0.505583
O O17 0.500000 0.500000 0.500000
#
# Coordination Sequence:
#
# PCOD9072405 Si02
#       8
#     2   2   2   2   2   2   2   2
#     4  11  20  33  56  83 110 135 172 232 274 322
#     4  10  21  34  54  82 112 140 176 219 271 324
#     4   9  19  33  54  81 109 136 173 222 277 328
#     4  10  18  30  56  86 108 137 168 226 290 317
#     4  10  21  34  56  84 111 135 181 223 276 311
#     4  10  20  35  53  80 115 141 179 215 270 322
#     4  10  21  34  52  82 108 151 174 220 265 317
#     4  10  21  35  53  82 105 146 175 211 285 328
#
# _framework density 18.751718
#
# number of rings (size 3 to 8) (size 9 to 14) (size 15 to 20)
#    0.000    2.000    2.500    1.875    5.250    1.500 
#    0.000    0.000    0.000    1.500    0.000    0.000 
#    0.000    0.000    0.000    0.000    0.000    0.000 
#
# Total GULP energy -89086.165035 kJ/mol
# GULP energy per Si atom -5567.885315 kJ/mol
# Density = 1.870904 g / cm^3
# Si number density = 18.751718 Si / 1000 Ang^3
#
#
#
# Elastic Constant Matrix: (Units=GPa)
#
#
# Indices 1 2 3 4 5 6 
#
# 1 72.1407 2.5334 33.7131 -1.9580 5.5590 8.5677
# 2 2.5334 79.6158 26.0506 -15.2974 -0.4849 4.3492
# 3 33.7131 26.0506 91.7250 -13.5797 6.0846 0.0031
# 4 -1.9580 -15.2974 -13.5797 22.5976 -0.8904 -2.6262
# 5 5.5590 -0.4849 6.0846 -0.8904 34.6798 0.3465
# 6 8.5677 4.3492 0.0031 -2.6262 0.3465 20.7367
#
#
#
# Elastic Compliance Matrix: (Units=1/GPa)
#
#
# Indices 1 2 3 4 5 6 
#
# 1 0.018365 0.001804 -0.007566 -0.002759 -0.001579 -0.008288
# 2 0.001804 0.015491 -0.003941 0.007960 0.000853 -0.003000
# 3 -0.007566 -0.003941 0.015899 0.006733 -0.001507 0.004828
# 4 -0.002759 0.007960 0.006733 0.054210 0.000701 0.006323
# 5 -0.001579 0.000853 -0.001507 0.000701 0.029382 0.000072
# 6 -0.008288 -0.003000 0.004828 0.006323 0.000072 0.053076
#
#
# Mechanical properties :
#
#
# Convention : Reuss Voigt Hill
#
# Bulk Modulus (GPa) = 32.94912 40.89730 36.92321
# Shear Modulus (GPa) = 23.15409 27.68179 25.41794
#
# Velocity S-wave (km/s) = 3.51774 3.84634 3.68570
# Velocity P-wave (km/s) = 5.84027 6.44849 6.15190
#
# Compressibility (1/GPa) = 0.03034982
#
# Stress axis : x y z
#
# Youngs Moduli (GPa) = 54.45038 64.55461 62.89803
#
# Poissons Ratio (x) = -0.11647 0.47589
# Poissons Ratio (y) = -0.09824 0.24786
# Poissons Ratio (z) = 0.41197 0.25439
#
# Static dielectric constant tensor:
#      x y z
#    x 1.689050 0.034090 0.001380 
#    y 0.034090 1.716020 0.022020 
#    z 0.001380 0.022020 1.698620 
# 
# From -- ./inp_files/252577.got.cif
#   From: 2010.05.17/outbox.cif.g08.bks.cpg/sg2_127_cif.got.tgz:252577.got - 2010.06.03 11:33:40.
