data_PCOD9072480
_publ_section_title
;
Structure prediction by ZEFSAII (Michael W. Deem and Ramdas Pophale) SiO2 
 PCOD9072480
Probable space group: P -1
;
_chemical_formula_sum "Si O2"
_cell_formula_units_Z 16
_cell_length_a 9.000000
_cell_length_b 15.000000
_cell_length_c 15.000000
_cell_angle_alpha 50.000000
_cell_angle_beta 140.000000
_cell_angle_gamma 100.000000
_cell_volume 759.999475
_symmetry_space_group_name_H-M "P -1"
_symmetry_group_IT_number 2
_symmetry_cell_setting 'triclinic'
loop_
_space_group_symop_operation_xyz
x,y,z
-x,-y,-z
loop_
_atom_site_type_symbol
_atom_site_label
_atom_site_fract_x
_atom_site_fract_y
_atom_site_fract_z
Si Si1 0.557847 0.577854 0.331339
Si Si2 0.520804 0.999499 0.118359
Si Si3 0.530351 0.687538 0.707435
Si Si4 0.067442 0.669439 0.931734
Si Si5 0.336617 0.287014 0.542354
Si Si6 0.435613 0.746896 0.990773
Si Si7 0.339681 0.427103 0.975067
Si Si8 0.828023 0.233468 0.672680
O O1 0.207583 0.653622 0.103624
O O2 0.596841 0.647376 0.387805
O O3 0.742383 0.397804 0.540169
O O4 0.383394 0.365255 0.768080
O O5 0.685309 0.835527 0.346151
O O6 0.500000 0.000000 0.000000
O O7 0.626753 0.096395 0.127963
O O8 0.179516 0.100833 0.935217
O O9 0.719170 0.506643 0.890094
O O10 0.237488 0.774117 0.456388
O O11 0.504068 0.696373 0.795053
O O12 0.733358 0.729684 0.743137
O O13 0.135690 0.762092 0.846152
O O14 0.603066 0.227094 0.632297
O O15 0.014804 0.431962 0.260666
O O16 0.616826 0.653434 0.045977
O O17 0.500000 0.500000 0.000000
#
# Coordination Sequence:
#
# PCOD9072480 Si02
#       8
#     2   2   2   2   2   2   2   2
#     4   9  19  38  66  98 127 157 224 277 331 363
#     4  12  26  44  66  93 141 178 213 264 331 396
#     4  10  19  37  64  92 129 162 215 270 327 369
#     4   8  16  34  59  90 126 162 202 267 320 377
#     4  12  25  41  67  97 134 174 215 269 334 395
#     4  10  22  40  65  98 133 168 218 274 321 391
#     4  12  23  38  69 102 127 165 224 276 327 380
#     4  11  24  41  69  97 130 173 221 272 325 388
#
# _framework density 21.052645999999999
#
# number of rings (size 3 to 8) (size 9 to 14) (size 15 to 20)
#    0.750    0.750    2.500    3.750    3.500    2.000 
#    0.000    0.625    0.000    3.750    0.000    0.000 
#    0.000    0.000    0.000    0.000    0.000    0.000 
#
# Total GULP energy -89325.974266 kJ/mol
# GULP energy per Si atom -5582.873392 kJ/mol
# Density = 2.100473 g / cm^3
# Si number density = 21.052646 Si / 1000 Ang^3
#
#
#
# Elastic Constant Matrix: (Units=GPa)
#
#
# Indices 1 2 3 4 5 6 
#
# 1 98.7856 28.6370 8.6227 0.2280 -11.2599 6.9219
# 2 28.6370 99.9205 23.8298 3.5328 -2.0780 18.8251
# 3 8.6227 23.8298 35.5966 5.4802 -10.1769 3.5649
# 4 0.2280 3.5328 5.4802 26.0814 4.6596 -6.8042
# 5 -11.2599 -2.0780 -10.1769 4.6596 31.3958 6.1085
# 6 6.9219 18.8251 3.5649 -6.8042 6.1085 37.6116
#
#
#
# Elastic Compliance Matrix: (Units=1/GPa)
#
#
# Indices 1 2 3 4 5 6 
#
# 1 0.011600 -0.003105 0.000978 -0.001172 0.004769 -0.001660
# 2 -0.003105 0.013938 -0.008273 -0.001299 -0.001591 -0.005597
# 3 0.000978 -0.008273 0.039886 -0.011109 0.015218 -0.004301
# 4 -0.001172 -0.001299 -0.011109 0.046531 -0.013449 0.012521
# 5 0.004769 -0.001591 0.015218 -0.013449 0.042498 -0.010859
# 6 -0.001660 -0.005597 -0.004301 0.012521 -0.010859 0.034131
#
#
# Mechanical properties :
#
#
# Convention : Reuss Voigt Hill
#
# Bulk Modulus (GPa) = 22.40877 39.60908 31.00892
# Shear Modulus (GPa) = 22.29581 30.56531 26.43056
#
# Velocity S-wave (km/s) = 3.25784 3.81445 3.54708
# Velocity P-wave (km/s) = 4.98183 6.18508 5.61577
#
# Compressibility (1/GPa) = 0.04462539
#
# Stress axis : x y z
#
# Youngs Moduli (GPa) = 86.20621 71.74591 25.07169
#
# Poissons Ratio (x) = 0.22274 -0.02453
# Poissons Ratio (y) = 0.26763 0.20742
# Poissons Ratio (z) = -0.08434 0.59356
#
# Static dielectric constant tensor:
#      x y z
#    x 1.788160 -0.004770 0.008210 
#    y -0.004770 1.745440 0.038740 
#    z 0.008210 0.038740 1.775530 
# 
# From -- ./inp_files/505394.got.cif
#   From: 2010.05.17/outbox.ucp.g08.bks.cvg/sg2_253_cif.got.tgz:505394.got - 2010.06.11 11:32:03.
