data_PCOD9072490
_publ_section_title
;
Structure prediction by ZEFSAII (Michael W. Deem and Ramdas Pophale) SiO2 
 PCOD9072490
Probable space group: P -1
;
_chemical_formula_sum "Si O2"
_cell_formula_units_Z 16
_cell_length_a 9.000000
_cell_length_b 15.000000
_cell_length_c 9.000000
_cell_angle_alpha 50.000000
_cell_angle_beta 80.000000
_cell_angle_gamma 110.000000
_cell_volume 732.374747
_symmetry_space_group_name_H-M "P -1"
_symmetry_group_IT_number 2
_symmetry_cell_setting 'triclinic'
loop_
_space_group_symop_operation_xyz
x,y,z
-x,-y,-z
loop_
_atom_site_type_symbol
_atom_site_label
_atom_site_fract_x
_atom_site_fract_y
_atom_site_fract_z
Si Si1 0.434353 0.197006 0.823983
Si Si2 0.238223 0.323151 0.575492
Si Si3 0.961040 0.144491 0.248797
Si Si4 0.307230 0.127329 0.247548
Si Si5 0.472378 0.360378 0.219691
Si Si6 0.115064 0.935896 0.997072
Si Si7 0.115074 0.458051 0.933843
Si Si8 0.821602 0.472134 0.483881
O O1 0.337422 0.279700 0.720993
O O2 0.655979 0.307393 0.645956
O O3 0.324222 0.057629 0.885336
O O4 0.401216 0.149765 0.050546
O O5 0.308998 0.302930 0.430521
O O6 0.278972 0.473742 0.457087
O O7 0.011497 0.216386 0.732849
O O8 0.903412 0.107971 0.124224
O O9 0.127627 0.127267 0.249797
O O10 0.776497 0.024834 0.499831
O O11 0.045263 0.296251 0.152795
O O12 0.431574 0.251726 0.213407
O O13 0.665984 0.420252 0.202318
O O14 0.500000 0.500000 0.000000
O O15 0.000000 0.000000 0.000000
O O16 0.097494 0.445060 0.773619
O O17 0.000000 0.500000 0.000000
O O18 0.000000 0.500000 0.500000
#
# Coordination Sequence:
#
# PCOD9072490 Si02
#       8
#     2   2   2   2   2   2   2   2
#     4  11  22  41  71 100 132 176 226 287 343 408
#     4  11  22  42  70  98 136 174 230 287 342 401
#     4  11  22  41  65 104 140 177 220 289 352 410
#     4  11  22  37  69 108 138 166 231 288 347 409
#     4  12  25  40  71 107 137 180 234 288 345 415
#     4  10  19  37  66 100 131 172 216 283 351 395
#     4  12  28  49  67  96 146 189 229 284 355 412
#     4  12  27  45  69  96 135 185 235 285 339 410
#
# _framework density 21.846738999999999
#
# number of rings (size 3 to 8) (size 9 to 14) (size 15 to 20)
#    0.000    0.750    6.250    2.625    5.250    0.000 
#    0.000    1.250    0.000    0.000    0.000    0.000 
#    0.000    0.000    0.000    0.000    0.000    0.000 
#
# Total GULP energy -89242.846213 kJ/mol
# GULP energy per Si atom -5577.677888 kJ/mol
# Density = 2.179701 g / cm^3
# Si number density = 21.846739 Si / 1000 Ang^3
#
#
#
# Elastic Constant Matrix: (Units=GPa)
#
#
# Indices 1 2 3 4 5 6 
#
# 1 56.0397 20.6754 7.8324 -1.0680 -13.8575 25.0831
# 2 20.6754 114.0242 12.4802 -9.3293 -0.7897 27.5518
# 3 7.8324 12.4802 58.3584 -6.9075 -2.8759 10.0709
# 4 -1.0680 -9.3293 -6.9075 32.6591 15.8237 -15.9342
# 5 -13.8575 -0.7897 -2.8759 15.8237 -1.0415 3.7389
# 6 25.0831 27.5518 10.0709 -15.9342 3.7389 35.4309
#
#
#
# Elastic Compliance Matrix: (Units=1/GPa)
#
#
# Indices 1 2 3 4 5 6 
#
# 1 0.013558 -0.001365 -0.001239 0.010338 -0.022894 -0.001120
# 2 -0.001365 0.010764 -0.001007 0.000589 -0.002081 -0.006634
# 3 -0.001239 -0.001007 0.018197 0.002671 -0.000518 -0.002256
# 4 0.010338 0.000589 0.002671 0.013118 0.032251 -0.006040
# 5 -0.022894 -0.002081 -0.000518 0.032251 -0.033317 0.035994
# 6 -0.001120 -0.006634 -0.002256 -0.006040 0.035994 0.028302
#
#
# Mechanical properties :
#
#
# Convention : Reuss Voigt Hill
#
# Bulk Modulus (GPa) = 28.33063 34.48871 31.40967
# Shear Modulus (GPa) = 71.82904 25.90531 48.86717
#
# Velocity S-wave (km/s) = 5.74021 3.44724 4.73463
# Velocity P-wave (km/s) = 7.54516 5.62722 6.65563
#
# Compressibility (1/GPa) = 0.03529749
#
# Stress axis : x y z
#
# Youngs Moduli (GPa) = 73.75689 92.89840 54.95383
#
# Poissons Ratio (x) = 0.12681 0.06810
# Poissons Ratio (y) = 0.10068 0.05533
# Poissons Ratio (z) = 0.09140 0.09354
#
# Static dielectric constant tensor:
#      x y z
#    x 1.796000 -0.019080 0.028090 
#    y -0.019080 1.863990 -0.075320 
#    z 0.028090 -0.075320 1.867150 
# 
# From -- ./inp_files/205613.got.cif
#   From: 2010.05.17/outbox.ucp.g08.bks.cvg/sg2_103_cif.got.tgz:205613.got - 2010.06.11 11:32:03.
