data_PCOD9072589
_publ_section_title
;
Structure prediction by ZEFSAII (Michael W. Deem and Ramdas Pophale) SiO2 
 PCOD9072589
Probable space group: P -1
;
_chemical_formula_sum "Si O2"
_cell_formula_units_Z 16
_cell_length_a 9.000000
_cell_length_b 18.000000
_cell_length_c 12.000000
_cell_angle_alpha 150.000000
_cell_angle_beta 120.000000
_cell_angle_gamma 50.000000
_cell_volume 736.400153
_symmetry_space_group_name_H-M "P -1"
_symmetry_group_IT_number 2
_symmetry_cell_setting 'triclinic'
loop_
_space_group_symop_operation_xyz
x,y,z
-x,-y,-z
loop_
_atom_site_type_symbol
_atom_site_label
_atom_site_fract_x
_atom_site_fract_y
_atom_site_fract_z
Si Si1 0.580880 0.049188 0.862947
Si Si2 0.251971 0.543123 0.842855
Si Si3 0.628550 0.551347 0.985733
Si Si4 0.162562 0.153977 0.925283
Si Si5 0.843265 0.197026 0.216470
Si Si6 0.839300 0.727869 0.674589
Si Si7 0.131011 0.811930 0.518757
Si Si8 0.290249 0.144411 0.570167
O O1 0.346842 0.124978 0.880535
O O2 0.670221 0.917754 0.827449
O O3 0.687398 0.912859 0.626174
O O4 0.650953 0.192741 0.087638
O O5 0.404233 0.605075 0.935532
O O6 0.211607 0.414015 0.581327
O O7 0.354646 0.448834 0.873463
O O8 0.051516 0.708336 0.019224
O O9 0.746009 0.362556 0.731322
O O10 0.712016 0.682456 0.163665
O O11 0.168178 0.971825 0.712506
O O12 0.164128 0.251594 0.166839
O O13 0.825131 0.228188 0.383633
O O14 0.951644 0.292917 0.322155
O O15 0.000000 0.000000 0.000000
O O16 0.904205 0.862714 0.476593
O O17 0.500000 0.000000 0.500000
#
# Coordination Sequence:
#
# PCOD9072589 Si02
#       8
#     2   2   2   2   2   2   2   2
#     4  11  22  41  68  98 128 167 217 267 328 383
#     4  11  25  44  62  96 136 171 216 272 320 376
#     4  11  26  44  67  91 133 177 214 263 326 387
#     4  12  25  38  70 102 126 169 223 271 317 385
#     4  10  19  40  68  93 123 169 213 264 324 384
#     4  11  20  44  69  89 135 172 214 267 331 378
#     4  12  23  42  70  96 126 172 222 261 322 393
#     4  12  25  45  69  96 131 170 216 271 322 388
#
# _framework density 21.727318
#
# number of rings (size 3 to 8) (size 9 to 14) (size 15 to 20)
#    0.000    0.750    6.250    2.625    5.250    0.500 
#    0.000    0.625    0.000    0.000    0.000    0.000 
#    0.000    0.000    0.000    0.000    0.000    0.000 
#
# Total GULP energy -89254.264345 kJ/mol
# GULP energy per Si atom -5578.391522 kJ/mol
# Density = 2.167787 g / cm^3
# Si number density = 21.727318 Si / 1000 Ang^3
#
#
#
# Elastic Constant Matrix: (Units=GPa)
#
#
# Indices 1 2 3 4 5 6 
#
# 1 125.8205 3.4972 41.3420 -8.1814 22.0592 -43.5506
# 2 3.4972 28.8090 0.8407 -1.1557 7.3917 -18.9975
# 3 41.3420 0.8407 165.9449 -21.2004 29.6909 -10.2140
# 4 -8.1814 -1.1557 -21.2004 27.1771 -8.6379 -4.2589
# 5 22.0592 7.3917 29.6909 -8.6379 41.0282 -5.0877
# 6 -43.5506 -18.9975 -10.2140 -4.2589 -5.0877 38.5727
#
#
#
# Elastic Compliance Matrix: (Units=1/GPa)
#
#
# Indices 1 2 3 4 5 6 
#
# 1 0.022989 0.025318 -0.000425 0.010587 -0.009647 0.038209
# 2 0.025318 0.083234 0.003275 0.018885 -0.018307 0.070116
# 3 -0.000425 0.003275 0.007774 0.005137 -0.004513 0.003163
# 4 0.010587 0.018885 0.005137 0.049576 0.001127 0.028237
# 5 -0.009647 -0.018307 -0.004513 0.001127 0.034322 -0.016452
# 6 0.038209 0.070116 0.003163 0.028237 -0.016452 0.105383
#
#
# Mechanical properties :
#
#
# Convention : Reuss Voigt Hill
#
# Bulk Modulus (GPa) = 5.87091 45.77045 25.82068
# Shear Modulus (GPa) = 16.46248 39.68188 28.07218
#
# Velocity S-wave (km/s) = 2.75560 4.27823 3.59837
# Velocity P-wave (km/s) = 3.58223 6.74655 5.40131
#
# Compressibility (1/GPa) = 0.17033122
#
# Stress axis : x y z
#
# Youngs Moduli (GPa) = 43.49925 12.01434 128.63522
#
# Poissons Ratio (x) = -0.30417 0.05469
# Poissons Ratio (y) = -1.10130 -0.42126
# Poissons Ratio (z) = 0.01849 -0.03934
#
# Static dielectric constant tensor:
#      x y z
#    x 1.853540 0.022460 0.020320 
#    y 0.022460 2.024750 -0.095780 
#    z 0.020320 -0.095780 1.797740 
# 
# From -- ./inp_files/181351.got.cif
#   From: 2010.05.17/outbox.ucp.g08.bks.cvg/sg2_91_cif.got.tgz:181351.got - 2010.06.11 11:32:03.
