data_PCOD9072668
_publ_section_title
;
Structure prediction by ZEFSAII (Michael W. Deem and Ramdas Pophale) SiO2 
 PCOD9072668
Probable space group: P -1
;
_chemical_formula_sum "Si O2"
_cell_formula_units_Z 16
_cell_length_a 12.000000
_cell_length_b 15.000000
_cell_length_c 15.000000
_cell_angle_alpha 140.000000
_cell_angle_beta 150.000000
_cell_angle_gamma 50.000000
_cell_volume 865.974363
_symmetry_space_group_name_H-M "P -1"
_symmetry_group_IT_number 2
_symmetry_cell_setting 'triclinic'
loop_
_space_group_symop_operation_xyz
x,y,z
-x,-y,-z
loop_
_atom_site_type_symbol
_atom_site_label
_atom_site_fract_x
_atom_site_fract_y
_atom_site_fract_z
Si Si1 0.719074 0.726390 0.101262
Si Si2 0.896983 0.756934 0.968597
Si Si3 0.650256 0.070231 0.577285
Si Si4 0.903615 0.806794 0.467325
Si Si5 0.723664 0.402596 0.406343
Si Si6 0.436622 0.294681 0.461831
Si Si7 0.743962 0.964341 0.172998
Si Si8 0.173593 0.571312 0.293414
O O1 0.728687 0.730516 0.218812
O O2 0.746508 0.885324 0.207780
O O3 0.938675 0.641537 0.168070
O O4 0.493687 0.667294 0.849299
O O5 0.729227 0.770648 0.779561
O O6 0.877167 0.595986 0.864165
O O7 0.824115 0.851860 0.072028
O O8 0.146606 0.820337 0.166603
O O9 0.516388 0.172158 0.492001
O O10 0.500000 0.000000 0.500000
O O11 0.771527 0.932002 0.518069
O O12 0.053728 0.687963 0.528115
O O13 0.095373 0.897322 0.614933
O O14 0.698114 0.569098 0.493850
O O15 0.722530 0.395565 0.509526
O O16 0.652211 0.368083 0.614455
O O17 0.500000 0.000000 0.000000
#
# Coordination Sequence:
#
# PCOD9072668 Si02
#       8
#     2   2   2   2   2   2   2   2
#     4  11  20  32  54  82 127 159 182 231 296 359
#     4  10  22  38  60  91 122 154 192 246 291 355
#     4  11  26  45  61  83 114 159 216 254 284 340
#     4  10  23  36  55  84 115 155 199 245 293 353
#     4  10  20  36  56  91 122 151 186 238 298 366
#     4  11  22  37  65  89 122 160 196 239 300 354
#     4  11  20  30  51  82 124 155 185 223 289 362
#     4  10  20  34  60  96 125 151 192 231 300 372
#
# _framework density 18.476298
#
# number of rings (size 3 to 8) (size 9 to 14) (size 15 to 20)
#    0.000    1.500    1.250    5.625    3.500    2.000 
#    0.000    0.625    0.000   10.500    0.000    0.000 
#    0.000    0.000    0.000    0.000    0.000    0.000 
#
# Total GULP energy -89102.335063 kJ/mol
# GULP energy per Si atom -5568.895941 kJ/mol
# Density = 1.843424 g / cm^3
# Si number density = 18.476298 Si / 1000 Ang^3
#
#
#
# Elastic Constant Matrix: (Units=GPa)
#
#
# Indices 1 2 3 4 5 6 
#
# 1 60.3078 39.6021 28.2999 -2.6828 10.6540 4.8798
# 2 39.6021 170.5913 31.8904 -19.0026 2.0625 -1.3447
# 3 28.2999 31.8904 116.8578 -17.7366 -7.0620 6.7565
# 4 -2.6828 -19.0026 -17.7366 44.9940 0.8640 -3.9273
# 5 10.6540 2.0625 -7.0620 0.8640 21.8992 4.1453
# 6 4.8798 -1.3447 6.7565 -3.9273 4.1453 31.3064
#
#
#
# Elastic Compliance Matrix: (Units=1/GPa)
#
#
# Indices 1 2 3 4 5 6 
#
# 1 0.024782 -0.004823 -0.005808 -0.002722 -0.013098 -0.001424
# 2 -0.004823 0.007366 -0.000434 0.002748 0.001148 0.001355
# 3 -0.005808 -0.000434 0.011140 0.003563 0.006689 -0.001956
# 4 -0.002722 0.002748 0.003563 0.024859 0.000704 0.002799
# 5 -0.013098 0.001148 0.006689 0.000704 0.055304 -0.006587
# 6 -0.001424 0.001355 -0.001956 0.002799 -0.006587 0.033868
#
#
# Mechanical properties :
#
#
# Convention : Reuss Voigt Hill
#
# Bulk Modulus (GPa) = 47.26188 60.81574 54.03881
# Shear Modulus (GPa) = 26.80935 36.17088 31.49011
#
# Velocity S-wave (km/s) = 3.81335 4.42938 4.13286
# Velocity P-wave (km/s) = 6.71000 7.69066 7.21701
#
# Compressibility (1/GPa) = 0.02115870
#
# Stress axis : x y z
#
# Youngs Moduli (GPa) = 40.35115 135.76340 89.76402
#
# Poissons Ratio (x) = 0.65485 0.52132
# Poissons Ratio (y) = 0.19463 0.03894
# Poissons Ratio (z) = 0.23435 0.05889
#
# Static dielectric constant tensor:
#      x y z
#    x 1.668820 -0.034060 -0.022260 
#    y -0.034060 1.679580 0.005800 
#    z -0.022260 0.005800 1.671930 
# 
# From -- ./inp_files/521821.got.cif
#   From: 2010.05.17/outbox.ucp.g08.bks.cvg/sg2_261_cif.got.tgz:521821.got - 2010.06.11 11:32:03.
