data_PCOD9072427
_publ_section_title
;
Structure prediction by ZEFSAII (Michael W. Deem and Ramdas Pophale) SiO2 
 PCOD9072427
Probable space group: P -1
;
_chemical_formula_sum "Si O2"
_cell_formula_units_Z 14
_cell_length_a 8.969660
_cell_length_b 7.092374
_cell_length_c 12.620861
_cell_angle_alpha 91.365423
_cell_angle_beta 139.578657
_cell_angle_gamma 76.767882
_cell_volume 492.173127
_symmetry_space_group_name_H-M "P -1"
_symmetry_group_IT_number 2
_symmetry_cell_setting 'triclinic'
loop_
_space_group_symop_operation_xyz
x,y,z
-x,-y,-z
loop_
_atom_site_type_symbol
_atom_site_label
_atom_site_fract_x
_atom_site_fract_y
_atom_site_fract_z
Si Si1 0.286283 0.663864 0.151848
Si Si2 0.278922 0.244329 0.218198
Si Si3 0.631723 0.079894 0.232455
Si Si4 0.935475 0.573653 0.697143
Si Si5 0.107706 0.829808 0.260086
Si Si6 0.331051 0.763382 0.955549
Si Si7 0.899151 0.274158 0.527304
O O1 0.351940 0.437525 0.223398
O O2 0.283312 0.798568 0.254775
O O3 0.426444 0.680873 0.121352
O O4 0.001118 0.723851 0.964993
O O5 0.443044 0.085393 0.222621
O O6 0.256754 0.254584 0.334834
O O7 0.528279 0.183192 0.066435
O O8 0.801278 0.205946 0.368496
O O9 0.817908 0.858729 0.313185
O O10 0.965781 0.372371 0.778618
O O11 0.184452 0.620439 0.832183
O O12 0.862177 0.501803 0.543597
O O13 0.214556 0.816923 0.436181
O O14 0.878965 0.025581 0.131083
#
# Coordination Sequence:
#
# PCOD9072427 Si02
#       7
#     2   2   2   2   2   2   2
#     4   9  17  33  53  76 107 138 175 215 253 315
#     4   9  18  32  56  79 103 138 180 213 257 307
#     4  10  19  33  55  82 103 139 173 217 266 306
#     4   8  17  34  54  75 102 140 175 206 255 315
#     4   8  16  33  54  77  98 141 173 209 254 308
#     4  10  18  30  57  78 105 138 173 210 270 305
#     4   8  18  35  53  75 110 138 170 215 262 315
#
# _framework density 28.445271999999999
#
# number of rings (size 3 to 8) (size 9 to 14) (size 15 to 20)
#    0.857    2.286    0.000    1.286    0.000    1.714 
#    0.000    2.857   15.714   30.857    0.000    0.000 
#    0.000    0.000    0.000    0.000    0.000    0.000 
#
# Total GULP energy -78267.330747 kJ/mol
# GULP energy per Si atom -5590.523625 kJ/mol
# Density = 2.838053 g / cm^3
# Si number density = 28.445272 Si / 1000 Ang^3
#
#
#
# Elastic Constant Matrix: (Units=GPa)
#
#
# Indices 1 2 3 4 5 6 
#
# 1 167.1541 49.8474 44.9217 4.9011 -20.9300 -16.1944
# 2 49.8474 95.9982 24.5807 15.3959 -7.3731 -17.8178
# 3 44.9217 24.5807 72.3154 15.2756 -22.4378 -7.3076
# 4 4.9011 15.3959 15.2756 46.9384 -11.4318 4.1742
# 5 -20.9300 -7.3731 -22.4378 -11.4318 44.9877 3.2723
# 6 -16.1944 -17.8178 -7.3076 4.1742 3.2723 58.8691
#
#
#
# Elastic Compliance Matrix: (Units=1/GPa)
#
#
# Indices 1 2 3 4 5 6 
#
# 1 0.008217 -0.003369 -0.003725 0.001860 0.001846 0.000544
# 2 -0.003369 0.013839 -0.001846 -0.004270 -0.001554 0.003422
# 3 -0.003725 -0.001846 0.019767 -0.003853 0.006789 0.000766
# 4 0.001860 -0.004270 -0.003853 0.025254 0.004903 -0.003322
# 5 0.001846 -0.001554 0.006789 0.004903 0.027537 -0.000998
# 6 0.000544 0.003422 0.000766 -0.003322 -0.000998 0.018558
#
#
# Mechanical properties :
#
#
# Convention : Reuss Voigt Hill
#
# Bulk Modulus (GPa) = 41.76146 63.79637 52.77891
# Shear Modulus (GPa) = 35.96243 44.56689 40.26466
#
# Velocity S-wave (km/s) = 3.55951 3.96252 3.76641
# Velocity P-wave (km/s) = 5.62198 6.58877 6.12448
#
# Compressibility (1/GPa) = 0.02394552
#
# Stress axis : x y z
#
# Youngs Moduli (GPa) = 121.69221 72.25796 50.58875
#
# Poissons Ratio (x) = 0.24342 0.18842
# Poissons Ratio (y) = 0.40996 0.09338
# Poissons Ratio (z) = 0.45326 0.13337
#
# Static dielectric constant tensor:
#      x y z
#    x 2.207440 -0.057250 -0.006570 
#    y -0.057250 2.225880 0.024050 
#    z -0.006570 0.024050 2.216490 
# 
# From -- ./inp_files/198266.got.cif
#   From: 2010.05.17/outbox.cif.g08.bks.cpg/sg2_100_cif.got.tgz:198266.got - 2010.06.03 11:33:40.
