data_PCOD9072470
_publ_section_title
;
Structure prediction by ZEFSAII (Michael W. Deem and Ramdas Pophale) SiO2 
 PCOD9072470
Probable space group: P -1
;
_chemical_formula_sum "Si O2"
_cell_formula_units_Z 15
_cell_length_a 12.000000
_cell_length_b 9.000000
_cell_length_c 15.000000
_cell_angle_alpha 110.000000
_cell_angle_beta 130.000000
_cell_angle_gamma 110.000000
_cell_volume 728.972637
_symmetry_space_group_name_H-M "P -1"
_symmetry_group_IT_number 2
_symmetry_cell_setting 'triclinic'
loop_
_space_group_symop_operation_xyz
x,y,z
-x,-y,-z
loop_
_atom_site_type_symbol
_atom_site_label
_atom_site_fract_x
_atom_site_fract_y
_atom_site_fract_z
Si Si1 0.186234 0.326980 0.504870
Si Si2 0.672148 0.472412 0.683617
Si Si3 0.458358 0.106138 0.864833
Si Si4 0.393201 0.227097 0.316871
Si Si5 0.000000 0.500000 0.500000
Si Si6 0.270344 0.151832 0.930112
Si Si7 0.503741 0.357676 0.772102
Si Si8 0.823891 0.165810 0.021825
O O1 0.368840 0.538035 0.566895
O O2 0.295573 0.292894 0.619551
O O3 0.117894 0.425881 0.541612
O O4 0.971537 0.067397 0.290830
O O5 0.462271 0.261585 0.462682
O O6 0.733551 0.711560 0.749648
O O7 0.611396 0.392228 0.739639
O O8 0.901275 0.576580 0.791707
O O9 0.447390 0.220480 0.964626
O O10 0.424493 0.162359 0.763165
O O11 0.699039 0.217402 0.001331
O O12 0.257529 0.805370 0.713358
O O13 0.265674 0.977070 0.149000
O O14 0.244852 0.025833 0.980455
O O15 0.327022 0.377072 0.034920
#
# Coordination Sequence:
#
# PCOD9072470 Si02
#       8
#     2   2   2   2   1   2   2   2
#     4  10  20  38  65  93 123 163 214 258 314 370
#     4  10  22  36  66  93 128 168 212 258 315 374
#     4  11  25  41  66  94 131 169 212 263 324 380
#     4  10  19  37  62  97 124 160 215 262 304 374
#     4  10  20  40  64  90 118 166 212 266 302 370
#     4  11  22  39  65  94 124 168 216 261 311 378
#     4  11  24  44  61  94 136 168 206 263 322 381
#     4  12  21  39  66  97 125 165 215 267 308 376
#
# _framework density 20.576903999999999
#
# number of rings (size 3 to 8) (size 9 to 14) (size 15 to 20)
#    0.000    1.333    5.333    1.200    0.000    3.733 
#    0.000    6.000    0.000    0.000    0.000    0.000 
#    0.000    0.000    0.000    0.000    0.000    0.000 
#
# Total GULP energy -83524.348947 kJ/mol
# GULP energy per Si atom -5568.289930 kJ/mol
# Density = 2.053007 g / cm^3
# Si number density = 20.576904 Si / 1000 Ang^3
#
#
#
# Elastic Constant Matrix: (Units=GPa)
#
#
# Indices 1 2 3 4 5 6 
#
# 1 39.2981 -1.2965 -12.5392 -9.9127 30.5038 20.0845
# 2 -1.2965 20.7909 8.7742 -5.0091 -2.9932 13.9131
# 3 -12.5392 8.7742 38.4233 2.8108 -8.6380 4.8577
# 4 -9.9127 -5.0091 2.8108 3.6982 -1.1428 -8.1695
# 5 30.5038 -2.9932 -8.6380 -1.1428 35.4781 -15.2556
# 6 20.0845 13.9131 4.8577 -8.1695 -15.2556 18.2224
#
#
#
# Elastic Compliance Matrix: (Units=1/GPa)
#
#
# Indices 1 2 3 4 5 6 
#
# 1 -0.071597 -0.099015 0.048728 -0.499567 0.021135 -0.064751
# 2 -0.099015 -0.035625 0.037197 -0.571552 0.026483 -0.107651
# 3 0.048728 0.037197 0.000626 0.334698 0.002063 0.069506
# 4 -0.499567 -0.571552 0.334698 -3.669173 0.036421 -0.716705
# 5 0.021135 0.026483 0.002063 0.036421 0.003123 -0.025122
# 6 -0.064751 -0.107651 0.069506 -0.716705 -0.025122 -0.152438
#
#
# Mechanical properties :
#
#
# Convention : Reuss Voigt Hill
#
# Bulk Modulus (GPa) = -7.53140 9.82104 1.14482
# Shear Modulus (GPa) = -1.26802 18.38466 8.55832
#
# Velocity S-wave (km/s) = -0.78586 2.99232 2.04162
# Velocity P-wave (km/s) = 2.11931 4.08924 2.47289
#
# Compressibility (1/GPa) = -0.13277750
#
# Stress axis : x y z
#
# Youngs Moduli (GPa) = -13.96699 -28.07006 1597.72841
#
# Poissons Ratio (x) = -2.77937 -77.85413
# Poissons Ratio (y) = -1.38295 -59.43064
# Poissons Ratio (z) = 0.68058 1.04412
#
# Static dielectric constant tensor:
#      x y z
#    x 1.799590 -0.006580 0.021630 
#    y -0.006580 1.714130 -0.025980 
#    z 0.021630 -0.025980 1.761620 
# 
# From -- ./inp_files/276921.got.cif
#   From: 2010.05.17/outbox.ucp.g08.bks.cvg/sg2_139_cif.got.tgz:276921.got - 2010.06.11 11:32:03.
