data_PCOD9072912
_publ_section_title
;
Structure prediction by ZEFSAII (Michael W. Deem and Ramdas Pophale) SiO2 
 PCOD9072912
Probable space group: P -1
;
_chemical_formula_sum "Si O2"
_cell_formula_units_Z 12
_cell_length_a 5.018310
_cell_length_b 13.944913
_cell_length_c 12.866183
_cell_angle_alpha 50.221403
_cell_angle_beta 66.494790
_cell_angle_gamma 51.014434
_cell_volume 537.851657
_symmetry_space_group_name_H-M "P -1"
_symmetry_group_IT_number 2
_symmetry_cell_setting 'triclinic'
loop_
_space_group_symop_operation_xyz
x,y,z
-x,-y,-z
loop_
_atom_site_type_symbol
_atom_site_label
_atom_site_fract_x
_atom_site_fract_y
_atom_site_fract_z
Si Si1 0.876455 0.660425 0.274179
Si Si2 0.502446 0.394385 0.481833
Si Si3 0.815036 0.319090 0.271406
Si Si4 0.080956 0.873760 0.993493
Si Si5 0.824629 0.810431 0.883051
Si Si6 0.084930 0.514760 0.143868
O O1 0.182931 0.513878 0.380521
O O2 0.011141 0.763251 0.145955
O O3 0.804942 0.605422 0.215618
O O4 0.574559 0.714794 0.366452
O O5 0.500000 0.500000 0.500000
O O6 0.790825 0.308864 0.407722
O O7 0.061564 0.179166 0.257882
O O8 0.953025 0.428532 0.160399
O O9 0.438503 0.397887 0.225082
O O10 0.464518 0.819488 0.933936
O O11 0.849346 0.909007 0.901095
O O12 0.000000 0.000000 0.000000
O O13 0.101701 0.643172 0.994832
#
# Coordination Sequence:
#
# PCOD9072912 Si02
#       6
#     2   2   2   2   2   2
#     4   9  20  33  54  82 112 145 188 224 268 332
#     4  10  18  33  54  84 117 147 177 216 277 346
#     4  11  20  31  53  83 119 148 172 220 283 343
#     4  11  24  41  60  79 106 150 197 241 273 314
#     4  11  21  36  55  82 111 143 188 233 281 330
#     4  10  18  31  51  82 117 146 174 217 279 348
#
# _framework density 22.310986
#
# number of rings (size 3 to 8) (size 9 to 14) (size 15 to 20)
#    0.000    1.667    1.667    5.500    2.333    0.000 
#    0.000    0.000    0.000    2.000    0.000    0.000 
#    0.000    0.000    0.000    0.000    0.000    0.000 
#
# Total GULP energy -66873.846419 kJ/mol
# GULP energy per Si atom -5572.820535 kJ/mol
# Density = 2.226021 g / cm^3
# Si number density = 22.310986 Si / 1000 Ang^3
#
#
#
# Elastic Constant Matrix: (Units=GPa)
#
#
# Indices 1 2 3 4 5 6 
#
# 1 92.8551 18.3992 28.7241 9.4592 -10.5614 19.2137
# 2 18.3992 57.3425 49.4013 30.6577 -9.5147 19.5415
# 3 28.7241 49.4013 133.6275 58.5452 -11.0938 9.2794
# 4 9.4592 30.6577 58.5452 39.1124 -2.2856 4.7284
# 5 -10.5614 -9.5147 -11.0938 -2.2856 26.7380 9.7583
# 6 19.2137 19.5415 9.2794 4.7284 9.7583 32.5935
#
#
#
# Elastic Compliance Matrix: (Units=1/GPa)
#
#
# Indices 1 2 3 4 5 6 
#
# 1 0.015030 0.004907 -0.002473 -0.001344 0.011812 -0.014440
# 2 0.004907 0.055600 0.001837 -0.040570 0.033997 -0.041044
# 3 -0.002473 0.001837 0.023867 -0.035672 0.007849 -0.003614
# 4 -0.001344 -0.040570 -0.035672 0.105701 -0.031445 0.029352
# 5 0.011812 0.033997 0.007849 -0.031445 0.071697 -0.046485
# 6 -0.014440 -0.041044 -0.003614 0.029352 -0.046485 0.074489
#
#
# Mechanical properties :
#
#
# Convention : Reuss Voigt Hill
#
# Bulk Modulus (GPa) = 9.70486 52.98602 31.34544
# Shear Modulus (GPa) = 13.43402 32.17549 22.80475
#
# Velocity S-wave (km/s) = 2.45649 3.80167 3.20055
# Velocity P-wave (km/s) = 3.52208 6.56282 5.26667
#
# Compressibility (1/GPa) = 0.10304118
#
# Stress axis : x y z
#
# Youngs Moduli (GPa) = 66.53154 17.98552 41.89895
#
# Poissons Ratio (x) = -0.08826 0.10360
# Poissons Ratio (y) = -0.32648 -0.07698
# Poissons Ratio (z) = 0.16451 -0.03304
#
# Static dielectric constant tensor:
#      x y z
#    x 1.869830 0.015960 -0.025710 
#    y 0.015960 1.911180 0.093620 
#    z -0.025710 0.093620 1.947870 
# 
# From -- ./inp_files/73412.got.cif
#   From: 2010.05.17/outbox.cif.g08.bks.cpg/sg2_37_cif.got.tgz:73412.got - 2010.06.03 11:33:40.
