data_PCOD9072947
_publ_section_title
;
Structure prediction by ZEFSAII (Michael W. Deem and Ramdas Pophale) SiO2 
 PCOD9072947
Probable space group: P -1
;
_chemical_formula_sum "Si O2"
_cell_formula_units_Z 14
_cell_length_a 6.950134
_cell_length_b 12.099836
_cell_length_c 17.835316
_cell_angle_alpha 28.294483
_cell_angle_beta 62.723816
_cell_angle_gamma 61.666416
_cell_volume 622.834007
_symmetry_space_group_name_H-M "P -1"
_symmetry_group_IT_number 2
_symmetry_cell_setting 'triclinic'
loop_
_space_group_symop_operation_xyz
x,y,z
-x,-y,-z
loop_
_atom_site_type_symbol
_atom_site_label
_atom_site_fract_x
_atom_site_fract_y
_atom_site_fract_z
Si Si1 0.072711 0.336083 0.243251
Si Si2 0.429510 0.811864 0.206686
Si Si3 0.187080 0.523369 0.514922
Si Si4 0.983054 0.887216 0.457052
Si Si5 0.633714 0.648119 0.697161
Si Si6 0.041769 0.789743 0.175504
Si Si7 0.686908 0.681923 0.089785
O O1 0.945280 0.592849 0.091353
O O2 0.958002 0.245230 0.393823
O O3 0.313575 0.336898 0.233206
O O4 0.050546 0.141603 0.301559
O O5 0.397772 0.591129 0.395714
O O6 0.199202 0.849351 0.177898
O O7 0.613978 0.739088 0.154678
O O8 0.420563 0.080038 0.076935
O O9 0.000000 0.500000 0.500000
O O10 0.100334 0.743591 0.452895
O O11 0.178676 0.289699 0.705412
O O12 0.720191 0.874188 0.509059
O O13 0.816558 0.435785 0.756573
O O14 0.414731 0.549909 0.777070
O O15 0.000000 0.000000 0.000000
#
# Coordination Sequence:
#
# PCOD9072947 Si02
#       7
#     2   2   2   2   2   2   2
#     4   9  17  32  53  79  98 132 184 219 250 309
#     4   9  19  30  46  77 110 136 171 220 257 310
#     4   9  17  32  52  75 111 135 166 222 267 305
#     4   8  17  33  51  77 101 132 174 223 259 303
#     4   8  16  29  47  73  99 128 168 219 250 298
#     4   9  15  27  52  74  97 137 173 208 257 312
#     4  10  18  31  52  75 104 141 178 209 259 313
#
# _framework density 22.477900000000002
#
# number of rings (size 3 to 8) (size 9 to 14) (size 15 to 20)
#    0.857    2.286    0.000    1.714    0.000    0.571 
#    0.000    1.429    0.000    0.857    0.000    0.000 
#    0.000    0.000    0.000    0.000    0.000    0.000 
#
# Total GULP energy -77946.150317 kJ/mol
# GULP energy per Si atom -5567.582165 kJ/mol
# Density = 2.242674 g / cm^3
# Si number density = 22.477900 Si / 1000 Ang^3
#
#
#
# Elastic Constant Matrix: (Units=GPa)
#
#
# Indices 1 2 3 4 5 6 
#
# 1 51.3153 5.0874 7.8914 -3.9597 -12.1069 12.2879
# 2 5.0874 64.4088 6.4475 -18.4980 -5.4472 20.4091
# 3 7.8914 6.4475 98.2301 8.3972 -4.1408 5.2646
# 4 -3.9597 -18.4980 8.3972 27.7251 -0.9116 -11.4202
# 5 -12.1069 -5.4472 -4.1408 -0.9116 34.2469 -4.7765
# 6 12.2879 20.4091 5.2646 -11.4202 -4.7765 27.3224
#
#
#
# Elastic Compliance Matrix: (Units=1/GPa)
#
#
# Indices 1 2 3 4 5 6 
#
# 1 0.023769 0.002617 -0.001337 0.001452 0.007229 -0.010517
# 2 0.002617 0.023008 -0.001857 0.011077 0.002859 -0.012876
# 3 -0.001337 -0.001857 0.011048 -0.005832 0.000054 -0.002569
# 4 0.001452 0.011077 -0.005832 0.051631 0.004987 0.014649
# 5 0.007229 0.002859 0.000054 0.004987 0.032684 0.002401
# 6 -0.010517 -0.012876 -0.002569 0.014649 0.002401 0.057985
#
#
# Mechanical properties :
#
#
# Convention : Reuss Voigt Hill
#
# Bulk Modulus (GPa) = 17.64539 28.08965 22.86752
# Shear Modulus (GPa) = 22.70969 30.82740 26.76855
#
# Velocity S-wave (km/s) = 3.18199 3.70733 3.45466
# Velocity P-wave (km/s) = 4.62247 5.55423 5.10963
#
# Compressibility (1/GPa) = 0.05667203
#
# Stress axis : x y z
#
# Youngs Moduli (GPa) = 42.07074 43.46305 90.51408
#
# Poissons Ratio (x) = -0.11375 0.12102
# Poissons Ratio (y) = -0.11010 0.16807
# Poissons Ratio (z) = 0.05625 0.08070
#
# Static dielectric constant tensor:
#      x y z
#    x 1.953800 0.031970 -0.027510 
#    y 0.031970 1.812690 -0.016550 
#    z -0.027510 -0.016550 1.919210 
# 
# From -- ./inp_files/394548.got.cif
#   From: 2010.05.17/outbox.cif.g08.bks.cpg/sg2_198_cif.got.tgz:394548.got - 2010.06.03 11:33:40.
