data_PCOD9072602
_publ_section_title
;
Structure prediction by ZEFSAII (Michael W. Deem and Ramdas Pophale) SiO2 
 PCOD9072602
Probable space group: P -1
;
_chemical_formula_sum "Si O2"
_cell_formula_units_Z 16
_cell_length_a 12.000000
_cell_length_b 21.000000
_cell_length_c 18.000000
_cell_angle_alpha 160.000000
_cell_angle_beta 40.000000
_cell_angle_gamma 150.000000
_cell_volume 744.844803
_symmetry_space_group_name_H-M "P -1"
_symmetry_group_IT_number 2
_symmetry_cell_setting 'triclinic'
loop_
_space_group_symop_operation_xyz
x,y,z
-x,-y,-z
loop_
_atom_site_type_symbol
_atom_site_label
_atom_site_fract_x
_atom_site_fract_y
_atom_site_fract_z
Si Si1 0.825438 0.428000 0.313981
Si Si2 0.016282 0.093655 0.815977
Si Si3 0.273066 0.605728 0.197336
Si Si4 0.898364 0.165336 0.270030
Si Si5 0.401960 0.974625 0.117910
Si Si6 0.508516 0.839679 0.557817
Si Si7 0.250005 0.920941 0.453703
Si Si8 0.810313 0.735614 0.914701
O O1 0.662922 0.194684 0.197205
O O2 0.080651 0.542469 0.284920
O O3 0.892187 0.650607 0.575719
O O4 0.683474 0.289893 0.157926
O O5 0.774183 0.010616 0.820212
O O6 0.039473 0.894843 0.563991
O O7 0.211457 0.344873 0.943308
O O8 0.081897 0.170099 0.953599
O O9 0.232045 0.694627 0.241257
O O10 0.525826 0.835248 0.349747
O O11 0.725312 0.212090 0.398228
O O12 0.006163 0.200447 0.172337
O O13 0.751634 0.896855 0.089115
O O14 0.399625 0.024380 0.260135
O O15 0.410777 0.558914 0.297594
O O16 0.694794 0.011490 0.586566
#
# Coordination Sequence:
#
# PCOD9072602 Si02
#       8
#     2   2   2   2   2   2   2   2
#     4  10  19  42  65  92 129 166 213 263 318 384
#     4  11  23  42  62  94 130 174 211 258 321 390
#     4  10  21  38  63  98 120 162 222 266 312 370
#     4  11  23  40  65 100 131 159 221 275 320 380
#     4  10  24  38  67  97 127 178 212 254 332 394
#     4  12  23  41  67  94 133 172 209 271 323 374
#     4  11  23  38  66  94 126 173 214 266 312 375
#     4  11  24  39  65 100 129 165 216 275 325 371
#
# _framework density 21.480985
#
# number of rings (size 3 to 8) (size 9 to 14) (size 15 to 20)
#    0.000    1.250    3.750    2.250    7.000    0.500 
#    0.000    8.750    0.000    0.000    0.000    0.000 
#    0.000    0.000    0.000    0.000    0.000    0.000 
#
# Total GULP energy -89226.921181 kJ/mol
# GULP energy per Si atom -5576.682574 kJ/mol
# Density = 2.143209 g / cm^3
# Si number density = 21.480985 Si / 1000 Ang^3
#
#
#
# Elastic Constant Matrix: (Units=GPa)
#
#
# Indices 1 2 3 4 5 6 
#
# 1 98.1027 36.4044 49.8256 -4.3827 18.7579 -37.6369
# 2 36.4044 78.4379 14.7882 -8.1639 2.1085 -21.8092
# 3 49.8256 14.7882 86.1674 0.3059 8.8904 -26.8258
# 4 -4.3827 -8.1639 0.3059 24.9838 -16.8087 10.2069
# 5 18.7579 2.1085 8.8904 -16.8087 39.1308 -6.9278
# 6 -37.6369 -21.8092 -26.8258 10.2069 -6.9278 38.8563
#
#
#
# Elastic Compliance Matrix: (Units=1/GPa)
#
#
# Indices 1 2 3 4 5 6 
#
# 1 0.023708 -0.006289 -0.006269 -0.012637 -0.012151 0.016259
# 2 -0.006289 0.016943 0.001260 0.006502 0.005230 0.003512
# 3 -0.006269 0.001260 0.017725 -0.005545 -0.002062 0.007960
# 4 -0.012637 0.006502 -0.005545 0.073283 0.033910 -0.025623
# 5 -0.012151 0.005230 -0.002062 0.033910 0.044133 -0.011297
# 6 0.016259 0.003512 0.007960 -0.025623 -0.011297 0.053668
#
#
# Mechanical properties :
#
#
# Convention : Reuss Voigt Hill
#
# Bulk Modulus (GPa) = 27.95017 51.63828 39.79422
# Shear Modulus (GPa) = 18.94059 31.37351 25.15705
#
# Velocity S-wave (km/s) = 2.97263 3.82583 3.42589
# Velocity P-wave (km/s) = 4.98215 6.60357 5.84932
#
# Compressibility (1/GPa) = 0.03577796
#
# Stress axis : x y z
#
# Youngs Moduli (GPa) = 42.18034 59.02124 56.41763
#
# Poissons Ratio (x) = 0.37120 0.35370
# Poissons Ratio (y) = 0.26528 -0.07106
# Poissons Ratio (z) = 0.26444 -0.07434
#
# Static dielectric constant tensor:
#      x y z
#    x 1.774180 0.001320 -0.036240 
#    y 0.001320 1.775810 -0.020970 
#    z -0.036240 -0.020970 1.856270 
# 
# From -- ./inp_files/281487.got.cif
#   From: 2010.05.17/outbox.ucp.g08.bks.cvg/sg2_141_cif.got.tgz:281487.got - 2010.06.11 11:32:03.
