data_PCOD9072852
_publ_section_title
;
Structure prediction by ZEFSAII (Michael W. Deem and Ramdas Pophale) SiO2 
 PCOD9072852
Probable space group: P -1
;
_chemical_formula_sum "Si O2"
_cell_formula_units_Z 16
_cell_length_a 27.000000
_cell_length_b 12.000000
_cell_length_c 9.000000
_cell_angle_alpha 140.000000
_cell_angle_beta 150.000000
_cell_angle_gamma 30.000000
_cell_volume 727.497153
_symmetry_space_group_name_H-M "P -1"
_symmetry_group_IT_number 2
_symmetry_cell_setting 'triclinic'
loop_
_space_group_symop_operation_xyz
x,y,z
-x,-y,-z
loop_
_atom_site_type_symbol
_atom_site_label
_atom_site_fract_x
_atom_site_fract_y
_atom_site_fract_z
Si Si1 0.072298 0.698424 0.886509
Si Si2 0.533593 0.429504 0.686280
Si Si3 0.429222 0.172384 0.128609
Si Si4 0.833480 0.521999 0.386161
Si Si5 0.837497 0.108909 0.523080
Si Si6 0.828755 0.199712 0.247105
Si Si7 0.663905 0.074570 0.223818
Si Si8 0.881965 0.839514 0.799114
O O1 0.109128 0.519094 0.675456
O O2 0.999611 0.714746 0.860964
O O3 0.188655 0.690631 0.238658
O O4 0.976485 0.909502 0.744888
O O5 0.500000 0.500000 0.500000
O O6 0.504397 0.258632 0.470449
O O7 0.448285 0.660793 0.791025
O O8 0.678984 0.323015 0.972380
O O9 0.306289 0.376233 0.928443
O O10 0.500000 0.000000 0.000000
O O11 0.389053 0.063808 0.030772
O O12 0.864384 0.344396 0.409581
O O13 0.856984 0.690726 0.674156
O O14 0.848499 0.147795 0.420818
O O15 0.748267 0.044644 0.270586
O O16 0.893443 0.982878 0.090736
O O17 0.758045 0.000204 0.534232
#
# Coordination Sequence:
#
# PCOD9072852 Si02
#       8
#     2   2   2   2   2   2   2   2
#     4  10  21  41  64  83 113 161 207 239 299 359
#     4  12  19  34  60  90 117 156 194 237 293 353
#     4  11  19  33  60  91 115 152 197 237 285 350
#     4  11  21  37  64  92 117 155 202 245 293 354
#     4  10  23  40  61  85 121 162 195 248 300 348
#     4  12  23  38  59  91 125 153 196 249 300 348
#     4  10  20  38  58  85 120 157 200 236 287 354
#     4  10  21  38  62  91 118 153 200 249 295 350
#
# _framework density 21.993213000000001
#
# number of rings (size 3 to 8) (size 9 to 14) (size 15 to 20)
#    0.000    1.250    3.750    4.125    0.000    2.500 
#    0.000    8.125    0.000    0.000    0.000    0.000 
#    0.000    0.000    0.000    0.000    0.000    0.000 
#
# Total GULP energy -89173.987003 kJ/mol
# GULP energy per Si atom -5573.374188 kJ/mol
# Density = 2.194316 g / cm^3
# Si number density = 21.993213 Si / 1000 Ang^3
#
#
#
# Elastic Constant Matrix: (Units=GPa)
#
#
# Indices 1 2 3 4 5 6 
#
# 1 166.1359 45.6316 54.1585 14.1248 13.9329 32.2579
# 2 45.6316 60.0365 38.8055 12.3364 10.2825 13.8177
# 3 54.1585 38.8055 70.6725 4.9114 22.6116 21.4822
# 4 14.1248 12.3364 4.9114 35.9544 8.6236 20.5484
# 5 13.9329 10.2825 22.6116 8.6236 39.6221 12.7009
# 6 32.2579 13.8177 21.4822 20.5484 12.7009 30.9093
#
#
#
# Elastic Compliance Matrix: (Units=1/GPa)
#
#
# Indices 1 2 3 4 5 6 
#
# 1 0.009381 -0.003898 -0.003338 0.002214 0.001663 -0.007883
# 2 -0.003898 0.030185 -0.016339 -0.012434 0.002648 0.009107
# 3 -0.003338 -0.016339 0.033823 0.015520 -0.011381 -0.018361
# 4 0.002214 -0.012434 0.015520 0.053902 -0.004880 -0.041368
# 5 0.001663 0.002648 -0.011381 -0.004880 0.033265 -0.005435
# 6 -0.007883 0.009107 -0.018361 -0.041368 -0.005435 0.079003
#
#
# Mechanical properties :
#
#
# Convention : Reuss Voigt Hill
#
# Bulk Modulus (GPa) = 38.11091 63.78179 50.94635
# Shear Modulus (GPa) = 16.92295 31.84710 24.38503
#
# Velocity S-wave (km/s) = 2.77693 3.80944 3.33341
# Velocity P-wave (km/s) = 5.25812 6.95793 6.16687
#
# Compressibility (1/GPa) = 0.02623921
#
# Stress axis : x y z
#
# Youngs Moduli (GPa) = 106.59935 33.12871 29.56545
#
# Poissons Ratio (x) = 0.12913 0.09870
# Poissons Ratio (y) = 0.41550 0.48307
# Poissons Ratio (z) = 0.35587 0.54129
#
# Static dielectric constant tensor:
#      x y z
#    x 1.890850 -0.194570 0.040010 
#    y -0.194570 2.152900 0.081500 
#    z 0.040010 0.081500 1.943530 
# 
# From -- ./inp_files/357105.got.cif
#   From: 2010.05.17/outbox.ucp.g08.bks.cvg/sg2_179_cif.got.tgz:357105.got - 2010.06.11 11:32:03.
