data_PCOD9072997
_publ_section_title
;
Structure prediction by ZEFSAII (Michael W. Deem and Ramdas Pophale) SiO2 
 PCOD9072997
Probable space group: P -1
;
_chemical_formula_sum "Si O2"
_cell_formula_units_Z 14
_cell_length_a 12.000000
_cell_length_b 9.000000
_cell_length_c 12.000000
_cell_angle_alpha 40.000000
_cell_angle_beta 120.000000
_cell_angle_gamma 130.000000
_cell_volume 638.079485
_symmetry_space_group_name_H-M "P -1"
_symmetry_group_IT_number 2
_symmetry_cell_setting 'triclinic'
loop_
_space_group_symop_operation_xyz
x,y,z
-x,-y,-z
loop_
_atom_site_type_symbol
_atom_site_label
_atom_site_fract_x
_atom_site_fract_y
_atom_site_fract_z
Si Si1 0.856801 0.428509 0.672429
Si Si2 0.447648 0.453175 0.808496
Si Si3 0.133232 0.157351 0.712702
Si Si4 0.395989 0.700166 0.216640
Si Si5 0.298926 0.894210 0.848435
Si Si6 0.342389 0.148767 0.150561
Si Si7 0.901321 0.679171 0.020485
O O1 0.921243 0.666065 0.482353
O O2 0.747531 0.463138 0.687173
O O3 0.984593 0.377031 0.817774
O O4 0.743248 0.161139 0.710496
O O5 0.282306 0.354570 0.739891
O O6 0.544823 0.442583 0.759453
O O7 0.543991 0.725827 0.763683
O O8 0.427094 0.255766 0.014690
O O9 0.191191 0.018470 0.732549
O O10 0.009099 0.924445 0.856040
O O11 0.545172 0.894532 0.244890
O O12 0.343330 0.862995 0.015307
O O13 0.207277 0.600929 0.927423
O O14 0.215119 0.238345 0.034268
#
# Coordination Sequence:
#
# PCOD9072997 Si02
#       7
#     2   2   2   2   2   2   2
#     4  12  26  42  69 101 137 175 220 269 342 392
#     4  10  22  43  73  96 128 175 232 272 329 383
#     4  11  25  43  66 102 137 174 219 277 330 396
#     4  10  20  43  70  99 126 170 227 283 317 387
#     4  10  20  39  70  94 128 174 217 277 329 371
#     4  11  23  43  70  99 127 184 222 268 333 397
#     4  12  24  43  66  98 139 178 214 272 329 411
#
# _framework density 21.940840000000001
#
# number of rings (size 3 to 8) (size 9 to 14) (size 15 to 20)
#    0.000    1.143    4.286    2.571    2.000    4.000 
#    0.000    1.429    0.000    0.000    0.000    0.000 
#    0.000    0.000    0.000    0.000    0.000    0.000 
#
# Total GULP energy -78147.452256 kJ/mol
# GULP energy per Si atom -5581.960875 kJ/mol
# Density = 2.189090 g / cm^3
# Si number density = 21.940840 Si / 1000 Ang^3
#
#
#
# Elastic Constant Matrix: (Units=GPa)
#
#
# Indices 1 2 3 4 5 6 
#
# 1 72.7432 23.6043 -0.7055 7.8612 3.1751 -0.8240
# 2 23.6043 118.5131 16.8286 -6.3432 -5.7780 -0.4167
# 3 -0.7055 16.8286 99.5168 -6.7427 -0.2098 -2.9276
# 4 7.8612 -6.3432 -6.7427 13.8797 0.2452 2.6822
# 5 3.1751 -5.7780 -0.2098 0.2452 8.3487 -2.6373
# 6 -0.8240 -0.4167 -2.9276 2.6822 -2.6373 32.2893
#
#
#
# Elastic Compliance Matrix: (Units=1/GPa)
#
#
# Indices 1 2 3 4 5 6 
#
# 1 0.016811 -0.004406 0.000087 -0.011452 -0.008914 0.000603
# 2 -0.004406 0.010262 -0.001314 0.006382 0.008580 0.000072
# 3 0.000087 -0.001314 0.010584 0.004401 -0.000639 0.000527
# 4 -0.011452 0.006382 0.004401 0.084767 0.004341 -0.006498
# 5 -0.008914 0.008580 -0.000639 0.004341 0.132206 0.010263
# 6 0.000603 0.000072 0.000527 -0.006498 0.010263 0.032412
#
#
# Mechanical properties :
#
#
# Convention : Reuss Voigt Hill
#
# Bulk Modulus (GPa) = 37.89116 41.13643 39.51379
# Shear Modulus (GPa) = 16.28107 27.63991 21.96049
#
# Velocity S-wave (km/s) = 2.72700 3.55314 3.16713
# Velocity P-wave (km/s) = 5.21753 5.96847 5.60559
#
# Compressibility (1/GPa) = 0.02639138
#
# Stress axis : x y z
#
# Youngs Moduli (GPa) = 59.48473 97.44523 94.48471
#
# Poissons Ratio (x) = 0.42935 -0.00825
# Poissons Ratio (y) = 0.26209 0.12415
# Poissons Ratio (z) = -0.00519 0.12804
#
# Static dielectric constant tensor:
#      x y z
#    x 1.826160 -0.049760 0.005470 
#    y -0.049760 1.848370 -0.013010 
#    z 0.005470 -0.013010 1.808370 
# 
# From -- ./inp_files/418772.got.cif
#   From: 2010.05.17/outbox.ucp.g08.bks.cvg/sg2_210_cif.got.tgz:418772.got - 2010.06.11 11:32:03.
