data_PCOD9072016
_publ_section_title
;
Structure prediction by ZEFSAII (Michael W. Deem and Ramdas Pophale) SiO2 
 PCOD9072016
Probable space group: P -1
;
_chemical_formula_sum "Si O2"
_cell_formula_units_Z 16
_cell_length_a 21.000000
_cell_length_b 12.000000
_cell_length_c 18.000000
_cell_angle_alpha 150.000000
_cell_angle_beta 160.000000
_cell_angle_gamma 40.000000
_cell_volume 744.844803
_symmetry_space_group_name_H-M "P -1"
_symmetry_group_IT_number 2
_symmetry_cell_setting 'triclinic'
loop_
_space_group_symop_operation_xyz
x,y,z
-x,-y,-z
loop_
_atom_site_type_symbol
_atom_site_label
_atom_site_fract_x
_atom_site_fract_y
_atom_site_fract_z
Si Si1 0.918190 0.343080 0.107543
Si Si2 0.526204 0.262087 0.705194
Si Si3 0.346839 0.552551 0.305562
Si Si4 0.942934 0.949646 0.295376
Si Si5 0.925943 0.120435 0.765314
Si Si6 0.338588 0.430521 0.464312
Si Si7 0.220416 0.154737 0.416210
Si Si8 0.177275 0.782591 0.565547
O O1 0.085172 0.301796 0.319513
O O2 0.010094 0.546135 0.267415
O O3 0.745393 0.390383 0.995278
O O4 0.840119 0.102128 0.837240
O O5 0.371874 0.333303 0.524780
O O6 0.443493 0.264233 0.698821
O O7 0.500000 0.000000 0.500000
O O8 0.500000 0.500000 0.500000
O O9 0.236986 0.736589 0.322754
O O10 0.478671 0.596623 0.400382
O O11 0.180466 0.314400 0.982609
O O12 0.025453 0.965694 0.311868
O O13 0.120368 0.970157 0.558556
O O14 0.805755 0.098855 0.265078
O O15 0.838287 0.901946 0.596310
O O16 0.135096 0.285123 0.119850
O O17 0.324492 0.686362 0.620404
#
# Coordination Sequence:
#
# PCOD9072016 Si02
#       8
#     2   2   2   2   2   2   2   2
#     4  10  18  36  58  90 119 154 201 252 297 356
#     4  10  19  30  56  96 118 147 201 253 298 349
#     4  12  23  38  63  93 121 157 206 256 302 349
#     4  11  24  41  61  88 124 167 200 248 305 367
#     4  12  22  40  62  91 124 155 206 254 303 360
#     4  12  21  36  65  89 122 160 197 258 300 354
#     4  10  18  33  60  88 118 152 200 255 302 342
#     4  11  22  41  63  87 125 164 201 243 311 367
#
# _framework density 21.480985
#
# number of rings (size 3 to 8) (size 9 to 14) (size 15 to 20)
#    0.000    1.000    5.000    4.875    0.000    0.500 
#    0.000    1.875    0.000    0.750    0.000    0.000 
#    0.000    0.000    0.000    0.000    0.000    0.000 
#
# Total GULP energy -89146.002013 kJ/mol
# GULP energy per Si atom -5571.625126 kJ/mol
# Density = 2.143209 g / cm^3
# Si number density = 21.480985 Si / 1000 Ang^3
#
#
#
# Elastic Constant Matrix: (Units=GPa)
#
#
# Indices 1 2 3 4 5 6 
#
# 1 186.9631 23.0911 27.4628 -10.2809 15.0203 -10.2021
# 2 23.0911 58.8953 0.4648 -16.3717 -8.6503 -1.1010
# 3 27.4628 0.4648 11.0552 -11.7605 14.2808 1.2812
# 4 -10.2809 -16.3717 -11.7605 21.8638 -9.9115 8.1015
# 5 15.0203 -8.6503 14.2808 -9.9115 28.3341 4.1566
# 6 -10.2021 -1.1010 1.2812 8.1015 4.1566 33.0717
#
#
#
# Elastic Compliance Matrix: (Units=1/GPa)
#
#
# Indices 1 2 3 4 5 6 
#
# 1 -0.002147 0.008090 0.061214 0.035538 -0.013377 -0.009789
# 2 0.008090 0.014889 -0.094511 -0.020281 0.039827 0.006615
# 3 0.061214 -0.094511 -0.431453 -0.293201 0.039012 0.099374
# 4 0.035538 -0.020281 -0.293201 -0.080775 0.090074 0.030113
# 5 -0.013377 0.039827 0.039012 0.090074 0.071579 -0.035374
# 6 -0.009789 0.006615 0.099374 0.030113 -0.035374 0.020657
#
#
# Mechanical properties :
#
#
# Convention : Reuss Voigt Hill
#
# Bulk Modulus (GPa) = -2.13162 39.88345 18.87591
# Shear Modulus (GPa) = -9.74259 30.38026 10.31884
#
# Velocity S-wave (km/s) = -2.13197 3.76478 2.19411
# Velocity P-wave (km/s) = 2.65610 6.12415 3.90195
#
# Compressibility (1/GPa) = -0.46912595
#
# Stress axis : x y z
#
# Youngs Moduli (GPa) = -465.67791 67.16279 -2.31775
#
# Poissons Ratio (x) = -0.54334 0.14188
# Poissons Ratio (y) = 3.76725 -0.21905
# Poissons Ratio (z) = 28.50595 6.34764
#
# Static dielectric constant tensor:
#      x y z
#    x 1.845390 0.033050 -0.003920 
#    y 0.033050 1.796060 -0.015070 
#    z -0.003920 -0.015070 1.857380 
# 
# From -- ./inp_files/282494.got.cif
#   From: 2010.05.17/outbox.ucp.g08.bks.cvg/sg2_142_cif.got.tgz:282494.got - 2010.06.11 11:32:03.
