data_PCOD9072517
_publ_section_title
;
Structure prediction by ZEFSAII (Michael W. Deem and Ramdas Pophale) SiO2 
 PCOD9072517
Probable space group: P -1
;
_chemical_formula_sum "Si O2"
_cell_formula_units_Z 16
_cell_length_a 9.000000
_cell_length_b 12.000000
_cell_length_c 15.000000
_cell_angle_alpha 130.000000
_cell_angle_beta 70.000000
_cell_angle_gamma 140.000000
_cell_volume 759.581896
_symmetry_space_group_name_H-M "P -1"
_symmetry_group_IT_number 2
_symmetry_cell_setting 'triclinic'
loop_
_space_group_symop_operation_xyz
x,y,z
-x,-y,-z
loop_
_atom_site_type_symbol
_atom_site_label
_atom_site_fract_x
_atom_site_fract_y
_atom_site_fract_z
Si Si1 0.579644 0.418781 0.003132
Si Si2 0.704759 0.931793 0.256352
Si Si3 0.578983 0.684909 0.814978
Si Si4 0.295052 0.164880 0.421750
Si Si5 0.809654 0.567519 0.609893
Si Si6 0.069323 0.279719 0.611554
Si Si7 0.939340 0.097584 0.841107
Si Si8 0.694763 0.255601 0.620381
O O1 0.469277 0.358347 0.092757
O O2 0.875095 0.636433 0.056336
O O3 0.500000 0.500000 0.000000
O O4 0.445443 0.187222 0.866446
O O5 0.911736 0.203027 0.358956
O O6 0.482233 0.778898 0.293663
O O7 0.872046 0.904708 0.215393
O O8 0.719976 0.645421 0.724438
O O9 0.309723 0.488840 0.725924
O O10 0.761579 0.943434 0.882005
O O11 0.582399 0.378525 0.492248
O O12 0.175087 0.243056 0.495087
O O13 0.239632 0.045270 0.279536
O O14 0.139241 0.962432 0.420952
O O15 0.792778 0.423647 0.607949
O O16 0.926507 0.327120 0.643533
O O17 0.500000 0.000000 0.500000
#
# Coordination Sequence:
#
# PCOD9072517 Si02
#       8
#     2   2   2   2   2   2   2   2
#     4  10  20  37  62  90 120 152 199 252 293 345
#     4  10  24  38  58  90 120 158 195 243 296 360
#     4  10  21  38  63  91 116 156 201 249 294 347
#     4  10  19  38  62  91 118 155 195 253 291 349
#     4  10  22  39  60  89 124 154 197 245 296 353
#     4  10  21  36  61  88 123 155 200 240 301 355
#     4  10  20  36  65  93 118 152 203 249 296 344
#     4  12  23  39  59  87 123 164 189 242 300 357
#
# _framework density 21.064219999999999
#
# number of rings (size 3 to 8) (size 9 to 14) (size 15 to 20)
#    0.000    1.750    2.500    2.250    1.750   11.500 
#    2.250    0.625    0.000    1.500    0.000    0.000 
#    0.000    0.000    0.000    0.000    0.000    0.000 
#
# Total GULP energy -89222.513271 kJ/mol
# GULP energy per Si atom -5576.407079 kJ/mol
# Density = 2.101628 g / cm^3
# Si number density = 21.064220 Si / 1000 Ang^3
#
#
#
# Elastic Constant Matrix: (Units=GPa)
#
#
# Indices 1 2 3 4 5 6 
#
# 1 68.8981 38.4798 10.3246 8.8042 9.0281 4.6666
# 2 38.4798 118.9839 32.7812 20.2854 17.5756 0.0968
# 3 10.3246 32.7812 84.9063 17.3566 35.4396 9.2997
# 4 8.8042 20.2854 17.3566 30.5726 -0.5955 4.5877
# 5 9.0281 17.5756 35.4396 -0.5955 19.3089 1.8219
# 6 4.6666 0.0968 9.2997 4.5877 1.8219 22.0809
#
#
#
# Elastic Compliance Matrix: (Units=1/GPa)
#
#
# Indices 1 2 3 4 5 6 
#
# 1 0.023204 -0.002568 0.030472 -0.022367 -0.064397 -0.007766
# 2 -0.002568 0.014150 0.015701 -0.018532 -0.041173 0.001116
# 3 0.030472 0.015701 0.187438 -0.128708 -0.373904 -0.027859
# 4 -0.022367 -0.018532 -0.128708 0.128148 0.266528 0.010399
# 5 -0.064397 -0.041173 -0.373904 0.266528 0.809224 0.049120
# 6 -0.007766 0.001116 -0.027859 0.010399 0.049120 0.052444
#
#
# Mechanical properties :
#
#
# Convention : Reuss Voigt Hill
#
# Bulk Modulus (GPa) = 3.20511 48.43994 25.82252
# Shear Modulus (GPa) = 4.06042 27.13935 15.59989
#
# Velocity S-wave (km/s) = 1.38990 3.59334 2.72433
# Velocity P-wave (km/s) = 2.02501 6.34526 4.70972
#
# Compressibility (1/GPa) = 0.31200201
#
# Stress axis : x y z
#
# Youngs Moduli (GPa) = 43.09523 70.67353 5.33508
#
# Poissons Ratio (x) = 0.18147 -0.16257
# Poissons Ratio (y) = 0.11065 -0.08377
# Poissons Ratio (z) = -1.31318 -1.10964
#
# Static dielectric constant tensor:
#      x y z
#    x 1.798010 -0.040310 0.004710 
#    y -0.040310 1.786990 -0.019090 
#    z 0.004710 -0.019090 1.850700 
# 
# From -- ./inp_files/279352.got.cif
#   From: 2010.05.17/outbox.ucp.g08.bks.cvg/sg2_140_cif.got.tgz:279352.got - 2010.06.11 11:32:03.
