data_PCOD9072015
_publ_section_title
;
Structure prediction by ZEFSAII (Michael W. Deem and Ramdas Pophale) SiO2 
 PCOD9072015
Probable space group: P -1
;
_chemical_formula_sum "Si O2"
_cell_formula_units_Z 14
_cell_length_a 15.000000
_cell_length_b 12.000000
_cell_length_c 12.000000
_cell_angle_alpha 50.000000
_cell_angle_beta 40.000000
_cell_angle_gamma 30.000000
_cell_volume 692.779491
_symmetry_space_group_name_H-M "P -1"
_symmetry_group_IT_number 2
_symmetry_cell_setting 'triclinic'
loop_
_space_group_symop_operation_xyz
x,y,z
-x,-y,-z
loop_
_atom_site_type_symbol
_atom_site_label
_atom_site_fract_x
_atom_site_fract_y
_atom_site_fract_z
Si Si1 0.730468 0.955046 0.401548
Si Si2 0.997520 0.851822 0.418744
Si Si3 0.753326 0.569058 0.226694
Si Si4 0.566010 0.545338 0.617094
Si Si5 0.847206 0.943666 0.889133
Si Si6 0.597656 0.185584 0.758393
Si Si7 0.286526 0.150919 0.746768
O O1 0.899610 0.846960 0.408154
O O2 0.807582 0.808631 0.311132
O O3 0.622142 0.200295 0.320649
O O4 0.527500 0.018746 0.591967
O O5 0.212462 0.614355 0.422152
O O6 0.805471 0.021109 0.583758
O O7 0.071331 0.956132 0.250133
O O8 0.609799 0.575082 0.434069
O O9 0.597738 0.736272 0.167213
O O10 0.816960 0.645444 0.203272
O O11 0.950009 0.319280 0.157503
O O12 0.527782 0.404940 0.722110
O O13 0.684787 0.048045 0.876419
O O14 0.731358 0.985910 0.083958
#
# Coordination Sequence:
#
# PCOD9072015 Si02
#       7
#     2   2   2   2   2   2   2
#     4  10  22  42  58  75 114 156 190 216 271 341
#     4  11  19  36  62  86 108 144 189 230 277 327
#     4  11  19  35  59  82 115 148 181 223 284 328
#     4  10  18  33  60  88 106 141 190 230 271 326
#     4  11  22  36  58  89 116 133 185 245 276 318
#     4  11  19  34  59  91 110 141 184 231 286 327
#     4  10  23  40  55  80 117 154 182 225 273 332
#
# _framework density 20.208449999999999
#
# number of rings (size 3 to 8) (size 9 to 14) (size 15 to 20)
#    0.000    1.429    5.714    2.571    0.000    1.143 
#    0.000   12.143    0.000    0.000    0.000    0.000 
#    0.000    0.000    0.000    0.000    0.000    0.000 
#
# Total GULP energy -78088.922732 kJ/mol
# GULP energy per Si atom -5577.780195 kJ/mol
# Density = 2.016246 g / cm^3
# Si number density = 20.208450 Si / 1000 Ang^3
#
#
#
# Elastic Constant Matrix: (Units=GPa)
#
#
# Indices 1 2 3 4 5 6 
#
# 1 115.5809 3.7104 -15.8780 13.8778 25.2770 1.1580
# 2 3.7104 13.8097 -24.4838 9.2953 -8.4548 -16.4261
# 3 -15.8780 -24.4838 20.2459 -12.5894 14.8118 8.8079
# 4 13.8778 9.2953 -12.5894 2.4604 -2.5378 0.5141
# 5 25.2770 -8.4548 14.8118 -2.5378 7.1746 -13.7558
# 6 1.1580 -16.4261 8.8079 0.5141 -13.7558 20.6732
#
#
#
# Elastic Compliance Matrix: (Units=1/GPa)
#
#
# Indices 1 2 3 4 5 6 
#
# 1 0.000321 -0.005655 -0.000036 0.036871 0.018345 0.006794
# 2 -0.005655 -0.057397 -0.044848 0.021140 -0.004147 -0.029466
# 3 -0.000036 -0.044848 -0.047447 -0.060766 0.010617 -0.006842
# 4 0.036871 0.021140 -0.060766 -0.261475 -0.066445 0.002911
# 5 0.018345 -0.004147 0.010617 -0.066445 -0.038618 -0.032890
# 6 0.006794 -0.029466 -0.006842 0.002911 -0.032890 0.005537
#
#
# Mechanical properties :
#
#
# Convention : Reuss Voigt Hill
#
# Bulk Modulus (GPa) = -4.86385 8.48151 1.80883
# Shear Modulus (GPa) = -13.64119 18.48083 2.41982
#
# Velocity S-wave (km/s) = -2.60094 3.02737 1.09546
# Velocity P-wave (km/s) = 3.38111 4.05291 1.58021
#
# Compressibility (1/GPa) = -0.20559852
#
# Stress axis : x y z
#
# Youngs Moduli (GPa) = 3110.65964 -17.42256 -21.07601
#
# Poissons Ratio (x) = -0.09852 -0.00075
# Poissons Ratio (y) = 17.58986 -0.94521
# Poissons Ratio (z) = 0.11061 -0.78136
#
# Static dielectric constant tensor:
#      x y z
#    x 1.712970 0.017200 0.001960 
#    y 0.017200 1.728540 -0.024700 
#    z 0.001960 -0.024700 1.756990 
# 
# From -- ./inp_files/227733.got.cif
#   From: 2010.05.17/outbox.ucp.g08.bks.cvg/sg2_114_cif.got.tgz:227733.got - 2010.06.11 11:32:03.
