data_PCOD9072879
_publ_section_title
;
Structure prediction by ZEFSAII (Michael W. Deem and Ramdas Pophale) SiO2 
 PCOD9072879
Probable space group: P -1
;
_chemical_formula_sum "Si O2"
_cell_formula_units_Z 14
_cell_length_a 12.049189
_cell_length_b 9.977796
_cell_length_c 12.277218
_cell_angle_alpha 34.457151
_cell_angle_beta 74.166014
_cell_angle_gamma 49.653400
_cell_volume 506.682162
_symmetry_space_group_name_H-M "P -1"
_symmetry_group_IT_number 2
_symmetry_cell_setting 'triclinic'
loop_
_space_group_symop_operation_xyz
x,y,z
-x,-y,-z
loop_
_atom_site_type_symbol
_atom_site_label
_atom_site_fract_x
_atom_site_fract_y
_atom_site_fract_z
Si Si1 0.325389 0.443275 0.454537
Si Si2 0.710813 0.733350 0.625562
Si Si3 0.840667 0.988652 0.315227
Si Si4 0.758411 0.896996 0.193623
Si Si5 0.266396 0.125324 0.254276
Si Si6 0.923409 0.043481 0.620457
Si Si7 0.695633 0.805494 0.054324
O O1 0.216302 0.550560 0.301241
O O2 0.369041 0.107208 0.717757
O O3 0.519708 0.263828 0.513549
O O4 0.200887 0.755258 0.371073
O O5 0.723415 0.987584 0.414656
O O6 0.500000 0.000000 0.500000
O O7 0.788069 0.612744 0.807273
O O8 0.760405 0.112719 0.131265
O O9 0.039649 0.541883 0.558800
O O10 0.884472 0.157262 0.254221
O O11 0.719384 0.977223 0.022670
O O12 0.123501 0.137871 0.292273
O O13 0.280252 0.161819 0.098184
O O14 0.839588 0.374907 0.341008
O O15 0.500000 0.000000 0.000000
#
# Coordination Sequence:
#
# PCOD9072879 Si02
#       7
#     2   2   2   2   2   2   2
#     4   8  15  30  50  74  98 133 173 205 244 298
#     4   9  18  30  52  76 102 138 173 205 254 315
#     4   8  15  31  49  72 102 136 172 207 249 302
#     4   8  14  28  52  73  96 135 175 206 246 296
#     4  11  19  31  51  81 106 130 172 212 256 302
#     4  10  20  32  55  79 101 136 173 214 250 295
#     4  10  18  31  51  79 106 132 168 215 257 296
#
# _framework density 27.630734
#
# number of rings (size 3 to 8) (size 9 to 14) (size 15 to 20)
#    0.000    3.143    2.857    1.286    0.000    0.571 
#    0.000    3.571    0.000   12.857    0.000    0.000 
#    0.000    0.000    0.000    0.000    0.000    0.000 
#
# Total GULP energy -78290.283899 kJ/mol
# GULP energy per Si atom -5592.163136 kJ/mol
# Density = 2.756784 g / cm^3
# Si number density = 27.630734 Si / 1000 Ang^3
#
#
#
# Elastic Constant Matrix: (Units=GPa)
#
#
# Indices 1 2 3 4 5 6 
#
# 1 245.7314 72.6087 66.5413 26.1689 31.4210 17.7163
# 2 72.6087 79.4677 42.1933 40.5887 12.6127 12.3941
# 3 66.5413 42.1933 151.9006 49.4110 26.3122 24.4405
# 4 26.1689 40.5887 49.4110 50.1329 14.4475 15.3278
# 5 31.4210 12.6127 26.3122 14.4475 36.0335 25.6780
# 6 17.7163 12.3941 24.4405 15.3278 25.6780 70.6213
#
#
#
# Elastic Compliance Matrix: (Units=1/GPa)
#
#
# Indices 1 2 3 4 5 6 
#
# 1 0.006698 -0.007205 -0.002029 0.005415 -0.004555 0.000767
# 2 -0.007205 0.029239 0.001777 -0.022720 0.004256 -0.000555
# 3 -0.002029 0.001777 0.010764 -0.010182 -0.002283 -0.000488
# 4 0.005415 -0.022720 -0.010182 0.048203 -0.007545 -0.001566
# 5 -0.004555 0.004256 -0.002283 -0.007545 0.044426 -0.013330
# 6 0.000767 -0.000555 -0.000488 -0.001566 -0.013330 0.019421
#
#
# Mechanical properties :
#
#
# Convention : Reuss Voigt Hill
#
# Bulk Modulus (GPa) = 31.45829 93.30959 62.38394
# Shear Modulus (GPa) = 27.13539 51.07463 39.10501
#
# Velocity S-wave (km/s) = 3.13720 4.30405 3.76609
# Velocity P-wave (km/s) = 4.95305 7.65136 6.44500
#
# Compressibility (1/GPa) = 0.03178812
#
# Stress axis : x y z
#
# Youngs Moduli (GPa) = 149.28964 34.20092 92.89955
#
# Poissons Ratio (x) = 0.24643 0.18845
# Poissons Ratio (y) = 1.07570 -0.16510
# Poissons Ratio (z) = 0.30284 -0.06078
#
# Static dielectric constant tensor:
#      x y z
#    x 2.140310 0.046970 -0.049920 
#    y 0.046970 2.247280 0.032970 
#    z -0.049920 0.032970 2.204960 
# 
# From -- ./inp_files/394254.got.cif
#   From: 2010.05.17/outbox.cif.g08.bks.cpg/sg2_198_cif.got.tgz:394254.got - 2010.06.03 11:33:40.
