data_PCOD9072184
_publ_section_title
;
Structure prediction by ZEFSAII (Michael W. Deem and Ramdas Pophale) SiO2 
 PCOD9072184
Probable space group: P -1
;
_chemical_formula_sum "Si O2"
_cell_formula_units_Z 16
_cell_length_a 11.467560
_cell_length_b 11.461180
_cell_length_c 11.865901
_cell_angle_alpha 113.194871
_cell_angle_beta 43.141283
_cell_angle_gamma 126.257409
_cell_volume 857.920565
_symmetry_space_group_name_H-M "P -1"
_symmetry_group_IT_number 2
_symmetry_cell_setting 'triclinic'
loop_
_space_group_symop_operation_xyz
x,y,z
-x,-y,-z
loop_
_atom_site_type_symbol
_atom_site_label
_atom_site_fract_x
_atom_site_fract_y
_atom_site_fract_z
Si Si1 0.145279 0.184816 0.381072
Si Si2 0.474098 0.843269 0.940002
Si Si3 0.093955 0.118581 0.648183
Si Si4 0.424555 0.503196 0.230021
Si Si5 0.494252 0.374281 0.537514
Si Si6 0.078976 0.554014 0.779673
Si Si7 0.916139 0.283164 0.955612
Si Si8 0.307220 0.596221 0.134677
O O1 0.075540 0.168485 0.553039
O O2 0.236502 0.348114 0.334006
O O3 0.329550 0.154910 0.235880
O O4 0.980943 0.052714 0.374570
O O5 0.305774 0.761749 0.935512
O O6 0.396305 0.754585 0.077311
O O7 0.500000 0.000000 0.000000
O O8 0.314760 0.221958 0.569565
O O9 0.963200 0.157273 0.838031
O O10 0.521941 0.582910 0.307063
O O11 0.356298 0.588974 0.226695
O O12 0.579896 0.472524 0.041937
O O13 0.500000 0.500000 0.500000
O O14 0.699575 0.376483 0.387276
O O15 0.041909 0.420236 0.837791
O O16 0.920094 0.490659 0.769214
O O17 0.043043 0.663310 0.925270
#
# Coordination Sequence:
#
# PCOD9072184 Si02
#       8
#     2   2   2   2   2   2   2   2
#     4  10  20  33  54  80 115 147 181 230 280 334
#     4  10  18  32  54  82 111 141 182 230 277 328
#     4  11  20  32  51  84 111 141 184 231 283 321
#     4  10  20  39  59  80 114 149 188 229 278 337
#     4  12  21  33  56  84 112 148 190 235 273 325
#     4  10  20  32  53  82 110 141 183 232 282 323
#     4  10  18  30  52  81 110 134 178 237 278 328
#     4   9  21  36  59  82 110 147 187 227 279 339
#
# _framework density 18.649744999999999
#
# number of rings (size 3 to 8) (size 9 to 14) (size 15 to 20)
#    0.000    1.750    3.750    1.500    3.500    0.500 
#    0.000    0.000    2.750    3.750    0.000    0.000 
#    0.000    0.000    0.000    0.000    0.000    0.000 
#
# Total GULP energy -89318.250651 kJ/mol
# GULP energy per Si atom -5582.390666 kJ/mol
# Density = 1.860730 g / cm^3
# Si number density = 18.649745 Si / 1000 Ang^3
#
#
#
# Elastic Constant Matrix: (Units=GPa)
#
#
# Indices 1 2 3 4 5 6 
#
# 1 85.5126 33.5079 19.0807 -5.6271 5.1560 7.4068
# 2 33.5079 83.5839 13.2036 0.6895 -1.9754 20.6635
# 3 19.0807 13.2036 45.8303 1.7215 0.3554 8.1739
# 4 -5.6271 0.6895 1.7215 24.1268 12.8624 -5.7590
# 5 5.1560 -1.9754 0.3554 12.8624 26.5402 -2.1216
# 6 7.4068 20.6635 8.1739 -5.7590 -2.1216 28.5666
#
#
#
# Elastic Compliance Matrix: (Units=1/GPa)
#
#
# Indices 1 2 3 4 5 6 
#
# 1 0.016483 -0.006870 -0.005844 0.009605 -0.007993 0.003710
# 2 -0.006870 0.017977 0.000168 -0.008090 0.005593 -0.012486
# 3 -0.005844 0.000168 0.025690 -0.006760 0.003516 -0.007059
# 4 0.009605 -0.008090 -0.006760 0.065840 -0.032998 0.016119
# 5 -0.007993 0.005593 0.003516 -0.032998 0.055150 -0.005536
# 6 0.003710 -0.012486 -0.007059 0.016119 -0.005536 0.047934
#
#
# Mechanical properties :
#
#
# Convention : Reuss Voigt Hill
#
# Bulk Modulus (GPa) = 28.52310 38.50123 33.51216
# Shear Modulus (GPa) = 18.80754 25.78904 22.29829
#
# Velocity S-wave (km/s) = 3.17907 3.72265 3.46155
# Velocity P-wave (km/s) = 5.36681 6.25833 5.82964
#
# Compressibility (1/GPa) = 0.03505930
#
# Stress axis : x y z
#
# Youngs Moduli (GPa) = 60.66966 55.62571 38.92624
#
# Poissons Ratio (x) = 0.38215 0.22747
# Poissons Ratio (y) = 0.41680 -0.00656
# Poissons Ratio (z) = 0.35453 -0.00937
#
# Static dielectric constant tensor:
#      x y z
#    x 1.636400 0.013250 -0.018440 
#    y 0.013250 1.662060 0.004500 
#    z -0.018440 0.004500 1.673010 
# 
# From -- ./inp_files/252679.got.cif
#   From: 2010.05.17/outbox.cif.g08.bks.cpg/sg2_127_cif.got.tgz:252679.got - 2010.06.03 11:33:40.
