data_PCOD9072216
_publ_section_title
;
Structure prediction by ZEFSAII (Michael W. Deem and Ramdas Pophale) SiO2 
 PCOD9072216
Probable space group: P -1
;
_chemical_formula_sum "Si O2"
_cell_formula_units_Z 16
_cell_length_a 11.490599
_cell_length_b 11.235454
_cell_length_c 15.036516
_cell_angle_alpha 125.079953
_cell_angle_beta 111.958538
_cell_angle_gamma 113.798682
_cell_volume 854.142521
_symmetry_space_group_name_H-M "P -1"
_symmetry_group_IT_number 2
_symmetry_cell_setting 'triclinic'
loop_
_space_group_symop_operation_xyz
x,y,z
-x,-y,-z
loop_
_atom_site_type_symbol
_atom_site_label
_atom_site_fract_x
_atom_site_fract_y
_atom_site_fract_z
Si Si1 0.197074 0.843107 0.859230
Si Si2 0.127816 0.498755 0.933618
Si Si3 0.664388 0.044082 0.514977
Si Si4 0.485362 0.916901 0.097460
Si Si5 0.025418 0.733994 0.027638
Si Si6 0.774998 0.871901 0.870459
Si Si7 0.393665 0.589753 0.347840
Si Si8 0.304360 0.719634 0.531825
O O1 0.325685 0.975295 0.860430
O O2 0.945806 0.566053 0.654848
O O3 0.311280 0.823320 0.940296
O O4 0.232425 0.019186 0.005194
O O5 0.907306 0.281113 0.721752
O O6 0.134858 0.678213 0.036964
O O7 0.090996 0.367523 0.954134
O O8 0.343964 0.677426 0.016430
O O9 0.671037 0.107628 0.443952
O O10 0.500000 0.000000 0.500000
O O11 0.568202 0.800068 0.414007
O O12 0.590624 0.144177 0.285269
O O13 0.834918 0.569604 0.829112
O O14 0.198282 0.015647 0.165833
O O15 0.606314 0.581281 0.705108
O O16 0.000000 0.000000 0.000000
O O17 0.413220 0.700702 0.491646
#
# Coordination Sequence:
#
# PCOD9072216 Si02
#       8
#     2   2   2   2   2   2   2   2
#     4  11  21  40  56  85 114 151 191 228 284 334
#     4  11  19  33  53  81 116 140 186 241 280 325
#     4  10  18  31  50  83 115 141 184 234 282 329
#     4  11  23  34  59  86 115 149 185 238 283 334
#     4  10  18  30  53  77 108 145 181 228 282 322
#     4  10  18  36  59  78 117 153 183 229 282 340
#     4  10  19  32  54  84 113 146 180 229 284 339
#     4  11  19  36  56  87 115 142 191 230 288 328
#
# _framework density 18.732237000000001
#
# number of rings (size 3 to 8) (size 9 to 14) (size 15 to 20)
#    0.000    1.500    7.500    1.125    5.250    0.000 
#    0.000    2.500    0.000    7.500    0.000    0.000 
#    0.000    0.000    0.000    0.000    0.000    0.000 
#
# Total GULP energy -89182.212402 kJ/mol
# GULP energy per Si atom -5573.888275 kJ/mol
# Density = 1.868960 g / cm^3
# Si number density = 18.732237 Si / 1000 Ang^3
#
#
#
# Elastic Constant Matrix: (Units=GPa)
#
#
# Indices 1 2 3 4 5 6 
#
# 1 45.8268 38.5682 10.9420 12.6503 -2.0869 13.7137
# 2 38.5682 144.5128 37.9577 28.9608 -9.9466 8.9008
# 3 10.9420 37.9577 78.5916 7.2484 6.5948 6.7210
# 4 12.6503 28.9608 7.2484 37.7636 -5.0964 -3.1890
# 5 -2.0869 -9.9466 6.5948 -5.0964 17.2164 4.6298
# 6 13.7137 8.9008 6.7210 -3.1890 4.6298 33.2828
#
#
#
# Elastic Compliance Matrix: (Units=1/GPa)
#
#
# Indices 1 2 3 4 5 6 
#
# 1 0.033164 -0.006614 0.000186 -0.006951 0.001515 -0.012811
# 2 -0.006614 0.011323 -0.004569 -0.004806 0.006259 -0.000711
# 3 0.000186 -0.004569 0.015787 -0.000836 -0.008665 -0.000918
# 4 -0.006951 -0.004806 -0.000836 0.033896 0.004883 0.006887
# 5 0.001515 0.006259 -0.008665 0.004883 0.069261 -0.009715
# 6 -0.012811 -0.000711 -0.000918 0.006887 -0.009715 0.037711
#
#
# Mechanical properties :
#
#
# Convention : Reuss Voigt Hill
#
# Bulk Modulus (GPa) = 26.12195 49.31854 37.72024
# Shear Modulus (GPa) = 21.19589 29.75011 25.47300
#
# Velocity S-wave (km/s) = 3.36746 3.98952 3.69161
# Velocity P-wave (km/s) = 5.39397 6.89978 6.19281
#
# Compressibility (1/GPa) = 0.03828198
#
# Stress axis : x y z
#
# Youngs Moduli (GPa) = 30.15297 88.31773 63.34189
#
# Poissons Ratio (x) = 0.58411 -0.01181
# Poissons Ratio (y) = 0.19942 0.28940
# Poissons Ratio (z) = -0.00562 0.40351
#
# Static dielectric constant tensor:
#      x y z
#    x 1.648320 -0.001720 -0.005240 
#    y -0.001720 1.726470 0.021250 
#    z -0.005240 0.021250 1.724330 
# 
# From -- ./inp_files/474774.got.cif
#   From: 2010.05.17/outbox.cif.g08.bks.cpg/sg2_238_cif.got.tgz:474774.got - 2010.06.03 11:33:40.
