data_PCOD9072402
_publ_section_title
;
Structure prediction by ZEFSAII (Michael W. Deem and Ramdas Pophale) SiO2 
 PCOD9072402
Probable space group: P -1
;
_chemical_formula_sum "Si O2"
_cell_formula_units_Z 16
_cell_length_a 12.839097
_cell_length_b 12.988572
_cell_length_c 18.758798
_cell_angle_alpha 59.042511
_cell_angle_beta 160.327950
_cell_angle_gamma 123.357724
_cell_volume 879.525961
_symmetry_space_group_name_H-M "P -1"
_symmetry_group_IT_number 2
_symmetry_cell_setting 'triclinic'
loop_
_space_group_symop_operation_xyz
x,y,z
-x,-y,-z
loop_
_atom_site_type_symbol
_atom_site_label
_atom_site_fract_x
_atom_site_fract_y
_atom_site_fract_z
Si Si1 0.003357 0.384618 0.094450
Si Si2 0.970427 0.717953 0.558703
Si Si3 0.724416 0.494083 0.003837
Si Si4 0.871952 0.688868 0.244338
Si Si5 0.459718 0.866796 0.930140
Si Si6 0.531139 0.152467 0.884060
Si Si7 0.735245 0.447267 0.559685
Si Si8 0.762429 0.366712 0.376659
O O1 0.364049 0.389579 0.347230
O O2 0.778112 0.408819 0.004716
O O3 0.835492 0.246734 0.012719
O O4 0.000000 0.500000 0.000000
O O5 0.767470 0.584936 0.500174
O O6 0.149417 0.791117 0.715384
O O7 0.206996 0.679697 0.666644
O O8 0.763110 0.796933 0.354512
O O9 0.060922 0.537313 0.242706
O O10 0.453128 0.414536 0.909360
O O11 0.581625 0.606565 0.843773
O O12 0.076227 0.630277 0.341187
O O13 0.101474 0.717032 0.450892
O O14 0.743453 0.809359 0.102216
O O15 0.451287 0.846812 0.017848
O O16 0.503706 0.011532 0.894548
O O17 0.000000 0.500000 0.500000
#
# Coordination Sequence:
#
# PCOD9072402 Si02
#       8
#     2   2   2   2   2   2   2   2
#     4  12  23  38  57  84 124 164 190 241 311 362
#     4  12  19  36  60  93 120 150 202 248 306 346
#     4  11  20  35  54  89 123 146 201 247 297 361
#     4  11  19  36  58  91 115 155 196 247 309 337
#     4  11  23  37  64  86 118 162 204 256 285 356
#     4  11  23  42  56  86 124 161 206 243 300 352
#     4  12  22  33  61  91 121 152 194 251 307 362
#     4  10  18  30  56  85 124 146 185 253 296 351
#
# _framework density 18.191618999999999
#
# number of rings (size 3 to 8) (size 9 to 14) (size 15 to 20)
#    0.000    0.750    7.500    3.375    0.000    0.000 
#    0.000    0.625    0.000    0.000    0.000    3.500 
#    0.000    0.000    0.000    0.000    0.000    0.000 
#
# Total GULP energy -89218.400451 kJ/mol
# GULP energy per Si atom -5576.150028 kJ/mol
# Density = 1.815021 g / cm^3
# Si number density = 18.191619 Si / 1000 Ang^3
#
#
#
# Elastic Constant Matrix: (Units=GPa)
#
#
# Indices 1 2 3 4 5 6 
#
# 1 21.3360 26.4095 13.6232 -2.9431 -7.0588 -8.9122
# 2 26.4095 115.1929 46.3059 -17.0923 8.5093 -9.0311
# 3 13.6232 46.3059 109.6539 -17.5772 1.2891 -3.1507
# 4 -2.9431 -17.0923 -17.5772 23.2184 -3.1830 -2.3105
# 5 -7.0588 8.5093 1.2891 -3.1830 27.4850 3.4005
# 6 -8.9122 -9.0311 -3.1507 -2.3105 3.4005 19.6513
#
#
#
# Elastic Compliance Matrix: (Units=1/GPa)
#
#
# Indices 1 2 3 4 5 6 
#
# 1 0.094842 -0.020255 -0.002419 0.001902 0.027400 0.028798
# 2 -0.020255 0.016174 -0.003316 0.005539 -0.009412 -0.000005
# 3 -0.002419 -0.003316 0.011816 0.006269 0.000588 -0.000091
# 4 0.001902 0.005539 0.006269 0.053612 0.003436 0.010122
# 5 0.027400 -0.009412 0.000588 0.003436 0.046639 0.000528
# 6 0.028798 -0.000005 -0.000091 0.010122 0.000528 0.065029
#
#
# Mechanical properties :
#
#
# Convention : Reuss Voigt Hill
#
# Bulk Modulus (GPa) = 14.11390 46.53999 30.32694
# Shear Modulus (GPa) = 13.74720 24.72723 19.23722
#
# Velocity S-wave (km/s) = 2.75196 3.69082 3.25542
# Velocity P-wave (km/s) = 4.22765 6.61828 5.55314
#
# Compressibility (1/GPa) = 0.07085213
#
# Stress axis : x y z
#
# Youngs Moduli (GPa) = 10.54383 61.82591 84.63355
#
# Poissons Ratio (x) = 1.25231 0.20474
# Poissons Ratio (y) = 0.21357 0.28060
# Poissons Ratio (z) = 0.02551 0.20498
#
# Static dielectric constant tensor:
#      x y z
#    x 1.682070 0.000210 -0.028180 
#    y 0.000210 1.644040 -0.013100 
#    z -0.028180 -0.013100 1.648100 
# 
# From -- ./inp_files/256640.got.cif
#   From: 2010.05.17/outbox.cif.g08.bks.cpg/sg2_129_cif.got.tgz:256640.got - 2010.06.03 11:33:40.
