data_PCOD9072501
_publ_section_title
;
Structure prediction by ZEFSAII (Michael W. Deem and Ramdas Pophale) SiO2 
 PCOD9072501
Probable space group: P -1
;
_chemical_formula_sum "Si O2"
_cell_formula_units_Z 14
_cell_length_a 18.000000
_cell_length_b 12.000000
_cell_length_c 12.000000
_cell_angle_alpha 40.000000
_cell_angle_beta 30.000000
_cell_angle_gamma 30.000000
_cell_volume 646.664136
_symmetry_space_group_name_H-M "P -1"
_symmetry_group_IT_number 2
_symmetry_cell_setting 'triclinic'
loop_
_space_group_symop_operation_xyz
x,y,z
-x,-y,-z
loop_
_atom_site_type_symbol
_atom_site_label
_atom_site_fract_x
_atom_site_fract_y
_atom_site_fract_z
Si Si1 0.766188 0.519904 0.969584
Si Si2 0.289561 0.727891 0.132766
Si Si3 0.744119 0.171814 0.138079
Si Si4 0.804256 0.576210 0.135162
Si Si5 0.519924 0.110033 0.105801
Si Si6 0.298625 0.426301 0.502046
Si Si7 0.175839 0.271328 0.596653
O O1 0.577249 0.752218 0.987770
O O2 0.953928 0.482404 0.706780
O O3 0.751961 0.334506 0.081010
O O4 0.801444 0.501829 0.071255
O O5 0.199578 0.641482 0.388056
O O6 0.500000 0.500000 0.000000
O O7 0.178569 0.843659 0.074320
O O8 0.337704 0.855272 0.049644
O O9 0.526403 0.272874 0.319444
O O10 0.832874 0.929852 0.251973
O O11 0.740473 0.498369 0.377127
O O12 0.644837 0.845650 0.134035
O O13 0.000000 0.500000 0.000000
O O14 0.341068 0.219835 0.340059
O O15 0.237128 0.290299 0.627723
#
# Coordination Sequence:
#
# PCOD9072501 Si02
#       7
#     2   2   2   2   2   2   2
#     4  12  26  43  65 102 144 169 219 279 333 395
#     4  10  19  37  71  98 128 165 224 277 329 381
#     4  11  21  41  69 104 130 174 223 280 330 386
#     4  12  27  46  68  95 136 182 227 267 332 409
#     4  12  23  45  70  99 132 179 221 279 332 393
#     4  11  20  42  69  93 132 179 225 259 337 392
#     4  12  22  40  74 103 129 173 224 280 328 393
#
# _framework density 21.649569
#
# number of rings (size 3 to 8) (size 9 to 14) (size 15 to 20)
#    0.000    0.571    8.571    2.571    0.000    0.571 
#    0.000    0.714    0.000    0.000    0.000    0.000 
#    0.000    0.000    0.000    0.000    0.000    0.000 
#
# Total GULP energy -78052.464097 kJ/mol
# GULP energy per Si atom -5575.176007 kJ/mol
# Density = 2.160029 g / cm^3
# Si number density = 21.649569 Si / 1000 Ang^3
#
#
#
# Elastic Constant Matrix: (Units=GPa)
#
#
# Indices 1 2 3 4 5 6 
#
# 1 159.7714 38.0774 22.6682 -2.1493 6.4634 8.7748
# 2 38.0774 22.1225 29.5656 -0.5196 -5.7090 3.3010
# 3 22.6682 29.5656 30.3011 -10.2694 10.2932 1.9124
# 4 -2.1493 -0.5196 -10.2694 20.4517 -6.8242 -6.3530
# 5 6.4634 -5.7090 10.2932 -6.8242 41.9799 -4.5736
# 6 8.7748 3.3010 1.9124 -6.3530 -4.5736 28.0509
#
#
#
# Elastic Compliance Matrix: (Units=1/GPa)
#
#
# Indices 1 2 3 4 5 6 
#
# 1 0.006855 0.004725 -0.011889 -0.005626 0.001265 -0.002958
# 2 0.004725 -0.054372 0.064772 0.026186 -0.019390 0.003274
# 3 -0.011889 0.064772 -0.030026 -0.009684 0.016275 -0.001396
# 4 -0.005626 0.026186 -0.009684 0.054339 0.017209 0.014451
# 5 0.001265 -0.019390 0.016275 0.017209 0.020673 0.008045
# 6 -0.002958 0.003274 -0.001396 0.014451 0.008045 0.040869
#
#
# Mechanical properties :
#
#
# Convention : Reuss Voigt Hill
#
# Bulk Modulus (GPa) = 26.54334 43.64639 35.09486
# Shear Modulus (GPa) = -77.73608 26.22208 -25.75700
#
# Velocity S-wave (km/s) = -5.99871 3.48401 -3.45298
# Velocity P-wave (km/s) = 5.97430 6.03230 0.59008
#
# Compressibility (1/GPa) = 0.03767423
#
# Stress axis : x y z
#
# Youngs Moduli (GPa) = 145.87608 -18.39195 -33.30464
#
# Poissons Ratio (x) = 0.08691 -0.39595
# Poissons Ratio (y) = -0.68929 2.15720
# Poissons Ratio (z) = 1.73427 1.19128
#
# Static dielectric constant tensor:
#      x y z
#    x 1.802990 -0.036180 0.070140 
#    y -0.036180 1.869360 0.040440 
#    z 0.070140 0.040440 2.042320 
# 
# From -- ./inp_files/174853.got.cif
#   From: 2010.05.17/outbox.ucp.g08.bks.cvg/sg2_88_cif.got.tgz:174853.got - 2010.06.11 11:32:03.
