data_PCOD9072044
_publ_section_title
;
Structure prediction by ZEFSAII (Michael W. Deem and Ramdas Pophale) SiO2 
 PCOD9072044
Probable space group: P -1
;
_chemical_formula_sum "Si O2"
_cell_formula_units_Z 16
_cell_length_a 18.000000
_cell_length_b 15.000000
_cell_length_c 12.000000
_cell_angle_alpha 50.000000
_cell_angle_beta 30.000000
_cell_angle_gamma 30.000000
_cell_volume 731.734496
_symmetry_space_group_name_H-M "P -1"
_symmetry_group_IT_number 2
_symmetry_cell_setting 'triclinic'
loop_
_space_group_symop_operation_xyz
x,y,z
-x,-y,-z
loop_
_atom_site_type_symbol
_atom_site_label
_atom_site_fract_x
_atom_site_fract_y
_atom_site_fract_z
Si Si1 0.391794 0.190222 0.445584
Si Si2 0.010349 0.727668 0.685070
Si Si3 0.922292 0.375694 0.883563
Si Si4 0.327316 0.270923 0.939267
Si Si5 0.905802 0.970541 0.449712
Si Si6 0.096689 0.102230 0.081734
Si Si7 0.374695 0.310983 0.598705
Si Si8 0.033172 0.102344 0.815913
O O1 0.280861 0.314834 0.602167
O O2 0.500000 0.000000 0.500000
O O3 0.158530 0.298716 0.587642
O O4 0.623273 0.110715 0.153511
O O5 0.035774 0.827007 0.499651
O O6 0.878415 0.843255 0.880097
O O7 0.282795 0.500905 0.544433
O O8 0.827883 0.751614 0.837072
O O9 0.744736 0.588471 0.987448
O O10 0.988747 0.255484 0.003518
O O11 0.873842 0.305147 0.915674
O O12 0.263706 0.351290 0.830805
O O13 0.629406 0.087621 0.703254
O O14 0.035811 0.860192 0.252709
O O15 0.919973 0.101871 0.330828
O O16 0.662060 0.082512 0.416131
O O17 0.000000 0.000000 0.000000
#
# Coordination Sequence:
#
# PCOD9072044 Si02
#       8
#     2   2   2   2   2   2   2   2
#     4  10  18  34  60  95 117 150 209 267 300 345
#     4  12  24  41  63  95 128 165 212 255 313 376
#     4  11  20  37  68  94 116 158 218 264 297 363
#     4  11  23  40  66  96 123 165 214 262 309 364
#     4  11  26  43  60  92 135 169 198 257 327 374
#     4  11  22  40  65  90 127 162 209 259 314 367
#     4  11  20  35  67  92 120 161 213 260 296 368
#     4  11  22  41  64  91 129 164 208 256 316 370
#
# _framework density 21.865853999999999
#
# number of rings (size 3 to 8) (size 9 to 14) (size 15 to 20)
#    0.000    1.000    6.250    2.625    1.750    1.500 
#    0.000    4.375    0.000    0.000    0.000    0.000 
#    0.000    0.000    0.000    0.000    0.000    0.000 
#
# Total GULP energy -89074.546187 kJ/mol
# GULP energy per Si atom -5567.159137 kJ/mol
# Density = 2.181609 g / cm^3
# Si number density = 21.865854 Si / 1000 Ang^3
#
#
#
# Elastic Constant Matrix: (Units=GPa)
#
#
# Indices 1 2 3 4 5 6 
#
# 1 61.2435 23.3140 10.0017 15.6223 10.3721 29.0710
# 2 23.3140 37.3032 16.6055 0.5277 6.7247 4.4257
# 3 10.0017 16.6055 40.2941 -1.2303 5.5815 8.4123
# 4 15.6223 0.5277 -1.2303 11.2950 13.1303 8.7663
# 5 10.3721 6.7247 5.5815 13.1303 25.6418 2.4654
# 6 29.0710 4.4257 8.4123 8.7663 2.4654 34.6871
#
#
#
# Elastic Compliance Matrix: (Units=1/GPa)
#
#
# Indices 1 2 3 4 5 6 
#
# 1 0.098419 -0.069999 -0.017993 -0.265285 0.119329 -0.010626
# 2 -0.069999 0.084842 0.003440 0.214819 -0.104701 0.000158
# 3 -0.017993 0.003440 0.044532 0.118088 -0.061708 -0.021617
# 4 -0.265285 0.214819 0.118088 1.226348 -0.592946 -0.101500
# 5 0.119329 -0.104701 -0.061708 -0.592946 0.329988 0.054715
# 6 -0.010626 0.000158 -0.021617 -0.101500 0.054715 0.064720
#
#
# Mechanical properties :
#
#
# Convention : Reuss Voigt Hill
#
# Bulk Modulus (GPa) = 17.03891 26.52037 21.77964
# Shear Modulus (GPa) = 2.45397 20.25276 11.35336
#
# Velocity S-wave (km/s) = 1.06053 3.04670 2.28113
# Velocity P-wave (km/s) = 3.05107 4.95293 4.11342
#
# Compressibility (1/GPa) = 0.05868919
#
# Stress axis : x y z
#
# Youngs Moduli (GPa) = 10.16067 11.78667 22.45566
#
# Poissons Ratio (x) = 0.82506 0.40404
# Poissons Ratio (y) = 0.71124 -0.07725
# Poissons Ratio (z) = 0.18282 -0.04055
#
# Static dielectric constant tensor:
#      x y z
#    x 1.865920 0.010520 -0.031890 
#    y 0.010520 1.862250 0.052640 
#    z -0.031890 0.052640 1.869990 
# 
# From -- ./inp_files/209492.got.cif
#   From: 2010.05.17/outbox.ucp.g08.bks.cvg/sg2_105_cif.got.tgz:209492.got - 2010.06.11 11:32:03.
