data_PCOD9072028
_publ_section_title
;
Structure prediction by ZEFSAII (Michael W. Deem and Ramdas Pophale) SiO2 
 PCOD9072028
Probable space group: P -1
;
_chemical_formula_sum "Si O2"
_cell_formula_units_Z 16
_cell_length_a 11.951253
_cell_length_b 7.422340
_cell_length_c 23.331382
_cell_angle_alpha 97.641752
_cell_angle_beta 157.855484
_cell_angle_gamma 86.142595
_cell_volume 764.506687
_symmetry_space_group_name_H-M "P -1"
_symmetry_group_IT_number 2
_symmetry_cell_setting 'triclinic'
loop_
_space_group_symop_operation_xyz
x,y,z
-x,-y,-z
loop_
_atom_site_type_symbol
_atom_site_label
_atom_site_fract_x
_atom_site_fract_y
_atom_site_fract_z
Si Si1 0.665722 0.406267 0.024875
Si Si2 0.253772 0.593465 0.058986
Si Si3 0.375686 0.539541 0.353774
Si Si4 0.556933 0.964743 0.950280
Si Si5 0.712081 0.279383 0.796782
Si Si6 0.013866 0.956877 0.938619
Si Si7 0.452529 0.771541 0.513070
Si Si8 0.012390 0.035575 0.751010
O O1 0.552138 0.430144 0.906580
O O2 0.500000 0.500000 0.000000
O O3 0.630166 0.185660 0.006936
O O4 0.018388 0.488990 0.194405
O O5 0.406441 0.678656 0.193834
O O6 0.032498 0.739288 0.938816
O O7 0.046048 0.400439 0.963941
O O8 0.430590 0.638095 0.322879
O O9 0.496836 0.667415 0.469850
O O10 0.516663 0.354953 0.423376
O O11 0.767676 0.875513 0.090512
O O12 0.212723 0.915850 0.803023
O O13 0.681411 0.953506 0.945402
O O14 0.754083 0.067655 0.796935
O O15 0.000000 0.000000 0.000000
O O16 0.132506 0.836807 0.356313
O O17 0.731456 0.933238 0.648770
#
# Coordination Sequence:
#
# PCOD9072028 Si02
#       8
#     2   2   2   2   2   2   2   2
#     4  10  18  30  50  81 113 137 166 229 279 317
#     4   8  17  29  47  76 111 132 174 216 277 315
#     4  10  19  32  50  73 103 140 187 214 260 331
#     4  10  19  33  53  83 108 136 176 233 270 322
#     4   9  16  31  50  75 105 138 172 226 264 311
#     4   9  17  30  51  79 109 134 170 219 278 319
#     4  10  20  34  48  74 107 150 177 214 269 331
#     4  10  20  33  51  74 108 139 177 221 274 318
#
# _framework density 20.928526999999999
#
# number of rings (size 3 to 8) (size 9 to 14) (size 15 to 20)
#    0.000    2.500    1.250    1.500    0.000    3.000 
#    0.000    0.000    0.000    0.000    0.000   47.250 
#    0.000    0.000    0.000    0.000    0.000    0.000 
#
# Total GULP energy -89071.497666 kJ/mol
# GULP energy per Si atom -5566.968604 kJ/mol
# Density = 2.088089 g / cm^3
# Si number density = 20.928527 Si / 1000 Ang^3
#
#
#
# Elastic Constant Matrix: (Units=GPa)
#
#
# Indices 1 2 3 4 5 6 
#
# 1 159.6109 21.9779 32.1014 -19.2960 -16.9288 -6.6042
# 2 21.9779 71.7262 18.6352 -20.2184 -9.0816 1.4600
# 3 32.1014 18.6352 64.5874 -29.5584 -10.1399 7.4074
# 4 -19.2960 -20.2184 -29.5584 31.0091 8.1468 -6.3855
# 5 -16.9288 -9.0816 -10.1399 8.1468 25.9046 -9.1196
# 6 -6.6042 1.4600 7.4074 -6.3855 -9.1196 34.1719
#
#
#
# Elastic Compliance Matrix: (Units=1/GPa)
#
#
# Indices 1 2 3 4 5 6 
#
# 1 0.007702 -0.000809 -0.002746 0.001184 0.004554 0.003555
# 2 -0.000809 0.017498 0.000741 0.011196 0.003021 0.001834
# 3 -0.002746 0.000741 0.028643 0.025440 0.001066 -0.001733
# 4 0.001184 0.011196 0.025440 0.066836 -0.004410 0.005548
# 5 0.004554 0.003021 0.001066 -0.004410 0.048933 0.012755
# 6 0.003555 0.001834 -0.001733 0.005548 0.012755 0.034689
#
#
# Mechanical properties :
#
#
# Convention : Reuss Voigt Hill
#
# Bulk Modulus (GPa) = 20.73986 49.03929 34.88957
# Shear Modulus (GPa) = 22.12391 33.09779 27.61085
#
# Velocity S-wave (km/s) = 3.25486 3.98108 3.63615
# Velocity P-wave (km/s) = 4.90478 6.67942 5.85967
#
# Compressibility (1/GPa) = 0.04821633
#
# Stress axis : x y z
#
# Youngs Moduli (GPa) = 129.83539 57.14822 34.91305
#
# Poissons Ratio (x) = 0.04622 0.09586
# Poissons Ratio (y) = 0.10500 -0.02588
# Poissons Ratio (z) = 0.35650 -0.04236
#
# Static dielectric constant tensor:
#      x y z
#    x 1.799950 0.008900 -0.023390 
#    y 0.008900 1.898400 -0.010140 
#    z -0.023390 -0.010140 1.776280 
# 
# From -- ./inp_files/234745.got.cif
#   From: 2010.05.17/outbox.cif.g08.bks.cpg/sg2_118_cif.got.tgz:234745.got - 2010.06.03 11:33:40.
