data_PCOD9072626
_publ_section_title
;
Structure prediction by ZEFSAII (Michael W. Deem and Ramdas Pophale) SiO2 
 PCOD9072626
Probable space group: P -1
;
_chemical_formula_sum "Si O2"
_cell_formula_units_Z 16
_cell_length_a 12.712762
_cell_length_b 11.232004
_cell_length_c 7.736735
_cell_angle_alpha 45.376429
_cell_angle_beta 63.543992
_cell_angle_gamma 44.549519
_cell_volume 548.225039
_symmetry_space_group_name_H-M "P -1"
_symmetry_group_IT_number 2
_symmetry_cell_setting 'triclinic'
loop_
_space_group_symop_operation_xyz
x,y,z
-x,-y,-z
loop_
_atom_site_type_symbol
_atom_site_label
_atom_site_fract_x
_atom_site_fract_y
_atom_site_fract_z
Si Si1 0.514444 0.590287 0.618450
Si Si2 0.223823 0.109029 0.557723
Si Si3 0.188721 0.754000 0.444659
Si Si4 0.292912 0.657556 0.940357
Si Si5 0.443944 0.043697 0.222672
Si Si6 0.924101 0.319545 0.711312
Si Si7 0.050223 0.216158 0.219150
Si Si8 0.750802 0.745665 0.183357
O O1 0.639564 0.412057 0.576233
O O2 0.598324 0.516755 0.817590
O O3 0.460797 0.828231 0.386382
O O4 0.375158 0.591663 0.763237
O O5 0.355509 0.120211 0.392080
O O6 0.129462 0.198249 0.357456
O O7 0.273977 0.871028 0.781972
O O8 0.091390 0.245902 0.656477
O O9 0.091567 0.821840 0.267065
O O10 0.116031 0.681244 0.699827
O O11 0.138571 0.972130 0.341318
O O12 0.141482 0.686546 0.053339
O O13 0.615995 0.959718 0.172702
O O14 0.345296 0.205534 0.972824
O O15 0.807244 0.547350 0.466729
O O16 0.099096 0.305850 0.950975
#
# Coordination Sequence:
#
# PCOD9072626 Si02
#       8
#     2   2   2   2   2   2   2   2
#     4   9  16  30  50  73  93 129 163 198 242 282
#     4   9  18  29  47  76 101 124 162 201 240 278
#     4   9  17  32  48  71  99 126 164 193 243 289
#     4   9  16  28  48  74  99 120 161 211 235 268
#     4   9  17  30  45  69 104 126 152 202 243 281
#     4  10  18  31  52  78  94 128 164 198 240 288
#     4   9  19  31  48  72 100 130 154 199 243 294
#     4  10  18  31  48  72 102 128 156 200 245 285
#
# _framework density 29.185093999999999
#
# number of rings (size 3 to 8) (size 9 to 14) (size 15 to 20)
#    0.000    2.750    2.500    0.375    0.000    4.500 
#    0.000    5.625    0.000    0.750    0.000   11.375 
#    0.000    0.000    0.000    0.000    0.000    0.000 
#
# Total GULP energy -89566.562898 kJ/mol
# GULP energy per Si atom -5597.910181 kJ/mol
# Density = 2.911867 g / cm^3
# Si number density = 29.185094 Si / 1000 Ang^3
#
#
#
# Elastic Constant Matrix: (Units=GPa)
#
#
# Indices 1 2 3 4 5 6 
#
# 1 82.5661 46.7610 21.0155 14.2467 -9.2982 -29.1843
# 2 46.7610 215.3077 90.6837 38.7792 -4.6800 -31.3213
# 3 21.0155 90.6837 188.4887 45.1552 -6.2157 -16.0165
# 4 14.2467 38.7792 45.1552 80.0678 -11.4713 -0.9945
# 5 -9.2982 -4.6800 -6.2157 -11.4713 33.4348 18.3970
# 6 -29.1843 -31.3213 -16.0165 -0.9945 18.3970 59.8586
#
#
#
# Elastic Compliance Matrix: (Units=1/GPa)
#
#
# Indices 1 2 3 4 5 6 
#
# 1 0.016007 -0.002314 0.000337 -0.001853 -0.000128 0.006692
# 2 -0.002314 0.006800 -0.002458 -0.001762 -0.002061 0.002377
# 3 0.000337 -0.002458 0.007230 -0.002997 -0.000426 0.000894
# 4 -0.001853 -0.001762 -0.002997 0.016266 0.006690 -0.004413
# 5 -0.000128 -0.002061 -0.000426 0.006690 0.039031 -0.013139
# 6 0.006692 0.002377 0.000894 -0.004413 -0.013139 0.025416
#
#
# Mechanical properties :
#
#
# Convention : Reuss Voigt Hill
#
# Bulk Modulus (GPa) = 47.24145 89.25367 68.24756
# Shear Modulus (GPa) = 39.47064 56.53239 48.00152
#
# Velocity S-wave (km/s) = 3.68152 4.40594 4.05992
# Velocity P-wave (km/s) = 5.85606 7.51874 6.73888
#
# Compressibility (1/GPa) = 0.02116785
#
# Stress axis : x y z
#
# Youngs Moduli (GPa) = 62.47292 147.04959 138.30950
#
# Poissons Ratio (x) = 0.34025 -0.04658
# Poissons Ratio (y) = 0.14455 0.33993
# Poissons Ratio (z) = -0.02104 0.36141
#
# Static dielectric constant tensor:
#      x y z
#    x 2.377540 -0.023050 -0.080140 
#    y -0.023050 2.350290 0.050240 
#    z -0.080140 0.050240 2.192180 
# 
# From -- ./inp_files/466822.got.cif
#   From: 2010.05.17/outbox.cif.g08.bks.cpg/sg2_234_cif.got.tgz:466822.got - 2010.06.03 11:33:40.
