data_PCOD9072299
_publ_section_title
;
Structure prediction by ZEFSAII (Michael W. Deem and Ramdas Pophale) SiO2 
 PCOD9072299
Probable space group: P -1
;
_chemical_formula_sum "Si O2"
_cell_formula_units_Z 16
_cell_length_a 20.267116
_cell_length_b 18.090944
_cell_length_c 8.579535
_cell_angle_alpha 138.996492
_cell_angle_beta 30.703935
_cell_angle_gamma 149.785672
_cell_volume 807.464859
_symmetry_space_group_name_H-M "P -1"
_symmetry_group_IT_number 2
_symmetry_cell_setting 'triclinic'
loop_
_space_group_symop_operation_xyz
x,y,z
-x,-y,-z
loop_
_atom_site_type_symbol
_atom_site_label
_atom_site_fract_x
_atom_site_fract_y
_atom_site_fract_z
Si Si1 0.055622 0.402153 0.765190
Si Si2 0.747890 0.226984 0.295118
Si Si3 0.950909 0.139284 0.355061
Si Si4 0.960874 0.933135 0.234545
Si Si5 0.561758 0.906148 0.724080
Si Si6 0.407017 0.657033 0.382708
Si Si7 0.522262 0.905942 0.139788
Si Si8 0.716055 0.841209 0.859015
O O1 0.257273 0.502243 0.520373
O O2 0.992172 0.284109 0.569924
O O3 0.000000 0.500000 0.000000
O O4 0.942998 0.310785 0.001322
O O5 0.698012 0.324666 0.497638
O O6 0.663375 0.164960 0.536550
O O7 0.639705 0.082159 0.174601
O O8 0.961674 0.056534 0.344923
O O9 0.761797 0.023039 0.491914
O O10 0.060392 0.162198 0.020597
O O11 0.818108 0.839858 0.508443
O O12 0.139725 0.029358 0.114145
O O13 0.482211 0.783069 0.559867
O O14 0.518772 0.839888 0.879807
O O15 0.500000 0.000000 0.000000
O O16 0.569241 0.696707 0.026888
O O17 0.614996 0.884864 0.049159
#
# Coordination Sequence:
#
# PCOD9072299 Si02
#       8
#     2   2   2   2   2   2   2   2
#     4  10  19  37  55  83 119 159 182 224 292 356
#     4   9  17  31  52  80 112 150 182 229 287 336
#     4  11  21  37  60  87 112 149 195 239 286 331
#     4  10  21  36  61  85 113 145 200 249 274 322
#     4  12  19  33  54  90 112 144 189 241 281 336
#     4  10  20  32  54  81 117 148 190 226 289 347
#     4  10  18  30  54  84 112 143 188 241 281 328
#     4  10  19  35  55  85 110 147 193 245 284 321
#
# _framework density 19.815104000000002
#
# number of rings (size 3 to 8) (size 9 to 14) (size 15 to 20)
#    0.000    1.750    5.000    0.750    0.000    0.000 
#    0.000    1.875    0.000   12.000    0.000    0.000 
#    0.000    0.000    0.000    0.000    0.000    0.000 
#
# Total GULP energy -89109.199711 kJ/mol
# GULP energy per Si atom -5569.324982 kJ/mol
# Density = 1.977000 g / cm^3
# Si number density = 19.815104 Si / 1000 Ang^3
#
#
#
# Elastic Constant Matrix: (Units=GPa)
#
#
# Indices 1 2 3 4 5 6 
#
# 1 50.9048 11.6209 25.3093 -2.7090 3.1506 5.3637
# 2 11.6209 83.1513 58.5063 -29.4401 13.4698 13.3434
# 3 25.3093 58.5063 130.9854 -34.8875 29.5164 6.0145
# 4 -2.7090 -29.4401 -34.8875 51.0273 2.3145 -1.4939
# 5 3.1506 13.4698 29.5164 2.3145 22.9738 3.2014
# 6 5.3637 13.3434 6.0145 -1.4939 3.2014 13.8016
#
#
#
# Elastic Compliance Matrix: (Units=1/GPa)
#
#
# Indices 1 2 3 4 5 6 
#
# 1 0.023219 0.000526 -0.006882 -0.003733 0.006915 -0.008541
# 2 0.000526 0.022948 -0.006461 0.008492 -0.003598 -0.017821
# 3 -0.006882 -0.006461 0.019200 0.010225 -0.021906 0.006741
# 4 -0.003733 0.008492 0.010225 0.032128 -0.020423 -0.003001
# 5 0.006915 -0.003598 -0.021906 -0.020423 0.076222 -0.009553
# 6 -0.008541 -0.017821 0.006741 -0.003001 -0.009553 0.091958
#
#
# Mechanical properties :
#
#
# Convention : Reuss Voigt Hill
#
# Bulk Modulus (GPa) = 25.16707 50.65720 37.91213
# Shear Modulus (GPa) = 16.41752 28.86752 22.64252
#
# Velocity S-wave (km/s) = 2.88155 3.82100 3.38404
# Velocity P-wave (km/s) = 4.87849 6.71470 5.86885
#
# Compressibility (1/GPa) = 0.03973447
#
# Stress axis : x y z
#
# Youngs Moduli (GPa) = 43.06776 43.57708 52.08339
#
# Poissons Ratio (x) = -0.02291 0.35841
# Poissons Ratio (y) = -0.02265 0.33649
# Poissons Ratio (z) = 0.29637 0.28153
#
# Static dielectric constant tensor:
#      x y z
#    x 1.739000 -0.065490 0.012640 
#    y -0.065490 1.740130 -0.057860 
#    z 0.012640 -0.057860 1.803330 
# 
# From -- ./inp_files/205755.got.cif
#   From: 2010.05.17/outbox.cif.g08.bks.cpg/sg2_103_cif.got.tgz:205755.got - 2010.06.03 11:33:40.
