data_PCOD9072750
_publ_section_title
;
Structure prediction by ZEFSAII (Michael W. Deem and Ramdas Pophale) SiO2 
 PCOD9072750
Probable space group: P -1
;
_chemical_formula_sum "Si O2"
_cell_formula_units_Z 16
_cell_length_a 21.000000
_cell_length_b 9.000000
_cell_length_c 18.000000
_cell_angle_alpha 40.000000
_cell_angle_beta 160.000000
_cell_angle_gamma 140.000000
_cell_volume 731.217405
_symmetry_space_group_name_H-M "P -1"
_symmetry_group_IT_number 2
_symmetry_cell_setting 'triclinic'
loop_
_space_group_symop_operation_xyz
x,y,z
-x,-y,-z
loop_
_atom_site_type_symbol
_atom_site_label
_atom_site_fract_x
_atom_site_fract_y
_atom_site_fract_z
Si Si1 0.268516 0.488884 0.910077
Si Si2 0.147891 0.149128 0.213774
Si Si3 0.609022 0.439669 0.214421
Si Si4 0.911427 0.019907 0.150391
Si Si5 0.512668 0.909202 0.296603
Si Si6 0.717351 0.990705 0.342355
Si Si7 0.946310 0.634449 0.126177
Si Si8 0.855950 0.763905 0.455916
O O1 0.138876 0.261032 0.814901
O O2 0.265116 0.735689 0.769322
O O3 0.207562 0.458076 0.941326
O O4 0.477250 0.441715 0.140947
O O5 0.361005 0.209597 0.461326
O O6 0.128828 0.315080 0.057800
O O7 0.001628 0.149613 0.123000
O O8 0.079478 0.882551 0.206226
O O9 0.635115 0.178396 0.334020
O O10 0.792862 0.633667 0.359046
O O11 0.500000 0.500000 0.000000
O O12 0.083520 0.046217 0.388265
O O13 0.709809 0.091666 0.926880
O O14 0.552310 0.878996 0.263717
O O15 0.695735 0.849380 0.295691
O O16 0.063617 0.427363 0.334673
O O17 0.000000 0.000000 0.500000
#
# Coordination Sequence:
#
# PCOD9072750 Si02
#       8
#     2   2   2   2   2   2   2   2
#     4  10  20  36  60  92 126 169 217 259 325 385
#     4   9  19  40  69  88 126 169 229 271 302 377
#     4  11  23  40  63  95 128 171 220 268 309 395
#     4   9  21  36  65  96 118 174 223 264 314 378
#     4  10  20  40  65  93 126 169 222 264 316 381
#     4  11  22  37  60  93 134 168 200 268 326 390
#     4  10  20  41  60  93 130 170 213 271 320 374
#     4  12  26  39  61  99 137 170 206 265 340 391
#
# _framework density 21.881316999999999
#
# number of rings (size 3 to 8) (size 9 to 14) (size 15 to 20)
#    0.000    1.750    3.750    0.375    3.500    0.500 
#    4.500    5.000    0.000    1.500    0.000    0.000 
#    0.000    0.000    0.000    0.000    0.000    0.000 
#
# Total GULP energy -89281.770898 kJ/mol
# GULP energy per Si atom -5580.110681 kJ/mol
# Density = 2.183151 g / cm^3
# Si number density = 21.881317 Si / 1000 Ang^3
#
#
#
# Elastic Constant Matrix: (Units=GPa)
#
#
# Indices 1 2 3 4 5 6 
#
# 1 114.7594 10.4314 13.0482 -21.4938 1.0960 15.5133
# 2 10.4314 50.7220 9.0166 -5.4078 -8.3871 -1.6312
# 3 13.0482 9.0166 59.5067 -22.7220 -9.5695 16.0603
# 4 -21.4938 -5.4078 -22.7220 26.5509 4.7407 -5.9715
# 5 1.0960 -8.3871 -9.5695 4.7407 46.2578 -8.2020
# 6 15.5133 -1.6312 16.0603 -5.9715 -8.2020 32.9307
#
#
#
# Elastic Compliance Matrix: (Units=1/GPa)
#
#
# Indices 1 2 3 4 5 6 
#
# 1 0.011289 -0.002273 0.002977 0.010356 -0.002105 -0.005529
# 2 -0.002273 0.021628 -0.003427 -0.000016 0.004126 0.004838
# 3 0.002977 -0.003427 0.028898 0.023782 0.000875 -0.011136
# 4 0.010356 -0.000016 0.023782 0.065740 -0.003007 -0.005306
# 5 -0.002105 0.004126 0.000875 -0.003007 0.024005 0.006203
# 6 -0.005529 0.004838 -0.011136 -0.005306 0.006203 0.039225
#
#
# Mechanical properties :
#
#
# Convention : Reuss Voigt Hill
#
# Bulk Modulus (GPa) = 17.74009 32.22007 24.98008
# Shear Modulus (GPa) = 23.25356 33.98068 28.61712
#
# Velocity S-wave (km/s) = 3.26346 3.94503 3.62032
# Velocity P-wave (km/s) = 4.72496 5.95885 5.37741
#
# Compressibility (1/GPa) = 0.05636949
#
# Stress axis : x y z
#
# Youngs Moduli (GPa) = 88.58053 46.23632 34.60409
#
# Poissons Ratio (x) = 0.10508 -0.10302
# Poissons Ratio (y) = 0.20132 0.11860
# Poissons Ratio (z) = -0.26370 0.15846
#
# Static dielectric constant tensor:
#      x y z
#    x 1.836640 -0.046140 0.002600 
#    y -0.046140 1.864060 0.038410 
#    z 0.002600 0.038410 1.866990 
# 
# From -- ./inp_files/577572.got.cif
#   From: 2010.05.17/outbox.ucp.g08.bks.cvg/sg2_289_cif.got.tgz:577572.got - 2010.06.11 11:32:03.
