data_PCOD9072830
_publ_section_title
;
Structure prediction by ZEFSAII (Michael W. Deem and Ramdas Pophale) SiO2 
 PCOD9072830
Probable space group: P -1
;
_chemical_formula_sum "Si O2"
_cell_formula_units_Z 14
_cell_length_a 12.000000
_cell_length_b 21.000000
_cell_length_c 15.000000
_cell_angle_alpha 160.000000
_cell_angle_beta 30.000000
_cell_angle_gamma 150.000000
_cell_volume 615.533390
_symmetry_space_group_name_H-M "P -1"
_symmetry_group_IT_number 2
_symmetry_cell_setting 'triclinic'
loop_
_space_group_symop_operation_xyz
x,y,z
-x,-y,-z
loop_
_atom_site_type_symbol
_atom_site_label
_atom_site_fract_x
_atom_site_fract_y
_atom_site_fract_z
Si Si1 0.405240 0.048167 0.377867
Si Si2 0.856629 0.034198 0.954101
Si Si3 0.628118 0.861717 0.275763
Si Si4 0.684054 0.628194 0.469990
Si Si5 0.260840 0.672260 0.720218
Si Si6 0.470626 0.455001 0.770512
Si Si7 0.056599 0.654065 0.032859
O O1 0.349881 0.073019 0.551135
O O2 0.448342 0.258415 0.580552
O O3 0.196687 0.879319 0.254032
O O4 0.648509 0.003523 0.129482
O O5 0.120289 0.128116 0.925701
O O6 0.860223 0.821066 0.641981
O O7 0.803148 0.165322 0.082153
O O8 0.500000 0.000000 0.500000
O O9 0.487752 0.635797 0.060482
O O10 0.500000 0.500000 0.500000
O O11 0.522421 0.725258 0.649990
O O12 0.825767 0.474605 0.157552
O O13 0.305939 0.514678 0.410933
O O14 0.097273 0.622496 0.856258
O O15 0.217081 0.405102 0.834174
#
# Coordination Sequence:
#
# PCOD9072830 Si02
#       7
#     2   2   2   2   2   2   2
#     4  11  25  43  71  96 133 174 224 272 328 384
#     4  11  23  44  69  96 134 173 219 273 324 398
#     4  12  29  46  65  97 134 181 222 265 330 397
#     4  10  20  37  64  99 136 159 211 269 334 378
#     4  10  23  39  70 100 131 168 221 266 335 383
#     4  11  26  43  67  98 136 178 219 264 329 399
#     4  11  23  41  69 104 135 167 214 284 328 380
#
# _framework density 22.744501
#
# number of rings (size 3 to 8) (size 9 to 14) (size 15 to 20)
#    0.000    1.143    2.857    3.000    6.000    4.571 
#    0.000    0.000    0.000    0.000    0.000    0.000 
#    0.000    0.000    0.000    0.000    0.000    0.000 
#
# Total GULP energy -78040.958204 kJ/mol
# GULP energy per Si atom -5574.354157 kJ/mol
# Density = 2.269273 g / cm^3
# Si number density = 22.744501 Si / 1000 Ang^3
#
#
#
# Elastic Constant Matrix: (Units=GPa)
#
#
# Indices 1 2 3 4 5 6 
#
# 1 9.3336 10.0675 49.6626 -6.2382 -0.2177 18.6408
# 2 10.0675 64.5052 37.0371 -1.8442 -0.6323 18.6830
# 3 49.6626 37.0371 59.2092 32.9450 -3.2239 -25.6531
# 4 -6.2382 -1.8442 32.9450 31.2327 0.1521 18.3231
# 5 -0.2177 -0.6323 -3.2239 0.1521 31.1737 -8.0151
# 6 18.6408 18.6830 -25.6531 18.3231 -8.0151 13.2097
#
#
#
# Elastic Compliance Matrix: (Units=1/GPa)
#
#
# Indices 1 2 3 4 5 6 
#
# 1 0.027723 -0.015739 0.006911 -0.016949 0.006910 0.024262
# 2 -0.015739 0.018695 0.000329 -0.000473 -0.000532 -0.003258
# 3 0.006911 0.000329 0.003407 0.004426 -0.002510 -0.011264
# 4 -0.016949 -0.000473 0.004426 0.021491 0.001294 0.004157
# 5 0.006910 -0.000532 -0.002510 0.001294 0.032964 0.004333
# 6 0.024262 -0.003258 -0.011264 0.004157 0.004333 0.021062
#
#
# Mechanical properties :
#
#
# Convention : Reuss Voigt Hill
#
# Bulk Modulus (GPa) = 30.46197 36.28693 33.37445
# Shear Modulus (GPa) = 32.61978 17.54193 25.08085
#
# Velocity S-wave (km/s) = 3.79117 2.78017 3.32433
# Velocity P-wave (km/s) = 5.70843 5.12782 5.42590
#
# Compressibility (1/GPa) = 0.03282782
#
# Stress axis : x y z
#
# Youngs Moduli (GPa) = 36.07137 53.49060 293.49621
#
# Poissons Ratio (x) = 0.84187 -2.02829
# Poissons Ratio (y) = 0.56772 -0.09667
# Poissons Ratio (z) = -0.24928 -0.01762
#
# Static dielectric constant tensor:
#      x y z
#    x 2.033540 -0.008970 0.077050 
#    y -0.008970 1.826350 -0.084360 
#    z 0.077050 -0.084360 1.834700 
# 
# From -- ./inp_files/524126.got.cif
#   From: 2010.05.17/outbox.ucp.g08.bks.cvg/sg2_263_cif.got.tgz:524126.got - 2010.06.11 11:32:03.
