data_PCOD9072152
_publ_section_title
;
Structure prediction by ZEFSAII (Michael W. Deem and Ramdas Pophale) SiO2 
 PCOD9072152
Probable space group: P -1
;
_chemical_formula_sum "Si O2"
_cell_formula_units_Z 16
_cell_length_a 18.000000
_cell_length_b 21.000000
_cell_length_c 12.000000
_cell_angle_alpha 30.000000
_cell_angle_beta 40.000000
_cell_angle_gamma 20.000000
_cell_volume 744.844803
_symmetry_space_group_name_H-M "P -1"
_symmetry_group_IT_number 2
_symmetry_cell_setting 'triclinic'
loop_
_space_group_symop_operation_xyz
x,y,z
-x,-y,-z
loop_
_atom_site_type_symbol
_atom_site_label
_atom_site_fract_x
_atom_site_fract_y
_atom_site_fract_z
Si Si1 0.656624 0.168233 0.395125
Si Si2 0.205005 0.311037 0.282033
Si Si3 0.036257 0.097485 0.871270
Si Si4 0.367491 0.950387 0.811203
Si Si5 0.713133 0.408294 0.984909
Si Si6 0.926828 0.751938 0.080258
Si Si7 0.963817 0.348234 0.366536
Si Si8 0.517124 0.133743 0.809842
O O1 0.677846 0.292592 0.228026
O O2 0.525656 0.204481 0.578047
O O3 0.521702 0.308310 0.219696
O O4 0.894676 0.872334 0.546655
O O5 0.376607 0.261615 0.129351
O O6 0.086686 0.365224 0.227463
O O7 0.331010 0.076399 0.555439
O O8 0.033199 0.524732 0.248939
O O9 0.979035 0.258164 0.602970
O O10 0.281782 0.894692 0.950714
O O11 0.862976 0.265915 0.916484
O O12 0.000000 0.000000 0.000000
O O13 0.204711 0.139688 0.815452
O O14 0.864953 0.347060 0.988100
O O15 0.737770 0.964238 0.883911
O O16 0.701222 0.622477 0.236115
O O17 0.500000 0.000000 0.000000
#
# Coordination Sequence:
#
# PCOD9072152 Si02
#       8
#     2   2   2   2   2   2   2   2
#     4  11  25  43  70  99 126 168 226 266 326 386
#     4  10  21  37  61  95 122 168 216 267 321 375
#     4  10  18  38  67  99 128 158 214 275 328 379
#     4   9  22  35  60  96 128 161 213 272 330 367
#     4  10  23  43  71 101 126 167 217 280 325 376
#     4  11  24  41  62  90 137 168 210 267 323 387
#     4  11  23  40  67  92 127 170 216 270 317 385
#     4  12  27  45  62  94 137 182 213 261 326 392
#
# _framework density 21.480985
#
# number of rings (size 3 to 8) (size 9 to 14) (size 15 to 20)
#    0.000    1.500    3.750    0.375    7.000    2.000 
#    0.000    0.625    0.000    0.000    0.000    0.000 
#    0.000    0.000    0.000    0.000    0.000    0.000 
#
# Total GULP energy -89311.038852 kJ/mol
# GULP energy per Si atom -5581.939928 kJ/mol
# Density = 2.143209 g / cm^3
# Si number density = 21.480985 Si / 1000 Ang^3
#
#
#
# Elastic Constant Matrix: (Units=GPa)
#
#
# Indices 1 2 3 4 5 6 
#
# 1 90.4109 10.2489 44.6903 -11.3217 -11.8309 -24.1898
# 2 10.2489 72.1713 31.9470 -2.9012 -10.7044 -9.2665
# 3 44.6903 31.9470 52.1938 2.7980 -6.9388 -9.2150
# 4 -11.3217 -2.9012 2.7980 34.9035 -0.1652 2.7438
# 5 -11.8309 -10.7044 -6.9388 -0.1652 19.9084 -1.6737
# 6 -24.1898 -9.2665 -9.2150 2.7438 -1.6737 36.3869
#
#
#
# Elastic Compliance Matrix: (Units=1/GPa)
#
#
# Indices 1 2 3 4 5 6 
#
# 1 0.037151 0.017216 -0.037024 0.015012 0.020194 0.019502
# 2 0.017216 0.028257 -0.028295 0.009373 0.016610 0.011533
# 3 -0.037024 -0.028295 0.064393 -0.018431 -0.016176 -0.014866
# 4 0.015012 0.009373 -0.018431 0.035390 0.008286 0.005412
# 5 0.020194 0.016610 -0.016176 0.008286 0.066939 0.016013
# 6 0.019502 0.011533 -0.014866 0.005412 0.016013 0.039948
#
#
# Mechanical properties :
#
#
# Convention : Reuss Voigt Hill
#
# Bulk Modulus (GPa) = 29.76718 43.17206 36.46962
# Shear Modulus (GPa) = 13.17584 26.76574 19.97079
#
# Velocity S-wave (km/s) = 2.47932 3.53373 3.05240
# Velocity P-wave (km/s) = 4.69932 6.06557 5.42562
#
# Compressibility (1/GPa) = 0.03359405
#
# Stress axis : x y z
#
# Youngs Moduli (GPa) = 26.91749 35.38925 15.52963
#
# Poissons Ratio (x) = -0.60926 0.57497
# Poissons Ratio (y) = -0.46341 0.43941
# Poissons Ratio (z) = 0.99660 1.00134
#
# Static dielectric constant tensor:
#      x y z
#    x 1.876930 -0.121800 -0.055800 
#    y -0.121800 1.917960 0.037410 
#    z -0.055800 0.037410 1.823760 
# 
# From -- ./inp_files/428801.got.cif
#   From: 2010.05.17/outbox.ucp.g08.bks.cvg/sg2_215_cif.got.tgz:428801.got - 2010.06.11 11:32:03.
