data_PCOD9072625
_publ_section_title
;
Structure prediction by ZEFSAII (Michael W. Deem and Ramdas Pophale) SiO2 
 PCOD9072625
Probable space group: P -1
;
_chemical_formula_sum "Si O2"
_cell_formula_units_Z 16
_cell_length_a 19.062988
_cell_length_b 28.752820
_cell_length_c 5.885080
_cell_angle_alpha 101.375915
_cell_angle_beta 70.426620
_cell_angle_gamma 161.888372
_cell_volume 860.187977
_symmetry_space_group_name_H-M "P -1"
_symmetry_group_IT_number 2
_symmetry_cell_setting 'triclinic'
loop_
_space_group_symop_operation_xyz
x,y,z
-x,-y,-z
loop_
_atom_site_type_symbol
_atom_site_label
_atom_site_fract_x
_atom_site_fract_y
_atom_site_fract_z
Si Si1 0.244810 0.396273 0.253547
Si Si2 0.618208 0.022458 0.135301
Si Si3 0.219506 0.639083 0.205526
Si Si4 0.290329 0.357814 0.776852
Si Si5 0.072498 0.720043 0.250829
Si Si6 0.006071 0.579474 0.996526
Si Si7 0.482531 0.118743 0.557545
Si Si8 0.126355 0.899858 0.356527
O O1 0.547140 0.576111 0.164937
O O2 0.117978 0.365926 0.465598
O O3 0.086599 0.258623 0.422296
O O4 0.219763 0.363694 0.989614
O O5 0.330518 0.866303 0.258019
O O6 0.629169 0.999009 0.333680
O O7 0.820277 0.186028 0.997128
O O8 0.674763 0.017235 0.878881
O O9 0.462206 0.810458 0.231969
O O10 0.000000 0.500000 0.500000
O O11 0.226062 0.592020 0.030569
O O12 0.116494 0.613915 0.110809
O O13 0.500000 0.500000 0.500000
O O14 0.040960 0.183683 0.755383
O O15 0.950946 0.597186 0.174937
O O16 0.241849 0.726195 0.702676
O O17 0.298771 0.030736 0.483766
#
# Coordination Sequence:
#
# PCOD9072625 Si02
#       8
#     2   2   2   2   2   2   2   2
#     4   9  19  33  51  69  98 138 174 214 257 300
#     4  10  20  32  45  79 112 140 169 205 258 314
#     4   9  19  33  50  68  97 142 179 221 252 294
#     4   9  18  35  49  66  95 133 180 219 251 300
#     4  10  19  35  49  77 108 142 173 209 255 319
#     4  10  19  34  49  72 104 137 183 213 251 308
#     4  11  18  31  50  73 106 143 172 213 255 305
#     4  10  18  31  48  72 101 136 173 212 248 309
#
# _framework density 18.600584000000001
#
# number of rings (size 3 to 8) (size 9 to 14) (size 15 to 20)
#    0.000    2.250    2.500    0.750    0.000    0.500 
#    6.750    0.000    0.000    0.000    0.000    0.875 
#    0.000   27.000    0.000   28.750    0.000   24.250 
#
# Total GULP energy -89088.172460 kJ/mol
# GULP energy per Si atom -5568.010779 kJ/mol
# Density = 1.855825 g / cm^3
# Si number density = 18.600584 Si / 1000 Ang^3
#
#
#
# Elastic Constant Matrix: (Units=GPa)
#
#
# Indices 1 2 3 4 5 6 
#
# 1 58.0677 41.1036 35.0053 1.3836 -8.3076 -1.3965
# 2 41.1036 104.7281 21.8721 21.5447 -17.4474 11.6234
# 3 35.0053 21.8721 90.4502 6.9838 -12.7315 -7.8145
# 4 1.3836 21.5447 6.9838 25.5776 -1.5663 0.6726
# 5 -8.3076 -17.4474 -12.7315 -1.5663 34.1665 -0.2319
# 6 -1.3965 11.6234 -7.8145 0.6726 -0.2319 35.4813
#
#
#
# Elastic Compliance Matrix: (Units=1/GPa)
#
#
# Indices 1 2 3 4 5 6 
#
# 1 0.032912 -0.014167 -0.010351 0.012738 -0.002482 0.003399
# 2 -0.014167 0.019684 0.002365 -0.015887 0.006718 -0.006140
# 3 -0.010351 0.002365 0.015733 -0.005527 0.004316 0.002416
# 4 0.012738 -0.015887 -0.005527 0.052924 -0.004625 0.003455
# 5 -0.002482 0.006718 0.004316 -0.004625 0.033485 -0.001041
# 6 0.003399 -0.006140 0.002416 0.003455 -0.001041 0.030789
#
#
# Mechanical properties :
#
#
# Convention : Reuss Voigt Hill
#
# Bulk Modulus (GPa) = 41.62657 49.91199 45.76928
# Shear Modulus (GPa) = 21.02245 29.39608 25.20926
#
# Velocity S-wave (km/s) = 3.36550 3.97972 3.68543
# Velocity P-wave (km/s) = 6.12616 6.92888 6.53985
#
# Compressibility (1/GPa) = 0.02402312
#
# Stress axis : x y z
#
# Youngs Moduli (GPa) = 30.38369 50.80334 63.56092
#
# Poissons Ratio (x) = 0.71972 0.65791
# Poissons Ratio (y) = 0.43044 -0.15030
# Poissons Ratio (z) = 0.31450 -0.12014
#
# Static dielectric constant tensor:
#      x y z
#    x 1.676710 0.028560 0.045110 
#    y 0.028560 1.738380 0.029230 
#    z 0.045110 0.029230 1.707730 
# 
# From -- ./inp_files/113150.got.cif
#   From: 2010.05.17/outbox.cif.g08.bks.cpg/sg2_57_cif.got.tgz:113150.got - 2010.06.03 11:33:40.
