data_PCOD9072459
_publ_section_title
;
Structure prediction by ZEFSAII (Michael W. Deem and Ramdas Pophale) SiO2 
 PCOD9072459
Probable space group: P -1
;
_chemical_formula_sum "Si O2"
_cell_formula_units_Z 16
_cell_length_a 9.000000
_cell_length_b 12.000000
_cell_length_c 18.000000
_cell_angle_alpha 130.000000
_cell_angle_beta 30.000000
_cell_angle_gamma 130.000000
_cell_volume 725.531033
_symmetry_space_group_name_H-M "P -1"
_symmetry_group_IT_number 2
_symmetry_cell_setting 'triclinic'
loop_
_space_group_symop_operation_xyz
x,y,z
-x,-y,-z
loop_
_atom_site_type_symbol
_atom_site_label
_atom_site_fract_x
_atom_site_fract_y
_atom_site_fract_z
Si Si1 0.309669 0.098874 0.524148
Si Si2 0.628184 0.352874 0.397493
Si Si3 0.165635 0.815006 0.544349
Si Si4 0.507550 0.346558 0.887051
Si Si5 0.918418 0.391367 0.130728
Si Si6 0.444129 0.279423 0.161933
Si Si7 0.125814 0.525143 0.350413
Si Si8 0.213511 0.746334 0.140990
O O1 0.418929 0.193351 0.442714
O O2 0.554247 0.148151 0.505181
O O3 0.012505 0.150549 0.700359
O O4 0.236273 0.920176 0.486167
O O5 0.500000 0.500000 0.500000
O O6 0.822509 0.344745 0.236425
O O7 0.828809 0.403093 0.405188
O O8 0.093922 0.644112 0.476152
O O9 0.866720 0.831032 0.725666
O O10 0.781795 0.384393 0.727214
O O11 0.547245 0.236336 0.887417
O O12 0.500000 0.500000 0.000000
O O13 0.201026 0.316237 0.959610
O O14 0.645598 0.327636 0.167294
O O15 0.024372 0.571497 0.152029
O O16 0.371845 0.431142 0.224280
O O17 0.624599 0.221082 0.993553
#
# Coordination Sequence:
#
# PCOD9072459 Si02
#       8
#     2   2   2   2   2   2   2   2
#     4  11  25  45  64  93 133 175 211 261 330 381
#     4  12  21  38  67  94 125 169 216 265 315 377
#     4  11  27  42  63  96 135 171 213 263 322 386
#     4  10  19  37  59  98 129 158 205 272 328 360
#     4  11  21  35  61 102 126 157 209 274 323 363
#     4  12  23  38  66 100 126 165 220 270 310 378
#     4  12  21  39  67  96 128 165 218 272 311 374
#     4  11  21  39  66  95 128 168 213 265 318 378
#
# _framework density 22.052813
#
# number of rings (size 3 to 8) (size 9 to 14) (size 15 to 20)
#    0.000    0.750    7.500    2.250    1.750    0.500 
#    0.000    5.625    0.000    1.500    0.000    0.000 
#    0.000    0.000    0.000    0.000    0.000    0.000 
#
# Total GULP energy -89286.620982 kJ/mol
# GULP energy per Si atom -5580.413811 kJ/mol
# Density = 2.200262 g / cm^3
# Si number density = 22.052813 Si / 1000 Ang^3
#
#
#
# Elastic Constant Matrix: (Units=GPa)
#
#
# Indices 1 2 3 4 5 6 
#
# 1 76.6973 7.4159 -3.8563 11.9153 -18.4988 -1.0932
# 2 7.4159 42.9426 -2.4627 8.0945 3.3408 -25.5782
# 3 -3.8563 -2.4627 29.6768 2.3903 -0.4964 -1.7819
# 4 11.9153 8.0945 2.3903 -1.4541 -14.0733 10.7558
# 5 -18.4988 3.3408 -0.4964 -14.0733 38.1903 -7.2455
# 6 -1.0932 -25.5782 -1.7819 10.7558 -7.2455 20.2785
#
#
#
# Elastic Compliance Matrix: (Units=1/GPa)
#
#
# Indices 1 2 3 4 5 6 
#
# 1 0.015273 -0.005280 0.001415 0.000656 0.007477 -0.003388
# 2 -0.005280 0.022114 -0.001200 0.039733 0.012180 0.010781
# 3 0.001415 -0.001200 0.033071 0.008471 0.004042 -0.001580
# 4 0.000656 0.039733 0.008471 -0.017369 0.002098 0.060859
# 5 0.007477 0.012180 0.004042 0.002098 0.034771 0.027432
# 6 -0.003388 0.010781 -0.001580 0.060859 0.027432 0.040112
#
#
# Mechanical properties :
#
#
# Convention : Reuss Voigt Hill
#
# Bulk Modulus (GPa) = 16.57581 16.83449 16.70515
# Shear Modulus (GPa) = 31.60306 21.28425 26.44366
#
# Velocity S-wave (km/s) = 3.78969 3.11006 3.46657
# Velocity P-wave (km/s) = 5.16543 4.53287 4.85945
#
# Compressibility (1/GPa) = 0.06032886
#
# Stress axis : x y z
#
# Youngs Moduli (GPa) = 65.47405 45.21957 30.23783
#
# Poissons Ratio (x) = 0.23876 -0.04280
# Poissons Ratio (y) = 0.34570 0.03629
# Poissons Ratio (z) = -0.09267 0.05427
#
# Static dielectric constant tensor:
#      x y z
#    x 1.896050 0.014670 -0.027460 
#    y 0.014670 1.791450 -0.082810 
#    z -0.027460 -0.082810 1.851260 
# 
# From -- ./inp_files/182407.got.cif
#   From: 2010.05.17/outbox.ucp.g08.bks.cvg/sg2_92_cif.got.tgz:182407.got - 2010.06.11 11:32:03.
