data_PCOD9072669
_publ_section_title
;
Structure prediction by ZEFSAII (Michael W. Deem and Ramdas Pophale) SiO2 
 PCOD9072669
Probable space group: P -1
;
_chemical_formula_sum "Si O2"
_cell_formula_units_Z 16
_cell_length_a 12.468396
_cell_length_b 26.214317
_cell_length_c 20.043537
_cell_angle_alpha 21.456397
_cell_angle_beta 19.722957
_cell_angle_gamma 20.181522
_cell_volume 697.378112
_symmetry_space_group_name_H-M "P -1"
_symmetry_group_IT_number 2
_symmetry_cell_setting 'triclinic'
loop_
_space_group_symop_operation_xyz
x,y,z
-x,-y,-z
loop_
_atom_site_type_symbol
_atom_site_label
_atom_site_fract_x
_atom_site_fract_y
_atom_site_fract_z
Si Si1 0.531299 0.814099 0.611096
Si Si2 0.383020 0.838363 0.237331
Si Si3 0.223102 0.634617 0.945535
Si Si4 0.603226 0.876144 0.195102
Si Si5 0.548038 0.118652 0.194563
Si Si6 0.553119 0.090384 0.074144
Si Si7 0.429674 0.652992 0.998340
Si Si8 0.701461 0.324783 0.626839
O O1 0.322992 0.775151 0.722944
O O2 0.457291 0.755290 0.795924
O O3 0.972544 0.702120 0.482351
O O4 0.447176 0.995588 0.438574
O O5 0.372026 0.836519 0.325979
O O6 0.150977 0.786775 0.389840
O O7 0.809987 0.709692 0.123581
O O8 0.304838 0.009001 0.045583
O O9 0.500000 0.500000 0.000000
O O10 0.332669 0.533203 0.936553
O O11 0.990967 0.718737 0.179366
O O12 0.425391 0.989168 0.226307
O O13 0.435029 0.287751 0.089948
O O14 0.428438 0.127642 0.177349
O O15 0.998501 0.022998 0.049786
O O16 0.480612 0.253577 0.881550
O O17 0.500000 0.500000 0.500000
#
# Coordination Sequence:
#
# PCOD9072669 Si02
#       8
#     2   2   2   2   2   2   2   2
#     4  10  19  31  51  83 105 129 173 225 258 299
#     4  10  18  31  49  76 102 140 160 211 263 317
#     4  10  18  31  50  75 111 132 163 212 277 304
#     4   9  17  30  53  72  96 133 181 199 250 317
#     4   9  17  31  52  72 106 134 177 213 254 302
#     4   8  17  32  49  73  99 140 172 209 254 310
#     4  10  18  31  53  82 102 135 171 219 262 311
#     4  10  19  30  52  75 103 132 173 212 259 305
#
# _framework density 22.943076999999999
#
# number of rings (size 3 to 8) (size 9 to 14) (size 15 to 20)
#    0.000    2.500    2.500    2.625    0.000    0.000 
#    0.000    0.000    2.750   12.750    0.000    0.000 
#    0.000    0.000    0.000    0.000    0.000    0.000 
#
# Total GULP energy -89243.385157 kJ/mol
# GULP energy per Si atom -5577.711572 kJ/mol
# Density = 2.289086 g / cm^3
# Si number density = 22.943077 Si / 1000 Ang^3
#
#
#
# Elastic Constant Matrix: (Units=GPa)
#
#
# Indices 1 2 3 4 5 6 
#
# 1 138.9446 28.7120 19.3442 -7.6335 -17.0866 36.0274
# 2 28.7120 98.7467 15.8265 -2.8762 -10.5127 6.8026
# 3 19.3442 15.8265 31.6754 -4.7848 -14.5637 10.2136
# 4 -7.6335 -2.8762 -4.7848 16.5373 2.7022 -9.7205
# 5 -17.0866 -10.5127 -14.5637 2.7022 26.6055 -9.8007
# 6 36.0274 6.8026 10.2136 -9.7205 -9.8007 42.4571
#
#
#
# Elastic Compliance Matrix: (Units=1/GPa)
#
#
# Indices 1 2 3 4 5 6 
#
# 1 0.009987 -0.001891 -0.002017 -0.001009 0.001911 -0.007476
# 2 -0.001891 0.011434 -0.004256 0.000363 0.001378 0.001198
# 3 -0.002017 -0.004256 0.046297 0.006943 0.020793 -0.002354
# 4 -0.001009 0.000363 0.006943 0.071075 0.001913 0.015842
# 5 0.001911 0.001378 0.020793 0.001913 0.052664 0.005751
# 6 -0.007476 0.001198 -0.002354 0.015842 0.005751 0.035226
#
#
# Mechanical properties :
#
#
# Convention : Reuss Voigt Hill
#
# Bulk Modulus (GPa) = 19.45955 44.12577 31.79266
# Shear Modulus (GPa) = 19.22042 30.81892 25.01967
#
# Velocity S-wave (km/s) = 2.89752 3.66905 3.30587
# Velocity P-wave (km/s) = 4.43782 6.10112 5.33470
#
# Compressibility (1/GPa) = 0.05138866
#
# Stress axis : x y z
#
# Youngs Moduli (GPa) = 100.13167 87.46084 21.59988
#
# Poissons Ratio (x) = 0.16543 0.04357
# Poissons Ratio (y) = 0.18940 0.09192
# Poissons Ratio (z) = 0.20199 0.37219
#
# Static dielectric constant tensor:
#      x y z
#    x 1.925170 0.016180 -0.070650 
#    y 0.016180 1.918770 0.036030 
#    z -0.070650 0.036030 1.905010 
# 
# From -- ./inp_files/612454.got.cif
#   From: 2010.05.17/outbox.cif.g08.bks.cpg/sg2_307_cif.got.tgz:612454.got - 2010.06.03 11:33:40.
