data_PCOD9072196
_publ_section_title
;
Structure prediction by ZEFSAII (Michael W. Deem and Ramdas Pophale) SiO2 
 PCOD9072196
Probable space group: P -1
;
_chemical_formula_sum "Si O2"
_cell_formula_units_Z 16
_cell_length_a 12.202435
_cell_length_b 18.118043
_cell_length_c 5.146157
_cell_angle_alpha 88.338734
_cell_angle_beta 124.131699
_cell_angle_gamma 103.225311
_cell_volume 909.783301
_symmetry_space_group_name_H-M "P -1"
_symmetry_group_IT_number 2
_symmetry_cell_setting 'triclinic'
loop_
_space_group_symop_operation_xyz
x,y,z
-x,-y,-z
loop_
_atom_site_type_symbol
_atom_site_label
_atom_site_fract_x
_atom_site_fract_y
_atom_site_fract_z
Si Si1 0.984881 0.329676 0.746133
Si Si2 0.535661 0.830127 0.050842
Si Si3 0.837716 0.620371 0.507017
Si Si4 0.860228 0.463135 0.667626
Si Si5 0.509938 0.088853 0.506831
Si Si6 0.560902 0.669052 0.084210
Si Si7 0.621807 0.359747 0.661202
Si Si8 0.725378 0.222084 0.600485
O O1 0.890239 0.389689 0.574350
O O2 0.879563 0.251907 0.708318
O O3 0.067070 0.329748 0.591777
O O4 0.090815 0.358781 0.119764
O O5 0.571072 0.883909 0.840769
O O6 0.376670 0.786515 0.781551
O O7 0.543459 0.881726 0.305861
O O8 0.606308 0.761049 0.174149
O O9 0.830203 0.531184 0.452896
O O10 0.688402 0.634136 0.299433
O O11 0.739255 0.432076 0.715647
O O12 0.000000 0.500000 0.000000
O O13 0.666617 0.140334 0.667096
O O14 0.500000 0.000000 0.500000
O O15 0.443295 0.636933 0.145228
O O16 0.497725 0.653154 0.714160
O O17 0.686784 0.287061 0.721843
#
# Coordination Sequence:
#
# PCOD9072196 Si02
#       8
#     2   2   2   2   2   2   2   2
#     4  10  21  35  53  73 102 138 172 220 262 292
#     4   9  18  31  50  75 108 131 158 204 253 307
#     4  11  23  34  52  75 101 138 183 216 249 300
#     4   9  21  37  53  75 104 135 175 223 268 295
#     4  10  18  30  52  84 108 125 157 204 262 309
#     4  11  20  36  51  75 104 137 180 205 249 309
#     4  10  20  34  55  72 102 141 169 213 261 301
#     4   8  19  30  54  75 105 129 170 201 264 307
#
# _framework density 17.586604999999999
#
# number of rings (size 3 to 8) (size 9 to 14) (size 15 to 20)
#    0.750    1.500    1.250    1.500    1.750    9.000 
#    0.000    0.000    0.000    0.000    0.000    5.250 
#    0.000    0.000    0.000    0.000    0.000    0.000 
#
# Total GULP energy -89167.577546 kJ/mol
# GULP energy per Si atom -5572.973597 kJ/mol
# Density = 1.754658 g / cm^3
# Si number density = 17.586605 Si / 1000 Ang^3
#
#
#
# Elastic Constant Matrix: (Units=GPa)
#
#
# Indices 1 2 3 4 5 6 
#
# 1 54.0449 0.5214 10.0177 -2.7859 -1.0959 2.8615
# 2 0.5214 54.1576 9.3845 11.4436 12.6666 3.1930
# 3 10.0177 9.3845 34.9765 -8.2074 -7.8109 -6.9664
# 4 -2.7859 11.4436 -8.2074 11.4628 0.4950 -0.0933
# 5 -1.0959 12.6666 -7.8109 0.4950 30.5189 0.1948
# 6 2.8615 3.1930 -6.9664 -0.0933 0.1948 16.7189
#
#
#
# Elastic Compliance Matrix: (Units=1/GPa)
#
#
# Indices 1 2 3 4 5 6 
#
# 1 0.020760 0.005809 -0.012868 -0.009844 -0.004735 -0.010024
# 2 0.005809 0.058506 -0.054726 -0.094898 -0.036317 -0.035077
# 3 -0.012868 -0.054726 0.094983 0.118028 0.044312 0.052374
# 4 -0.009844 -0.094898 0.118028 0.261873 0.064548 0.069697
# 5 -0.004735 -0.036317 0.044312 0.064548 0.057799 0.025897
# 6 -0.010024 -0.035077 0.052374 0.069697 0.025897 0.090137
#
#
# Mechanical properties :
#
#
# Convention : Reuss Voigt Hill
#
# Bulk Modulus (GPa) = 19.73306 20.33629 20.03467
# Shear Modulus (GPa) = 6.90111 19.95715 13.42913
#
# Velocity S-wave (km/s) = 1.98308 3.37232 2.76633
# Velocity P-wave (km/s) = 4.06058 5.17224 4.64975
#
# Compressibility (1/GPa) = 0.05067638
#
# Stress axis : x y z
#
# Youngs Moduli (GPa) = 48.17043 17.09231 10.52821
#
# Poissons Ratio (x) = -0.09928 0.13548
# Poissons Ratio (y) = -0.27980 0.57617
# Poissons Ratio (z) = 0.61987 0.93540
#
# Static dielectric constant tensor:
#      x y z
#    x 1.597630 0.012790 -0.016500 
#    y 0.012790 1.616460 -0.001630 
#    z -0.016500 -0.001630 1.615040 
# 
# From -- ./inp_files/55191.got.cif
#   From: 2010.05.17/outbox.cif.g08.bks.cpg/sg2_28_cif.got.tgz:55191.got - 2010.06.03 11:33:40.
