data_PCOD9072785
_publ_section_title
;
Structure prediction by ZEFSAII (Michael W. Deem and Ramdas Pophale) SiO2 
 PCOD9072785
Probable space group: P -1
;
_chemical_formula_sum "Si O2"
_cell_formula_units_Z 16
_cell_length_a 15.209955
_cell_length_b 11.463633
_cell_length_c 8.379326
_cell_angle_alpha 111.498643
_cell_angle_beta 99.045675
_cell_angle_gamma 27.744975
_cell_volume 583.840243
_symmetry_space_group_name_H-M "P -1"
_symmetry_group_IT_number 2
_symmetry_cell_setting 'triclinic'
loop_
_space_group_symop_operation_xyz
x,y,z
-x,-y,-z
loop_
_atom_site_type_symbol
_atom_site_label
_atom_site_fract_x
_atom_site_fract_y
_atom_site_fract_z
Si Si1 0.004611 0.092948 0.263166
Si Si2 0.218312 0.460516 0.782829
Si Si3 0.285679 0.265009 0.167693
Si Si4 0.841215 0.748213 0.264376
Si Si5 0.351626 0.783388 0.689155
Si Si6 0.356345 0.978803 0.329994
Si Si7 0.651550 0.384528 0.136739
Si Si8 0.108298 0.723077 0.230153
O O1 0.934710 0.319289 0.298498
O O2 0.795290 0.282720 0.250254
O O3 0.098546 0.886230 0.325295
O O4 0.188502 0.840360 0.066825
O O5 0.199193 0.346608 0.784743
O O6 0.439923 0.206637 0.647017
O O7 0.180871 0.591815 0.001476
O O8 0.302302 0.139145 0.248595
O O9 0.229799 0.485594 0.275536
O O10 0.070982 0.487706 0.142667
O O11 0.500000 0.000000 0.000000
O O12 0.809342 0.826237 0.480994
O O13 0.665261 0.049183 0.272123
O O14 0.500000 0.500000 0.500000
O O15 0.393769 0.692030 0.836301
O O16 0.121913 0.034882 0.705212
O O17 0.454832 0.715678 0.202480
#
# Coordination Sequence:
#
# PCOD9072785 Si02
#       8
#     2   2   2   2   2   2   2   2
#     4   9  14  30  55  81 104 141 184 233 269 332
#     4  11  19  35  59  88 118 140 183 244 296 326
#     4  11  22  39  58  79 112 158 198 228 268 347
#     4  11  25  34  57  90 118 147 182 245 291 327
#     4  10  18  31  50  81 115 138 186 236 283 324
#     4  11  20  38  57  82 117 152 188 227 282 352
#     4   9  14  28  53  76 101 140 189 224 264 320
#     4  10  18  34  58  87 105 150 195 231 273 341
#
# _framework density 27.404758999999999
#
# number of rings (size 3 to 8) (size 9 to 14) (size 15 to 20)
#    0.000    1.750    7.500    0.750    0.000    2.000 
#    0.000    0.000    0.000    5.250    0.000    0.000 
#    0.000    0.000    0.000    0.000    0.000    0.000 
#
# Total GULP energy -89208.368415 kJ/mol
# GULP energy per Si atom -5575.523026 kJ/mol
# Density = 2.734238 g / cm^3
# Si number density = 27.404759 Si / 1000 Ang^3
#
#
#
# Elastic Constant Matrix: (Units=GPa)
#
#
# Indices 1 2 3 4 5 6 
#
# 1 110.7224 76.4112 15.0349 4.4527 -2.0278 39.1059
# 2 76.4112 196.4316 51.4944 20.6523 11.7349 78.9901
# 3 15.0349 51.4944 74.0381 2.9606 -19.8896 -1.0551
# 4 4.4527 20.6523 2.9606 45.3199 4.8381 -6.3572
# 5 -2.0278 11.7349 -19.8896 4.8381 32.8089 2.0055
# 6 39.1059 78.9901 -1.0551 -6.3572 2.0055 79.8820
#
#
#
# Elastic Compliance Matrix: (Units=1/GPa)
#
#
# Indices 1 2 3 4 5 6 
#
# 1 0.012948 -0.005720 0.002468 0.000615 0.004295 -0.000709
# 2 -0.005720 0.022054 -0.018655 -0.009198 -0.016999 -0.019559
# 3 0.002468 -0.018655 0.032613 0.005955 0.024646 0.017524
# 4 0.000615 -0.009198 0.005955 0.027105 0.002271 0.010973
# 5 0.004295 -0.016999 0.024646 0.002271 0.050579 0.013943
# 6 -0.000709 -0.019559 0.017524 0.010973 0.013943 0.032961
#
#
# Mechanical properties :
#
#
# Convention : Reuss Voigt Hill
#
# Bulk Modulus (GPa) = 42.01448 74.11924 58.06686
# Shear Modulus (GPa) = 21.73845 47.48561 34.61203
#
# Velocity S-wave (km/s) = 2.81950 4.16715 3.55772
# Velocity P-wave (km/s) = 5.09547 7.08931 6.17342
#
# Compressibility (1/GPa) = 0.02380132
#
# Stress axis : x y z
#
# Youngs Moduli (GPa) = 77.23067 45.34275 30.66302
#
# Poissons Ratio (x) = 0.25936 -0.07568
# Poissons Ratio (y) = 0.44177 0.57202
# Poissons Ratio (z) = -0.19061 0.84586
#
# Static dielectric constant tensor:
#      x y z
#    x 2.283010 0.038540 0.101220 
#    y 0.038540 2.282400 -0.095710 
#    z 0.101220 -0.095710 2.255180 
# 
# From -- ./inp_files/464631.got.cif
#   From: 2010.05.17/outbox.cif.g08.bks.cpg/sg2_233_cif.got.tgz:464631.got - 2010.06.03 11:33:40.
