data_PCOD9072544
_publ_section_title
;
Structure prediction by ZEFSAII (Michael W. Deem and Ramdas Pophale) SiO2 
 PCOD9072544
Probable space group: P -1
;
_chemical_formula_sum "Si O2"
_cell_formula_units_Z 16
_cell_length_a 6.090793
_cell_length_b 18.515307
_cell_length_c 30.764790
_cell_angle_alpha 19.392970
_cell_angle_beta 50.502063
_cell_angle_gamma 48.878456
_cell_volume 866.115349
_symmetry_space_group_name_H-M "P -1"
_symmetry_group_IT_number 2
_symmetry_cell_setting 'triclinic'
loop_
_space_group_symop_operation_xyz
x,y,z
-x,-y,-z
loop_
_atom_site_type_symbol
_atom_site_label
_atom_site_fract_x
_atom_site_fract_y
_atom_site_fract_z
Si Si1 0.794286 0.184245 0.391232
Si Si2 0.203467 0.702612 0.458122
Si Si3 0.703954 0.638183 0.795526
Si Si4 0.389908 0.274174 0.145534
Si Si5 0.581983 0.785252 0.919357
Si Si6 0.800077 0.743403 0.325388
Si Si7 0.272801 0.027556 0.574329
Si Si8 0.012938 0.956790 0.247965
O O1 0.772289 0.082113 0.403949
O O2 0.976607 0.377246 0.256903
O O3 0.472242 0.207901 0.438211
O O4 0.000000 0.000000 0.500000
O O5 0.550670 0.682391 0.423239
O O6 0.136270 0.458212 0.601954
O O7 0.096831 0.825522 0.356324
O O8 0.029056 0.852495 0.433020
O O9 0.753365 0.706323 0.800540
O O10 0.464433 0.835011 0.690558
O O11 0.568974 0.418820 0.936523
O O12 0.255119 0.253204 0.126808
O O13 0.500000 0.500000 0.000000
O O14 0.674052 0.074847 0.224911
O O15 0.340669 0.017305 0.814096
O O16 0.814863 0.844523 0.889635
O O17 0.057785 0.786917 0.298604
#
# Coordination Sequence:
#
# PCOD9072544 Si02
#       8
#     2   2   2   2   2   2   2   2
#     4   9  21  36  51  77 103 124 171 215 262 306
#     4  10  19  33  53  72 101 136 176 209 254 294
#     4  10  19  32  51  73 102 137 166 209 256 298
#     4   9  18  28  43  71 104 138 165 195 241 302
#     4   9  20  32  46  73 108 140 168 200 247 310
#     4   9  20  33  47  76 105 137 171 210 242 304
#     4  10  20  34  55  77  96 133 172 214 257 305
#     4  10  18  31  45  72 105 136 175 200 242 304
#
# _framework density 18.473291
#
# number of rings (size 3 to 8) (size 9 to 14) (size 15 to 20)
#    0.000    2.500    1.250    0.375    5.250    5.000 
#    0.000    0.000    0.000    0.750    0.000    8.750 
#    0.000    0.000    0.000    0.000    0.000    0.000 
#
# Total GULP energy -89074.049552 kJ/mol
# GULP energy per Si atom -5567.128097 kJ/mol
# Density = 1.843124 g / cm^3
# Si number density = 18.473291 Si / 1000 Ang^3
#
#
#
# Elastic Constant Matrix: (Units=GPa)
#
#
# Indices 1 2 3 4 5 6 
#
# 1 54.3103 7.4001 20.6909 5.5685 -17.5966 11.3762
# 2 7.4001 39.8890 29.2691 -0.7319 -3.4020 0.2834
# 3 20.6909 29.2691 100.2590 0.4019 -22.8265 5.5859
# 4 5.5685 -0.7319 0.4019 27.1046 0.5282 -8.0709
# 5 -17.5966 -3.4020 -22.8265 0.5282 33.1099 1.0876
# 6 11.3762 0.2834 5.5859 -8.0709 1.0876 21.4974
#
#
#
# Elastic Compliance Matrix: (Units=1/GPa)
#
#
# Indices 1 2 3 4 5 6 
#
# 1 0.030259 -0.004331 0.000064 -0.013132 0.016604 -0.021743
# 2 -0.004331 0.033154 -0.010642 0.003989 -0.006507 0.006447
# 3 0.000064 -0.010642 0.015635 -0.002312 0.009931 -0.005327
# 4 -0.013132 0.003989 -0.002312 0.047629 -0.009773 0.025874
# 5 0.016604 -0.006507 0.009931 -0.009773 0.045929 -0.017275
# 6 -0.021743 0.006447 -0.005327 0.025874 -0.017275 0.069910
#
#
# Mechanical properties :
#
#
# Convention : Reuss Voigt Hill
#
# Bulk Modulus (GPa) = 20.31247 34.35315 27.33281
# Shear Modulus (GPa) = 17.31641 25.48225 21.39933
#
# Velocity S-wave (km/s) = 3.06498 3.71807 3.40721
# Velocity P-wave (km/s) = 4.85231 6.08840 5.50516
#
# Compressibility (1/GPa) = 0.04923083
#
# Stress axis : x y z
#
# Youngs Moduli (GPa) = 33.04781 30.16237 63.95993
#
# Poissons Ratio (x) = 0.13063 -0.00410
# Poissons Ratio (y) = 0.14313 0.68064
# Poissons Ratio (z) = -0.00212 0.32098
#
# Static dielectric constant tensor:
#      x y z
#    x 1.719630 0.007110 -0.027340 
#    y 0.007110 1.652030 0.003840 
#    z -0.027340 0.003840 1.689590 
# 
# From -- ./inp_files/77380.got.cif
#   From: 2010.05.17/outbox.cif.g08.bks.cpg/sg2_39_cif.got.tgz:77380.got - 2010.06.03 11:33:40.
