data_PCOD9072305
_publ_section_title
;
Structure prediction by ZEFSAII (Michael W. Deem and Ramdas Pophale) SiO2 
 PCOD9072305
Probable space group: P -1
;
_chemical_formula_sum "Si O2"
_cell_formula_units_Z 14
_cell_length_a 9.000000
_cell_length_b 15.000000
_cell_length_c 18.000000
_cell_angle_alpha 160.000000
_cell_angle_beta 50.000000
_cell_angle_gamma 130.000000
_cell_volume 629.659215
_symmetry_space_group_name_H-M "P -1"
_symmetry_group_IT_number 2
_symmetry_cell_setting 'triclinic'
loop_
_space_group_symop_operation_xyz
x,y,z
-x,-y,-z
loop_
_atom_site_type_symbol
_atom_site_label
_atom_site_fract_x
_atom_site_fract_y
_atom_site_fract_z
Si Si1 0.210745 0.912482 0.349937
Si Si2 0.721602 0.797075 0.837201
Si Si3 0.492536 0.207873 0.247496
Si Si4 0.890935 0.070514 0.765651
Si Si5 0.598027 0.253816 0.534464
Si Si6 0.206768 0.677563 0.323493
Si Si7 0.082458 0.108680 0.883533
O O1 0.178232 0.805055 0.191420
O O2 0.262662 0.735182 0.264185
O O3 0.381931 0.164299 0.500109
O O4 0.000000 0.000000 0.500000
O O5 0.548161 0.765035 0.806176
O O6 0.694204 0.536529 0.691328
O O7 0.921191 0.884389 0.796199
O O8 0.676851 0.066954 0.100871
O O9 0.500000 0.500000 0.500000
O O10 0.308519 0.048797 0.223795
O O11 0.010217 0.210965 0.907051
O O12 0.032183 0.851490 0.530390
O O13 0.620531 0.260562 0.622391
O O14 0.725824 0.028445 0.293915
O O15 0.123232 0.372891 0.124315
#
# Coordination Sequence:
#
# PCOD9072305 Si02
#       7
#     2   2   2   2   2   2   2
#     4  10  22  41  64  87 118 161 206 256 302 349
#     4  10  22  37  60  91 124 159 196 245 300 362
#     4  10  19  34  58  89 122 154 197 247 298 353
#     4   9  20  38  60  88 118 156 202 250 298 353
#     4  11  23  40  61  90 125 161 202 245 301 365
#     4  10  22  40  62  87 124 162 201 251 300 354
#     4  10  22  40  61  91 125 160 201 245 302 364
#
# _framework density 22.234248999999998
#
# number of rings (size 3 to 8) (size 9 to 14) (size 15 to 20)
#    0.000    2.000    0.000    2.571    0.000    9.714 
#    0.000    2.857    0.000    0.000    0.000    0.000 
#    0.000    0.000    0.000    0.000    0.000    0.000 
#
# Total GULP energy -78016.103615 kJ/mol
# GULP energy per Si atom -5572.578830 kJ/mol
# Density = 2.218364 g / cm^3
# Si number density = 22.234249 Si / 1000 Ang^3
#
#
#
# Elastic Constant Matrix: (Units=GPa)
#
#
# Indices 1 2 3 4 5 6 
#
# 1 105.3379 25.6049 5.6720 -0.7778 9.6057 -0.5024
# 2 25.6049 80.5120 -4.8564 7.8153 10.2522 -7.5117
# 3 5.6720 -4.8564 37.6159 9.0498 13.3788 12.9620
# 4 -0.7778 7.8153 9.0498 21.4442 0.1182 -6.1757
# 5 9.6057 10.2522 13.3788 0.1182 15.5943 -0.1815
# 6 -0.5024 -7.5117 12.9620 -6.1757 -0.1815 35.0638
#
#
#
# Elastic Compliance Matrix: (Units=1/GPa)
#
#
# Indices 1 2 3 4 5 6 
#
# 1 0.010685 -0.003352 -0.001864 0.002574 -0.002791 0.000563
# 2 -0.003352 0.018823 0.017696 -0.015890 -0.025435 -0.005487
# 3 -0.001864 0.017696 0.083451 -0.051833 -0.082113 -0.036639
# 4 0.002574 -0.015890 -0.051833 0.082933 0.053058 0.030676
# 5 -0.002791 -0.025435 -0.082113 0.053058 0.153019 0.035003
# 6 0.000563 -0.005487 -0.036639 0.030676 0.035003 0.046480
#
#
# Mechanical properties :
#
#
# Convention : Reuss Voigt Hill
#
# Bulk Modulus (GPa) = 7.25073 30.70074 18.97574
# Shear Modulus (GPa) = 12.00751 27.55683 19.78217
#
# Velocity S-wave (km/s) = 2.32641 3.52431 2.98605
# Velocity P-wave (km/s) = 3.23796 5.51352 4.52124
#
# Compressibility (1/GPa) = 0.13791711
#
# Stress axis : x y z
#
# Youngs Moduli (GPa) = 93.59162 53.12561 11.98304
#
# Poissons Ratio (x) = 0.17810 0.02234
# Poissons Ratio (y) = 0.31376 -0.21205
# Poissons Ratio (z) = 0.17450 -0.94010
#
# Static dielectric constant tensor:
#      x y z
#    x 1.829180 -0.021980 0.066510 
#    y -0.021980 1.854910 -0.089220 
#    z 0.066510 -0.089220 2.012090 
# 
# From -- ./inp_files/47133.got.cif
#   From: 2010.05.17/outbox.ucp.g08.bks.cvg/sg2_24_cif.got.tgz:47133.got - 2010.06.11 11:32:03.
