data_PCOD9072829
_publ_section_title
;
Structure prediction by ZEFSAII (Michael W. Deem and Ramdas Pophale) SiO2 
 PCOD9072829
Probable space group: P -1
;
_chemical_formula_sum "Si O2"
_cell_formula_units_Z 16
_cell_length_a 9.000000
_cell_length_b 12.000000
_cell_length_c 12.000000
_cell_angle_alpha 120.000000
_cell_angle_beta 50.000000
_cell_angle_gamma 130.000000
_cell_volume 752.153660
_symmetry_space_group_name_H-M "P -1"
_symmetry_group_IT_number 2
_symmetry_cell_setting 'triclinic'
loop_
_space_group_symop_operation_xyz
x,y,z
-x,-y,-z
loop_
_atom_site_type_symbol
_atom_site_label
_atom_site_fract_x
_atom_site_fract_y
_atom_site_fract_z
Si Si1 0.696439 0.073528 0.850885
Si Si2 0.400516 0.379271 0.851131
Si Si3 0.393620 0.135590 0.886001
Si Si4 0.712749 0.701893 0.797435
Si Si5 0.940847 0.347845 0.017557
Si Si6 0.543852 0.765780 0.698731
Si Si7 0.591050 0.820655 0.444651
Si Si8 0.203726 0.907036 0.667150
O O1 0.603995 0.119957 0.812022
O O2 0.715832 0.934603 0.734016
O O3 0.883092 0.218158 0.890501
O O4 0.500000 0.000000 0.000000
O O5 0.449585 0.278514 0.859639
O O6 0.579594 0.548923 0.848460
O O7 0.405189 0.305953 0.694623
O O8 0.160081 0.366256 0.981913
O O9 0.242058 0.995785 0.810914
O O10 0.307565 0.169269 0.060144
O O11 0.608332 0.677742 0.712482
O O12 0.970913 0.762751 0.700194
O O13 0.716803 0.288592 0.171354
O O14 0.000000 0.500000 0.000000
O O15 0.580846 0.770527 0.551907
O O16 0.383648 0.851492 0.543038
O O17 0.776691 0.976935 0.380491
#
# Coordination Sequence:
#
# PCOD9072829 Si02
#       8
#     2   2   2   2   2   2   2   2
#     4  10  20  37  64  94 127 165 218 268 323 375
#     4  11  26  43  66  98 141 172 220 262 335 402
#     4  11  21  41  67 100 131 167 219 281 321 383
#     4  12  24  41  65 103 129 174 221 276 324 392
#     4  11  22  44  65 100 135 173 213 277 329 390
#     4  11  23  41  70  95 133 167 227 269 327 390
#     4  10  24  47  62  95 132 181 215 271 327 398
#     4  10  24  42  68  92 134 172 225 269 330 383
#
# _framework density 21.272248999999999
#
# number of rings (size 3 to 8) (size 9 to 14) (size 15 to 20)
#    0.000    1.250    5.000    0.750    5.250    1.500 
#    0.000    0.000    0.000    0.000    0.000    0.000 
#    0.000    0.000    0.000    0.000    0.000    0.000 
#
# Total GULP energy -89252.232293 kJ/mol
# GULP energy per Si atom -5578.264518 kJ/mol
# Density = 2.122383 g / cm^3
# Si number density = 21.272249 Si / 1000 Ang^3
#
#
#
# Elastic Constant Matrix: (Units=GPa)
#
#
# Indices 1 2 3 4 5 6 
#
# 1 91.7840 52.4142 29.7664 -26.8903 3.8113 -4.8683
# 2 52.4142 97.6182 -2.8917 0.6034 -7.4229 17.9228
# 3 29.7664 -2.8917 46.1935 14.1295 30.0101 16.5470
# 4 -26.8903 0.6034 14.1295 15.3337 -13.3738 -6.6832
# 5 3.8113 -7.4229 30.0101 -13.3738 26.6588 -7.2184
# 6 -4.8683 17.9228 16.5470 -6.6832 -7.2184 32.7842
#
#
#
# Elastic Compliance Matrix: (Units=1/GPa)
#
#
# Indices 1 2 3 4 5 6 
#
# 1 0.009742 -0.005338 0.008100 -0.006879 -0.016751 -0.004814
# 2 -0.005338 0.014246 -0.005382 0.005783 0.013208 -0.001777
# 3 0.008100 -0.005382 0.003214 0.020123 0.005970 0.007940
# 4 -0.006879 0.005783 0.020123 0.010313 -0.019353 -0.016498
# 5 -0.016751 0.013208 0.005970 -0.019353 0.024077 -0.011366
# 6 -0.004814 -0.001777 0.007940 -0.016498 -0.011366 0.020886
#
#
# Mechanical properties :
#
#
# Convention : Reuss Voigt Hill
#
# Bulk Modulus (GPa) = 45.53607 43.79707 44.66657
# Shear Modulus (GPa) = 52.61146 25.37580 38.99363
#
# Velocity S-wave (km/s) = 4.97857 3.45759 4.28609
# Velocity P-wave (km/s) = 7.38248 6.04760 6.74813
#
# Compressibility (1/GPa) = 0.02196061
#
# Stress axis : x y z
#
# Youngs Moduli (GPa) = 102.65349 70.19740 311.15970
#
# Poissons Ratio (x) = 0.37471 -2.52035
# Poissons Ratio (y) = 0.54796 1.67466
# Poissons Ratio (z) = -0.83148 0.37780
#
# Static dielectric constant tensor:
#      x y z
#    x 1.805640 0.009400 0.020690 
#    y 0.009400 1.745320 0.005000 
#    z 0.020690 0.005000 1.833580 
# 
# From -- ./inp_files/260384.got.cif
#   From: 2010.05.17/outbox.ucp.g08.bks.cvg/sg2_131_cif.got.tgz:260384.got - 2010.06.11 11:32:03.
