data_PCOD9072906
_publ_section_title
;
Structure prediction by ZEFSAII (Michael W. Deem and Ramdas Pophale) SiO2 
 PCOD9072906
Probable space group: P -1
;
_chemical_formula_sum "Si O2"
_cell_formula_units_Z 10
_cell_length_a 13.166563
_cell_length_b 10.480516
_cell_length_c 13.243575
_cell_angle_alpha 151.260990
_cell_angle_beta 136.624855
_cell_angle_gamma 51.759929
_cell_volume 602.535285
_symmetry_space_group_name_H-M "P -1"
_symmetry_group_IT_number 2
_symmetry_cell_setting 'triclinic'
loop_
_space_group_symop_operation_xyz
x,y,z
-x,-y,-z
loop_
_atom_site_type_symbol
_atom_site_label
_atom_site_fract_x
_atom_site_fract_y
_atom_site_fract_z
Si Si1 0.146930 0.374238 0.367123
Si Si2 0.573364 0.707903 0.619736
Si Si3 0.822450 0.235318 0.976893
Si Si4 0.333879 0.702211 0.880738
Si Si5 0.561195 0.274418 0.683106
O O1 0.271610 0.384788 0.377772
O O2 0.196526 0.596964 0.638805
O O3 0.982775 0.379709 0.208557
O O4 0.157687 0.082812 0.224685
O O5 0.500000 0.500000 0.500000
O O6 0.470169 0.737588 0.466954
O O7 0.608731 0.998001 0.893692
O O8 0.721306 0.298343 0.044249
O O9 0.731112 0.309786 0.864355
O O10 0.463419 0.504882 0.816654
O O11 0.500000 0.000000 0.500000
#
# Coordination Sequence:
#
# PCOD9072906 Si02
#       5
#     2   2   2   2   2
#     4   9  19  32  51  78 109 134 168 209 259 309
#     4  10  22  37  53  74 105 142 176 210 252 308
#     4  10  18  31  51  82 109 129 165 219 258 303
#     4  10  18  32  56  76 104 138 171 208 264 302
#     4  11  19  33  53  83 105 130 175 216 253 304
#
# _framework density 16.596537999999999
#
# number of rings (size 3 to 8) (size 9 to 14) (size 15 to 20)
#    0.000    2.000    6.000    1.200    0.000    3.200 
#    0.000    1.000    0.000    2.400    0.000    0.000 
#    0.000    0.000    0.000    0.000    0.000    0.000 
#
# Total GULP energy -55768.489635 kJ/mol
# GULP energy per Si atom -5576.848964 kJ/mol
# Density = 1.655876 g / cm^3
# Si number density = 16.596538 Si / 1000 Ang^3
#
#
#
# Elastic Constant Matrix: (Units=GPa)
#
#
# Indices 1 2 3 4 5 6 
#
# 1 37.2730 37.5035 38.3498 -4.3534 16.4428 9.4501
# 2 37.5035 85.1827 63.7384 -23.0541 16.6861 6.9514
# 3 38.3498 63.7384 142.9770 -14.4900 5.4012 2.1657
# 4 -4.3534 -23.0541 -14.4900 32.7415 -12.1310 11.2395
# 5 16.4428 16.6861 5.4012 -12.1310 27.0213 -1.6168
# 6 9.4501 6.9514 2.1657 11.2395 -1.6168 26.4048
#
#
#
# Elastic Compliance Matrix: (Units=1/GPa)
#
#
# Indices 1 2 3 4 5 6 
#
# 1 0.085895 -0.024138 -0.012567 -0.022449 -0.045923 -0.016612
# 2 -0.024138 0.032196 -0.005752 0.021681 0.005194 -0.008276
# 3 -0.012567 -0.005752 0.012678 0.001880 0.009795 0.004772
# 4 -0.022449 0.021681 0.001880 0.060849 0.025889 -0.022143
# 5 -0.045923 0.005194 0.009795 0.025889 0.071867 0.007645
# 6 -0.016612 -0.008276 0.004772 -0.022143 0.007645 0.055498
#
#
# Mechanical properties :
#
#
# Convention : Reuss Voigt Hill
#
# Bulk Modulus (GPa) = 21.80826 60.51288 41.16057
# Shear Modulus (GPa) = 11.92798 25.62293 18.77545
#
# Velocity S-wave (km/s) = 2.68377 3.93348 3.36711
# Velocity P-wave (km/s) = 4.77203 7.56108 6.32227
#
# Compressibility (1/GPa) = 0.04585418
#
# Stress axis : x y z
#
# Youngs Moduli (GPa) = 11.64212 31.05933 78.87972
#
# Poissons Ratio (x) = 0.74971 0.99129
# Poissons Ratio (y) = 0.28102 0.45374
# Poissons Ratio (z) = 0.14631 0.17866
#
# Static dielectric constant tensor:
#      x y z
#    x 1.551210 -0.020770 -0.002920 
#    y -0.020770 1.551260 -0.020400 
#    z -0.002920 -0.020400 1.590740 
# 
# From -- ./inp_files/15460.got.cif
#   From: 2010.05.17/outbox.cif.g08.bks.cpg/sg2_8_cif.got.tgz:15460.got - 2010.06.03 11:33:40.
