data_PCOD9072388
_publ_section_title
;
Structure prediction by ZEFSAII (Michael W. Deem and Ramdas Pophale) SiO2 
 PCOD9072388
Probable space group: P -1
;
_chemical_formula_sum "Si O2"
_cell_formula_units_Z 14
_cell_length_a 12.000000
_cell_length_b 9.000000
_cell_length_c 21.000000
_cell_angle_alpha 40.000000
_cell_angle_beta 150.000000
_cell_angle_gamma 120.000000
_cell_volume 627.666119
_symmetry_space_group_name_H-M "P -1"
_symmetry_group_IT_number 2
_symmetry_cell_setting 'triclinic'
loop_
_space_group_symop_operation_xyz
x,y,z
-x,-y,-z
loop_
_atom_site_type_symbol
_atom_site_label
_atom_site_fract_x
_atom_site_fract_y
_atom_site_fract_z
Si Si1 0.918587 0.661591 0.300171
Si Si2 0.363260 0.798850 0.453126
Si Si3 0.893651 0.325000 0.074443
Si Si4 0.687447 0.940382 0.785307
Si Si5 0.756801 0.248106 0.891194
Si Si6 0.641653 0.921668 0.298315
Si Si7 0.365412 0.874084 0.895000
O O1 0.138548 0.720145 0.363188
O O2 0.075705 0.340737 0.481430
O O3 0.817610 0.824641 0.263752
O O4 0.657245 0.771630 0.094955
O O5 0.601093 0.548807 0.686804
O O6 0.437081 0.858644 0.401236
O O7 0.195029 0.091730 0.306875
O O8 0.818130 0.630193 0.931271
O O9 0.792211 0.265014 0.978453
O O10 0.739731 0.296040 0.066068
O O11 0.478507 0.002120 0.716066
O O12 0.954676 0.936466 0.933867
O O13 0.565726 0.138898 0.818463
O O14 0.650369 0.133753 0.186051
#
# Coordination Sequence:
#
# PCOD9072388 Si02
#       7
#     2   2   2   2   2   2   2
#     4   9  19  35  58  83 103 136 186 232 265 308
#     4   9  19  36  59  81 106 140 183 227 265 313
#     4  10  22  37  55  81 110 145 184 218 260 323
#     4  11  23  36  52  83 119 141 172 221 273 327
#     4  10  20  37  61  81 103 143 186 222 268 317
#     4  11  22  35  57  85 109 140 179 224 274 318
#     4  10  19  36  57  77 109 144 181 224 263 312
#
# _framework density 22.304852
#
# number of rings (size 3 to 8) (size 9 to 14) (size 15 to 20)
#    0.000    2.000    0.000    6.000    0.000    8.571 
#    0.000    0.714    0.000    0.000    0.000    0.000 
#    0.000    0.000    0.000    0.000    0.000    0.000 
#
# Total GULP energy -78119.495692 kJ/mol
# GULP energy per Si atom -5579.963978 kJ/mol
# Density = 2.225409 g / cm^3
# Si number density = 22.304852 Si / 1000 Ang^3
#
#
#
# Elastic Constant Matrix: (Units=GPa)
#
#
# Indices 1 2 3 4 5 6 
#
# 1 138.5307 -17.5856 21.7299 1.0777 -25.3102 9.3451
# 2 -17.5856 6.2079 -26.4279 -2.2879 -12.8068 5.1296
# 3 21.7299 -26.4279 96.6831 -11.0662 -15.9336 3.5634
# 4 1.0777 -2.2879 -11.0662 11.4865 7.6448 -2.4928
# 5 -25.3102 -12.8068 -15.9336 7.6448 32.5494 -7.0964
# 6 9.3451 5.1296 3.5634 -2.4928 -7.0964 15.2266
#
#
#
# Elastic Compliance Matrix: (Units=1/GPa)
#
#
# Indices 1 2 3 4 5 6 
#
# 1 0.006423 -0.012769 -0.006055 -0.008288 -0.001064 -0.000076
# 2 -0.012769 -0.060515 -0.021011 -0.000937 -0.040753 0.013993
# 3 -0.006055 -0.021011 0.004994 0.010223 -0.011652 0.005869
# 4 -0.008288 -0.000937 0.010223 0.117803 -0.027400 0.009526
# 5 -0.001064 -0.040753 -0.011652 -0.027400 0.019306 0.021620
# 6 -0.000076 0.013993 0.005869 0.009526 0.021620 0.071269
#
#
# Mechanical properties :
#
#
# Convention : Reuss Voigt Hill
#
# Bulk Modulus (GPa) = -7.76593 21.87272 7.05340
# Shear Modulus (GPa) = 25.50675 29.43285 27.46980
#
# Velocity S-wave (km/s) = 3.38531 3.63653 3.51317
# Velocity P-wave (km/s) = 3.43383 5.24023 4.43008
#
# Compressibility (1/GPa) = -0.12876763
#
# Stress axis : x y z
#
# Youngs Moduli (GPa) = 155.69731 -16.52478 200.23095
#
# Poissons Ratio (x) = -0.21100 1.21238
# Poissons Ratio (y) = 1.98807 4.20705
# Poissons Ratio (z) = 0.94274 -0.34720
#
# Static dielectric constant tensor:
#      x y z
#    x 1.842850 0.025780 -0.035990 
#    y 0.025780 1.897520 -0.030620 
#    z -0.035990 -0.030620 1.802750 
# 
# From -- ./inp_files/270728.got.cif
#   From: 2010.05.17/outbox.ucp.g08.bks.cvg/sg2_136_cif.got.tgz:270728.got - 2010.06.11 11:32:03.
