data_PCOD9072960
_publ_section_title
;
Structure prediction by ZEFSAII (Michael W. Deem and Ramdas Pophale) SiO2 
 PCOD9072960
Probable space group: P -1
;
_chemical_formula_sum "Si O2"
_cell_formula_units_Z 16
_cell_length_a 9.000000
_cell_length_b 15.000000
_cell_length_c 12.000000
_cell_angle_alpha 140.000000
_cell_angle_beta 130.000000
_cell_angle_gamma 70.000000
_cell_volume 759.581896
_symmetry_space_group_name_H-M "P -1"
_symmetry_group_IT_number 2
_symmetry_cell_setting 'triclinic'
loop_
_space_group_symop_operation_xyz
x,y,z
-x,-y,-z
loop_
_atom_site_type_symbol
_atom_site_label
_atom_site_fract_x
_atom_site_fract_y
_atom_site_fract_z
Si Si1 0.591484 0.197883 0.553450
Si Si2 0.182701 0.702431 0.819025
Si Si3 0.502076 0.331783 0.874489
Si Si4 0.628548 0.390673 0.558977
Si Si5 0.759636 0.924910 0.337632
Si Si6 0.208489 0.016148 0.058300
Si Si7 0.389871 0.120671 0.032364
Si Si8 0.220215 0.463369 0.437421
O O1 0.549073 0.259790 0.711961
O O2 0.708825 0.323835 0.641019
O O3 0.680878 0.060540 0.470828
O O4 0.382329 0.135006 0.323180
O O5 0.180100 0.594464 0.612526
O O6 0.959404 0.673427 0.736516
O O7 0.319498 0.664378 0.946405
O O8 0.253268 0.863518 0.956193
O O9 0.312830 0.211087 0.737050
O O10 0.500000 0.500000 0.000000
O O11 0.442227 0.450381 0.560655
O O12 0.786012 0.511685 0.674817
O O13 0.528555 0.268395 0.298760
O O14 0.667123 0.873284 0.118624
O O15 0.000000 0.000000 0.500000
O O16 0.199939 0.062557 0.970114
O O17 0.000000 0.000000 0.000000
O O18 0.500000 0.000000 0.000000
#
# Coordination Sequence:
#
# PCOD9072960 Si02
#       8
#     2   2   2   2   2   2   2   2
#     4  11  24  44  68  95 137 180 233 286 342 412
#     4  11  22  41  64  95 136 175 225 277 343 404
#     4  12  27  48  69  94 143 192 226 280 356 425
#     4  10  20  39  64  96 130 171 225 279 340 398
#     4  12  27  45  70 103 138 186 235 291 346 413
#     4  11  23  38  71 102 127 170 229 285 342 401
#     4  11  20  41  67  92 130 171 221 288 338 390
#     4  10  22  37  63  98 135 170 217 286 341 411
#
# _framework density 21.064219999999999
#
# number of rings (size 3 to 8) (size 9 to 14) (size 15 to 20)
#    0.000    1.000    3.750    4.125    1.750    4.000 
#    0.000    1.250    0.000    0.000    0.000    0.000 
#    0.000    0.000    0.000    0.000    0.000    0.000 
#
# Total GULP energy -89243.147913 kJ/mol
# GULP energy per Si atom -5577.696745 kJ/mol
# Density = 2.101628 g / cm^3
# Si number density = 21.064220 Si / 1000 Ang^3
#
#
#
# Elastic Constant Matrix: (Units=GPa)
#
#
# Indices 1 2 3 4 5 6 
#
# 1 142.5098 35.3304 31.9849 8.4378 -1.0938 24.5619
# 2 35.3304 119.3660 13.2531 15.6664 -9.6497 29.8215
# 3 31.9849 13.2531 40.8559 2.0985 -10.9403 10.2439
# 4 8.4378 15.6664 2.0985 32.7913 2.7697 -2.3607
# 5 -1.0938 -9.6497 -10.9403 2.7697 37.5218 0.6648
# 6 24.5619 29.8215 10.2439 -2.3607 0.6648 53.6588
#
#
#
# Elastic Compliance Matrix: (Units=1/GPa)
#
#
# Indices 1 2 3 4 5 6 
#
# 1 0.009329 -0.001450 -0.006730 -0.001273 -0.001930 -0.002211
# 2 -0.001450 0.011309 0.000179 -0.005761 0.003449 -0.005951
# 3 -0.006730 0.000179 0.033264 -0.001560 0.009727 -0.003558
# 4 -0.001273 -0.005761 -0.001560 0.034473 -0.004618 0.005656
# 5 -0.001930 0.003449 0.009727 -0.004618 0.030720 -0.003474
# 6 -0.002211 -0.005951 -0.003558 0.005656 -0.003474 0.023927
#
#
# Mechanical properties :
#
#
# Convention : Reuss Voigt Hill
#
# Bulk Modulus (GPa) = 26.38631 51.54095 38.96363
# Shear Modulus (GPa) = 29.12775 39.60525 34.36650
#
# Velocity S-wave (km/s) = 3.72265 4.34085 4.04358
# Velocity P-wave (km/s) = 5.57057 7.04596 6.35125
#
# Compressibility (1/GPa) = 0.03789844
#
# Stress axis : x y z
#
# Youngs Moduli (GPa) = 107.19534 88.42660 30.06279
#
# Poissons Ratio (x) = 0.12826 0.20231
# Poissons Ratio (y) = 0.15548 -0.00537
# Poissons Ratio (z) = 0.72139 -0.01580
#
# Static dielectric constant tensor:
#      x y z
#    x 1.849530 0.000450 0.039110 
#    y 0.000450 1.801700 0.068590 
#    z 0.039110 0.068590 1.795460 
# 
# From -- ./inp_files/399872.got.cif
#   From: 2010.05.17/outbox.ucp.g08.bks.cvg/sg2_200_cif.got.tgz:399872.got - 2010.06.11 11:32:03.
