data_PCOD9072379
_publ_section_title
;
Structure prediction by ZEFSAII (Michael W. Deem and Ramdas Pophale) SiO2 
 PCOD9072379
Probable space group: P -1
;
_chemical_formula_sum "Si O2"
_cell_formula_units_Z 16
_cell_length_a 12.000000
_cell_length_b 9.000000
_cell_length_c 15.000000
_cell_angle_alpha 50.000000
_cell_angle_beta 50.000000
_cell_angle_gamma 40.000000
_cell_volume 759.581896
_symmetry_space_group_name_H-M "P -1"
_symmetry_group_IT_number 2
_symmetry_cell_setting 'triclinic'
loop_
_space_group_symop_operation_xyz
x,y,z
-x,-y,-z
loop_
_atom_site_type_symbol
_atom_site_label
_atom_site_fract_x
_atom_site_fract_y
_atom_site_fract_z
Si Si1 0.386252 0.317697 0.023279
Si Si2 0.610191 0.347669 0.594928
Si Si3 0.761700 0.847727 0.991747
Si Si4 0.076288 0.631301 0.598685
Si Si5 0.680543 0.858416 0.706674
Si Si6 0.615716 0.940087 0.374255
Si Si7 0.635972 0.348816 0.243073
Si Si8 0.915740 0.363454 0.200135
O O1 0.312079 0.224118 0.024364
O O2 0.300664 0.329649 0.157808
O O3 0.365439 0.530684 0.895224
O O4 0.598666 0.104768 0.012052
O O5 0.500000 0.500000 0.500000
O O6 0.816719 0.255230 0.516101
O O7 0.549203 0.490845 0.665654
O O8 0.607586 0.116216 0.691214
O O9 0.920451 0.838765 0.867816
O O10 0.851485 0.629816 0.100173
O O11 0.036464 0.666235 0.711002
O O12 0.881995 0.746173 0.608991
O O13 0.228782 0.344287 0.611950
O O14 0.530674 0.937215 0.678218
O O15 0.698878 0.085271 0.288700
O O16 0.500000 0.000000 0.500000
O O17 0.755646 0.352826 0.256967
#
# Coordination Sequence:
#
# PCOD9072379 Si02
#       8
#     2   2   2   2   2   2   2   2
#     4  10  20  38  63  96 130 163 211 273 325 378
#     4  12  21  42  68  98 131 168 216 277 324 375
#     4   9  17  33  61  96 132 161 201 272 330 372
#     4  12  24  42  69 100 128 169 221 269 325 379
#     4  12  25  44  70  99 129 168 219 274 328 381
#     4  12  26  49  64  88 140 181 213 261 323 396
#     4  11  23  41  66  93 131 178 214 260 328 385
#     4  10  19  35  64  99 126 161 218 268 318 381
#
# _framework density 21.064219999999999
#
# number of rings (size 3 to 8) (size 9 to 14) (size 15 to 20)
#    0.000    1.000    5.000    3.375    0.000    1.000 
#    2.250    0.625    0.000    0.000    0.000    0.000 
#    0.000    0.000    0.000    0.000    0.000    0.000 
#
# Total GULP energy -89246.493997 kJ/mol
# GULP energy per Si atom -5577.905875 kJ/mol
# Density = 2.101628 g / cm^3
# Si number density = 21.064220 Si / 1000 Ang^3
#
#
#
# Elastic Constant Matrix: (Units=GPa)
#
#
# Indices 1 2 3 4 5 6 
#
# 1 -13.2247 26.9920 8.7262 7.0124 9.7370 4.5814
# 2 26.9920 33.1218 -0.2246 -5.8825 -10.7947 -4.2626
# 3 8.7262 -0.2246 60.3237 -9.7250 2.4523 10.5262
# 4 7.0124 -5.8825 -9.7250 22.6704 -6.1497 -9.3730
# 5 9.7370 -10.7947 2.4523 -6.1497 18.5871 3.1737
# 6 4.5814 -4.2626 10.5262 -9.3730 3.1737 30.0661
#
#
#
# Elastic Compliance Matrix: (Units=1/GPa)
#
#
# Indices 1 2 3 4 5 6 
#
# 1 -0.009944 0.018588 0.002298 0.017075 0.020236 0.006533
# 2 0.018588 0.012865 -0.003131 -0.005146 -0.003357 -0.001162
# 3 0.002298 -0.003131 0.017836 0.002790 -0.003462 -0.005804
# 4 0.017075 -0.005146 0.002790 0.042427 0.000217 0.008895
# 5 0.020236 -0.003357 -0.003462 0.000217 0.042942 -0.006813
# 6 0.006533 -0.001162 -0.005804 0.008895 -0.006813 0.037624
#
#
# Mechanical properties :
#
#
# Convention : Reuss Voigt Hill
#
# Bulk Modulus (GPa) = 17.77275 16.80087 17.28681
# Shear Modulus (GPa) = 39.37161 17.24653 28.30907
#
# Velocity S-wave (km/s) = 4.32803 2.86450 3.66996
# Velocity P-wave (km/s) = 5.78199 4.35130 5.11690
#
# Compressibility (1/GPa) = 0.05626591
#
# Stress axis : x y z
#
# Youngs Moduli (GPa) = -100.55877 77.73211 56.06543
#
# Poissons Ratio (x) = -1.44489 -0.12883
# Poissons Ratio (y) = 1.86920 0.17556
# Poissons Ratio (z) = 0.23107 0.24340
#
# Static dielectric constant tensor:
#      x y z
#    x 1.772950 -0.069870 -0.088330 
#    y -0.069870 1.813050 0.067830 
#    z -0.088330 0.067830 1.883960 
# 
# From -- ./inp_files/306353.got.cif
#   From: 2010.05.17/outbox.ucp.g08.bks.cvg/sg2_154_cif.got.tgz:306353.got - 2010.06.11 11:32:03.
