data_PCOD9072019
_publ_section_title
;
Structure prediction by ZEFSAII (Michael W. Deem and Ramdas Pophale) SiO2 
 PCOD9072019
Probable space group: P -1
;
_chemical_formula_sum "Si O2"
_cell_formula_units_Z 16
_cell_length_a 9.000000
_cell_length_b 15.000000
_cell_length_c 12.000000
_cell_angle_alpha 50.000000
_cell_angle_beta 140.000000
_cell_angle_gamma 110.000000
_cell_volume 759.581896
_symmetry_space_group_name_H-M "P -1"
_symmetry_group_IT_number 2
_symmetry_cell_setting 'triclinic'
loop_
_space_group_symop_operation_xyz
x,y,z
-x,-y,-z
loop_
_atom_site_type_symbol
_atom_site_label
_atom_site_fract_x
_atom_site_fract_y
_atom_site_fract_z
Si Si1 0.421367 0.240884 0.949859
Si Si2 0.797781 0.502080 0.475810
Si Si3 0.225249 0.074423 0.810329
Si Si4 0.146781 0.067807 0.318641
Si Si5 0.885979 0.448423 0.201137
Si Si6 0.430565 0.178752 0.245588
Si Si7 0.395595 0.636186 0.689180
Si Si8 0.975157 0.201958 0.337574
O O1 0.348469 0.260678 0.022222
O O2 0.710314 0.184751 0.178690
O O3 0.389829 0.364388 0.763557
O O4 0.264369 0.165605 0.856927
O O5 0.690981 0.397179 0.453240
O O6 0.000000 0.500000 0.500000
O O7 0.909187 0.504275 0.660171
O O8 0.099225 0.141553 0.571731
O O9 0.065844 0.982927 0.809641
O O10 0.500000 0.000000 0.000000
O O11 0.200958 0.157967 0.187669
O O12 0.106835 0.138842 0.354664
O O13 0.386764 0.953955 0.569965
O O14 0.768910 0.394433 0.281921
O O15 0.963368 0.341733 0.239887
O O16 0.667768 0.552146 0.937843
O O17 0.586744 0.231513 0.379466
#
# Coordination Sequence:
#
# PCOD9072019 Si02
#       8
#     2   2   2   2   2   2   2   2
#     4  12  21  37  65  91 122 159 201 264 305 361
#     4  10  20  31  58  99 120 148 203 258 306 357
#     4  12  23  37  66  92 116 159 211 259 305 351
#     4  11  25  41  61  88 128 170 205 252 303 373
#     4  10  18  33  61  93 119 148 206 257 307 355
#     4  11  23  42  60  88 129 171 204 242 315 373
#     4  10  18  35  59  87 123 160 194 253 307 363
#     4  12  21  41  64  92 123 157 209 259 312 360
#
# _framework density 21.064219999999999
#
# number of rings (size 3 to 8) (size 9 to 14) (size 15 to 20)
#    0.000    1.000    6.250    2.625    1.750    0.500 
#    0.000    0.625    0.000    0.750    0.000    0.000 
#    0.000    0.000    0.000    0.000    0.000    0.000 
#
# Total GULP energy -89219.166459 kJ/mol
# GULP energy per Si atom -5576.197904 kJ/mol
# Density = 2.101628 g / cm^3
# Si number density = 21.064220 Si / 1000 Ang^3
#
#
#
# Elastic Constant Matrix: (Units=GPa)
#
#
# Indices 1 2 3 4 5 6 
#
# 1 42.8173 54.1863 21.6754 7.2481 0.4306 -4.3554
# 2 54.1863 151.0952 29.1674 36.2950 0.0154 -52.9861
# 3 21.6754 29.1674 72.6490 23.4240 14.1256 -9.1654
# 4 7.2481 36.2950 23.4240 42.3349 3.3563 -1.8316
# 5 0.4306 0.0154 14.1256 3.3563 -6.2210 3.4210
# 6 -4.3554 -52.9861 -9.1654 -1.8316 3.4210 9.4784
#
#
#
# Elastic Compliance Matrix: (Units=1/GPa)
#
#
# Indices 1 2 3 4 5 6 
#
# 1 0.022989 0.005363 -0.004504 -0.005149 0.006636 0.032799
# 2 0.005363 -0.006683 -0.001328 0.005530 -0.015841 -0.029393
# 3 -0.004504 -0.001328 0.012962 -0.007258 0.021779 -0.006224
# 4 -0.005149 0.005530 -0.007258 0.024073 0.008815 0.023003
# 5 0.006636 -0.015841 0.021779 0.008815 -0.117333 -0.020395
# 6 0.032799 -0.029393 -0.006224 0.023003 -0.020395 -0.037950
#
#
# Mechanical properties :
#
#
# Convention : Reuss Voigt Hill
#
# Bulk Modulus (GPa) = 35.29897 52.95774 44.12835
# Shear Modulus (GPa) = -54.60953 19.88730 -17.36112
#
# Velocity S-wave (km/s) = -5.09721 3.07600 -2.87400
# Velocity P-wave (km/s) = 4.22468 6.14909 3.15939
#
# Compressibility (1/GPa) = 0.02832944
#
# Stress axis : x y z
#
# Youngs Moduli (GPa) = 43.49848 -149.63267 77.14651
#
# Poissons Ratio (x) = 0.80251 0.34751
# Poissons Ratio (y) = -0.23329 0.10247
# Poissons Ratio (z) = 0.19594 -0.19876
#
# Static dielectric constant tensor:
#      x y z
#    x 1.814680 -0.031710 0.044450 
#    y -0.031710 1.855310 -0.064060 
#    z 0.044450 -0.064060 1.830350 
# 
# From -- ./inp_files/398684.got.cif
#   From: 2010.05.17/outbox.ucp.g08.bks.cvg/sg2_200_cif.got.tgz:398684.got - 2010.06.11 11:32:03.
