data_PCOD9072936
_publ_section_title
;
Structure prediction by ZEFSAII (Michael W. Deem and Ramdas Pophale) SiO2 
 PCOD9072936
Probable space group: P -1
;
_chemical_formula_sum "Si O2"
_cell_formula_units_Z 14
_cell_length_a 12.000000
_cell_length_b 24.000000
_cell_length_c 15.000000
_cell_angle_alpha 20.000000
_cell_angle_beta 150.000000
_cell_angle_gamma 150.000000
_cell_volume 703.466731
_symmetry_space_group_name_H-M "P -1"
_symmetry_group_IT_number 2
_symmetry_cell_setting 'triclinic'
loop_
_space_group_symop_operation_xyz
x,y,z
-x,-y,-z
loop_
_atom_site_type_symbol
_atom_site_label
_atom_site_fract_x
_atom_site_fract_y
_atom_site_fract_z
Si Si1 0.809788 0.630279 0.348278
Si Si2 0.257662 0.879863 0.202339
Si Si3 0.671055 0.340063 0.048605
Si Si4 0.829706 0.962621 0.267806
Si Si5 0.654938 0.272332 0.685062
Si Si6 0.280640 0.878306 0.747879
Si Si7 0.129982 0.489670 0.243263
O O1 0.788175 0.451093 0.553160
O O2 0.781444 0.602538 0.476947
O O3 0.055355 0.771053 0.289299
O O4 0.595884 0.684605 0.077543
O O5 0.312970 0.746272 0.370929
O O6 0.485685 0.999140 0.230526
O O7 0.158975 0.996018 0.891944
O O8 0.685463 0.175495 0.250167
O O9 0.857762 0.397255 0.170887
O O10 0.748526 0.491174 0.798956
O O11 0.622803 0.786425 0.402427
O O12 0.071078 0.959346 0.480445
O O13 0.743320 0.116115 0.018438
O O14 0.189353 0.688930 0.013338
#
# Coordination Sequence:
#
# PCOD9072936 Si02
#       7
#     2   2   2   2   2   2   2
#     4  12  21  39  60  85 126 150 188 241 289 352
#     4  10  23  37  57  92 117 158 186 232 302 336
#     4   9  22  38  63  89 109 154 196 243 286 333
#     4   9  20  39  59  84 114 149 198 239 276 335
#     4   9  21  40  60  87 112 158 198 232 284 339
#     4  10  20  39  62  84 115 148 200 240 280 346
#     4   9  21  38  61  89 109 151 201 235 289 335
#
# _framework density 19.901439
#
# number of rings (size 3 to 8) (size 9 to 14) (size 15 to 20)
#    1.714    0.571    0.000    2.571    0.000    3.429 
#    2.571    2.143    0.000    0.000    0.000    0.000 
#    0.000    0.000    0.000    0.000    0.000    0.000 
#
# Total GULP energy -77978.508687 kJ/mol
# GULP energy per Si atom -5569.893478 kJ/mol
# Density = 1.985614 g / cm^3
# Si number density = 19.901439 Si / 1000 Ang^3
#
#
#
# Elastic Constant Matrix: (Units=GPa)
#
#
# Indices 1 2 3 4 5 6 
#
# 1 23.0342 8.7907 -2.2776 -3.0879 3.3763 4.3059
# 2 8.7907 113.2308 5.8901 17.6377 -1.8315 6.6014
# 3 -2.2776 5.8901 9.7877 14.6464 7.5621 12.3459
# 4 -3.0879 17.6377 14.6464 19.6283 -1.9376 4.9168
# 5 3.3763 -1.8315 7.5621 -1.9376 17.2050 -1.3095
# 6 4.3059 6.6014 12.3459 4.9168 -1.3095 20.1425
#
#
#
# Elastic Compliance Matrix: (Units=1/GPa)
#
#
# Indices 1 2 3 4 5 6 
#
# 1 0.049437 -0.006807 -0.014311 0.025910 -0.001674 -0.005999
# 2 -0.006807 0.010574 -0.005763 -0.006691 0.004503 0.003448
# 3 -0.014311 -0.005763 -0.086628 0.060930 0.050669 0.046466
# 4 0.025910 -0.006691 0.060930 0.024497 -0.033537 -0.048852
# 5 -0.001674 0.004503 0.050669 -0.033537 0.031212 -0.021959
# 6 -0.005999 0.003448 0.046466 -0.048852 -0.021959 0.031815
#
#
# Mechanical properties :
#
#
# Convention : Reuss Voigt Hill
#
# Bulk Modulus (GPa) = -12.44092 18.98434 3.27171
# Shear Modulus (GPa) = 56.89835 20.30512 38.60174
#
# Velocity S-wave (km/s) = 5.35277 3.19765 4.40892
# Velocity P-wave (km/s) = 5.65137 4.81593 5.25030
#
# Compressibility (1/GPa) = -0.08037988
#
# Stress axis : x y z
#
# Youngs Moduli (GPa) = 20.22787 94.57290 -11.54360
#
# Poissons Ratio (x) = 0.64375 -0.16520
# Poissons Ratio (y) = 0.13769 -0.06653
# Poissons Ratio (z) = 0.28949 0.54503
#
# Static dielectric constant tensor:
#      x y z
#    x 1.748310 0.010220 0.011770 
#    y 0.010220 1.666600 -0.009200 
#    z 0.011770 -0.009200 1.706870 
# 
# From -- ./inp_files/524366.got.cif
#   From: 2010.05.17/outbox.ucp.g08.bks.cvg/sg2_263_cif.got.tgz:524366.got - 2010.06.11 11:32:03.
