data_PCOD9072079
_publ_section_title
;
Structure prediction by ZEFSAII (Michael W. Deem and Ramdas Pophale) SiO2 
 PCOD9072079
Probable space group: P -1
;
_chemical_formula_sum "Si O2"
_cell_formula_units_Z 16
_cell_length_a 11.308637
_cell_length_b 11.735548
_cell_length_c 11.445582
_cell_angle_alpha 110.573465
_cell_angle_beta 116.471647
_cell_angle_gamma 36.782736
_cell_volume 814.132362
_symmetry_space_group_name_H-M "P -1"
_symmetry_group_IT_number 2
_symmetry_cell_setting 'triclinic'
loop_
_space_group_symop_operation_xyz
x,y,z
-x,-y,-z
loop_
_atom_site_type_symbol
_atom_site_label
_atom_site_fract_x
_atom_site_fract_y
_atom_site_fract_z
Si Si1 0.562565 0.259240 0.891301
Si Si2 0.666900 0.447391 0.905364
Si Si3 0.714056 0.738038 0.361919
Si Si4 0.178377 0.551019 0.245735
Si Si5 0.713953 0.896253 0.216754
Si Si6 0.809858 0.649117 0.629573
Si Si7 0.692498 0.754856 0.950829
Si Si8 0.875966 0.824547 0.897785
O O1 0.602993 0.356557 0.877126
O O2 0.399913 0.294937 0.759060
O O3 0.762467 0.031971 0.903063
O O4 0.486114 0.352581 0.021038
O O5 0.688654 0.451652 0.776505
O O6 0.888626 0.317652 0.016060
O O7 0.654837 0.903356 0.325494
O O8 0.685537 0.757387 0.494954
O O9 0.957400 0.553265 0.376308
O O10 0.262570 0.413374 0.343515
O O11 0.162675 0.452722 0.108254
O O12 0.953221 0.763017 0.257518
O O13 0.536142 0.102200 0.152664
O O14 0.697437 0.777975 0.097838
O O15 0.838893 0.754087 0.751823
O O16 0.766406 0.830772 0.957513
#
# Coordination Sequence:
#
# PCOD9072079 Si02
#       8
#     2   2   2   2   2   2   2   2
#     4  11  23  37  56  77 110 148 180 219 260 327
#     4  11  23  37  54  79 111 147 180 215 270 317
#     4  10  18  37  56  80 111 142 177 219 274 313
#     4  10  20  33  51  77 108 138 174 219 269 318
#     4  10  18  30  51  78 109 134 166 219 274 315
#     4   9  21  34  58  84 105 139 178 228 271 316
#     4  10  19  27  51  85 104 132 169 225 275 316
#     4  11  20  36  55  83 112 134 182 222 267 326
#
# _framework density 19.652825
#
# number of rings (size 3 to 8) (size 9 to 14) (size 15 to 20)
#    0.000    1.750    3.750    1.500    3.500    0.500 
#    0.000    0.625    0.000    0.000    0.000    2.625 
#    0.000    0.000    0.000    0.000    0.000    0.000 
#
# Total GULP energy -89202.625285 kJ/mol
# GULP energy per Si atom -5575.164080 kJ/mol
# Density = 1.960809 g / cm^3
# Si number density = 19.652825 Si / 1000 Ang^3
#
#
#
# Elastic Constant Matrix: (Units=GPa)
#
#
# Indices 1 2 3 4 5 6 
#
# 1 97.8307 15.3108 33.0689 -0.0433 -24.4231 8.8687
# 2 15.3108 60.4717 7.8674 -0.7262 -11.6864 4.7565
# 3 33.0689 7.8674 81.6366 -7.7941 -31.9853 6.1888
# 4 -0.0433 -0.7262 -7.7941 17.3500 4.0173 -2.3035
# 5 -24.4231 -11.6864 -31.9853 4.0173 30.7475 0.3494
# 6 8.8687 4.7565 6.1888 -2.3035 0.3494 26.2403
#
#
#
# Elastic Compliance Matrix: (Units=1/GPa)
#
#
# Indices 1 2 3 4 5 6 
#
# 1 0.013684 -0.001188 -0.001944 -0.003533 0.008906 -0.004380
# 2 -0.001188 0.018478 0.002272 -0.000679 0.008573 -0.003657
# 3 -0.001944 0.002272 0.022174 0.004337 0.021874 -0.004895
# 4 -0.003533 -0.000679 0.004337 0.061872 -0.006703 0.005815
# 5 0.008906 0.008573 0.021874 -0.006703 0.066614 -0.011199
# 6 -0.004380 -0.003657 -0.004895 0.005815 -0.011199 0.042067
#
#
# Mechanical properties :
#
#
# Convention : Reuss Voigt Hill
#
# Bulk Modulus (GPa) = 19.00623 39.15922 29.08272
# Shear Modulus (GPa) = 20.47942 27.11367 23.79655
#
# Velocity S-wave (km/s) = 3.23160 3.71837 3.48350
# Velocity P-wave (km/s) = 4.85966 6.19708 5.56867
#
# Compressibility (1/GPa) = 0.05261434
#
# Stress axis : x y z
#
# Youngs Moduli (GPa) = 73.07896 54.11764 45.09886
#
# Poissons Ratio (x) = 0.06431 0.08768
# Poissons Ratio (y) = 0.08685 -0.10246
# Poissons Ratio (z) = 0.14208 -0.12295
#
# Static dielectric constant tensor:
#      x y z
#    x 1.751100 -0.022270 -0.049780 
#    y -0.022270 1.729680 -0.029730 
#    z -0.049780 -0.029730 1.713730 
# 
# From -- ./inp_files/302538.got.cif
#   From: 2010.05.17/outbox.cif.g08.bks.cpg/sg2_152_cif.got.tgz:302538.got - 2010.06.03 11:33:40.
