data_PCOD9072003
_publ_section_title
;
Structure prediction by ZEFSAII (Michael W. Deem and Ramdas Pophale) SiO2 
 PCOD9072003
Probable space group: P -1
;
_chemical_formula_sum "Si O2"
_cell_formula_units_Z 12
_cell_length_a 5.537174
_cell_length_b 21.439098
_cell_length_c 7.742878
_cell_angle_alpha 144.476822
_cell_angle_beta 116.803193
_cell_angle_gamma 57.366577
_cell_volume 449.623738
_symmetry_space_group_name_H-M "P -1"
_symmetry_group_IT_number 2
_symmetry_cell_setting 'triclinic'
loop_
_space_group_symop_operation_xyz
x,y,z
-x,-y,-z
loop_
_atom_site_type_symbol
_atom_site_label
_atom_site_fract_x
_atom_site_fract_y
_atom_site_fract_z
Si Si1 0.403477 0.225497 0.187766
Si Si2 0.151262 0.731839 0.772255
Si Si3 0.283832 0.070447 0.442520
Si Si4 0.822779 0.708965 0.263099
Si Si5 0.987118 0.464943 0.613103
Si Si6 0.340113 0.886439 0.635236
O O1 0.106799 0.198539 0.029746
O O2 0.284025 0.359936 0.504973
O O3 0.591263 0.148473 0.222450
O O4 0.593731 0.221562 0.073899
O O5 0.996432 0.732284 0.537023
O O6 0.236471 0.602213 0.572616
O O7 0.141844 0.209170 0.693558
O O8 0.466648 0.056486 0.288736
O O9 0.992627 0.041359 0.310935
O O10 0.500000 0.000000 0.500000
O O11 0.482253 0.759696 0.309472
O O12 0.930354 0.576981 0.958785
O O13 0.000000 0.500000 0.500000
#
# Coordination Sequence:
#
# PCOD9072003 Si02
#       6
#     2   2   2   2   2   2
#     4   9  17  32  50  69  97 133 164 199 240 295
#     4   9  18  32  50  69  95 132 168 201 241 291
#     4  10  18  30  50  77 102 122 158 216 262 285
#     4   9  19  31  51  74 103 133 168 200 246 297
#     4  10  21  33  48  75 107 137 167 201 242 292
#     4   9  17  31  49  76  98 127 162 202 250 299
#
# _framework density 26.688983
#
# number of rings (size 3 to 8) (size 9 to 14) (size 15 to 20)
#    2.000    0.667    1.667    1.000    0.000    2.667 
#    0.000    0.000    0.000    0.000    0.000    5.833 
#    0.000    0.000    0.000    0.000    0.000    0.000 
#
# Total GULP energy -66911.860323 kJ/mol
# GULP energy per Si atom -5575.988360 kJ/mol
# Density = 2.662824 g / cm^3
# Si number density = 26.688983 Si / 1000 Ang^3
#
#
#
# Elastic Constant Matrix: (Units=GPa)
#
#
# Indices 1 2 3 4 5 6 
#
# 1 219.1349 60.0177 30.7024 -5.8902 -33.4861 13.4922
# 2 60.0177 189.0219 49.1266 11.9274 -5.0530 20.2299
# 3 30.7024 49.1266 77.3987 19.2112 -7.1398 4.7547
# 4 -5.8902 11.9274 19.2112 57.5095 7.5507 -10.2122
# 5 -33.4861 -5.0530 -7.1398 7.5507 25.9543 2.1359
# 6 13.4922 20.2299 4.7547 -10.2122 2.1359 51.0858
#
#
#
# Elastic Compliance Matrix: (Units=1/GPa)
#
#
# Indices 1 2 3 4 5 6 
#
# 1 0.006349 -0.001455 -0.000774 -0.000059 0.007825 -0.001367
# 2 -0.001455 0.006932 -0.003661 -0.000577 -0.001196 -0.002085
# 3 -0.000774 -0.003661 0.017622 -0.006119 0.005033 -0.001419
# 4 -0.000059 -0.000577 -0.006119 0.021656 -0.008626 0.005503
# 5 0.007825 -0.001196 0.005033 -0.008626 0.052779 -0.005992
# 6 -0.001367 -0.002085 -0.001419 0.005503 -0.005992 0.022245
#
#
# Mechanical properties :
#
#
# Convention : Reuss Voigt Hill
#
# Bulk Modulus (GPa) = 52.30081 85.02764 68.66422
# Shear Modulus (GPa) = 34.30850 49.95717 42.13283
#
# Velocity S-wave (km/s) = 3.58927 4.33116 3.97755
# Velocity P-wave (km/s) = 6.06762 7.54584 6.84674
#
# Compressibility (1/GPa) = 0.01912016
#
# Stress axis : x y z
#
# Youngs Moduli (GPa) = 157.51145 144.26508 56.74871
#
# Poissons Ratio (x) = 0.20996 0.04393
# Poissons Ratio (y) = 0.22924 0.20778
# Poissons Ratio (z) = 0.12192 0.52822
#
# Static dielectric constant tensor:
#      x y z
#    x 2.162170 -0.040080 0.011500 
#    y -0.040080 2.024760 -0.013860 
#    z 0.011500 -0.013860 2.192880 
# 
# From -- ./inp_files/108360.got.cif
#   From: 2010.05.17/outbox.cif.g08.bks.cpg/sg2_55_cif.got.tgz:108360.got - 2010.06.03 11:33:40.
