data_PCOD9072898
_publ_section_title
;
Structure prediction by ZEFSAII (Michael W. Deem and Ramdas Pophale) SiO2 
 PCOD9072898
Probable space group: P -1
;
_chemical_formula_sum "Si O2"
_cell_formula_units_Z 16
_cell_length_a 28.252605
_cell_length_b 11.886616
_cell_length_c 12.872665
_cell_angle_alpha 48.790836
_cell_angle_beta 158.014544
_cell_angle_gamma 145.072749
_cell_volume 816.240118
_symmetry_space_group_name_H-M "P -1"
_symmetry_group_IT_number 2
_symmetry_cell_setting 'triclinic'
loop_
_space_group_symop_operation_xyz
x,y,z
-x,-y,-z
loop_
_atom_site_type_symbol
_atom_site_label
_atom_site_fract_x
_atom_site_fract_y
_atom_site_fract_z
Si Si1 0.076050 0.581633 0.754176
Si Si2 0.434996 0.315093 0.822911
Si Si3 0.245776 0.695258 0.253190
Si Si4 0.463904 0.289410 0.137724
Si Si5 0.925859 0.188056 0.564920
Si Si6 0.007593 0.708299 0.865391
Si Si7 0.018087 0.963090 0.410193
Si Si8 0.797254 0.527958 0.338015
O O1 0.150247 0.752105 0.708167
O O2 0.044242 0.387561 0.765612
O O3 0.875118 0.478998 0.442428
O O4 0.195133 0.689954 0.035368
O O5 0.509947 0.352429 0.070842
O O6 0.579077 0.371130 0.000756
O O7 0.436573 0.496854 0.718214
O O8 0.239264 0.056720 0.574070
O O9 0.447674 0.792822 0.606845
O O10 0.093925 0.442620 0.146436
O O11 0.204717 0.801606 0.179373
O O12 0.238710 0.119187 0.787876
O O13 0.033908 0.168392 0.722134
O O14 0.874203 0.544653 0.596380
O O15 0.015017 0.892614 0.763430
O O16 0.897442 0.774370 0.366744
#
# Coordination Sequence:
#
# PCOD9072898 Si02
#       8
#     2   2   2   2   2   2   2   2
#     4   9  20  36  53  76 105 139 181 217 259 313
#     4  10  18  31  56  77 105 139 178 217 255 306
#     4  10  19  32  53  78 112 139 163 217 276 312
#     4  10  18  32  51  81 113 134 168 218 262 316
#     4   9  19  36  54  78 100 138 186 223 248 303
#     4  10  18  31  51  80 111 135 168 216 264 318
#     4  10  19  33  58  80 101 143 181 211 257 309
#     4  10  18  32  56  79 102 137 181 213 257 309
#
# _framework density 19.602073000000001
#
# number of rings (size 3 to 8) (size 9 to 14) (size 15 to 20)
#    0.000    2.250    2.500    1.875    0.000    0.500 
#    0.000   12.500    0.000    0.000    0.000    3.500 
#    0.000    0.000    0.000    0.000    0.000    0.000 
#
# Total GULP energy -89158.548678 kJ/mol
# GULP energy per Si atom -5572.409292 kJ/mol
# Density = 1.955746 g / cm^3
# Si number density = 19.602073 Si / 1000 Ang^3
#
#
#
# Elastic Constant Matrix: (Units=GPa)
#
#
# Indices 1 2 3 4 5 6 
#
# 1 50.5984 15.8272 13.7622 -1.3309 9.9198 1.0198
# 2 15.8272 71.1118 15.5633 -7.2271 6.1169 -13.2093
# 3 13.7622 15.5633 57.2762 -22.2137 19.5224 -1.0366
# 4 -1.3309 -7.2271 -22.2137 25.5977 -1.7275 9.1493
# 5 9.9198 6.1169 19.5224 -1.7275 19.0364 -4.2659
# 6 1.0198 -13.2093 -1.0366 9.1493 -4.2659 37.0517
#
#
#
# Elastic Compliance Matrix: (Units=1/GPa)
#
#
# Indices 1 2 3 4 5 6 
#
# 1 0.023685 -0.004838 -0.001031 -0.000491 -0.010559 -0.003500
# 2 -0.004838 0.017139 -0.006151 -0.003068 0.004695 0.007369
# 3 -0.001031 -0.006151 0.059455 0.053142 -0.058191 -0.020323
# 4 -0.000491 -0.003068 0.053142 0.090810 -0.051273 -0.027921
# 5 -0.010559 0.004695 -0.058191 -0.051273 0.117492 0.026525
# 6 -0.003500 0.007369 -0.020323 -0.027921 0.026525 0.039093
#
#
# Mechanical properties :
#
#
# Convention : Reuss Voigt Hill
#
# Bulk Modulus (GPa) = 13.11685 29.92131 21.51908
# Shear Modulus (GPa) = 12.59047 25.25942 18.92494
#
# Velocity S-wave (km/s) = 2.53712 3.59362 3.11055
# Velocity P-wave (km/s) = 3.91008 5.70230 4.88902
#
# Compressibility (1/GPa) = 0.07623784
#
# Stress axis : x y z
#
# Youngs Moduli (GPa) = 42.22113 58.34811 16.81946
#
# Poissons Ratio (x) = 0.28226 0.01735
# Poissons Ratio (y) = 0.20425 0.10346
# Poissons Ratio (z) = 0.04354 0.35892
#
# Static dielectric constant tensor:
#      x y z
#    x 1.713640 0.001990 0.029040 
#    y 0.001990 1.734010 -0.018530 
#    z 0.029040 -0.018530 1.720460 
# 
# From -- ./inp_files/348161.got.cif
#   From: 2010.05.17/outbox.cif.g08.bks.cpg/sg2_175_cif.got.tgz:348161.got - 2010.06.03 11:33:40.
