data_PCOD9072378
_publ_section_title
;
Structure prediction by ZEFSAII (Michael W. Deem and Ramdas Pophale) SiO2 
 PCOD9072378
Probable space group: P -1
;
_chemical_formula_sum "Si O2"
_cell_formula_units_Z 16
_cell_length_a 9.000000
_cell_length_b 9.000000
_cell_length_c 18.000000
_cell_angle_alpha 120.000000
_cell_angle_beta 140.000000
_cell_angle_gamma 80.000000
_cell_volume 752.029055
_symmetry_space_group_name_H-M "P -1"
_symmetry_group_IT_number 2
_symmetry_cell_setting 'triclinic'
loop_
_space_group_symop_operation_xyz
x,y,z
-x,-y,-z
loop_
_atom_site_type_symbol
_atom_site_label
_atom_site_fract_x
_atom_site_fract_y
_atom_site_fract_z
Si Si1 0.409898 0.104734 0.802796
Si Si2 0.721716 0.637043 0.287979
Si Si3 0.974821 0.197122 0.048673
Si Si4 0.542526 0.702653 0.534076
Si Si5 0.536260 0.765835 0.971842
Si Si6 0.268568 0.718719 0.575057
Si Si7 0.914909 0.122561 0.175564
Si Si8 0.462047 0.534779 0.312343
O O1 0.259845 0.196016 0.717433
O O2 0.413786 0.169656 0.906459
O O3 0.307454 0.886553 0.689342
O O4 0.704175 0.180718 0.913762
O O5 0.586107 0.647086 0.315244
O O6 0.988250 0.635274 0.414993
O O7 0.552870 0.449686 0.133049
O O8 0.986989 0.222538 0.149072
O O9 0.204904 0.370324 0.150721
O O10 0.000000 0.000000 0.000000
O O11 0.500000 0.500000 0.500000
O O12 0.435488 0.789026 0.581381
O O13 0.425138 0.659879 0.396557
O O14 0.836985 0.816539 0.666659
O O15 0.784851 0.901656 0.060339
O O16 0.306905 0.817666 0.866268
O O17 0.360781 0.570016 0.613676
#
# Coordination Sequence:
#
# PCOD9072378 Si02
#       8
#     2   2   2   2   2   2   2   2
#     4  11  25  42  64  92 129 173 204 261 321 378
#     4  12  26  42  61  95 135 165 210 258 319 379
#     4  11  19  38  65  88 125 159 214 260 313 369
#     4  10  19  38  63  96 123 161 206 266 317 360
#     4  10  23  37  64  92 126 169 210 259 318 369
#     4  11  23  42  67  90 127 171 211 256 315 376
#     4  10  19  35  63  94 123 155 218 262 307 370
#     4  11  23  38  68  97 122 164 213 265 311 368
#
# _framework density 21.275773999999998
#
# number of rings (size 3 to 8) (size 9 to 14) (size 15 to 20)
#    0.000    1.250    3.750    3.375    7.000    0.500 
#    0.000    0.625    0.000    0.000    0.000    0.000 
#    0.000    0.000    0.000    0.000    0.000    0.000 
#
# Total GULP energy -89349.120774 kJ/mol
# GULP energy per Si atom -5584.320048 kJ/mol
# Density = 2.122735 g / cm^3
# Si number density = 21.275774 Si / 1000 Ang^3
#
#
#
# Elastic Constant Matrix: (Units=GPa)
#
#
# Indices 1 2 3 4 5 6 
#
# 1 63.9698 -4.0948 15.2230 0.3225 -16.5424 14.1874
# 2 -4.0948 23.1290 -5.2846 -2.9543 -6.9544 5.2225
# 3 15.2230 -5.2846 96.3852 7.4655 -2.1530 2.8050
# 4 0.3225 -2.9543 7.4655 25.7579 -2.3095 -5.2278
# 5 -16.5424 -6.9544 -2.1530 -2.3095 48.4458 2.4841
# 6 14.1874 5.2225 2.8050 -5.2278 2.4841 18.7155
#
#
#
# Elastic Compliance Matrix: (Units=1/GPa)
#
#
# Indices 1 2 3 4 5 6 
#
# 1 0.025452 0.012790 -0.002171 -0.002194 0.011592 -0.024689
# 2 0.012790 0.056532 0.002073 0.001453 0.014041 -0.027239
# 3 -0.002171 0.002073 0.011128 -0.003269 -0.000028 -0.001510
# 4 -0.002194 0.001453 -0.003269 0.042786 0.000656 0.013612
# 5 0.011592 0.014041 -0.000028 0.000656 0.027474 -0.016164
# 6 -0.024689 -0.027239 -0.001510 0.013612 -0.016164 0.085922
#
#
# Mechanical properties :
#
#
# Convention : Reuss Voigt Hill
#
# Bulk Modulus (GPa) = 8.43913 21.68570 15.06241
# Shear Modulus (GPa) = 18.98186 30.42654 24.70420
#
# Velocity S-wave (km/s) = 2.99018 3.78577 3.41125
# Velocity P-wave (km/s) = 3.98707 5.41519 4.75505
#
# Compressibility (1/GPa) = 0.11849568
#
# Stress axis : x y z
#
# Youngs Moduli (GPa) = 39.28957 17.68919 89.86188
#
# Poissons Ratio (x) = -0.22624 0.19512
# Poissons Ratio (y) = -0.50251 -0.18630
# Poissons Ratio (z) = 0.08531 -0.03667
#
# Static dielectric constant tensor:
#      x y z
#    x 1.832540 -0.003890 0.006290 
#    y -0.003890 1.757090 0.019430 
#    z 0.006290 0.019430 1.767760 
# 
# From -- ./inp_files/257648.got.cif
#   From: 2010.05.17/outbox.ucp.g08.bks.cvg/sg2_129_cif.got.tgz:257648.got - 2010.06.11 11:32:03.
