data_PCOD9072422
_publ_section_title
;
Structure prediction by ZEFSAII (Michael W. Deem and Ramdas Pophale) SiO2 
 PCOD9072422
Probable space group: P -1
;
_chemical_formula_sum "Si O2"
_cell_formula_units_Z 14
_cell_length_a 15.000000
_cell_length_b 24.000000
_cell_length_c 30.000000
_cell_angle_alpha 10.000000
_cell_angle_beta 160.000000
_cell_angle_gamma 160.000000
_cell_volume 622.618477
_symmetry_space_group_name_H-M "P -1"
_symmetry_group_IT_number 2
_symmetry_cell_setting 'triclinic'
loop_
_space_group_symop_operation_xyz
x,y,z
-x,-y,-z
loop_
_atom_site_type_symbol
_atom_site_label
_atom_site_fract_x
_atom_site_fract_y
_atom_site_fract_z
Si Si1 0.078637 0.354966 0.440689
Si Si2 0.490780 0.218099 0.255368
Si Si3 0.208058 0.831052 0.850609
Si Si4 0.641676 0.453029 0.330094
Si Si5 0.104069 0.824308 0.995174
Si Si6 0.212163 0.589453 0.469965
Si Si7 0.550523 0.600622 0.541224
O O1 0.107220 0.604556 0.214772
O O2 0.297236 0.496105 0.470230
O O3 0.762950 0.305014 0.344007
O O4 0.148116 0.018395 0.719285
O O5 0.497951 0.867890 0.511334
O O6 0.500000 0.500000 0.000000
O O7 0.189358 0.196982 0.147899
O O8 0.221995 0.103949 0.604556
O O9 0.483711 0.716911 0.064631
O O10 0.000000 0.500000 0.000000
O O11 0.718921 0.310118 0.525974
O O12 0.911084 0.629660 0.291212
O O13 0.299395 0.697513 0.152811
O O14 0.191211 0.200374 0.756775
O O15 0.440397 0.739609 0.424009
#
# Coordination Sequence:
#
# PCOD9072422 Si02
#       7
#     2   2   2   2   2   2   2
#     4  10  19  36  62  90 115 156 199 241 292 354
#     4   9  18  34  60  83 112 154 202 234 287 360
#     4  11  21  37  62  87 123 157 196 237 298 357
#     4  10  20  38  60  83 115 162 196 239 301 353
#     4   9  18  35  59  86 115 157 195 238 292 353
#     4  10  21  37  61  87 119 152 201 248 291 349
#     4  11  22  36  62  93 119 152 199 250 291 343
#
# _framework density 22.485679999999999
#
# number of rings (size 3 to 8) (size 9 to 14) (size 15 to 20)
#    0.000    2.000    1.429    3.857    0.000    1.714 
#    0.000    3.571   12.571    0.000    0.000    0.000 
#    0.000    0.000    0.000    0.000    0.000    0.000 
#
# Total GULP energy -78061.836085 kJ/mol
# GULP energy per Si atom -5575.845435 kJ/mol
# Density = 2.243450 g / cm^3
# Si number density = 22.485680 Si / 1000 Ang^3
#
#
#
# Elastic Constant Matrix: (Units=GPa)
#
#
# Indices 1 2 3 4 5 6 
#
# 1 55.9941 18.1357 -17.0772 10.9304 9.0397 13.1506
# 2 18.1357 49.8633 15.9405 0.1813 11.9614 20.2514
# 3 -17.0772 15.9405 69.1057 11.3658 15.2652 8.9253
# 4 10.9304 0.1813 11.3658 37.4972 14.9487 9.4701
# 5 9.0397 11.9614 15.2652 14.9487 22.1653 2.1243
# 6 13.1506 20.2514 8.9253 9.4701 2.1243 15.5827
#
#
#
# Elastic Compliance Matrix: (Units=1/GPa)
#
#
# Indices 1 2 3 4 5 6 
#
# 1 0.046197 0.042786 0.027845 0.039485 -0.075833 -0.124199
# 2 0.042786 0.216251 0.037899 0.174008 -0.238103 -0.412148
# 3 0.027845 0.037899 0.035919 0.035454 -0.070366 -0.105280
# 4 0.039485 0.174008 0.035454 0.184042 -0.223937 -0.361092
# 5 -0.075833 -0.238103 -0.070366 -0.223937 0.355977 0.501307
# 6 -0.124199 -0.412148 -0.105280 -0.361092 0.501307 0.916028
#
#
# Mechanical properties :
#
#
# Convention : Reuss Voigt Hill
#
# Bulk Modulus (GPa) = 1.94014 23.21788 12.57901
# Shear Modulus (GPa) = 2.92541 25.57998 14.25269
#
# Velocity S-wave (km/s) = 1.14186 3.37651 2.52038
# Velocity P-wave (km/s) = 1.61343 5.05462 3.75182
#
# Compressibility (1/GPa) = 0.51542585
#
# Stress axis : x y z
#
# Youngs Moduli (GPa) = 21.64639 4.62426 27.84005
#
# Poissons Ratio (x) = -0.19785 -0.77520
# Poissons Ratio (y) = -0.92615 -1.05511
# Poissons Ratio (z) = -0.60274 -0.17525
#
# Static dielectric constant tensor:
#      x y z
#    x 1.874090 0.095100 -0.041750 
#    y 0.095100 1.904460 0.015670 
#    z -0.041750 0.015670 1.867310 
# 
# From -- ./inp_files/242843.got.cif
#   From: 2010.05.17/outbox.ucp.g08.bks.cvg/sg2_122_cif.got.tgz:242843.got - 2010.06.11 11:32:03.
