data_PCOD9072067
_publ_section_title
;
Structure prediction by ZEFSAII (Michael W. Deem and Ramdas Pophale) SiO2 
 PCOD9072067
Probable space group: P -1
;
_chemical_formula_sum "Si O2"
_cell_formula_units_Z 14
_cell_length_a 21.000000
_cell_length_b 15.000000
_cell_length_c 12.000000
_cell_angle_alpha 140.000000
_cell_angle_beta 150.000000
_cell_angle_gamma 20.000000
_cell_volume 620.704002
_symmetry_space_group_name_H-M "P -1"
_symmetry_group_IT_number 2
_symmetry_cell_setting 'triclinic'
loop_
_space_group_symop_operation_xyz
x,y,z
-x,-y,-z
loop_
_atom_site_type_symbol
_atom_site_label
_atom_site_fract_x
_atom_site_fract_y
_atom_site_fract_z
Si Si1 0.329607 0.119575 0.960500
Si Si2 0.117026 0.417966 0.412658
Si Si3 0.092964 0.898348 0.773022
Si Si4 0.736098 0.902776 0.483480
Si Si5 0.300280 0.837064 0.720478
Si Si6 0.747799 0.207649 0.747317
Si Si7 0.486560 0.726544 0.142067
O O1 0.055322 0.431929 0.813880
O O2 0.318055 0.965313 0.803815
O O3 0.500000 0.000000 0.000000
O O4 0.488390 0.041248 0.223966
O O5 0.160198 0.236279 0.371699
O O6 0.372170 0.259970 0.620583
O O7 0.950657 0.662142 0.486104
O O8 0.285899 0.596150 0.808516
O O9 0.260362 0.879756 0.020937
O O10 0.966945 0.977916 0.540139
O O11 0.850454 0.126596 0.701010
O O12 0.670661 0.123211 0.577184
O O13 0.524866 0.521171 0.732547
O O14 0.358784 0.830067 0.927611
O O15 0.000000 0.000000 0.000000
#
# Coordination Sequence:
#
# PCOD9072067 Si02
#       7
#     2   2   2   2   2   2   2
#     4  10  20  32  58  91 117 153 201 252 300 345
#     4  10  18  35  60  85 117 153 209 247 290 349
#     4  11  23  38  59  93 128 160 198 252 305 365
#     4  10  20  36  56  88 121 153 198 253 297 352
#     4  12  22  40  63  94 124 158 204 255 303 359
#     4  12  24  41  62  95 127 158 198 253 317 354
#     4  11  21  39  62  93 121 161 207 249 296 364
#
# _framework density 22.555033999999999
#
# number of rings (size 3 to 8) (size 9 to 14) (size 15 to 20)
#    0.000    1.143    5.714    1.714    4.000    0.000 
#    0.000    0.000    0.000    1.714    7.429    0.000 
#    0.000    0.000    0.000    0.000    0.000    0.000 
#
# Total GULP energy -78192.984015 kJ/mol
# GULP energy per Si atom -5585.213144 kJ/mol
# Density = 2.250370 g / cm^3
# Si number density = 22.555034 Si / 1000 Ang^3
#
#
#
# Elastic Constant Matrix: (Units=GPa)
#
#
# Indices 1 2 3 4 5 6 
#
# 1 66.9788 17.2349 7.5512 8.5684 20.4781 27.7297
# 2 17.2349 11.4273 -3.7209 7.6377 13.4116 23.3153
# 3 7.5512 -3.7209 94.0743 -13.8002 24.0459 8.0466
# 4 8.5684 7.6377 -13.8002 28.8374 4.5820 -7.1614
# 5 20.4781 13.4116 24.0459 4.5820 44.5764 -7.3601
# 6 27.7297 23.3153 8.0466 -7.1614 -7.3601 10.5889
#
#
#
# Elastic Compliance Matrix: (Units=1/GPa)
#
#
# Indices 1 2 3 4 5 6 
#
# 1 0.024523 -0.027896 -0.002557 -0.001634 -0.001864 -0.003256
# 2 -0.027896 0.022281 -0.002451 0.009396 0.013314 0.041463
# 3 -0.002557 -0.002451 0.013103 0.009779 -0.005329 0.005044
# 4 -0.001634 0.009396 0.009779 0.037575 -0.012374 -0.007028
# 5 -0.001864 0.013314 -0.005329 -0.012374 0.021105 -0.014085
# 6 -0.003256 0.041463 0.005044 -0.007028 -0.014085 -0.006706
#
#
# Mechanical properties :
#
#
# Convention : Reuss Voigt Hill
#
# Bulk Modulus (GPa) = -169.53232 23.84566 -72.84333
# Shear Modulus (GPa) = 28.45410 26.89486 27.67448
#
# Velocity S-wave (km/s) = 3.55567 3.45688 3.50662
# Velocity P-wave (km/s) = 7.64657 5.15058 3.99634
#
# Compressibility (1/GPa) = -0.00589858
#
# Stress axis : x y z
#
# Youngs Moduli (GPa) = 40.77726 44.88143 76.31684
#
# Poissons Ratio (x) = 1.25199 0.19512
# Poissons Ratio (y) = 1.13750 0.18704
# Poissons Ratio (z) = 0.10425 0.11000
#
# Static dielectric constant tensor:
#      x y z
#    x 2.015630 -0.019730 -0.055490 
#    y -0.019730 1.797970 0.031350 
#    z -0.055490 0.031350 1.911910 
# 
# From -- ./inp_files/257305.got.cif
#   From: 2010.05.17/outbox.ucp.g08.bks.cvg/sg2_129_cif.got.tgz:257305.got - 2010.06.11 11:32:03.
