data_PCOD9072745
_publ_section_title
;
Structure prediction by ZEFSAII (Michael W. Deem and Ramdas Pophale) SiO2 
 PCOD9072745
Probable space group: P -1
;
_chemical_formula_sum "Si O2"
_cell_formula_units_Z 16
_cell_length_a 15.456009
_cell_length_b 11.894960
_cell_length_c 16.042227
_cell_angle_alpha 154.085549
_cell_angle_beta 34.862239
_cell_angle_gamma 140.638650
_cell_volume 729.443216
_symmetry_space_group_name_H-M "P -1"
_symmetry_group_IT_number 2
_symmetry_cell_setting 'triclinic'
loop_
_space_group_symop_operation_xyz
x,y,z
-x,-y,-z
loop_
_atom_site_type_symbol
_atom_site_label
_atom_site_fract_x
_atom_site_fract_y
_atom_site_fract_z
Si Si1 0.222399 0.038461 0.605320
Si Si2 0.448572 0.508874 0.682913
Si Si3 0.477104 0.196071 0.839448
Si Si4 0.071250 0.797359 0.114472
Si Si5 0.433777 0.717479 0.002338
Si Si6 0.307446 0.631273 0.703976
Si Si7 0.177890 0.038405 0.360800
Si Si8 0.652236 0.878642 0.272735
O O1 0.298718 0.331945 0.717519
O O2 0.218413 0.005730 0.686884
O O3 0.060157 0.023719 0.680315
O O4 0.352968 0.878057 0.362441
O O5 0.403249 0.635451 0.717736
O O6 0.569532 0.318054 0.433947
O O7 0.503183 0.695279 0.840522
O O8 0.450125 0.166909 0.940357
O O9 0.344690 0.084644 0.804150
O O10 0.500000 0.500000 0.000000
O O11 0.173920 0.933434 0.199018
O O12 0.164685 0.766915 0.935391
O O13 0.000000 0.500000 0.000000
O O14 0.289581 0.871545 0.210481
O O15 0.378018 0.425710 0.883787
O O16 0.240490 0.334554 0.532473
O O17 0.000000 0.000000 0.500000
O O18 0.500000 0.000000 0.500000
#
# Coordination Sequence:
#
# PCOD9072745 Si02
#       8
#     2   2   2   2   2   2   2   2
#     4  10  18  34  57  79 110 147 178 224 285 324
#     4  10  20  37  51  76 112 155 185 221 266 322
#     4   9  17  30  50  86 110 127 181 242 282 318
#     4  12  20  37  54  80 115 150 181 222 271 324
#     4  10  18  31  50  76 110 142 173 223 277 321
#     4  11  23  36  52  76 117 152 191 220 256 326
#     4  12  22  33  54  82 114 149 180 219 271 326
#     4   8  16  29  50  76 104 128 174 230 279 314
#
# _framework density 21.934539000000001
#
# number of rings (size 3 to 8) (size 9 to 14) (size 15 to 20)
#    0.000    1.750    3.750    2.250    0.000    0.500 
#    2.250    0.000    0.000    0.000    0.000   33.250 
#    0.000    0.000    0.000    0.000    0.000    0.000 
#
# Total GULP energy -89176.534505 kJ/mol
# GULP energy per Si atom -5573.533407 kJ/mol
# Density = 2.188461 g / cm^3
# Si number density = 21.934539 Si / 1000 Ang^3
#
#
#
# Elastic Constant Matrix: (Units=GPa)
#
#
# Indices 1 2 3 4 5 6 
#
# 1 160.6816 26.5713 34.3949 -6.9492 17.7929 -22.4384
# 2 26.5713 32.5943 14.4789 -6.4774 -1.4376 2.1938
# 3 34.3949 14.4789 108.2141 -6.6971 4.1004 -4.2263
# 4 -6.9492 -6.4774 -6.6971 28.0290 -8.2371 0.5762
# 5 17.7929 -1.4376 4.1004 -8.2371 51.1768 -2.1574
# 6 -22.4384 2.1938 -4.2263 0.5762 -2.1574 25.0558
#
#
#
# Elastic Compliance Matrix: (Units=1/GPa)
#
#
# Indices 1 2 3 4 5 6 
#
# 1 0.009349 -0.007848 -0.001528 -0.000960 -0.003142 0.008554
# 2 -0.007848 0.041103 -0.003095 0.008520 0.005042 -0.010911
# 3 -0.001528 -0.003095 0.010250 0.001301 -0.000143 0.000589
# 4 -0.000960 0.008520 0.001301 0.039751 0.006795 -0.001715
# 5 -0.003142 0.005042 -0.000143 0.006795 0.021814 -0.001558
# 6 0.008554 -0.010911 0.000589 -0.001715 -0.001558 0.048531
#
#
# Mechanical properties :
#
#
# Convention : Reuss Voigt Hill
#
# Bulk Modulus (GPa) = 27.96432 50.26446 39.11439
# Shear Modulus (GPa) = 24.07795 35.92197 29.99996
#
# Velocity S-wave (km/s) = 3.31678 4.05123 3.70226
# Velocity P-wave (km/s) = 5.23877 6.69692 6.01221
#
# Compressibility (1/GPa) = 0.03575985
#
# Stress axis : x y z
#
# Youngs Moduli (GPa) = 106.96052 24.32931 97.56493
#
# Poissons Ratio (x) = 0.19094 0.14906
# Poissons Ratio (y) = 0.83943 0.30196
# Poissons Ratio (z) = 0.16341 0.07530
#
# Static dielectric constant tensor:
#      x y z
#    x 1.842940 -0.028460 0.054120 
#    y -0.028460 1.894560 0.011360 
#    z 0.054120 0.011360 1.854730 
# 
# From -- ./inp_files/497877.got.cif
#   From: 2010.05.17/outbox.cif.g08.bks.cpg/sg2_249_cif.got.tgz:497877.got - 2010.06.03 11:33:40.
