data_PCOD9072791
_publ_section_title
;
Structure prediction by ZEFSAII (Michael W. Deem and Ramdas Pophale) SiO2 
 PCOD9072791
Probable space group: P -1
;
_chemical_formula_sum "Si O2"
_cell_formula_units_Z 14
_cell_length_a 12.000000
_cell_length_b 9.000000
_cell_length_c 9.000000
_cell_angle_alpha 70.000000
_cell_angle_beta 50.000000
_cell_angle_gamma 70.000000
_cell_volume 689.539475
_symmetry_space_group_name_H-M "P -1"
_symmetry_group_IT_number 2
_symmetry_cell_setting 'triclinic'
loop_
_space_group_symop_operation_xyz
x,y,z
-x,-y,-z
loop_
_atom_site_type_symbol
_atom_site_label
_atom_site_fract_x
_atom_site_fract_y
_atom_site_fract_z
Si Si1 0.662989 0.374495 0.722568
Si Si2 0.243249 0.130421 0.563313
Si Si3 0.852064 0.484616 0.946561
Si Si4 0.199393 0.448575 0.688172
Si Si5 0.938368 0.110033 0.659511
Si Si6 0.159382 0.900589 0.942546
Si Si7 0.621262 0.688457 0.857985
O O1 0.692583 0.436861 0.510838
O O2 0.821848 0.266072 0.658098
O O3 0.625222 0.539683 0.791300
O O4 0.527869 0.286743 0.921974
O O5 0.241645 0.273766 0.635496
O O6 0.351446 0.164269 0.322893
O O7 0.084897 0.145307 0.607755
O O8 0.261915 0.969350 0.706539
O O9 0.801958 0.537849 0.138003
O O10 0.831950 0.295042 0.006009
O O11 0.756743 0.611639 0.874686
O O12 0.025221 0.495426 0.777729
O O13 0.840973 0.048598 0.899405
O O14 0.000000 0.000000 0.500000
O O15 0.000000 0.000000 0.000000
#
# Coordination Sequence:
#
# PCOD9072791 Si02
#       7
#     2   2   2   2   2   2   2
#     4  10  21  38  60  89 122 158 206 244 303 352
#     4  10  21  40  60  88 124 157 199 249 306 354
#     4  11  20  36  65  92 118 154 206 253 303 350
#     4  10  21  34  64  90 118 152 209 252 296 348
#     4  11  22  36  64  90 120 157 200 249 303 356
#     4  10  20  37  57  90 124 153 191 255 306 351
#     4  10  21  40  62  85 122 165 200 248 295 366
#
# _framework density 20.303405999999999
#
# number of rings (size 3 to 8) (size 9 to 14) (size 15 to 20)
#    0.000    1.714    4.286    0.857    4.000    4.000 
#    0.000    1.429    0.000    0.000    0.000    0.000 
#    0.000    0.000    0.000    0.000    0.000    0.000 
#
# Total GULP energy -77935.526140 kJ/mol
# GULP energy per Si atom -5566.823296 kJ/mol
# Density = 2.025719 g / cm^3
# Si number density = 20.303406 Si / 1000 Ang^3
#
#
#
# Elastic Constant Matrix: (Units=GPa)
#
#
# Indices 1 2 3 4 5 6 
#
# 1 19.6894 2.5152 25.7168 -1.9205 15.2665 7.0873
# 2 2.5152 54.3651 30.5157 -1.8596 9.7052 4.1912
# 3 25.7168 30.5157 184.4894 -18.0960 9.1003 7.6708
# 4 -1.9205 -1.8596 -18.0960 35.8288 1.5802 5.9384
# 5 15.2665 9.7052 9.1003 1.5802 34.2768 1.0312
# 6 7.0873 4.1912 7.6708 5.9384 1.0312 20.6783
#
#
#
# Elastic Compliance Matrix: (Units=1/GPa)
#
#
# Indices 1 2 3 4 5 6 
#
# 1 0.128691 0.016280 -0.015149 0.009517 -0.057090 -0.041673
# 2 0.016280 0.023359 -0.005039 0.001451 -0.012346 -0.008246
# 3 -0.015149 -0.005039 0.008231 0.002469 0.005810 0.002161
# 4 0.009517 0.001451 0.002469 0.032248 -0.006388 -0.013415
# 5 -0.057090 -0.012346 0.005810 -0.006388 0.056279 0.018942
# 6 -0.041673 -0.008246 0.002161 -0.013415 0.018942 0.066420
#
#
# Mechanical properties :
#
#
# Convention : Reuss Voigt Hill
#
# Bulk Modulus (GPa) = 6.55894 41.78212 24.17053
# Shear Modulus (GPa) = 13.37375 31.47652 22.42514
#
# Velocity S-wave (km/s) = 2.56929 3.94167 3.32701
# Velocity P-wave (km/s) = 3.46975 6.42956 5.16616
#
# Compressibility (1/GPa) = 0.15246364
#
# Stress axis : x y z
#
# Youngs Moduli (GPa) = 7.77057 42.81080 121.48755
#
# Poissons Ratio (x) = -0.69694 1.84044
# Poissons Ratio (y) = -0.12650 0.61214
# Poissons Ratio (z) = 0.11772 0.21571
#
# Static dielectric constant tensor:
#      x y z
#    x 1.756150 0.007700 -0.010060 
#    y 0.007700 1.719340 -0.053340 
#    z -0.010060 -0.053340 1.808950 
# 
# From -- ./inp_files/180259.got.cif
#   From: 2010.05.17/outbox.ucp.g08.bks.cvg/sg2_91_cif.got.tgz:180259.got - 2010.06.11 11:32:03.
