data_PCOD9072557
_publ_section_title
;
Structure prediction by ZEFSAII (Michael W. Deem and Ramdas Pophale) SiO2 
 PCOD9072557
Probable space group: P -1
;
_chemical_formula_sum "Si O2"
_cell_formula_units_Z 14
_cell_length_a 13.736765
_cell_length_b 14.590327
_cell_length_c 5.131841
_cell_angle_alpha 66.978676
_cell_angle_beta 69.513183
_cell_angle_gamma 62.329712
_cell_volume 820.284103
_symmetry_space_group_name_H-M "P -1"
_symmetry_group_IT_number 2
_symmetry_cell_setting 'triclinic'
loop_
_space_group_symop_operation_xyz
x,y,z
-x,-y,-z
loop_
_atom_site_type_symbol
_atom_site_label
_atom_site_fract_x
_atom_site_fract_y
_atom_site_fract_z
Si Si1 0.950366 0.644637 0.115212
Si Si2 0.901121 0.432688 0.427632
Si Si3 0.738212 0.852906 0.213827
Si Si4 0.534221 0.616128 0.118574
Si Si5 0.529476 0.834985 0.653699
Si Si6 0.355614 0.513046 0.345191
Si Si7 0.641499 0.972669 0.659798
O O1 0.038635 0.607610 0.309410
O O2 0.895673 0.554164 0.251478
O O3 0.853737 0.759299 0.134778
O O4 0.018256 0.638282 0.794197
O O5 0.776421 0.435199 0.540379
O O6 0.643361 0.802319 0.412055
O O7 0.735941 0.913885 0.419162
O O8 0.692507 0.939830 0.930889
O O9 0.419578 0.594370 0.234140
O O10 0.587350 0.581173 0.391664
O O11 0.518134 0.735304 0.917856
O O12 0.616498 0.536525 0.914668
O O13 0.550717 0.916466 0.753026
O O14 0.424586 0.904367 0.495993
#
# Coordination Sequence:
#
# PCOD9072557 Si02
#       7
#     2   2   2   2   2   2   2
#     4  10  20  30  48  70  90 132 159 189 250 276
#     4  10  20  32  46  68  98 120 165 202 225 287
#     4  10  18  31  46  71 100 125 154 195 240 294
#     4  10  21  32  54  71  98 132 164 186 247 284
#     4   9  20  30  50  72 102 125 155 197 242 291
#     4  10  21  36  47  75  98 130 164 200 225 293
#     4   9  20  29  47  73 104 120 158 193 247 285
#
# _framework density 17.067257000000001
#
# number of rings (size 3 to 8) (size 9 to 14) (size 15 to 20)
#    0.857    1.429    0.000    3.000    4.000    1.143 
#    0.000    0.000    0.000    0.000    0.000    6.000 
#    0.000    0.000    0.000    0.000    0.000    0.000 
#
# Total GULP energy -78052.418566 kJ/mol
# GULP energy per Si atom -5575.172755 kJ/mol
# Density = 1.702841 g / cm^3
# Si number density = 17.067257 Si / 1000 Ang^3
#
#
#
# Elastic Constant Matrix: (Units=GPa)
#
#
# Indices 1 2 3 4 5 6 
#
# 1 36.0696 12.8152 17.0899 5.3987 -12.2084 -10.1672
# 2 12.8152 40.9331 4.1901 -1.3256 -17.6335 -11.1190
# 3 17.0899 4.1901 67.8756 -2.0094 -0.4228 6.4576
# 4 5.3987 -1.3256 -2.0094 34.4982 0.8066 -1.2017
# 5 -12.2084 -17.6335 -0.4228 0.8066 18.0379 7.6321
# 6 -10.1672 -11.1190 6.4576 -1.2017 7.6321 14.4592
#
#
#
# Elastic Compliance Matrix: (Units=1/GPa)
#
#
# Indices 1 2 3 4 5 6 
#
# 1 0.054673 0.006060 -0.017605 -0.008763 0.027876 0.035524
# 2 0.006060 0.046279 -0.006166 0.000280 0.040108 0.021457
# 3 -0.017605 -0.006166 0.021706 0.003199 -0.008169 -0.022237
# 4 -0.008763 0.000280 0.003199 0.030651 -0.006322 -0.001490
# 5 0.027876 0.040108 -0.008169 -0.006322 0.117091 -0.008238
# 6 0.035524 0.021457 -0.022237 -0.001490 -0.008238 0.124795
#
#
# Mechanical properties :
#
#
# Convention : Reuss Voigt Hill
#
# Bulk Modulus (GPa) = 11.46322 23.67431 17.56877
# Shear Modulus (GPa) = 10.87676 20.78461 15.83068
#
# Velocity S-wave (km/s) = 2.52720 3.49349 3.04887
# Velocity P-wave (km/s) = 3.90470 5.49308 4.76554
#
# Compressibility (1/GPa) = 0.08723549
#
# Stress axis : x y z
#
# Youngs Moduli (GPa) = 18.29069 21.60785 46.07115
#
# Poissons Ratio (x) = -0.13094 0.81109
# Poissons Ratio (y) = -0.11084 0.28407
# Poissons Ratio (z) = 0.32201 0.13323
#
# Static dielectric constant tensor:
#      x y z
#    x 1.565620 0.011140 0.012560 
#    y 0.011140 1.583070 0.021690 
#    z 0.012560 0.021690 1.585960 
# 
# From -- ./inp_files/96776.got.cif
#   From: 2010.05.17/outbox.cif.g08.bks.cpg/sg2_49_cif.got.tgz:96776.got - 2010.06.03 11:33:40.
