data_PCOD9072333
_publ_section_title
;
Structure prediction by ZEFSAII (Michael W. Deem and Ramdas Pophale) SiO2 
 PCOD9072333
Probable space group: P -1
;
_chemical_formula_sum "Si O2"
_cell_formula_units_Z 14
_cell_length_a 9.756410
_cell_length_b 7.025395
_cell_length_c 9.027538
_cell_angle_alpha 75.639627
_cell_angle_beta 102.888464
_cell_angle_gamma 121.915606
_cell_volume 505.629434
_symmetry_space_group_name_H-M "P -1"
_symmetry_group_IT_number 2
_symmetry_cell_setting 'triclinic'
loop_
_space_group_symop_operation_xyz
x,y,z
-x,-y,-z
loop_
_atom_site_type_symbol
_atom_site_label
_atom_site_fract_x
_atom_site_fract_y
_atom_site_fract_z
Si Si1 0.255821 0.498797 0.985162
Si Si2 0.309411 0.772566 0.674071
Si Si3 0.139230 0.169290 0.259219
Si Si4 0.322733 0.388918 0.550070
Si Si5 0.906358 0.261678 0.604112
Si Si6 0.670311 0.032372 0.810581
Si Si7 0.387797 0.224542 0.878257
O O1 0.214524 0.633926 0.825616
O O2 0.330612 0.378972 0.922779
O O3 0.118284 0.315303 0.096467
O O4 0.416026 0.660853 0.091355
O O5 0.319103 0.589333 0.603197
O O6 0.227883 0.873830 0.528482
O O7 0.511134 0.045524 0.264762
O O8 0.189803 0.287756 0.407019
O O9 0.017366 0.897074 0.304592
O O10 0.289823 0.147317 0.229677
O O11 0.500000 0.500000 0.500000
O O12 0.321085 0.212248 0.703098
O O13 0.810982 0.260860 0.728939
O O14 0.000000 0.500000 0.500000
O O15 0.681154 0.995971 0.992825
#
# Coordination Sequence:
#
# PCOD9072333 Si02
#       7
#     2   2   2   2   2   2   2
#     4   8  13  26  46  75  96 126 158 198 242 295
#     4  10  18  30  55  79  99 123 165 208 249 295
#     4   9  17  29  51  74 101 127 157 204 251 289
#     4  11  15  25  50  85 105 119 156 210 259 286
#     4  10  21  36  51  69  98 139 174 201 237 293
#     4   8  16  30  52  73  97 130 164 197 243 295
#     4   8  13  23  45  75 103 125 149 198 254 293
#
# _framework density 27.688264
#
# number of rings (size 3 to 8) (size 9 to 14) (size 15 to 20)
#    0.857    2.000    2.857    2.143    0.000    0.000 
#    0.000    1.429    3.143    3.429    0.000    0.000 
#    0.000    0.000    0.000    0.000    0.000    0.000 
#
# Total GULP energy -78243.297587 kJ/mol
# GULP energy per Si atom -5588.806970 kJ/mol
# Density = 2.762524 g / cm^3
# Si number density = 27.688264 Si / 1000 Ang^3
#
#
#
# Elastic Constant Matrix: (Units=GPa)
#
#
# Indices 1 2 3 4 5 6 
#
# 1 67.6362 16.5715 32.6478 -8.5831 -0.1770 6.7854
# 2 16.5715 85.8851 30.0965 2.2557 -26.5558 -16.4264
# 3 32.6478 30.0965 221.2457 -43.4678 -19.2760 8.6309
# 4 -8.5831 2.2557 -43.4678 51.8001 8.3879 -16.2326
# 5 -0.1770 -26.5558 -19.2760 8.3879 23.5909 -7.6484
# 6 6.7854 -16.4264 8.6309 -16.2326 -7.6484 31.4144
#
#
#
# Elastic Compliance Matrix: (Units=1/GPa)
#
#
# Indices 1 2 3 4 5 6 
#
# 1 0.020594 -0.012561 -0.002471 0.000543 -0.021126 -0.015200
# 2 -0.012561 0.037330 -0.000260 -0.001811 0.053511 0.034396
# 3 -0.002471 -0.000260 0.006095 0.004778 0.003644 0.002079
# 4 0.000543 -0.001811 0.004778 0.027585 -0.004439 0.010796
# 5 -0.021126 0.053511 0.003644 -0.004439 0.126489 0.060044
# 6 -0.015200 0.034396 0.002079 0.010796 0.060044 0.072727
#
#
# Mechanical properties :
#
#
# Convention : Reuss Voigt Hill
#
# Bulk Modulus (GPa) = 29.90935 59.26651 44.58793
# Shear Modulus (GPa) = 15.03533 41.05785 28.04659
#
# Velocity S-wave (km/s) = 2.33281 3.85497 3.18613
# Velocity P-wave (km/s) = 4.25225 6.42385 5.44736
#
# Compressibility (1/GPa) = 0.03343436
#
# Stress axis : x y z
#
# Youngs Moduli (GPa) = 48.55806 26.78808 164.06960
#
# Poissons Ratio (x) = 0.33649 0.40542
# Poissons Ratio (y) = 0.60995 0.04267
# Poissons Ratio (z) = 0.11999 0.00697
#
# Static dielectric constant tensor:
#      x y z
#    x 2.181740 0.001750 -0.030880 
#    y 0.001750 2.325160 -0.076330 
#    z -0.030880 -0.076330 2.139090 
# 
# From -- ./inp_files/324510.got.cif
#   From: 2010.05.17/outbox.cif.g08.bks.cpg/sg2_163_cif.got.tgz:324510.got - 2010.06.03 11:33:40.
