data_PCOD9072992
_publ_section_title
;
Structure prediction by ZEFSAII (Michael W. Deem and Ramdas Pophale) SiO2 
 PCOD9072992
Probable space group: P -1
;
_chemical_formula_sum "Si O2"
_cell_formula_units_Z 16
_cell_length_a 9.000000
_cell_length_b 18.000000
_cell_length_c 12.000000
_cell_angle_alpha 140.000000
_cell_angle_beta 40.000000
_cell_angle_gamma 140.000000
_cell_volume 723.717541
_symmetry_space_group_name_H-M "P -1"
_symmetry_group_IT_number 2
_symmetry_cell_setting 'triclinic'
loop_
_space_group_symop_operation_xyz
x,y,z
-x,-y,-z
loop_
_atom_site_type_symbol
_atom_site_label
_atom_site_fract_x
_atom_site_fract_y
_atom_site_fract_z
Si Si1 0.980037 0.732826 0.250886
Si Si2 0.796096 0.343600 0.189939
Si Si3 0.523978 0.766094 0.537503
Si Si4 0.309077 0.785383 0.350080
Si Si5 0.285038 0.533575 0.824123
Si Si6 0.730842 0.079221 0.253322
Si Si7 0.298743 0.552721 0.225021
Si Si8 0.309362 0.192249 0.999978
O O1 0.830041 0.817322 0.413025
O O2 0.730040 0.601306 0.284008
O O3 0.162768 0.774440 0.303319
O O4 0.109156 0.714614 0.039427
O O5 0.579261 0.258209 0.303255
O O6 0.709954 0.437811 0.276578
O O7 0.034721 0.424116 0.226212
O O8 0.452297 0.874751 0.653348
O O9 0.391485 0.641575 0.384857
O O10 0.278847 0.881160 0.566061
O O11 0.235047 0.646063 0.285630
O O12 0.602931 0.822959 0.191520
O O13 0.501800 0.664016 0.901959
O O14 0.000000 0.500000 0.000000
O O15 0.676063 0.931772 0.092990
O O16 0.019711 0.167615 0.149756
O O17 0.500000 0.500000 0.000000
#
# Coordination Sequence:
#
# PCOD9072992 Si02
#       8
#     2   2   2   2   2   2   2   2
#     4  11  22  40  66 102 131 163 217 272 330 387
#     4  11  21  38  59  92 132 172 209 257 336 375
#     4  11  26  39  61  95 137 169 217 262 322 397
#     4  11  22  42  71  94 129 174 221 268 322 390
#     4  10  20  39  68  99 123 170 215 267 331 380
#     4  10  27  44  64 101 125 178 224 261 322 384
#     4  11  22  38  60  95 139 167 210 267 326 394
#     4  11  22  45  72  89 133 169 225 273 314 386
#
# _framework density 22.108073000000001
#
# number of rings (size 3 to 8) (size 9 to 14) (size 15 to 20)
#    0.000    1.250    5.000    1.500    3.500    2.500 
#    0.000    1.250    0.000    0.000    0.000    0.000 
#    0.000    0.000    0.000    0.000    0.000    0.000 
#
# Total GULP energy -89163.136191 kJ/mol
# GULP energy per Si atom -5572.696012 kJ/mol
# Density = 2.205775 g / cm^3
# Si number density = 22.108073 Si / 1000 Ang^3
#
#
#
# Elastic Constant Matrix: (Units=GPa)
#
#
# Indices 1 2 3 4 5 6 
#
# 1 95.6085 -5.3383 31.1039 -7.2748 -0.9198 -7.3671
# 2 -5.3383 50.1324 1.4988 -8.0668 -2.6663 8.8985
# 3 31.1039 1.4988 87.8156 -15.9041 -4.2022 -7.2775
# 4 -7.2748 -8.0668 -15.9041 31.7102 -4.8485 -1.6922
# 5 -0.9198 -2.6663 -4.2022 -4.8485 39.9763 -2.6507
# 6 -7.3671 8.8985 -7.2775 -1.6922 -2.6507 20.3872
#
#
#
# Elastic Compliance Matrix: (Units=1/GPa)
#
#
# Indices 1 2 3 4 5 6 
#
# 1 0.012076 0.001162 -0.003823 0.001334 0.000290 0.002641
# 2 0.001162 0.022654 -0.000459 0.005561 0.001569 -0.008966
# 3 -0.003823 -0.000459 0.014540 0.006956 0.002580 0.004922
# 4 0.001334 0.005561 0.006956 0.037905 0.006026 0.004468
# 5 0.000290 0.001569 0.002580 0.006026 0.026412 0.004275
# 6 0.002641 -0.008966 0.004922 0.004468 0.004275 0.056602
#
#
# Mechanical properties :
#
#
# Convention : Reuss Voigt Hill
#
# Bulk Modulus (GPa) = 23.23941 32.00946 27.62444
# Shear Modulus (GPa) = 26.20925 32.16756 29.18841
#
# Velocity S-wave (km/s) = 3.44685 3.81860 3.63748
# Velocity P-wave (km/s) = 5.13572 5.82687 5.49218
#
# Compressibility (1/GPa) = 0.04303036
#
# Stress axis : x y z
#
# Youngs Moduli (GPa) = 82.81218 44.14156 68.77357
#
# Poissons Ratio (x) = -0.05127 0.26290
# Poissons Ratio (y) = -0.09619 0.03156
# Poissons Ratio (z) = 0.31656 0.02026
#
# Static dielectric constant tensor:
#      x y z
#    x 1.891610 -0.055440 -0.097110 
#    y -0.055440 1.928940 0.070070 
#    z -0.097110 0.070070 1.887480 
# 
# From -- ./inp_files/403323.got.cif
#   From: 2010.05.17/outbox.ucp.g08.bks.cvg/sg2_202_cif.got.tgz:403323.got - 2010.06.11 11:32:03.
