data_PCOD9072646
_publ_section_title
;
Structure prediction by ZEFSAII (Michael W. Deem and Ramdas Pophale) SiO2 
 PCOD9072646
Probable space group: P -1
;
_chemical_formula_sum "Si O2"
_cell_formula_units_Z 16
_cell_length_a 9.296084
_cell_length_b 10.411440
_cell_length_c 11.883139
_cell_angle_alpha 121.817555
_cell_angle_beta 129.896937
_cell_angle_gamma 43.307318
_cell_volume 601.217403
_symmetry_space_group_name_H-M "P -1"
_symmetry_group_IT_number 2
_symmetry_cell_setting 'triclinic'
loop_
_space_group_symop_operation_xyz
x,y,z
-x,-y,-z
loop_
_atom_site_type_symbol
_atom_site_label
_atom_site_fract_x
_atom_site_fract_y
_atom_site_fract_z
Si Si1 0.179462 0.152260 0.472397
Si Si2 0.234045 0.826192 0.749045
Si Si3 0.726474 0.359893 0.974158
Si Si4 0.204412 0.271237 0.204825
Si Si5 0.583941 0.092616 0.745020
Si Si6 0.346259 0.223277 0.004802
Si Si7 0.615392 0.226619 0.458232
Si Si8 0.911674 0.274594 0.782183
O O1 0.313237 0.229085 0.631516
O O2 0.905495 0.263817 0.362599
O O3 0.295000 0.052276 0.365503
O O4 0.251790 0.980166 0.513920
O O5 0.452305 0.751370 0.906276
O O6 0.322723 0.801577 0.654572
O O7 0.054213 0.051602 0.782048
O O8 0.713343 0.184848 0.876223
O O9 0.778539 0.380419 0.879012
O O10 0.500000 0.500000 0.000000
O O11 0.948973 0.332721 0.131699
O O12 0.226283 0.315057 0.107719
O O13 0.338698 0.327896 0.375339
O O14 0.371726 0.042136 0.192542
O O15 0.119679 0.284787 0.847408
O O16 0.500000 0.000000 0.000000
O O17 0.719653 0.321661 0.616058
#
# Coordination Sequence:
#
# PCOD9072646 Si02
#       8
#     2   2   2   2   2   2   2   2
#     4   9  16  26  48  72 102 128 155 200 264 280
#     4   9  14  25  45  75 101 118 159 209 257 288
#     4  11  21  34  48  68 102 144 168 190 240 302
#     4   9  19  31  49  76  97 126 165 213 248 282
#     4  10  18  31  49  71 104 131 162 206 249 287
#     4   8  15  25  43  72 101 122 152 201 259 289
#     4   9  15  27  49  75 100 118 163 210 259 283
#     4   9  15  27  44  66  98 126 156 199 245 281
#
# _framework density 26.612670999999999
#
# number of rings (size 3 to 8) (size 9 to 14) (size 15 to 20)
#    0.000    2.750    2.500    1.875    0.000    1.000 
#    0.000    0.625    0.000    0.000    0.000   39.375 
#    0.000    0.125    0.000    0.000    0.000    0.000 
#
# Total GULP energy -89345.040939 kJ/mol
# GULP energy per Si atom -5584.065059 kJ/mol
# Density = 2.655210 g / cm^3
# Si number density = 26.612671 Si / 1000 Ang^3
#
#
#
# Elastic Constant Matrix: (Units=GPa)
#
#
# Indices 1 2 3 4 5 6 
#
# 1 109.5475 25.1956 58.6984 -24.0361 12.1328 -22.5604
# 2 25.1956 98.1024 61.7655 -5.1795 24.1303 -27.9967
# 3 58.6984 61.7655 165.0244 -49.5551 39.5526 -44.6917
# 4 -24.0361 -5.1795 -49.5551 26.4716 -41.3705 20.9348
# 5 12.1328 24.1303 39.5526 -41.3705 56.3105 -15.6836
# 6 -22.5604 -27.9967 -44.6917 20.9348 -15.6836 43.8069
#
#
#
# Elastic Compliance Matrix: (Units=1/GPa)
#
#
# Indices 1 2 3 4 5 6 
#
# 1 0.011028 0.001469 -0.004448 -0.005670 -0.003013 0.003711
# 2 0.001469 0.008129 -0.000061 0.020840 0.011574 0.000074
# 3 -0.004448 -0.000061 0.009311 -0.011379 -0.011556 0.008470
# 4 -0.005670 0.020840 -0.011379 -0.069884 -0.046756 0.015447
# 5 -0.003013 0.011574 -0.011556 -0.046756 -0.009128 0.013131
# 6 0.003711 0.000074 0.008470 0.015447 0.013131 0.030747
#
#
# Mechanical properties :
#
#
# Convention : Reuss Voigt Hill
#
# Bulk Modulus (GPa) = 44.66510 73.77702 59.22106
# Shear Modulus (GPa) = -799.42533 40.45212 -379.48661
#
# Velocity S-wave (km/s) = -17.35064 3.90299 -11.95432
# Velocity P-wave (km/s) = 19.61054 6.93497 12.97073
#
# Compressibility (1/GPa) = 0.02238884
#
# Stress axis : x y z
#
# Youngs Moduli (GPa) = 90.68014 123.01347 107.39539
#
# Poissons Ratio (x) = -0.18070 0.47765
# Poissons Ratio (y) = -0.13320 0.00657
# Poissons Ratio (z) = 0.40330 0.00752
#
# Static dielectric constant tensor:
#      x y z
#    x 2.127310 0.018820 0.081520 
#    y 0.018820 2.107100 -0.038950 
#    z 0.081520 -0.038950 2.171930 
# 
# From -- ./inp_files/523291.got.cif
#   From: 2010.05.17/outbox.cif.g08.bks.cpg/sg2_262_cif.got.tgz:523291.got - 2010.06.03 11:33:40.
