data_PCOD9072404
_publ_section_title
;
Structure prediction by ZEFSAII (Michael W. Deem and Ramdas Pophale) SiO2 
 PCOD9072404
Probable space group: P -1
;
_chemical_formula_sum "Si O2"
_cell_formula_units_Z 16
_cell_length_a 9.000000
_cell_length_b 15.000000
_cell_length_c 15.000000
_cell_angle_alpha 40.000000
_cell_angle_beta 50.000000
_cell_angle_gamma 80.000000
_cell_volume 759.999475
_symmetry_space_group_name_H-M "P -1"
_symmetry_group_IT_number 2
_symmetry_cell_setting 'triclinic'
loop_
_space_group_symop_operation_xyz
x,y,z
-x,-y,-z
loop_
_atom_site_type_symbol
_atom_site_label
_atom_site_fract_x
_atom_site_fract_y
_atom_site_fract_z
Si Si1 0.627185 0.325165 0.432688
Si Si2 0.094094 0.120929 0.702640
Si Si3 0.052586 0.315122 0.299266
Si Si4 0.975701 0.992851 0.654409
Si Si5 0.442174 0.158939 0.811243
Si Si6 0.404048 0.815180 0.068176
Si Si7 0.190001 0.455802 0.341923
Si Si8 0.242555 0.399734 0.977838
O O1 0.342445 0.198177 0.602232
O O2 0.581541 0.318582 0.562229
O O3 0.778270 0.250200 0.427957
O O4 0.773108 0.502869 0.175169
O O5 0.049148 0.267603 0.596636
O O6 0.129893 0.088239 0.612676
O O7 0.846118 0.933110 0.983005
O O8 0.115889 0.404409 0.305483
O O9 0.223648 0.448317 0.049100
O O10 0.069547 0.155318 0.425291
O O11 0.958827 0.820623 0.776743
O O12 0.686150 0.905133 0.855148
O O13 0.589594 0.219124 0.802316
O O14 0.405758 0.982459 0.927248
O O15 0.202200 0.620189 0.246177
O O16 0.478907 0.537802 0.181549
#
# Coordination Sequence:
#
# PCOD9072404 Si02
#       8
#     2   2   2   2   2   2   2   2
#     4  11  22  38  54  86 119 150 182 235 283 332
#     4   9  20  37  57  80 117 150 182 231 286 334
#     4  11  20  37  62  83 112 153 190 232 278 326
#     4   9  18  38  59  84 109 149 193 231 272 337
#     4  10  19  36  60  81 114 152 184 228 288 334
#     4   9  18  35  60  88 109 140 193 240 271 332
#     4   9  20  37  59  87 111 143 192 236 274 337
#     4  10  21  38  59  83 117 149 187 233 283 331
#
# _framework density 21.052645999999999
#
# number of rings (size 3 to 8) (size 9 to 14) (size 15 to 20)
#    0.000    2.250    1.250    1.500    1.750    0.500 
#    2.250   10.625    0.000    0.000    0.000    0.000 
#    0.000    0.000    0.000    0.000    0.000    0.000 
#
# Total GULP energy -89139.301626 kJ/mol
# GULP energy per Si atom -5571.206352 kJ/mol
# Density = 2.100473 g / cm^3
# Si number density = 21.052646 Si / 1000 Ang^3
#
#
#
# Elastic Constant Matrix: (Units=GPa)
#
#
# Indices 1 2 3 4 5 6 
#
# 1 72.6411 19.5383 19.2576 -9.0029 29.1630 5.9058
# 2 19.5383 59.1459 17.7045 -18.2335 17.1868 11.5934
# 3 19.2576 17.7045 78.7561 4.5997 36.0324 16.0621
# 4 -9.0029 -18.2335 4.5997 32.6105 8.4828 -1.6593
# 5 29.1630 17.1868 36.0324 8.4828 43.5531 10.9140
# 6 5.9058 11.5934 16.0621 -1.6593 10.9140 22.2445
#
#
#
# Elastic Compliance Matrix: (Units=1/GPa)
#
#
# Indices 1 2 3 4 5 6 
#
# 1 0.022201 0.000864 0.002336 0.011643 -0.020081 0.002690
# 2 0.000864 0.027670 -0.000002 0.018890 -0.013520 -0.006607
# 3 0.002336 -0.000002 0.021810 0.001915 -0.018146 -0.007322
# 4 0.011643 0.018890 0.001915 0.051519 -0.027643 0.003086
# 5 -0.020081 -0.013520 -0.018146 -0.027643 0.064158 -0.008060
# 6 0.002690 -0.006607 -0.007322 0.003086 -0.008060 0.057156
#
#
# Mechanical properties :
#
#
# Convention : Reuss Voigt Hill
#
# Bulk Modulus (GPa) = 12.80781 35.94933 24.37857
# Shear Modulus (GPa) = 18.92923 29.95114 24.44019
#
# Velocity S-wave (km/s) = 3.00182 3.77593 3.41091
# Velocity P-wave (km/s) = 4.25575 6.01026 5.20743
#
# Compressibility (1/GPa) = 0.07807739
#
# Stress axis : x y z
#
# Youngs Moduli (GPa) = 45.04352 36.14085 45.85050
#
# Poissons Ratio (x) = -0.03124 -0.10711
# Poissons Ratio (y) = -0.03893 0.00008
# Poissons Ratio (z) = -0.10522 0.00006
#
# Static dielectric constant tensor:
#      x y z
#    x 1.726820 -0.005280 -0.001850 
#    y -0.005280 1.841730 0.023880 
#    z -0.001850 0.023880 1.831850 
# 
# From -- ./inp_files/213256.got.cif
#   From: 2010.05.17/outbox.ucp.g08.bks.cvg/sg2_107_cif.got.tgz:213256.got - 2010.06.11 11:32:03.
