data_PCOD9072741
_publ_section_title
;
Structure prediction by ZEFSAII (Michael W. Deem and Ramdas Pophale) SiO2 
 PCOD9072741
Probable space group: P -1
;
_chemical_formula_sum "Si O2"
_cell_formula_units_Z 16
_cell_length_a 15.000000
_cell_length_b 9.000000
_cell_length_c 12.000000
_cell_angle_alpha 90.000000
_cell_angle_beta 30.000000
_cell_angle_gamma 80.000000
_cell_volume 759.581896
_symmetry_space_group_name_H-M "P -1"
_symmetry_group_IT_number 2
_symmetry_cell_setting 'triclinic'
loop_
_space_group_symop_operation_xyz
x,y,z
-x,-y,-z
loop_
_atom_site_type_symbol
_atom_site_label
_atom_site_fract_x
_atom_site_fract_y
_atom_site_fract_z
Si Si1 0.457132 0.992685 0.729348
Si Si2 0.129284 0.257461 0.761463
Si Si3 0.712080 0.482377 0.007439
Si Si4 0.359964 0.317489 0.705206
Si Si5 0.718399 0.239320 0.160719
Si Si6 0.483446 0.859281 0.945960
Si Si7 0.865531 0.567505 0.470677
Si Si8 0.373464 0.637946 0.216535
O O1 0.418463 0.165961 0.723412
O O2 0.681178 0.896401 0.465210
O O3 0.314413 0.927492 0.815229
O O4 0.426160 0.946736 0.889093
O O5 0.186629 0.318447 0.814219
O O6 0.133827 0.378915 0.658211
O O7 0.929811 0.225854 0.971616
O O8 0.915271 0.459976 0.729495
O O9 0.715581 0.538463 0.129729
O O10 0.687284 0.316421 0.068087
O O11 0.526250 0.607851 0.151749
O O12 0.539530 0.321786 0.437318
O O13 0.689968 0.715307 0.711830
O O14 0.346622 0.789727 0.167614
O O15 0.500000 0.000000 0.000000
O O16 0.804770 0.412732 0.553854
O O17 0.500000 0.500000 0.000000
#
# Coordination Sequence:
#
# PCOD9072741 Si02
#       8
#     2   2   2   2   2   2   2   2
#     4  10  21  38  55  80 114 148 187 229 274 325
#     4   9  19  36  58  83 114 147 183 223 274 331
#     4  11  22  37  57  86 115 143 185 230 275 329
#     4  11  22  34  56  86 116 146 184 228 268 327
#     4  10  20  36  60  82 113 153 181 220 276 333
#     4  10  20  38  61  82 109 146 188 235 281 322
#     4   9  21  38  59  83 112 146 182 227 278 334
#     4  10  20  37  61  80 107 148 185 228 279 329
#
# _framework density 21.064219999999999
#
# number of rings (size 3 to 8) (size 9 to 14) (size 15 to 20)
#    0.000    2.000    0.000    5.625    0.000    7.000 
#    0.000    5.000    0.000   15.750    0.000    0.000 
#    0.000    0.000    0.000    0.000    0.000    0.000 
#
# Total GULP energy -89088.759849 kJ/mol
# GULP energy per Si atom -5568.047491 kJ/mol
# Density = 2.101628 g / cm^3
# Si number density = 21.064220 Si / 1000 Ang^3
#
#
#
# Elastic Constant Matrix: (Units=GPa)
#
#
# Indices 1 2 3 4 5 6 
#
# 1 86.3011 18.0103 32.6336 -2.7835 -1.5753 7.9040
# 2 18.0103 90.9442 39.7959 -37.6759 6.3734 -7.6768
# 3 32.6336 39.7959 107.9356 -39.7792 -17.3042 8.1555
# 4 -2.7835 -37.6759 -39.7792 27.1427 9.2581 1.5687
# 5 -1.5753 6.3734 -17.3042 9.2581 24.9563 1.5247
# 6 7.9040 -7.6768 8.1555 1.5687 1.5247 26.3724
#
#
#
# Elastic Compliance Matrix: (Units=1/GPa)
#
#
# Indices 1 2 3 4 5 6 
#
# 1 0.023529 -0.028639 -0.019367 -0.073167 0.022903 -0.006371
# 2 -0.028639 0.090086 0.035368 0.198561 -0.074953 0.016392
# 3 -0.019367 0.035368 0.040834 0.115476 -0.024660 -0.001971
# 4 -0.073167 0.198561 0.115476 0.532277 -0.174089 0.022422
# 5 0.022903 -0.074953 -0.024660 -0.174089 0.109181 -0.017014
# 6 -0.006371 0.016392 -0.001971 0.022422 -0.017014 0.044859
#
#
# Mechanical properties :
#
#
# Convention : Reuss Voigt Hill
#
# Bulk Modulus (GPa) = 7.74156 51.78449 29.76303
# Shear Modulus (GPa) = 5.49994 28.67701 17.08848
#
# Velocity S-wave (km/s) = 1.61762 3.69373 2.85135
# Velocity P-wave (km/s) = 2.67808 6.54439 5.00006
#
# Compressibility (1/GPa) = 0.12917286
#
# Stress axis : x y z
#
# Youngs Moduli (GPa) = 42.50064 11.10046 24.48947
#
# Poissons Ratio (x) = 0.31791 0.47428
# Poissons Ratio (y) = 1.21718 -0.86614
# Poissons Ratio (z) = 0.82310 -0.39260
#
# Static dielectric constant tensor:
#      x y z
#    x 1.729700 0.091610 -0.003900 
#    y 0.091610 1.807250 0.005600 
#    z -0.003900 0.005600 1.752470 
# 
# From -- ./inp_files/337667.got.cif
#   From: 2010.05.17/outbox.ucp.g08.bks.cvg/sg2_169_cif.got.tgz:337667.got - 2010.06.11 11:32:03.
