data_PCOD9072264
_publ_section_title
;
Structure prediction by ZEFSAII (Michael W. Deem and Ramdas Pophale) SiO2 
 PCOD9072264
Probable space group: P -1
;
_chemical_formula_sum "Si O2"
_cell_formula_units_Z 16
_cell_length_a 21.000000
_cell_length_b 9.000000
_cell_length_c 15.000000
_cell_angle_alpha 110.000000
_cell_angle_beta 20.000000
_cell_angle_gamma 120.000000
_cell_volume 757.501203
_symmetry_space_group_name_H-M "P -1"
_symmetry_group_IT_number 2
_symmetry_cell_setting 'triclinic'
loop_
_space_group_symop_operation_xyz
x,y,z
-x,-y,-z
loop_
_atom_site_type_symbol
_atom_site_label
_atom_site_fract_x
_atom_site_fract_y
_atom_site_fract_z
Si Si1 0.205959 0.863751 0.780148
Si Si2 0.307743 0.029407 0.422371
Si Si3 0.653051 0.480520 0.672910
Si Si4 0.299876 0.045080 0.070934
Si Si5 0.590184 0.299868 0.388364
Si Si6 0.146900 0.107691 0.462782
Si Si7 0.030903 0.638412 0.787159
Si Si8 0.315148 0.375025 0.539659
O O1 0.291944 0.784886 0.727077
O O2 0.181564 0.744524 0.699511
O O3 0.364730 0.096298 0.612214
O O4 0.945544 0.774933 0.122416
O O5 0.231256 0.056172 0.430188
O O6 0.391802 0.229729 0.401503
O O7 0.082750 0.828611 0.708915
O O8 0.511067 0.001003 0.169309
O O9 0.690407 0.662880 0.711894
O O10 0.849128 0.451518 0.436945
O O11 0.681615 0.545377 0.545639
O O12 0.430422 0.271684 0.930072
O O13 0.175725 0.004290 0.320530
O O14 0.109895 0.946255 0.222182
O O15 0.562283 0.442095 0.518235
O O16 0.780648 0.461058 0.103982
#
# Coordination Sequence:
#
# PCOD9072264 Si02
#       8
#     2   2   2   2   2   2   2   2
#     4  10  19  33  57  86 118 165 208 253 299 354
#     4  10  23  39  64  92 130 160 200 261 307 360
#     4  10  19  35  62  90 122 158 206 255 301 362
#     4  10  22  42  66  92 122 161 202 250 313 376
#     4  10  19  33  59  86 122 163 211 253 298 355
#     4  10  22  42  66  92 122 161 202 250 313 376
#     4  10  19  37  54  87 124 162 202 253 300 354
#     4  10  19  37  54  87 124 162 202 253 300 354
#
# _framework density 21.122078999999999
#
# number of rings (size 3 to 8) (size 9 to 14) (size 15 to 20)
#    0.000    2.000    2.500    1.500    0.000    6.000 
#    0.000   12.500    0.000   13.500    0.000    0.000 
#    0.000    0.000    0.000    0.000    0.000    0.000 
#
# Total GULP energy -89124.872396 kJ/mol
# GULP energy per Si atom -5570.304525 kJ/mol
# Density = 2.107400 g / cm^3
# Si number density = 21.122079 Si / 1000 Ang^3
#
#
#
# Elastic Constant Matrix: (Units=GPa)
#
#
# Indices 1 2 3 4 5 6 
#
# 1 60.5830 20.8547 24.9056 -4.6597 -17.7687 -15.6336
# 2 20.8547 152.2391 39.8266 -25.0769 -6.2447 -17.3996
# 3 24.9056 39.8266 68.5313 -19.4871 -15.1762 -5.5502
# 4 -4.6597 -25.0769 -19.4871 44.4664 1.3905 -1.1678
# 5 -17.7687 -6.2447 -15.1762 1.3905 28.4085 -6.0189
# 6 -15.6336 -17.3996 -5.5502 -1.1678 -6.0189 30.5600
#
#
#
# Elastic Compliance Matrix: (Units=1/GPa)
#
#
# Indices 1 2 3 4 5 6 
#
# 1 0.028592 0.000262 -0.004560 0.001012 0.019221 0.017773
# 2 0.000262 0.008597 -0.003510 0.003430 0.001012 0.004722
# 3 -0.004560 -0.003510 0.022264 0.007084 0.008264 0.001611
# 4 0.001012 0.003430 0.007084 0.027628 0.005049 0.005807
# 5 0.019221 0.001012 0.008264 0.005049 0.056537 0.023238
# 6 0.017773 0.004722 0.001611 0.005807 0.023238 0.049594
#
#
# Mechanical properties :
#
#
# Convention : Reuss Voigt Hill
#
# Bulk Modulus (GPa) = 22.81108 50.28080 36.54594
# Shear Modulus (GPa) = 22.37750 33.73808 28.05779
#
# Velocity S-wave (km/s) = 3.25843 4.00095 3.64863
# Velocity P-wave (km/s) = 4.99796 6.72309 5.92366
#
# Compressibility (1/GPa) = 0.04383834
#
# Stress axis : x y z
#
# Youngs Moduli (GPa) = 34.97472 116.31984 44.91654
#
# Poissons Ratio (x) = -0.03053 0.20481
# Poissons Ratio (y) = -0.00918 0.15764
# Poissons Ratio (z) = 0.15948 0.40825
#
# Static dielectric constant tensor:
#      x y z
#    x 1.798480 0.019080 0.033640 
#    y 0.019080 1.771380 0.067800 
#    z 0.033640 0.067800 1.848370 
# 
# From -- ./inp_files/540516.got.cif
#   From: 2010.05.17/outbox.ucp.g08.bks.cvg/sg2_271_cif.got.tgz:540516.got - 2010.06.11 11:32:03.
