data_PCOD9072765
_publ_section_title
;
Structure prediction by ZEFSAII (Michael W. Deem and Ramdas Pophale) SiO2 
 PCOD9072765
Probable space group: P -1
;
_chemical_formula_sum "Si O2"
_cell_formula_units_Z 16
_cell_length_a 19.042937
_cell_length_b 22.416121
_cell_length_c 12.518755
_cell_angle_alpha 25.668874
_cell_angle_beta 25.748423
_cell_angle_gamma 19.625951
_cell_volume 726.627760
_symmetry_space_group_name_H-M "P -1"
_symmetry_group_IT_number 2
_symmetry_cell_setting 'triclinic'
loop_
_space_group_symop_operation_xyz
x,y,z
-x,-y,-z
loop_
_atom_site_type_symbol
_atom_site_label
_atom_site_fract_x
_atom_site_fract_y
_atom_site_fract_z
Si Si1 0.761156 0.207695 0.011447
Si Si2 0.301527 0.340227 0.378358
Si Si3 0.673274 0.601913 0.990763
Si Si4 0.367529 0.014512 0.759302
Si Si5 0.124704 0.739016 0.009882
Si Si6 0.700353 0.396759 0.578444
Si Si7 0.690718 0.202460 0.542387
Si Si8 0.027254 0.795819 0.679555
O O1 0.559304 0.223775 0.236948
O O2 0.757307 0.260970 0.051480
O O3 0.734002 0.343697 0.741433
O O4 0.000000 0.000000 0.000000
O O5 0.282913 0.188517 0.669990
O O6 0.168134 0.549518 0.269186
O O7 0.252110 0.385895 0.246181
O O8 0.482742 0.601382 0.223714
O O9 0.879366 0.403926 0.082499
O O10 0.542358 0.800849 0.909643
O O11 0.140911 0.078287 0.923966
O O12 0.500000 0.000000 0.500000
O O13 0.222964 0.746182 0.754741
O O14 0.573558 0.616044 0.382920
O O15 0.919767 0.242190 0.457102
O O16 0.812332 0.186847 0.507741
O O17 0.784554 0.996839 0.717105
#
# Coordination Sequence:
#
# PCOD9072765 Si02
#       8
#     2   2   2   2   2   2   2   2
#     4  11  21  34  55  81 113 148 180 222 279 335
#     4  10  20  35  50  82 112 142 181 220 274 331
#     4   9  16  32  48  72 107 137 181 223 267 322
#     4  10  21  34  54  77 113 148 181 224 276 332
#     4  12  20  35  55  81 117 141 179 232 276 331
#     4  10  19  33  49  79 116 143 183 225 278 331
#     4  10  19  30  52  79 112 144 180 227 285 325
#     4  10  18  31  50  78 111 145 181 229 279 325
#
# _framework density 22.019528999999999
#
# number of rings (size 3 to 8) (size 9 to 14) (size 15 to 20)
#    0.000    1.750    3.750    6.000    0.000    1.000 
#    0.000    0.000    0.000    0.000    0.000   14.875 
#    0.000    0.125    0.000    0.000    0.000    0.000 
#
# Total GULP energy -89301.027409 kJ/mol
# GULP energy per Si atom -5581.314213 kJ/mol
# Density = 2.196941 g / cm^3
# Si number density = 22.019529 Si / 1000 Ang^3
#
#
#
# Elastic Constant Matrix: (Units=GPa)
#
#
# Indices 1 2 3 4 5 6 
#
# 1 70.0792 6.5829 21.8060 1.9991 13.9102 2.1776
# 2 6.5829 137.9169 21.0191 -35.1693 -3.8828 -1.1585
# 3 21.8060 21.0191 45.3165 -17.6883 5.4287 -1.4115
# 4 1.9991 -35.1693 -17.6883 44.3525 3.1925 0.5705
# 5 13.9102 -3.8828 5.4287 3.1925 18.9950 1.7101
# 6 2.1776 -1.1585 -1.4115 0.5705 1.7101 29.1565
#
#
#
# Elastic Compliance Matrix: (Units=1/GPa)
#
#
# Indices 1 2 3 4 5 6 
#
# 1 0.019693 -0.000997 -0.009564 -0.004685 -0.010993 -0.001237
# 2 -0.000997 0.009278 -0.001436 0.006691 0.001901 0.000131
# 3 -0.009564 -0.001436 0.033009 0.012793 -0.005081 0.002303
# 4 -0.004685 0.006691 0.012793 0.033483 -0.004561 0.000847
# 5 -0.010993 0.001901 -0.005081 -0.004561 0.063572 -0.002989
# 6 -0.001237 0.000131 0.002303 0.000847 -0.002989 0.034666
#
#
# Mechanical properties :
#
#
# Convention : Reuss Voigt Hill
#
# Bulk Modulus (GPa) = 26.32503 39.12540 32.72522
# Shear Modulus (GPa) = 21.70545 32.09445 26.89995
#
# Velocity S-wave (km/s) = 3.14305 3.82192 3.49899
# Velocity P-wave (km/s) = 5.01527 6.10600 5.58731
#
# Compressibility (1/GPa) = 0.03798666
#
# Stress axis : x y z
#
# Youngs Moduli (GPa) = 50.77835 107.78279 30.29466
#
# Poissons Ratio (x) = 0.10746 0.28975
# Poissons Ratio (y) = 0.05063 0.04349
# Poissons Ratio (z) = 0.48566 0.15473
#
# Static dielectric constant tensor:
#      x y z
#    x 1.767390 0.040370 0.015280 
#    y 0.040370 1.893730 -0.035910 
#    z 0.015280 -0.035910 1.873060 
# 
# From -- ./inp_files/428954.got.cif
#   From: 2010.05.17/outbox.cif.g08.bks.cpg/sg2_215_cif.got.tgz:428954.got - 2010.06.03 11:33:40.
