data_PCOD9072663
_publ_section_title
;
Structure prediction by ZEFSAII (Michael W. Deem and Ramdas Pophale) SiO2 
 PCOD9072663
Probable space group: P -1
;
_chemical_formula_sum "Si O2"
_cell_formula_units_Z 14
_cell_length_a 21.000000
_cell_length_b 9.000000
_cell_length_c 12.000000
_cell_angle_alpha 60.000000
_cell_angle_beta 30.000000
_cell_angle_gamma 40.000000
_cell_volume 627.666119
_symmetry_space_group_name_H-M "P -1"
_symmetry_group_IT_number 2
_symmetry_cell_setting 'triclinic'
loop_
_space_group_symop_operation_xyz
x,y,z
-x,-y,-z
loop_
_atom_site_type_symbol
_atom_site_label
_atom_site_fract_x
_atom_site_fract_y
_atom_site_fract_z
Si Si1 0.302210 0.708894 0.377472
Si Si2 0.164486 0.797956 0.106431
Si Si3 0.050785 0.557795 0.291874
Si Si4 0.602670 0.888073 0.209240
Si Si5 0.656904 0.865696 0.712238
Si Si6 0.473796 0.741269 0.628365
Si Si7 0.341869 0.496213 0.165513
O O1 0.379586 0.552609 0.433372
O O2 0.354948 0.532861 0.258937
O O3 0.431825 0.739656 0.135366
O O4 0.069346 0.950589 0.637533
O O5 0.189906 0.578172 0.103836
O O6 0.236214 0.733652 0.150506
O O7 0.278142 0.833637 0.859642
O O8 0.000000 0.500000 0.500000
O O9 0.830849 0.825342 0.475404
O O10 0.179781 0.323681 0.094016
O O11 0.570139 0.749459 0.381378
O O12 0.454984 0.024761 0.276766
O O13 0.567698 0.080176 0.275957
O O14 0.769943 0.565526 0.653580
O O15 0.500000 0.000000 0.000000
#
# Coordination Sequence:
#
# PCOD9072663 Si02
#       7
#     2   2   2   2   2   2   2
#     4  10  21  37  62  93 131 166 216 266 325 385
#     4  11  23  40  64  97 132 169 215 271 324 393
#     4  12  25  40  66 100 131 171 215 266 334 387
#     4  11  25  46  67  95 133 171 226 271 318 391
#     4  12  22  39  65  94 133 167 211 268 328 383
#     4  10  25  45  68  94 129 181 219 268 322 383
#     4  10  20  34  58  96 126 168 207 264 330 371
#
# _framework density 22.304852
#
# number of rings (size 3 to 8) (size 9 to 14) (size 15 to 20)
#    0.000    1.143    4.286    1.286    2.000    2.857 
#    0.000    4.286    0.000    0.000    0.000    0.000 
#    0.000    0.000    0.000    0.000    0.000    0.000 
#
# Total GULP energy -78006.310569 kJ/mol
# GULP energy per Si atom -5571.879326 kJ/mol
# Density = 2.225409 g / cm^3
# Si number density = 22.304852 Si / 1000 Ang^3
#
#
#
# Elastic Constant Matrix: (Units=GPa)
#
#
# Indices 1 2 3 4 5 6 
#
# 1 89.0382 10.7268 43.8799 -9.1489 -13.1357 -3.1643
# 2 10.7268 37.6095 29.2485 -13.3988 4.4651 4.2364
# 3 43.8799 29.2485 122.1146 -3.3402 -11.4076 -5.1642
# 4 -9.1489 -13.3988 -3.3402 33.3298 0.2854 -14.4763
# 5 -13.1357 4.4651 -11.4076 0.2854 44.8635 -7.5152
# 6 -3.1643 4.2364 -5.1642 -14.4763 -7.5152 10.4419
#
#
#
# Elastic Compliance Matrix: (Units=1/GPa)
#
#
# Indices 1 2 3 4 5 6 
#
# 1 0.019450 -0.001739 -0.002146 0.028117 0.014328 0.054830
# 2 -0.001739 0.041854 -0.011596 0.003470 -0.012204 -0.027215
# 3 -0.002146 -0.011596 0.014168 0.009511 0.009244 0.030900
# 4 0.028117 0.003470 0.009511 0.154639 0.053686 0.264842
# 5 0.014328 -0.012204 0.009244 0.053686 0.050599 0.124711
# 6 0.054830 -0.027215 0.030900 0.264842 0.124711 0.595633
#
#
# Mechanical properties :
#
#
# Convention : Reuss Voigt Hill
#
# Bulk Modulus (GPa) = 22.46685 46.27472 34.37078
# Shear Modulus (GPa) = 5.42216 28.72085 17.07151
#
# Velocity S-wave (km/s) = 1.56084 3.59228 2.76954
# Velocity P-wave (km/s) = 3.65278 6.16421 5.06657
#
# Compressibility (1/GPa) = 0.04451003
#
# Stress axis : x y z
#
# Youngs Moduli (GPa) = 51.41471 23.89274 70.58102
#
# Poissons Ratio (x) = 0.04154 0.15148
# Poissons Ratio (y) = 0.08939 0.81846
# Poissons Ratio (z) = 0.11035 0.27706
#
# Static dielectric constant tensor:
#      x y z
#    x 1.930950 0.122570 -0.072050 
#    y 0.122570 1.999290 0.019480 
#    z -0.072050 0.019480 1.854420 
# 
# From -- ./inp_files/71460.got.cif
#   From: 2010.05.17/outbox.ucp.g08.bks.cvg/sg2_36_cif.got.tgz:71460.got - 2010.06.11 11:32:03.
