data_PCOD9072161
_publ_section_title
;
Structure prediction by ZEFSAII (Michael W. Deem and Ramdas Pophale) SiO2 
 PCOD9072161
Probable space group: P -1
;
_chemical_formula_sum "Si O2"
_cell_formula_units_Z 16
_cell_length_a 21.000000
_cell_length_b 12.000000
_cell_length_c 9.000000
_cell_angle_alpha 40.000000
_cell_angle_beta 50.000000
_cell_angle_gamma 30.000000
_cell_volume 727.418465
_symmetry_space_group_name_H-M "P -1"
_symmetry_group_IT_number 2
_symmetry_cell_setting 'triclinic'
loop_
_space_group_symop_operation_xyz
x,y,z
-x,-y,-z
loop_
_atom_site_type_symbol
_atom_site_label
_atom_site_fract_x
_atom_site_fract_y
_atom_site_fract_z
Si Si1 0.624503 0.391148 0.626355
Si Si2 0.290987 0.197058 0.527005
Si Si3 0.997597 0.809028 0.867146
Si Si4 0.114340 0.983672 0.509781
Si Si5 0.459425 0.980912 0.237042
Si Si6 0.262641 0.638476 0.206238
Si Si7 0.486482 0.772051 0.904395
Si Si8 0.983849 0.486930 0.365555
O O1 0.516606 0.698003 0.431992
O O2 0.684870 0.382010 0.693193
O O3 0.737672 0.204806 0.528563
O O4 0.579143 0.271893 0.856520
O O5 0.262439 0.430998 0.401359
O O6 0.168429 0.278713 0.667507
O O7 0.321846 0.172225 0.330565
O O8 0.412355 0.918547 0.710580
O O9 0.951460 0.874801 0.697337
O O10 0.099026 0.802051 0.738600
O O11 0.878298 0.059217 0.893516
O O12 0.040538 0.553087 0.115723
O O13 0.043862 0.211216 0.504539
O O14 0.515513 0.037084 0.209834
O O15 0.500000 0.000000 0.000000
O O16 0.369660 0.519292 0.047347
O O17 0.000000 0.500000 0.500000
#
# Coordination Sequence:
#
# PCOD9072161 Si02
#       8
#     2   2   2   2   2   2   2   2
#     4  11  22  38  68  96 131 169 217 267 324 382
#     4  11  21  43  69  93 130 169 224 272 318 387
#     4  10  22  41  70  93 128 173 218 276 323 383
#     4  10  23  43  64  97 128 172 222 269 322 386
#     4  11  25  42  61 100 139 172 204 265 341 389
#     4  10  18  39  67 101 122 161 221 276 316 374
#     4  11  22  39  71  99 128 167 223 273 311 393
#     4  12  27  44  64  97 134 175 222 272 329 391
#
# _framework density 21.995591999999998
#
# number of rings (size 3 to 8) (size 9 to 14) (size 15 to 20)
#    0.000    1.250    3.750    3.000    1.750    4.000 
#    4.500    0.000    0.000    0.000    0.000    0.000 
#    0.000    0.000    0.000    0.000    0.000    0.000 
#
# Total GULP energy -89359.126225 kJ/mol
# GULP energy per Si atom -5584.945389 kJ/mol
# Density = 2.194553 g / cm^3
# Si number density = 21.995592 Si / 1000 Ang^3
#
#
#
# Elastic Constant Matrix: (Units=GPa)
#
#
# Indices 1 2 3 4 5 6 
#
# 1 38.6806 17.7967 19.8735 12.2728 -11.4296 9.0510
# 2 17.7967 74.3470 -7.4018 20.1899 -3.2642 7.8031
# 3 19.8735 -7.4018 51.9389 10.2775 -30.5180 -0.7034
# 4 12.2728 20.1899 10.2775 26.9250 1.5680 -5.0599
# 5 -11.4296 -3.2642 -30.5180 1.5680 25.8539 7.0716
# 6 9.0510 7.8031 -0.7034 -5.0599 7.0716 24.2439
#
#
#
# Elastic Compliance Matrix: (Units=1/GPa)
#
#
# Indices 1 2 3 4 5 6 
#
# 1 0.041230 -0.018299 -0.038682 0.011618 -0.030651 0.000740
# 2 -0.018299 -0.005027 -0.045404 0.040873 -0.075073 0.037560
# 3 -0.038682 -0.045404 -0.082713 0.109854 -0.152890 0.094179
# 4 0.011618 0.040873 0.109854 -0.064567 0.164616 -0.075797
# 5 -0.030651 -0.075073 -0.152890 0.164616 -0.209439 0.126617
# 6 0.000740 0.037560 0.094179 -0.075797 0.126617 -0.021138
#
#
# Mechanical properties :
#
#
# Convention : Reuss Voigt Hill
#
# Bulk Modulus (GPa) = -3.97960 25.05592 10.53816
# Shear Modulus (GPa) = -22.66107 24.38443 0.86168
#
# Velocity S-wave (km/s) = -3.21324 3.33318 0.62658
# Velocity P-wave (km/s) = 3.94712 5.12148 2.30758
#
# Compressibility (1/GPa) = -0.25128183
#
# Stress axis : x y z
#
# Youngs Moduli (GPa) = 24.25426 -198.91420 -12.09003
#
# Poissons Ratio (x) = -3.63992 -0.46767
# Poissons Ratio (y) = 0.44383 -0.54894
# Poissons Ratio (z) = 0.93821 -9.03160
#
# Static dielectric constant tensor:
#      x y z
#    x 1.807550 -0.041060 0.003300 
#    y -0.041060 1.828470 0.014740 
#    z 0.003300 0.014740 1.812030 
# 
# From -- ./inp_files/258133.got.cif
#   From: 2010.05.17/outbox.ucp.g08.bks.cvg/sg2_130_cif.got.tgz:258133.got - 2010.06.11 11:32:03.
