data_PCOD9072344
_publ_section_title
;
Structure prediction by ZEFSAII (Michael W. Deem and Ramdas Pophale) SiO2 
 PCOD9072344
Probable space group: P -1
;
_chemical_formula_sum "Si O2"
_cell_formula_units_Z 16
_cell_length_a 10.954673
_cell_length_b 12.342792
_cell_length_c 10.202181
_cell_angle_alpha 101.000590
_cell_angle_beta 67.291191
_cell_angle_gamma 46.111036
_cell_volume 664.148226
_symmetry_space_group_name_H-M "P -1"
_symmetry_group_IT_number 2
_symmetry_cell_setting 'triclinic'
loop_
_space_group_symop_operation_xyz
x,y,z
-x,-y,-z
loop_
_atom_site_type_symbol
_atom_site_label
_atom_site_fract_x
_atom_site_fract_y
_atom_site_fract_z
Si Si1 0.202056 0.217153 0.189830
Si Si2 0.920998 0.220176 0.327549
Si Si3 0.873662 0.652391 0.400716
Si Si4 0.606428 0.722597 0.277131
Si Si5 0.347324 0.091232 0.830359
Si Si6 0.095146 0.150832 0.702454
Si Si7 0.446076 0.480692 0.697702
Si Si8 0.166875 0.854838 0.027367
O O1 0.040855 0.244030 0.344962
O O2 0.084497 0.419312 0.305118
O O3 0.168085 0.193786 0.049401
O O4 0.500000 0.000000 0.000000
O O5 0.738470 0.271931 0.499231
O O6 0.724596 0.392667 0.333378
O O7 0.154368 0.979810 0.132973
O O8 0.745035 0.675271 0.337377
O O9 0.995190 0.679866 0.304043
O O10 0.639577 0.847611 0.640466
O O11 0.667572 0.765818 0.147962
O O12 0.644012 0.566555 0.203155
O O13 0.315543 0.942674 0.478084
O O14 0.229321 0.114962 0.761109
O O15 0.936508 0.165756 0.835988
O O16 0.407331 0.625005 0.818641
O O17 0.000000 0.000000 0.000000
#
# Coordination Sequence:
#
# PCOD9072344 Si02
#       8
#     2   2   2   2   2   2   2   2
#     4  12  25  39  57  77 108 155 197 225 257 320
#     4  10  21  35  48  78 117 140 177 222 267 332
#     4   9  20  35  55  83 114 144 178 229 280 326
#     4   9  16  32  56  87 117 138 170 223 293 337
#     4   9  20  34  55  85 113 140 180 231 277 329
#     4   9  17  32  55  88 120 138 168 228 291 339
#     4  10  18  30  55  83 111 144 164 220 289 332
#     4  10  19  28  48  82 115 144 168 207 279 345
#
# _framework density 24.091007000000001
#
# number of rings (size 3 to 8) (size 9 to 14) (size 15 to 20)
#    0.000    2.250    2.500    3.000    1.750    2.500 
#    0.000    0.000    0.000    1.500    0.000    0.000 
#    0.000    0.000    0.000    0.000    0.000    0.000 
#
# Total GULP energy -89165.947658 kJ/mol
# GULP energy per Si atom -5572.871729 kJ/mol
# Density = 2.403617 g / cm^3
# Si number density = 24.091007 Si / 1000 Ang^3
#
#
#
# Elastic Constant Matrix: (Units=GPa)
#
#
# Indices 1 2 3 4 5 6 
#
# 1 42.2897 40.6153 12.2796 7.6118 -14.7580 23.6017
# 2 40.6153 91.7572 15.5013 20.6782 -1.5050 38.9562
# 3 12.2796 15.5013 63.9882 13.9453 -1.8218 2.2542
# 4 7.6118 20.6782 13.9453 36.6943 13.3099 2.1253
# 5 -14.7580 -1.5050 -1.8218 13.3099 28.4465 2.3759
# 6 23.6017 38.9562 2.2542 2.1253 2.3759 36.1513
#
#
#
# Elastic Compliance Matrix: (Units=1/GPa)
#
#
# Indices 1 2 3 4 5 6 
#
# 1 0.093375 -0.009136 -0.004447 -0.034146 0.068103 -0.053307
# 2 -0.009136 0.029043 -0.001045 -0.014698 0.005676 -0.024775
# 3 -0.004447 -0.001045 0.017963 -0.005978 0.001320 0.003174
# 4 -0.034146 -0.014698 -0.005978 0.061039 -0.050629 0.038243
# 5 0.068103 0.005676 0.001320 -0.050629 0.099086 -0.054196
# 6 -0.053307 -0.024775 0.003174 0.038243 -0.054196 0.090276
#
#
# Mechanical properties :
#
#
# Convention : Reuss Voigt Hill
#
# Bulk Modulus (GPa) = 8.99893 37.20304 23.10099
# Shear Modulus (GPa) = 10.93900 28.90103 19.92002
#
# Velocity S-wave (km/s) = 2.13320 3.46737 2.87865
# Velocity P-wave (km/s) = 3.13224 5.61306 4.54518
#
# Compressibility (1/GPa) = 0.11112430
#
# Stress axis : x y z
#
# Youngs Moduli (GPa) = 10.70954 34.43187 55.66995
#
# Poissons Ratio (x) = 0.31458 0.24757
# Poissons Ratio (y) = 0.09784 0.05816
# Poissons Ratio (z) = 0.04763 0.03597
#
# Static dielectric constant tensor:
#      x y z
#    x 1.988610 -0.145210 0.043350 
#    y -0.145210 2.163140 -0.074920 
#    z 0.043350 -0.074920 1.932890 
# 
# From -- ./inp_files/254561.got.cif
#   From: 2010.05.17/outbox.cif.g08.bks.cpg/sg2_128_cif.got.tgz:254561.got - 2010.06.03 11:33:40.
