data_PCOD9072543
_publ_section_title
;
Structure prediction by ZEFSAII (Michael W. Deem and Ramdas Pophale) SiO2 
 PCOD9072543
Probable space group: P -1
;
_chemical_formula_sum "Si O2"
_cell_formula_units_Z 12
_cell_length_a 21.000000
_cell_length_b 15.000000
_cell_length_c 12.000000
_cell_angle_alpha 30.000000
_cell_angle_beta 30.000000
_cell_angle_gamma 20.000000
_cell_volume 615.533390
_symmetry_space_group_name_H-M "P -1"
_symmetry_group_IT_number 2
_symmetry_cell_setting 'triclinic'
loop_
_space_group_symop_operation_xyz
x,y,z
-x,-y,-z
loop_
_atom_site_type_symbol
_atom_site_label
_atom_site_fract_x
_atom_site_fract_y
_atom_site_fract_z
Si Si1 0.490962 0.271563 0.872973
Si Si2 0.570777 0.642990 0.613326
Si Si3 0.189844 0.273106 0.879800
Si Si4 0.244993 0.926893 0.981093
Si Si5 0.098878 0.850774 0.893354
Si Si6 0.552797 0.283076 0.526285
O O1 0.274591 0.517026 0.989413
O O2 0.489565 0.238880 0.777671
O O3 0.560704 0.405423 0.630961
O O4 0.635314 0.991111 0.022759
O O5 0.737853 0.614744 0.400520
O O6 0.652926 0.354384 0.813039
O O7 0.485010 0.752948 0.499423
O O8 0.405083 0.837833 0.748666
O O9 0.000000 0.500000 0.000000
O O10 0.172321 0.147516 0.942748
O O11 0.065848 0.040969 0.057440
O O12 0.220308 0.895255 0.619339
O O13 0.000000 0.000000 0.000000
#
# Coordination Sequence:
#
# PCOD9072543 Si02
#       6
#     2   2   2   2   2   2
#     4   9  21  41  61  93 133 160 217 266 314 386
#     4  11  24  43  71  90 136 173 215 273 329 378
#     4  12  28  42  64 100 133 177 220 262 328 390
#     4  11  23  45  67  97 132 171 219 271 323 393
#     4  10  19  38  72  97 119 172 222 260 332 382
#     4   9  19  40  67  91 125 175 204 269 325 371
#
# _framework density 19.495287000000001
#
# number of rings (size 3 to 8) (size 9 to 14) (size 15 to 20)
#    1.000    0.667    3.333    0.500    7.000    1.333 
#    0.000    0.833    0.000    0.000    0.000    0.000 
#    0.000    0.000    0.000    0.000    0.000    0.000 
#
# Total GULP energy -66915.244588 kJ/mol
# GULP energy per Si atom -5576.270382 kJ/mol
# Density = 1.945091 g / cm^3
# Si number density = 19.495287 Si / 1000 Ang^3
#
#
#
# Elastic Constant Matrix: (Units=GPa)
#
#
# Indices 1 2 3 4 5 6 
#
# 1 153.1536 61.0914 47.7047 17.9435 8.3623 23.9146
# 2 61.0914 127.0574 35.3363 33.5772 11.8234 19.6464
# 3 47.7047 35.3363 68.3278 15.2837 -1.2976 15.4858
# 4 17.9435 33.5772 15.2837 25.6978 0.1288 5.2667
# 5 8.3623 11.8234 -1.2976 0.1288 33.2200 3.9801
# 6 23.9146 19.6464 15.4858 5.2667 3.9801 37.0882
#
#
#
# Elastic Compliance Matrix: (Units=1/GPa)
#
#
# Indices 1 2 3 4 5 6 
#
# 1 0.009576 -0.002886 -0.004725 0.000433 -0.001258 -0.002600
# 2 -0.002886 0.014588 -0.001542 -0.015583 -0.004158 -0.002564
# 3 -0.004725 -0.001542 0.021230 -0.006421 0.003122 -0.004424
# 4 0.000433 -0.015583 -0.006421 0.062508 0.004792 0.001266
# 5 -0.001258 -0.004158 0.003122 0.004792 0.032294 -0.002436
# 6 -0.002600 -0.002564 -0.004424 0.001266 -0.002436 0.031926
#
#
# Mechanical properties :
#
#
# Convention : Reuss Voigt Hill
#
# Bulk Modulus (GPa) = 36.91537 70.75594 53.83565
# Shear Modulus (GPa) = 25.06796 32.82829 28.94812
#
# Velocity S-wave (km/s) = 3.58976 4.10800 3.85759
# Velocity P-wave (km/s) = 6.01319 7.67291 6.89319
#
# Compressibility (1/GPa) = 0.02708899
#
# Stress axis : x y z
#
# Youngs Moduli (GPa) = 104.42647 68.54820 47.10314
#
# Poissons Ratio (x) = 0.19781 0.22256
# Poissons Ratio (y) = 0.30134 0.07263
# Poissons Ratio (z) = 0.49342 0.10570
#
# Static dielectric constant tensor:
#      x y z
#    x 1.704610 -0.001200 -0.008720 
#    y -0.001200 1.668630 -0.007150 
#    z -0.008720 -0.007150 1.700360 
# 
# From -- ./inp_files/392291.got.cif
#   From: 2010.05.17/outbox.ucp.g08.bks.cvg/sg2_197_cif.got.tgz:392291.got - 2010.06.11 11:32:03.
