data_PCOD9072679
_publ_section_title
;
Structure prediction by ZEFSAII (Michael W. Deem and Ramdas Pophale) SiO2 
 PCOD9072679
Probable space group: P -1
;
_chemical_formula_sum "Si O2"
_cell_formula_units_Z 16
_cell_length_a 24.000000
_cell_length_b 15.000000
_cell_length_c 15.000000
_cell_angle_alpha 160.000000
_cell_angle_beta 150.000000
_cell_angle_gamma 30.000000
_cell_volume 879.333414
_symmetry_space_group_name_H-M "P -1"
_symmetry_group_IT_number 2
_symmetry_cell_setting 'triclinic'
loop_
_space_group_symop_operation_xyz
x,y,z
-x,-y,-z
loop_
_atom_site_type_symbol
_atom_site_label
_atom_site_fract_x
_atom_site_fract_y
_atom_site_fract_z
Si Si1 0.555256 0.234276 0.267771
Si Si2 0.204025 0.697797 0.961558
Si Si3 0.236583 0.092582 0.647826
Si Si4 0.156628 0.285817 0.364830
Si Si5 0.099774 0.718884 0.027272
Si Si6 0.536156 0.136228 0.804005
Si Si7 0.357141 0.413725 0.670091
Si Si8 0.415223 0.249365 0.919218
O O1 0.500000 0.500000 0.500000
O O2 0.691455 0.089445 0.342326
O O3 0.503706 0.311447 0.171031
O O4 0.500000 0.000000 0.000000
O O5 0.156372 0.501736 0.646654
O O6 0.120265 0.764453 0.993915
O O7 0.326589 0.520141 0.007433
O O8 0.212448 0.973517 0.184890
O O9 0.180908 0.418886 0.890186
O O10 0.333479 0.086992 0.699595
O O11 0.140030 0.954267 0.352659
O O12 0.231087 0.381646 0.483183
O O13 0.032289 0.285025 0.154004
O O14 0.425085 0.339843 0.789209
O O15 0.495500 0.092735 0.804472
O O16 0.575638 0.841549 0.537101
O O17 0.631199 0.300841 0.080903
#
# Coordination Sequence:
#
# PCOD9072679 Si02
#       8
#     2   2   2   2   2   2   2   2
#     4  10  20  35  55  81 110 138 171 216 268 326
#     4  11  21  32  51  78 108 138 176 213 253 325
#     4  10  21  37  53  82 108 136 175 220 259 320
#     4  12  22  36  51  74 106 147 179 217 257 299
#     4  11  22  35  53  75 106 144 179 214 257 313
#     4  10  21  35  52  74 104 141 176 218 264 307
#     4  10  22  35  50  73 105 140 183 221 251 304
#     4  10  21  35  57  80 110 145 169 213 276 322
#
# _framework density 18.195601
#
# number of rings (size 3 to 8) (size 9 to 14) (size 15 to 20)
#    0.000    1.500    1.250    6.000    3.500    4.000 
#    0.000    0.000    0.000    0.000    0.000    5.250 
#    0.000    0.000    0.000    0.000    0.000    0.000 
#
# Total GULP energy -89246.371837 kJ/mol
# GULP energy per Si atom -5577.898240 kJ/mol
# Density = 1.815419 g / cm^3
# Si number density = 18.195601 Si / 1000 Ang^3
#
#
#
# Elastic Constant Matrix: (Units=GPa)
#
#
# Indices 1 2 3 4 5 6 
#
# 1 49.5119 8.4354 9.1992 -20.0202 3.9215 -7.4046
# 2 8.4354 59.2092 11.0413 -9.8741 4.9401 5.5731
# 3 9.1992 11.0413 92.5603 3.0931 7.7301 8.2955
# 4 -20.0202 -9.8741 3.0931 31.2706 1.8521 3.6188
# 5 3.9215 4.9401 7.7301 1.8521 19.3146 1.1731
# 6 -7.4046 5.5731 8.2955 3.6188 1.1731 3.2994
#
#
#
# Elastic Compliance Matrix: (Units=1/GPa)
#
#
# Indices 1 2 3 4 5 6 
#
# 1 0.088189 -0.034481 -0.033566 0.011213 -0.017033 0.334315
# 2 -0.034481 0.039069 0.015842 0.011304 0.001497 -0.196141
# 3 -0.033566 0.015842 0.027535 0.000660 0.002177 -0.172819
# 4 0.011213 0.011304 0.000660 0.048430 -0.007275 -0.046122
# 5 -0.017033 0.001497 0.002177 -0.007275 0.058257 -0.058963
# 6 0.334315 -0.196141 -0.172819 -0.046122 -0.058963 1.890761
#
#
# Mechanical properties :
#
#
# Convention : Reuss Voigt Hill
#
# Bulk Modulus (GPa) = 19.84766 28.73703 24.29235
# Shear Modulus (GPa) = 2.19931 22.28396 12.24163
#
# Velocity S-wave (km/s) = 1.10060 3.50335 2.59661
# Velocity P-wave (km/s) = 3.54214 5.67383 4.72964
#
# Compressibility (1/GPa) = 0.05038376
#
# Stress axis : x y z
#
# Youngs Moduli (GPa) = 11.33931 25.59548 36.31793
#
# Poissons Ratio (x) = 0.88256 1.21905
# Poissons Ratio (y) = 0.39099 -0.57536
# Poissons Ratio (z) = 0.38062 -0.40549
#
# Static dielectric constant tensor:
#      x y z
#    x 1.667790 -0.016600 -0.026200 
#    y -0.016600 1.672070 -0.018220 
#    z -0.026200 -0.018220 1.635990 
# 
# From -- ./inp_files/94811.got.cif
#   From: 2010.05.17/outbox.ucp.g08.bks.cvg/sg2_48_cif.got.tgz:94811.got - 2010.06.11 11:32:03.
