data_PCOD9072535
_publ_section_title
;
Structure prediction by ZEFSAII (Michael W. Deem and Ramdas Pophale) SiO2 
 PCOD9072535
Probable space group: P -1
;
_chemical_formula_sum "Si O2"
_cell_formula_units_Z 14
_cell_length_a 18.000000
_cell_length_b 9.000000
_cell_length_c 12.000000
_cell_angle_alpha 110.000000
_cell_angle_beta 20.000000
_cell_angle_gamma 110.000000
_cell_volume 623.501542
_symmetry_space_group_name_H-M "P -1"
_symmetry_group_IT_number 2
_symmetry_cell_setting 'triclinic'
loop_
_space_group_symop_operation_xyz
x,y,z
-x,-y,-z
loop_
_atom_site_type_symbol
_atom_site_label
_atom_site_fract_x
_atom_site_fract_y
_atom_site_fract_z
Si Si1 0.599750 0.434402 0.707373
Si Si2 0.122921 0.376764 0.365048
Si Si3 0.025166 0.948849 0.583732
Si Si4 0.709475 0.932081 0.326879
Si Si5 0.385499 0.739044 0.580262
Si Si6 0.800553 0.125975 0.453596
Si Si7 0.019375 0.310141 0.734766
O O1 0.542559 0.375083 0.647021
O O2 0.708441 0.288873 0.580332
O O3 0.758386 0.592160 0.520255
O O4 0.355988 0.445939 0.097681
O O5 0.983286 0.344286 0.664900
O O6 0.000000 0.500000 0.500000
O O7 0.133669 0.210275 0.240545
O O8 0.203935 0.889173 0.408430
O O9 0.004115 0.119151 0.713843
O O10 0.000000 0.000000 0.500000
O O11 0.541169 0.799434 0.477604
O O12 0.671304 0.097667 0.360033
O O13 0.687808 0.980159 0.500625
O O14 0.948687 0.880129 0.942999
O O15 0.174467 0.644416 0.903415
#
# Coordination Sequence:
#
# PCOD9072535 Si02
#       7
#     2   2   2   2   2   2   2
#     4  11  24  41  70  96 135 181 223 277 339 406
#     4  11  25  48  67  91 132 188 225 271 344 411
#     4  10  22  41  68  93 132 173 223 276 327 396
#     4   9  19  35  66  96 134 177 214 276 336 405
#     4  10  20  39  67  99 136 173 222 277 342 389
#     4  10  19  38  65  97 130 176 227 264 339 401
#     4  11  23  42  65 100 136 170 225 288 329 395
#
# _framework density 22.453834000000001
#
# number of rings (size 3 to 8) (size 9 to 14) (size 15 to 20)
#    0.000    1.714    1.429    2.571    4.000    0.000 
#    2.571    5.000    0.000    0.000    0.000    0.000 
#    0.000    0.000    0.000    0.000    0.000    0.000 
#
# Total GULP energy -77946.364340 kJ/mol
# GULP energy per Si atom -5567.597453 kJ/mol
# Density = 2.240273 g / cm^3
# Si number density = 22.453834 Si / 1000 Ang^3
#
#
#
# Elastic Constant Matrix: (Units=GPa)
#
#
# Indices 1 2 3 4 5 6 
#
# 1 120.9205 26.9862 17.7791 -20.0724 -8.9192 24.0473
# 2 26.9862 95.6905 25.2888 -10.2688 -6.3535 20.7792
# 3 17.7791 25.2888 55.7268 -11.2247 -3.2775 -0.1981
# 4 -20.0724 -10.2688 -11.2247 26.0900 -1.7288 -4.0131
# 5 -8.9192 -6.3535 -3.2775 -1.7288 34.4355 2.7245
# 6 24.0473 20.7792 -0.1981 -4.0131 2.7245 37.3334
#
#
#
# Elastic Compliance Matrix: (Units=1/GPa)
#
#
# Indices 1 2 3 4 5 6 
#
# 1 0.011374 -0.000254 -0.001908 0.007037 0.003601 -0.006701
# 2 -0.000254 0.014113 -0.005821 0.001846 0.002688 -0.007720
# 3 -0.001908 -0.005821 0.022617 0.006818 0.000509 0.005285
# 4 0.007037 0.001846 0.006818 0.047630 0.005266 -0.000788
# 5 0.003601 0.002688 0.000509 0.005266 0.031218 -0.005525
# 6 -0.006701 -0.007720 0.005285 -0.000788 -0.005525 0.035746
#
#
# Mechanical properties :
#
#
# Convention : Reuss Voigt Hill
#
# Bulk Modulus (GPa) = 31.11599 45.82734 38.47166
# Shear Modulus (GPa) = 26.40236 33.05736 29.72986
#
# Velocity S-wave (km/s) = 3.43279 3.84114 3.64269
# Velocity P-wave (km/s) = 5.44058 6.33453 5.90450
#
# Compressibility (1/GPa) = 0.03213782
#
# Stress axis : x y z
#
# Youngs Moduli (GPa) = 87.92365 70.85483 44.21432
#
# Poissons Ratio (x) = 0.01799 0.08436
# Poissons Ratio (y) = 0.02232 0.25738
# Poissons Ratio (z) = 0.16776 0.41246
#
# Static dielectric constant tensor:
#      x y z
#    x 1.898830 0.043250 0.030780 
#    y 0.043250 1.820820 0.033280 
#    z 0.030780 0.033280 1.873600 
# 
# From -- ./inp_files/257376.got.cif
#   From: 2010.05.17/outbox.ucp.g08.bks.cvg/sg2_129_cif.got.tgz:257376.got - 2010.06.11 11:32:03.
