data_PCOD9072257
_publ_section_title
;
Structure prediction by ZEFSAII (Michael W. Deem and Ramdas Pophale) SiO2 
 PCOD9072257
Probable space group: P -1
;
_chemical_formula_sum "Si O2"
_cell_formula_units_Z 16
_cell_length_a 13.417851
_cell_length_b 8.088785
_cell_length_c 8.479111
_cell_angle_alpha 113.052348
_cell_angle_beta 51.196048
_cell_angle_gamma 115.300251
_cell_volume 638.291914
_symmetry_space_group_name_H-M "P -1"
_symmetry_group_IT_number 2
_symmetry_cell_setting 'triclinic'
loop_
_space_group_symop_operation_xyz
x,y,z
-x,-y,-z
loop_
_atom_site_type_symbol
_atom_site_label
_atom_site_fract_x
_atom_site_fract_y
_atom_site_fract_z
Si Si1 0.177365 0.597818 0.178611
Si Si2 0.073898 0.935994 0.054548
Si Si3 0.152041 0.408913 0.791651
Si Si4 0.410216 0.286544 0.494028
Si Si5 0.507368 0.729785 0.255673
Si Si6 0.487395 0.706365 0.929483
Si Si7 0.777966 0.240263 0.362605
Si Si8 0.996458 0.749815 0.598867
O O1 0.073160 0.721986 0.354366
O O2 0.116575 0.429432 0.298470
O O3 0.176689 0.511429 0.973990
O O4 0.330911 0.689715 0.093156
O O5 0.987352 0.734584 0.110994
O O6 0.209248 0.902995 0.842027
O O7 0.069248 0.080685 0.249835
O O8 0.000000 0.000000 0.000000
O O9 0.260856 0.293358 0.619261
O O10 0.172805 0.556734 0.688019
O O11 0.500000 0.500000 0.500000
O O12 0.421689 0.204887 0.624496
O O13 0.460342 0.204411 0.257210
O O14 0.495633 0.506055 0.176676
O O15 0.365638 0.771414 0.434809
O O16 0.557108 0.794097 0.054607
O O17 0.882070 0.223423 0.386966
#
# Coordination Sequence:
#
# PCOD9072257 Si02
#       8
#     2   2   2   2   2   2   2   2
#     4  11  19  35  62  84 112 151 200 239 292 355
#     4  10  22  38  57  83 122 156 191 242 307 348
#     4  12  20  35  62  87 114 154 197 247 289 354
#     4  10  18  32  52  90 119 145 200 248 292 344
#     4  10  18  30  53  89 117 148 191 247 296 342
#     4  10  18  31  53  88 120 147 191 255 293 344
#     4  11  19  34  58  88 110 152 200 235 284 365
#     4  10  23  38  57  88 116 155 194 246 296 356
#
# _framework density 25.066898999999999
#
# number of rings (size 3 to 8) (size 9 to 14) (size 15 to 20)
#    0.000    1.500    8.750    0.375    0.000    0.000 
#    0.000    0.625    0.000    7.500    0.000    0.000 
#    0.000    0.000    0.000    0.000    0.000    0.000 
#
# Total GULP energy -89489.255955 kJ/mol
# GULP energy per Si atom -5593.078497 kJ/mol
# Density = 2.500985 g / cm^3
# Si number density = 25.066899 Si / 1000 Ang^3
#
#
#
# Elastic Constant Matrix: (Units=GPa)
#
#
# Indices 1 2 3 4 5 6 
#
# 1 67.4826 15.2852 44.1253 -10.2513 5.5424 -15.1075
# 2 15.2852 49.2358 23.4213 5.9943 7.8074 -4.7748
# 3 44.1253 23.4213 143.1037 15.6302 -11.3001 -14.8318
# 4 -10.2513 5.9943 15.6302 21.8383 -0.3395 -3.8563
# 5 5.5424 7.8074 -11.3001 -0.3395 38.6133 -6.9050
# 6 -15.1075 -4.7748 -14.8318 -3.8563 -6.9050 11.5844
#
#
#
# Elastic Compliance Matrix: (Units=1/GPa)
#
#
# Indices 1 2 3 4 5 6 
#
# 1 0.038792 -0.007543 -0.009405 0.035631 0.002212 0.048619
# 2 -0.007543 0.025041 -0.002103 -0.010702 -0.006405 -0.009589
# 3 -0.009405 -0.002103 0.012175 -0.012164 0.005536 0.001706
# 4 0.035631 -0.010702 -0.012164 0.084334 0.004463 0.057216
# 5 0.002212 -0.006405 0.005536 0.004463 0.033704 0.028909
# 6 0.048619 -0.009589 0.001706 0.057216 0.028909 0.184238
#
#
# Mechanical properties :
#
#
# Convention : Reuss Voigt Hill
#
# Bulk Modulus (GPa) = 26.38095 47.27619 36.82857
# Shear Modulus (GPa) = 11.65440 26.20655 18.93048
#
# Velocity S-wave (km/s) = 2.15857 3.23687 2.75107
# Velocity P-wave (km/s) = 4.09385 5.73330 4.98148
#
# Compressibility (1/GPa) = 0.03790613
#
# Stress axis : x y z
#
# Youngs Moduli (GPa) = 25.77829 39.93401 82.13737
#
# Poissons Ratio (x) = 0.30122 0.77249
# Poissons Ratio (y) = 0.19445 0.17275
# Poissons Ratio (z) = 0.24244 0.08399
#
# Static dielectric constant tensor:
#      x y z
#    x 2.039260 -0.026800 0.024710 
#    y -0.026800 1.993810 0.055940 
#    z 0.024710 0.055940 2.014380 
# 
# From -- ./inp_files/298720.got.cif
#   From: 2010.05.17/outbox.cif.g08.bks.cpg/sg2_150_cif.got.tgz:298720.got - 2010.06.03 11:33:40.
