data_PCOD9072916
_publ_section_title
;
Structure prediction by ZEFSAII (Michael W. Deem and Ramdas Pophale) SiO2 
 PCOD9072916
Probable space group: P -1
;
_chemical_formula_sum "Si O2"
_cell_formula_units_Z 16
_cell_length_a 9.000000
_cell_length_b 21.000000
_cell_length_c 24.000000
_cell_angle_alpha 160.000000
_cell_angle_beta 30.000000
_cell_angle_gamma 150.000000
_cell_volume 738.640068
_symmetry_space_group_name_H-M "P -1"
_symmetry_group_IT_number 2
_symmetry_cell_setting 'triclinic'
loop_
_space_group_symop_operation_xyz
x,y,z
-x,-y,-z
loop_
_atom_site_type_symbol
_atom_site_label
_atom_site_fract_x
_atom_site_fract_y
_atom_site_fract_z
Si Si1 0.954639 0.972832 0.413048
Si Si2 0.459101 0.919892 0.285023
Si Si3 0.622954 0.326126 0.078227
Si Si4 0.655711 0.904458 0.713397
Si Si5 0.337386 0.509295 0.422718
Si Si6 0.626930 0.510741 0.029868
Si Si7 0.080755 0.238665 0.381359
Si Si8 0.574345 0.420581 0.737115
O O1 0.733559 0.758781 0.326100
O O2 0.278988 0.004552 0.366484
O O3 0.758625 0.105056 0.609842
O O4 0.029973 0.004225 0.350004
O O5 0.450955 0.705120 0.096922
O O6 0.803744 0.055688 0.297344
O O7 0.525145 0.443521 0.257669
O O8 0.480416 0.397705 0.128472
O O9 0.000560 0.393346 0.009288
O O10 0.520740 0.088083 0.917408
O O11 0.471537 0.719197 0.582598
O O12 0.738884 0.826965 0.681353
O O13 0.298419 0.348425 0.351364
O O14 0.000000 0.500000 0.500000
O O15 0.500000 0.500000 0.000000
O O16 0.442127 0.599247 0.207103
O O17 0.888216 0.381981 0.583161
#
# Coordination Sequence:
#
# PCOD9072916 Si02
#       8
#     2   2   2   2   2   2   2   2
#     4  10  20  38  66  96 133 179 225 283 348 423
#     4  10  21  37  65  94 135 183 227 276 351 417
#     4  12  25  48  75 105 140 191 236 290 350 429
#     4  12  26  44  73 103 140 184 236 298 360 410
#     4  12  27  51  74  99 140 190 250 293 347 417
#     4  12  24  39  66 110 143 176 226 292 359 423
#     4  11  26  47  65 104 141 189 234 299 350 413
#     4  11  23  43  70  98 150 179 230 288 356 426
#
# _framework density 21.661429999999999
#
# number of rings (size 3 to 8) (size 9 to 14) (size 15 to 20)
#    0.000    0.750    3.750    3.750    5.250    2.000 
#    2.250    0.000    0.000    0.000    0.000    0.000 
#    0.000    0.000    0.000    0.000    0.000    0.000 
#
# Total GULP energy -89364.647529 kJ/mol
# GULP energy per Si atom -5585.290471 kJ/mol
# Density = 2.161213 g / cm^3
# Si number density = 21.661430 Si / 1000 Ang^3
#
#
#
# Elastic Constant Matrix: (Units=GPa)
#
#
# Indices 1 2 3 4 5 6 
#
# 1 107.9824 29.1263 40.5421 16.0315 2.4622 -27.7376
# 2 29.1263 50.6335 32.4909 5.8010 4.5113 -14.5823
# 3 40.5421 32.4909 84.6716 14.2648 11.5138 -2.1778
# 4 16.0315 5.8010 14.2648 29.6740 -5.5349 9.6705
# 5 2.4622 4.5113 11.5138 -5.5349 33.3716 0.5997
# 6 -27.7376 -14.5823 -2.1778 9.6705 0.5997 35.2024
#
#
#
# Elastic Compliance Matrix: (Units=1/GPa)
#
#
# Indices 1 2 3 4 5 6 
#
# 1 0.017732 -0.000008 -0.005648 -0.012790 -0.001788 0.017163
# 2 -0.000008 0.031310 -0.010370 -0.006056 -0.001911 0.014018
# 3 -0.005648 -0.010370 0.019592 -0.003199 -0.005354 -0.006563
# 4 -0.012790 -0.006056 -0.003199 0.054796 0.012459 -0.028050
# 5 -0.001788 -0.001911 -0.005354 0.012459 0.034387 -0.006540
# 6 0.017163 0.014018 -0.006563 -0.028050 -0.006540 0.055148
#
#
# Mechanical properties :
#
#
# Convention : Reuss Voigt Hill
#
# Bulk Modulus (GPa) = 27.33610 49.73400 38.53505
# Shear Modulus (GPa) = 19.43933 29.05814 24.24873
#
# Velocity S-wave (km/s) = 2.99894 3.66658 3.34944
# Velocity P-wave (km/s) = 4.96373 6.39802 5.72596
#
# Compressibility (1/GPa) = 0.03658167
#
# Stress axis : x y z
#
# Youngs Moduli (GPa) = 56.39637 31.93868 51.04145
#
# Poissons Ratio (x) = 0.00027 0.28826
# Poissons Ratio (y) = 0.00048 0.52929
# Poissons Ratio (z) = 0.31850 0.33120
#
# Static dielectric constant tensor:
#      x y z
#    x 1.761450 0.011570 0.065560 
#    y 0.011570 1.758820 -0.009730 
#    z 0.065560 -0.009730 1.794030 
# 
# From -- ./inp_files/208845.got.cif
#   From: 2010.05.17/outbox.ucp.g08.bks.cvg/sg2_105_cif.got.tgz:208845.got - 2010.06.11 11:32:03.
