data_PCOD9072444
_publ_section_title
;
Structure prediction by ZEFSAII (Michael W. Deem and Ramdas Pophale) SiO2 
 PCOD9072444
Probable space group: P -1
;
_chemical_formula_sum "Si O2"
_cell_formula_units_Z 10
_cell_length_a 8.066696
_cell_length_b 14.222226
_cell_length_c 8.269990
_cell_angle_alpha 135.263641
_cell_angle_beta 129.848272
_cell_angle_gamma 36.772683
_cell_volume 393.933184
_symmetry_space_group_name_H-M "P -1"
_symmetry_group_IT_number 2
_symmetry_cell_setting 'triclinic'
loop_
_space_group_symop_operation_xyz
x,y,z
-x,-y,-z
loop_
_atom_site_type_symbol
_atom_site_label
_atom_site_fract_x
_atom_site_fract_y
_atom_site_fract_z
Si Si1 0.431018 0.775133 0.106557
Si Si2 0.079174 0.063303 0.480613
Si Si3 0.040353 0.370326 0.498452
Si Si4 0.218433 0.536121 0.232523
Si Si5 0.609502 0.986071 0.869860
O O1 0.153855 0.936759 0.223274
O O2 0.311892 0.287896 0.686142
O O3 0.409311 0.856744 0.017168
O O4 0.523016 0.592244 0.883202
O O5 0.370131 0.017545 0.647422
O O6 0.000000 0.000000 0.500000
O O7 0.881086 0.270792 0.604569
O O8 0.114401 0.204739 0.245993
O O9 0.000000 0.500000 0.500000
O O10 0.779134 0.481326 0.594069
O O11 0.000000 0.500000 0.000000
O O12 0.500000 0.000000 0.000000
#
# Coordination Sequence:
#
# PCOD9072444 Si02
#       5
#     2   2   2   2   2
#     4  10  20  38  60  85 116 158 202 238 283 360
#     4  11  22  39  59  90 124 153 188 253 302 335
#     4  10  18  30  57  92 113 145 201 250 276 334
#     4  10  18  34  61  83 113 154 202 234 285 344
#     4  11  20  36  62  89 113 157 206 234 285 359
#
# _framework density 25.385017000000001
#
# number of rings (size 3 to 8) (size 9 to 14) (size 15 to 20)
#    0.000    1.600    6.000    2.400    2.800    0.800 
#    0.000    1.000    0.000    6.000    0.000    0.000 
#    0.000    0.000    0.000    0.000    0.000    0.000 
#
# Total GULP energy -55722.931301 kJ/mol
# GULP energy per Si atom -5572.293130 kJ/mol
# Density = 2.532724 g / cm^3
# Si number density = 25.385017 Si / 1000 Ang^3
#
#
#
# Elastic Constant Matrix: (Units=GPa)
#
#
# Indices 1 2 3 4 5 6 
#
# 1 49.9011 42.9222 49.6746 15.1230 -32.8249 7.9141
# 2 42.9222 136.3971 70.0342 14.1111 -19.1612 24.2410
# 3 49.6746 70.0342 246.7992 33.2860 -52.9510 2.6488
# 4 15.1230 14.1111 33.2860 47.7390 -12.7383 3.5644
# 5 -32.8249 -19.1612 -52.9510 -12.7383 63.9269 -12.8701
# 6 7.9141 24.2410 2.6488 3.5644 -12.8701 60.0131
#
#
#
# Elastic Compliance Matrix: (Units=1/GPa)
#
#
# Indices 1 2 3 4 5 6 
#
# 1 0.042655 -0.010253 -0.001310 -0.005162 0.017235 0.002577
# 2 -0.010253 0.011808 -0.002238 0.000478 -0.004345 -0.004279
# 3 -0.001310 -0.002238 0.005994 -0.002294 0.003507 0.001700
# 4 -0.005162 0.000478 -0.002294 0.024166 0.000248 -0.000793
# 5 0.017235 -0.004345 0.003507 0.000248 0.027179 0.005142
# 6 0.002577 -0.004279 0.001700 -0.000793 0.005142 0.019126
#
#
# Mechanical properties :
#
#
# Convention : Reuss Voigt Hill
#
# Bulk Modulus (GPa) = 30.43623 84.26217 57.34920
# Shear Modulus (GPa) = 29.50159 52.36690 40.93425
#
# Velocity S-wave (km/s) = 3.41275 4.54685 4.02000
# Velocity P-wave (km/s) = 5.24834 7.79941 6.64740
#
# Compressibility (1/GPa) = 0.03285558
#
# Stress axis : x y z
#
# Youngs Moduli (GPa) = 23.44370 84.69066 166.83161
#
# Poissons Ratio (x) = 0.86837 0.21848
# Poissons Ratio (y) = 0.24038 0.37333
# Poissons Ratio (z) = 0.03070 0.18952
#
# Static dielectric constant tensor:
#      x y z
#    x 1.701700 -0.198630 -0.040170 
#    y -0.198630 1.971270 -0.007490 
#    z -0.040170 -0.007490 2.038480 
# 
# From -- ./inp_files/15585.got.cif
#   From: 2010.05.17/outbox.cif.g08.bks.cpg/sg2_8_cif.got.tgz:15585.got - 2010.06.03 11:33:40.
