data_PCOD9072269
_publ_section_title
;
Structure prediction by ZEFSAII (Michael W. Deem and Ramdas Pophale) SiO2 
 PCOD9072269
Probable space group: P -1
;
_chemical_formula_sum "Si O2"
_cell_formula_units_Z 12
_cell_length_a 8.614387
_cell_length_b 9.340684
_cell_length_c 10.983254
_cell_angle_alpha 71.787542
_cell_angle_beta 53.572305
_cell_angle_gamma 44.977636
_cell_volume 493.550549
_symmetry_space_group_name_H-M "P -1"
_symmetry_group_IT_number 2
_symmetry_cell_setting 'triclinic'
loop_
_space_group_symop_operation_xyz
x,y,z
-x,-y,-z
loop_
_atom_site_type_symbol
_atom_site_label
_atom_site_fract_x
_atom_site_fract_y
_atom_site_fract_z
Si Si1 0.790517 0.914045 0.521642
Si Si2 0.818328 0.632638 0.168500
Si Si3 0.256825 0.348535 0.542367
Si Si4 0.954542 0.876113 0.977080
Si Si5 0.071081 0.063237 0.294977
Si Si6 0.572790 0.462755 0.304425
O O1 0.825613 0.729290 0.499380
O O2 0.787807 0.925933 0.665287
O O3 0.526627 0.127139 0.529319
O O4 0.017066 0.915401 0.381689
O O5 0.922218 0.545959 0.280629
O O6 0.578181 0.640466 0.264539
O O7 0.797922 0.823915 0.125064
O O8 0.000000 0.500000 0.000000
O O9 0.340141 0.467358 0.421690
O O10 0.821017 0.976430 0.881085
O O11 0.253487 0.663737 0.862848
O O12 0.000000 0.000000 0.000000
O O13 0.779609 0.295765 0.356932
#
# Coordination Sequence:
#
# PCOD9072269 Si02
#       6
#     2   2   2   2   2   2
#     4   9  17  30  51  80  99 126 170 218 238 287
#     4  10  19  32  51  73 103 134 165 202 255 305
#     4  10  18  30  54  76  98 128 177 208 244 286
#     4   9  17  30  53  75  99 132 167 198 244 305
#     4   8  16  31  49  73 107 128 165 203 255 292
#     4   8  18  32  51  74 101 129 171 202 247 297
#
# _framework density 24.313618999999999
#
# number of rings (size 3 to 8) (size 9 to 14) (size 15 to 20)
#    1.000    2.000    0.000    1.500    2.333    0.000 
#    0.000    1.667    0.000    3.000    0.000    0.000 
#    0.000    0.000    0.000    0.000    0.000    0.000 
#
# Total GULP energy -66899.696752 kJ/mol
# GULP energy per Si atom -5574.974729 kJ/mol
# Density = 2.425828 g / cm^3
# Si number density = 24.313619 Si / 1000 Ang^3
#
#
#
# Elastic Constant Matrix: (Units=GPa)
#
#
# Indices 1 2 3 4 5 6 
#
# 1 164.1351 68.9889 62.9356 -9.8800 3.9839 48.2683
# 2 68.9889 169.6775 62.7021 -27.0688 -2.7817 65.1228
# 3 62.9356 62.7021 140.1187 -34.8229 -2.8240 43.0179
# 4 -9.8800 -27.0688 -34.8229 42.7541 10.0241 -7.2798
# 5 3.9839 -2.7817 -2.8240 10.0241 30.0140 7.2817
# 6 48.2683 65.1228 43.0179 -7.2798 7.2817 58.0751
#
#
#
# Elastic Compliance Matrix: (Units=1/GPa)
#
#
# Indices 1 2 3 4 5 6 
#
# 1 0.008699 -0.001264 -0.002416 -0.001478 0.000016 -0.004211
# 2 -0.001264 0.011715 0.000213 0.004639 0.002634 -0.011993
# 3 -0.002416 0.000213 0.012096 0.008333 0.000193 -0.006170
# 4 -0.001478 0.004639 0.008333 0.034020 -0.008792 -0.004779
# 5 0.000016 0.002634 0.000193 -0.008792 0.038714 -0.009066
# 6 -0.004211 -0.011993 -0.006170 -0.004779 -0.009066 0.039275
#
#
# Mechanical properties :
#
#
# Convention : Reuss Voigt Hill
#
# Bulk Modulus (GPa) = 39.09861 95.90939 67.50400
# Shear Modulus (GPa) = 31.25468 44.78896 38.02182
#
# Velocity S-wave (km/s) = 3.58925 4.29667 3.95879
# Velocity P-wave (km/s) = 5.76999 8.00921 6.97998
#
# Compressibility (1/GPa) = 0.02557636
#
# Stress axis : x y z
#
# Youngs Moduli (GPa) = 114.95600 85.36410 82.67382
#
# Poissons Ratio (x) = 0.10786 0.19975
# Poissons Ratio (y) = 0.14525 -0.01763
# Poissons Ratio (z) = 0.27775 -0.01820
#
# Static dielectric constant tensor:
#      x y z
#    x 1.975240 -0.104890 -0.006290 
#    y -0.104890 2.019620 0.062870 
#    z -0.006290 0.062870 1.997980 
# 
# From -- ./inp_files/151691.got.cif
#   From: 2010.05.17/outbox.cif.g08.bks.cpg/sg2_76_cif.got.tgz:151691.got - 2010.06.03 11:33:40.
