data_PCOD9072372
_publ_section_title
;
Structure prediction by ZEFSAII (Michael W. Deem and Ramdas Pophale) SiO2 
 PCOD9072372
Probable space group: P -1
;
_chemical_formula_sum "Si O2"
_cell_formula_units_Z 16
_cell_length_a 12.000000
_cell_length_b 12.000000
_cell_length_c 9.000000
_cell_angle_alpha 50.000000
_cell_angle_beta 100.000000
_cell_angle_gamma 120.000000
_cell_volume 838.191741
_symmetry_space_group_name_H-M "P -1"
_symmetry_group_IT_number 2
_symmetry_cell_setting 'triclinic'
loop_
_space_group_symop_operation_xyz
x,y,z
-x,-y,-z
loop_
_atom_site_type_symbol
_atom_site_label
_atom_site_fract_x
_atom_site_fract_y
_atom_site_fract_z
Si Si1 0.984612 0.745452 0.217508
Si Si2 0.722414 0.860877 0.787696
Si Si3 0.206683 0.113305 0.889602
Si Si4 0.173902 0.311473 0.278315
Si Si5 0.602022 0.642814 0.510345
Si Si6 0.063375 0.757639 0.534858
Si Si7 0.169532 0.525160 0.844820
Si Si8 0.528491 0.364582 0.211156
O O1 0.896822 0.822621 0.190129
O O2 0.911223 0.615584 0.179461
O O3 0.005831 0.668747 0.438497
O O4 0.120165 0.909211 0.050334
O O5 0.785057 0.782133 0.756041
O O6 0.577449 0.806273 0.747951
O O7 0.816745 0.059140 0.633166
O O8 0.719404 0.811269 0.000938
O O9 0.305557 0.189944 0.709015
O O10 0.295097 0.395538 0.349125
O O11 0.040575 0.210454 0.427946
O O12 0.149164 0.441591 0.071812
O O13 0.500000 0.500000 0.500000
O O14 0.518409 0.654720 0.614187
O O15 0.120362 0.656737 0.718046
O O16 0.324272 0.595736 0.793539
O O17 0.500000 0.500000 0.000000
#
# Coordination Sequence:
#
# PCOD9072372 Si02
#       8
#     2   2   2   2   2   2   2   2
#     4  10  20  37  59  85 120 155 192 242 294 351
#     4  10  21  39  63  86 118 151 200 249 288 354
#     4  10  19  35  62  91 111 153 198 248 289 336
#     4  11  22  37  61  89 117 155 195 246 292 352
#     4  11  21  34  61  91 116 146 201 248 284 349
#     4  11  24  38  59  91 118 157 196 242 304 348
#     4  12  23  39  59  86 126 156 191 244 302 354
#     4  11  21  38  60  87 114 157 197 242 296 344
#
# _framework density 19.088711
#
# number of rings (size 3 to 8) (size 9 to 14) (size 15 to 20)
#    0.000    1.250    5.000    2.625    0.000    2.500 
#    0.000    0.000    0.000    3.000    0.000    0.000 
#    0.000    0.000    0.000    0.000    0.000    0.000 
#
# Total GULP energy -89179.260612 kJ/mol
# GULP energy per Si atom -5573.703788 kJ/mol
# Density = 1.904526 g / cm^3
# Si number density = 19.088711 Si / 1000 Ang^3
#
#
#
# Elastic Constant Matrix: (Units=GPa)
#
#
# Indices 1 2 3 4 5 6 
#
# 1 57.6564 43.6243 13.3905 1.0873 -8.2920 15.9768
# 2 43.6243 52.6699 37.5626 26.8909 0.0130 22.2796
# 3 13.3905 37.5626 72.4874 21.4526 -6.8007 7.3313
# 4 1.0873 26.8909 21.4526 21.4884 3.2977 5.1712
# 5 -8.2920 0.0130 -6.8007 3.2977 42.2028 0.7315
# 6 15.9768 22.2796 7.3313 5.1712 0.7315 25.9773
#
#
#
# Elastic Compliance Matrix: (Units=1/GPa)
#
#
# Indices 1 2 3 4 5 6 
#
# 1 -0.012237 0.051630 -0.006648 -0.051572 0.000965 -0.024639
# 2 0.051630 -0.076558 0.003713 0.085091 0.003843 0.015812
# 3 -0.006648 0.003713 0.021225 -0.026137 0.004155 0.000000
# 4 -0.051572 0.085091 -0.026137 -0.022385 -0.012118 -0.029087
# 5 0.000965 0.003843 0.004155 -0.012118 0.025558 -0.003370
# 6 -0.024639 0.015812 0.000000 -0.029087 -0.003370 0.045973
#
#
# Mechanical properties :
#
#
# Convention : Reuss Voigt Hill
#
# Bulk Modulus (GPa) = 33.53635 41.32984 37.43310
# Shear Modulus (GPa) = -47.22583 23.81613 -11.70485
#
# Velocity S-wave (km/s) = -4.97935 3.53605 -2.47894
# Velocity P-wave (km/s) = 3.93087 6.19435 3.38513
#
# Compressibility (1/GPa) = 0.02981839
#
# Stress axis : x y z
#
# Youngs Moduli (GPa) = -81.71731 -13.06202 47.11519
#
# Poissons Ratio (x) = 0.67439 0.31324
# Poissons Ratio (y) = 4.21905 -0.17494
# Poissons Ratio (z) = -0.54329 0.04850
#
# Static dielectric constant tensor:
#      x y z
#    x 1.653250 0.036570 -0.015350 
#    y 0.036570 1.687450 0.004920 
#    z -0.015350 0.004920 1.733290 
# 
# From -- ./inp_files/176514.got.cif
#   From: 2010.05.17/outbox.ucp.g08.bks.cvg/sg2_89_cif.got.tgz:176514.got - 2010.06.11 11:32:03.
