data_PCOD9072158
_publ_section_title
;
Structure prediction by ZEFSAII (Michael W. Deem and Ramdas Pophale) SiO2 
 PCOD9072158
Probable space group: P -1
;
_chemical_formula_sum "Si O2"
_cell_formula_units_Z 13
_cell_length_a 5.675535
_cell_length_b 12.901850
_cell_length_c 11.914232
_cell_angle_alpha 36.993984
_cell_angle_beta 104.143916
_cell_angle_gamma 84.934217
_cell_volume 444.938579
_symmetry_space_group_name_H-M "P -1"
_symmetry_group_IT_number 2
_symmetry_cell_setting 'triclinic'
loop_
_space_group_symop_operation_xyz
x,y,z
-x,-y,-z
loop_
_atom_site_type_symbol
_atom_site_label
_atom_site_fract_x
_atom_site_fract_y
_atom_site_fract_z
Si Si1 0.711314 0.311765 0.261927
Si Si2 0.500000 0.000000 0.500000
Si Si3 0.984324 0.685710 0.901019
Si Si4 0.643605 0.034136 0.806671
Si Si5 0.307059 0.492897 0.325851
Si Si6 0.856750 0.437221 0.408157
Si Si7 0.792873 0.012205 0.101018
O O1 0.967299 0.204767 0.295771
O O2 0.806796 0.384800 0.319477
O O3 0.590724 0.167559 0.400906
O O4 0.500000 0.500000 0.000000
O O5 0.678907 0.853134 0.753906
O O6 0.197961 0.586516 0.110699
O O7 0.000000 0.500000 0.000000
O O8 0.460466 0.254001 0.546066
O O9 0.685788 0.070101 0.912882
O O10 0.453300 0.929520 0.888394
O O11 0.961993 0.938237 0.885359
O O12 0.555049 0.539333 0.342775
O O13 0.039777 0.545751 0.325784
O O14 0.042627 0.225930 0.668386
#
# Coordination Sequence:
#
# PCOD9072158 Si02
#       7
#     2   1   2   2   2   2   2
#     4  12  22  39  59  82 118 154 195 242 289 345
#     4  12  26  40  60  84 114 158 198 240 294 342
#     4  12  22  39  59  82 118 154 195 242 289 345
#     4   8  14  24  40  68 104 137 177 228 276 329
#     4  10  18  30  52  77 107 150 188 230 287 338
#     4  10  18  30  52  77 107 150 188 230 287 338
#     4   8  14  24  40  68 104 137 177 228 276 329
#
# _framework density 29.217517000000001
#
# number of rings (size 3 to 8) (size 9 to 14) (size 15 to 20)
#    0.000    1.846    4.615    0.462    0.000    0.000 
#    0.000    0.000    0.000    0.000    0.000    1.077 
#    0.000    2.462    0.000    0.000    0.000    0.000 
#
# Total GULP energy -72590.846209 kJ/mol
# GULP energy per Si atom -5583.911247 kJ/mol
# Density = 2.915102 g / cm^3
# Si number density = 29.217517 Si / 1000 Ang^3
#
#
#
# Elastic Constant Matrix: (Units=GPa)
#
#
# Indices 1 2 3 4 5 6 
#
# 1 241.2103 54.3921 27.1631 -5.2233 -27.3978 21.0195
# 2 54.3921 98.4051 74.3408 7.9847 -6.9650 4.4977
# 3 27.1631 74.3408 202.7940 11.5839 0.5733 5.8528
# 4 -5.2233 7.9847 11.5839 50.5733 17.4529 -4.6528
# 5 -27.3978 -6.9650 0.5733 17.4529 52.1690 3.5578
# 6 21.0195 4.4977 5.8528 -4.6528 3.5578 41.0924
#
#
#
# Elastic Compliance Matrix: (Units=1/GPa)
#
#
# Indices 1 2 3 4 5 6 
#
# 1 0.005287 -0.002931 0.000452 -0.000259 0.002652 -0.002707
# 2 -0.002931 0.016124 -0.005409 -0.002062 0.001352 0.000154
# 3 0.000452 -0.005409 0.006910 -0.000640 -0.000301 -0.000670
# 4 -0.000259 -0.002062 -0.000640 0.023518 -0.008535 0.003851
# 5 0.002652 0.001352 -0.000301 -0.008535 0.023907 -0.004498
# 6 -0.002707 0.000154 -0.000670 0.003851 -0.004498 0.026624
#
#
# Mechanical properties :
#
#
# Convention : Reuss Voigt Hill
#
# Bulk Modulus (GPa) = 79.71269 94.91125 87.31197
# Shear Modulus (GPa) = 40.87316 54.53449 47.70382
#
# Velocity S-wave (km/s) = 3.74428 4.32499 4.04507
# Velocity P-wave (km/s) = 6.78488 7.58258 7.19479
#
# Compressibility (1/GPa) = 0.01254505
#
# Stress axis : x y z
#
# Youngs Moduli (GPa) = 189.12934 62.01756 144.71584
#
# Poissons Ratio (x) = 0.18180 -0.06539
# Poissons Ratio (y) = 0.55443 0.78274
# Poissons Ratio (z) = -0.08545 0.33544
#
# Static dielectric constant tensor:
#      x y z
#    x 1.398010 0.406430 -0.134450 
#    y 0.406430 1.990750 0.093230 
#    z -0.134450 0.093230 2.184290 
# 
# From -- ./inp_files/41007.got.cif
#   From: 2010.05.17/outbox.cif.g08.bks.cpg/sg2_21_cif.got.tgz:41007.got - 2010.06.03 11:33:40.
