data_PCOD9072080
_publ_section_title
;
Structure prediction by ZEFSAII (Michael W. Deem and Ramdas Pophale) SiO2 
 PCOD9072080
Probable space group: P -1
;
_chemical_formula_sum "Si O2"
_cell_formula_units_Z 10
_cell_length_a 12.544155
_cell_length_b 7.956337
_cell_length_c 8.116377
_cell_angle_alpha 35.826479
_cell_angle_beta 127.370335
_cell_angle_gamma 111.359202
_cell_volume 362.298787
_symmetry_space_group_name_H-M "P -1"
_symmetry_group_IT_number 2
_symmetry_cell_setting 'triclinic'
loop_
_space_group_symop_operation_xyz
x,y,z
-x,-y,-z
loop_
_atom_site_type_symbol
_atom_site_label
_atom_site_fract_x
_atom_site_fract_y
_atom_site_fract_z
Si Si1 0.093906 0.615061 0.263468
Si Si2 0.629144 0.560045 0.170341
Si Si3 0.284504 0.104789 0.621534
Si Si4 0.440346 0.803536 0.330629
Si Si5 0.060635 0.844935 0.504781
O O1 0.204988 0.589662 0.534934
O O2 0.175864 0.396215 0.366755
O O3 0.963237 0.479298 0.273308
O O4 0.040069 0.949534 0.885835
O O5 0.582524 0.481477 0.373727
O O6 0.500000 0.500000 0.000000
O O7 0.619630 0.902496 0.849403
O O8 0.401129 0.202991 0.550116
O O9 0.211413 0.903810 0.602698
O O10 0.354138 0.901134 0.004297
O O11 0.000000 0.000000 0.500000
#
# Coordination Sequence:
#
# PCOD9072080 Si02
#       5
#     2   2   2   2   2
#     4  10  20  32  52  79 103 136 171 207 254 308
#     4  11  22  38  55  73 102 141 183 215 247 299
#     4   9  19  34  54  83 112 129 164 213 271 316
#     4  10  22  34  55  81 105 136 169 216 263 306
#     4  10  18  30  51  78 109 135 160 204 261 316
#
# _framework density 27.601528999999999
#
# number of rings (size 3 to 8) (size 9 to 14) (size 15 to 20)
#    0.000    2.000    0.000    6.600    0.000   13.600 
#    0.000    0.000    0.000    7.200    0.000    0.000 
#    0.000    0.000    0.000    0.000    0.000    0.000 
#
# Total GULP energy -55979.307089 kJ/mol
# GULP energy per Si atom -5597.930709 kJ/mol
# Density = 2.753871 g / cm^3
# Si number density = 27.601529 Si / 1000 Ang^3
#
#
#
# Elastic Constant Matrix: (Units=GPa)
#
#
# Indices 1 2 3 4 5 6 
#
# 1 94.9621 -6.2349 1.4655 10.4702 -8.2257 31.0586
# 2 -6.2349 144.0537 10.5051 24.0536 4.6379 34.5731
# 3 1.4655 10.5051 82.3930 0.1469 -0.4014 -2.7933
# 4 10.4702 24.0536 0.1469 41.9230 11.7677 4.1023
# 5 -8.2257 4.6379 -0.4014 11.7677 33.7984 1.1497
# 6 31.0586 34.5731 -2.7933 4.1023 1.1497 42.3853
#
#
#
# Elastic Compliance Matrix: (Units=1/GPa)
#
#
# Indices 1 2 3 4 5 6 
#
# 1 0.018614 0.006578 -0.001746 -0.008642 0.007244 -0.018480
# 2 0.006578 0.011990 -0.002092 -0.008041 0.003208 -0.014047
# 3 -0.001746 -0.002092 0.012555 0.001400 -0.000602 0.003694
# 4 -0.008642 -0.008041 0.001400 0.033253 -0.012905 0.010115
# 5 0.007244 0.003208 -0.000602 -0.012905 0.035657 -0.007683
# 6 -0.018480 -0.014047 0.003694 0.010115 -0.007683 0.048065
#
#
# Mechanical properties :
#
#
# Convention : Reuss Voigt Hill
#
# Bulk Modulus (GPa) = 20.55956 36.98671 28.77313
# Shear Modulus (GPa) = 29.26272 44.66621 36.96446
#
# Velocity S-wave (km/s) = 3.25958 4.02711 3.66350
# Velocity P-wave (km/s) = 4.65095 5.92055 5.32373
#
# Compressibility (1/GPa) = 0.04863918
#
# Stress axis : x y z
#
# Youngs Moduli (GPa) = 53.72309 83.40521 79.65253
#
# Poissons Ratio (x) = -0.54864 0.13904
# Poissons Ratio (y) = -0.35339 0.16663
# Poissons Ratio (z) = 0.09378 0.17448
#
# Static dielectric constant tensor:
#      x y z
#    x 2.276160 -0.114390 0.055470 
#    y -0.114390 2.219020 0.026360 
#    z 0.055470 0.026360 2.049310 
# 
# From -- ./inp_files/17989.got.cif
#   From: 2010.05.17/outbox.cif.g08.bks.cpg/sg2_9_cif.got.tgz:17989.got - 2010.06.03 11:33:40.
