data_PCOD9072530
_publ_section_title
;
Structure prediction by ZEFSAII (Michael W. Deem and Ramdas Pophale) SiO2 
 PCOD9072530
Probable space group: P -1
;
_chemical_formula_sum "Si O2"
_cell_formula_units_Z 16
_cell_length_a 15.000000
_cell_length_b 9.000000
_cell_length_c 15.000000
_cell_angle_alpha 80.000000
_cell_angle_beta 40.000000
_cell_angle_gamma 50.000000
_cell_volume 759.999475
_symmetry_space_group_name_H-M "P -1"
_symmetry_group_IT_number 2
_symmetry_cell_setting 'triclinic'
loop_
_space_group_symop_operation_xyz
x,y,z
-x,-y,-z
loop_
_atom_site_type_symbol
_atom_site_label
_atom_site_fract_x
_atom_site_fract_y
_atom_site_fract_z
Si Si1 0.955378 0.462271 0.798270
Si Si2 0.620197 0.048857 0.572109
Si Si3 0.079905 0.138207 0.225682
Si Si4 0.718997 0.751742 0.687480
Si Si5 0.583733 0.140345 0.848322
Si Si6 0.367537 0.832032 0.866929
Si Si7 0.342347 0.689218 0.381763
Si Si8 0.800381 0.761682 0.180286
O O1 0.963033 0.640775 0.768702
O O2 0.075246 0.311653 0.815112
O O3 0.695335 0.623231 0.972089
O O4 0.123768 0.231837 0.623210
O O5 0.597103 0.244813 0.592464
O O6 0.420603 0.158270 0.649117
O O7 0.593712 0.977391 0.691024
O O8 0.866969 0.234266 0.427184
O O9 0.307648 0.908092 0.136007
O O10 0.155654 0.014863 0.081988
O O11 0.590743 0.709926 0.762635
O O12 0.000000 0.500000 0.500000
O O13 0.661755 0.895872 0.804450
O O14 0.697168 0.158370 0.686957
O O15 0.456598 0.599274 0.778617
O O16 0.290563 0.014052 0.828285
O O17 0.000000 0.500000 0.000000
#
# Coordination Sequence:
#
# PCOD9072530 Si02
#       8
#     2   2   2   2   2   2   2   2
#     4  12  23  44  75 100 130 176 240 286 328 404
#     4  10  24  40  67  99 132 182 224 272 341 407
#     4  12  24  43  71 104 134 178 235 274 339 407
#     4  10  19  38  64  95 133 173 224 283 334 386
#     4  11  24  43  67 102 139 180 222 284 341 401
#     4  11  24  42  69 100 136 181 222 280 341 405
#     4  11  26  46  62 102 151 178 216 273 355 408
#     4  11  21  47  71  99 134 171 231 293 339 386
#
# _framework density 21.052645999999999
#
# number of rings (size 3 to 8) (size 9 to 14) (size 15 to 20)
#    0.000    1.000    2.500    5.625    3.500    1.500 
#    0.000    5.000    0.000    0.000    0.000    0.000 
#    0.000    0.000    0.000    0.000    0.000    0.000 
#
# Total GULP energy -89284.744512 kJ/mol
# GULP energy per Si atom -5580.296532 kJ/mol
# Density = 2.100473 g / cm^3
# Si number density = 21.052646 Si / 1000 Ang^3
#
#
#
# Elastic Constant Matrix: (Units=GPa)
#
#
# Indices 1 2 3 4 5 6 
#
# 1 76.4792 45.2221 29.1577 0.9016 7.9604 -1.5909
# 2 45.2221 92.3477 33.2989 1.0424 3.0915 11.0820
# 3 29.1577 33.2989 115.0316 6.0762 2.0289 13.4821
# 4 0.9016 1.0424 6.0762 41.7616 3.0529 6.9368
# 5 7.9604 3.0915 2.0289 3.0529 34.7536 11.7633
# 6 -1.5909 11.0820 13.4821 6.9368 11.7633 42.6471
#
#
#
# Elastic Compliance Matrix: (Units=1/GPa)
#
#
# Indices 1 2 3 4 5 6 
#
# 1 0.020536 -0.009467 -0.003027 -0.000317 -0.005615 0.005783
# 2 -0.009467 0.016655 -0.001933 0.000700 0.002376 -0.004839
# 3 -0.003027 -0.001933 0.010414 -0.000984 0.001403 -0.003130
# 4 -0.000317 0.000700 -0.000984 0.024751 -0.000864 -0.003670
# 5 -0.005615 0.002376 0.001403 -0.000864 0.033338 -0.010325
# 6 0.005783 -0.004839 -0.003130 -0.003670 -0.010325 0.029356
#
#
# Mechanical properties :
#
#
# Convention : Reuss Voigt Hill
#
# Bulk Modulus (GPa) = 53.33233 55.46843 54.40038
# Shear Modulus (GPa) = 29.38507 35.57778 32.48143
#
# Velocity S-wave (km/s) = 3.74008 4.11535 3.93220
# Velocity P-wave (km/s) = 6.63617 6.99901 6.82001
#
# Compressibility (1/GPa) = 0.01875035
#
# Stress axis : x y z
#
# Youngs Moduli (GPa) = 48.69515 60.04162 96.02299
#
# Poissons Ratio (x) = 0.56844 0.29064
# Poissons Ratio (y) = 0.46102 0.18563
# Poissons Ratio (z) = 0.14739 0.11607
#
# Static dielectric constant tensor:
#      x y z
#    x 1.865230 -0.035550 0.095650 
#    y -0.035550 1.754420 -0.063450 
#    z 0.095650 -0.063450 1.883130 
# 
# From -- ./inp_files/315511.got.cif
#   From: 2010.05.17/outbox.ucp.g08.bks.cvg/sg2_158_cif.got.tgz:315511.got - 2010.06.11 11:32:03.
