data_PCOD9072132
_publ_section_title
;
Structure prediction by ZEFSAII (Michael W. Deem and Ramdas Pophale) SiO2 
 PCOD9072132
Probable space group: P -1
;
_chemical_formula_sum "Si O2"
_cell_formula_units_Z 16
_cell_length_a 18.000000
_cell_length_b 24.000000
_cell_length_c 12.000000
_cell_angle_alpha 150.000000
_cell_angle_beta 140.000000
_cell_angle_gamma 20.000000
_cell_volume 851.251203
_symmetry_space_group_name_H-M "P -1"
_symmetry_group_IT_number 2
_symmetry_cell_setting 'triclinic'
loop_
_space_group_symop_operation_xyz
x,y,z
-x,-y,-z
loop_
_atom_site_type_symbol
_atom_site_label
_atom_site_fract_x
_atom_site_fract_y
_atom_site_fract_z
Si Si1 0.316467 0.650216 0.835877
Si Si2 0.843905 0.627015 0.866586
Si Si3 0.347507 0.203741 0.817651
Si Si4 0.145045 0.117441 0.718869
Si Si5 0.659712 0.597392 0.426204
Si Si6 0.979107 0.890786 0.673120
Si Si7 0.570694 0.108647 0.701403
Si Si8 0.253058 0.548920 0.983819
O O1 0.316077 0.535763 0.705051
O O2 0.565610 0.499869 0.875533
O O3 0.216559 0.709505 0.698410
O O4 0.141124 0.888585 0.095613
O O5 0.780328 0.596279 0.637692
O O6 0.104684 0.400628 0.815518
O O7 0.697587 0.725426 0.982856
O O8 0.815914 0.781111 0.070646
O O9 0.516706 0.136307 0.818342
O O10 0.438823 0.002394 0.563406
O O11 0.028813 0.167015 0.555477
O O12 0.980925 0.234100 0.840590
O O13 0.393709 0.853714 0.554496
O O14 0.751309 0.489118 0.217872
O O15 0.809992 0.964765 0.691834
O O16 0.374848 0.347932 0.841692
#
# Coordination Sequence:
#
# PCOD9072132 Si02
#       8
#     2   2   2   2   2   2   2   2
#     4  10  23  44  70  93 124 176 216 268 322 373
#     4  11  23  40  64  94 133 170 214 266 326 381
#     4  10  20  36  64  95 125 169 213 267 317 380
#     4  12  24  43  68  96 134 172 212 266 327 383
#     4  12  25  44  65  93 135 176 211 265 319 393
#     4  10  21  43  71  94 128 168 213 275 327 367
#     4  10  18  37  63  93 132 164 209 265 323 377
#     4  11  24  43  65  94 132 175 216 262 323 385
#
# _framework density 18.795862
#
# number of rings (size 3 to 8) (size 9 to 14) (size 15 to 20)
#    0.000    1.250    5.000    1.500    1.750    1.500 
#    6.750    1.250    0.000    0.000    0.000    0.000 
#    0.000    0.000    0.000    0.000    0.000    0.000 
#
# Total GULP energy -89285.735453 kJ/mol
# GULP energy per Si atom -5580.358466 kJ/mol
# Density = 1.875308 g / cm^3
# Si number density = 18.795862 Si / 1000 Ang^3
#
#
#
# Elastic Constant Matrix: (Units=GPa)
#
#
# Indices 1 2 3 4 5 6 
#
# 1 108.0664 31.8964 66.3824 -8.7584 -10.8766 0.2447
# 2 31.8964 76.5324 39.3454 -21.8804 -13.2483 2.0363
# 3 66.3824 39.3454 121.3398 -24.1412 -8.3062 2.3712
# 4 -8.7584 -21.8804 -24.1412 42.7396 7.0376 -5.9676
# 5 -10.8766 -13.2483 -8.3062 7.0376 55.4025 7.6056
# 6 0.2447 2.0363 2.3712 -5.9676 7.6056 22.2894
#
#
#
# Elastic Compliance Matrix: (Units=1/GPa)
#
#
# Indices 1 2 3 4 5 6 
#
# 1 0.014656 -0.002792 -0.007603 -0.003029 0.001513 -0.000424
# 2 -0.002792 0.018015 -0.002822 0.006575 0.002560 -0.000428
# 3 -0.007603 -0.002822 0.014303 0.005269 -0.000760 0.000490
# 4 -0.003029 0.006575 0.005269 0.030809 -0.003277 0.008239
# 5 0.001513 0.002560 -0.000760 -0.003277 0.020359 -0.007994
# 6 -0.000424 -0.000428 0.000490 0.008239 -0.007994 0.049790
#
#
# Mechanical properties :
#
#
# Convention : Reuss Voigt Hill
#
# Bulk Modulus (GPa) = 48.68883 64.57632 56.63257
# Shear Modulus (GPa) = 27.59173 35.30726 31.44950
#
# Velocity S-wave (km/s) = 3.83556 4.33882 4.09493
# Velocity P-wave (km/s) = 6.75097 7.71568 7.24939
#
# Compressibility (1/GPa) = 0.02053859
#
# Stress axis : x y z
#
# Youngs Moduli (GPa) = 68.23156 55.50805 69.91567
#
# Poissons Ratio (x) = 0.15498 0.53160
# Poissons Ratio (y) = 0.19051 0.19733
# Poissons Ratio (z) = 0.51879 0.15666
#
# Static dielectric constant tensor:
#      x y z
#    x 1.681770 -0.009480 0.005870 
#    y -0.009480 1.668930 0.007250 
#    z 0.005870 0.007250 1.661440 
# 
# From -- ./inp_files/306166.got.cif
#   From: 2010.05.17/outbox.ucp.g08.bks.cvg/sg2_154_cif.got.tgz:306166.got - 2010.06.11 11:32:03.
