data_PCOD9072354
_publ_section_title
;
Structure prediction by ZEFSAII (Michael W. Deem and Ramdas Pophale) SiO2 
 PCOD9072354
Probable space group: P -1
;
_chemical_formula_sum "Si O2"
_cell_formula_units_Z 14
_cell_length_a 8.497350
_cell_length_b 5.377268
_cell_length_c 19.478679
_cell_angle_alpha 138.735368
_cell_angle_beta 114.722862
_cell_angle_gamma 79.322651
_cell_volume 520.677779
_symmetry_space_group_name_H-M "P -1"
_symmetry_group_IT_number 2
_symmetry_cell_setting 'triclinic'
loop_
_space_group_symop_operation_xyz
x,y,z
-x,-y,-z
loop_
_atom_site_type_symbol
_atom_site_label
_atom_site_fract_x
_atom_site_fract_y
_atom_site_fract_z
Si Si1 0.908402 0.063164 0.871659
Si Si2 0.389386 0.931083 0.083879
Si Si3 0.857800 0.812905 0.663141
Si Si4 0.406697 0.278063 0.585475
Si Si5 0.982776 0.145153 0.616594
Si Si6 0.700287 0.956950 0.067372
Si Si7 0.657811 0.146262 0.395314
O O1 0.759452 0.901105 0.867480
O O2 0.088991 0.911157 0.865442
O O3 0.824012 0.005478 0.768417
O O4 0.000000 0.500000 0.000000
O O5 0.598902 0.106236 0.144111
O O6 0.361863 0.508645 0.028123
O O7 0.339925 0.910144 0.988974
O O8 0.984850 0.524448 0.650132
O O9 0.701675 0.509984 0.532484
O O10 0.931596 0.124077 0.683414
O O11 0.437892 0.713509 0.657039
O O12 0.500000 0.000000 0.500000
O O13 0.194054 0.135702 0.506144
O O14 0.457411 0.199404 0.655010
O O15 0.157032 0.970303 0.611036
#
# Coordination Sequence:
#
# PCOD9072354 Si02
#       7
#     2   2   2   2   2   2   2
#     4  10  21  36  59  86 113 152 195 237 291 338
#     4   9  18  33  54  78 106 142 181 235 283 334
#     4  10  20  33  56  82 112 141 191 236 274 345
#     4  10  18  30  55  86 112 143 184 227 280 339
#     4  10  20  37  59  80 109 155 186 229 290 337
#     4   9  18  33  54  79 104 141 188 227 282 336
#     4  10  19  36  58  81 110 156 183 227 290 337
#
# _framework density 26.888031000000002
#
# number of rings (size 3 to 8) (size 9 to 14) (size 15 to 20)
#    0.000    2.286    0.000    5.143    0.000    4.571 
#    0.000    0.000   25.143    0.000    0.000    0.000 
#    0.000    0.000    0.000    0.000    0.000    0.000 
#
# Total GULP energy -78119.151372 kJ/mol
# GULP energy per Si atom -5579.939384 kJ/mol
# Density = 2.682683 g / cm^3
# Si number density = 26.888031 Si / 1000 Ang^3
#
#
#
# Elastic Constant Matrix: (Units=GPa)
#
#
# Indices 1 2 3 4 5 6 
#
# 1 206.7820 40.0026 36.6543 -0.4123 -21.6572 14.5497
# 2 40.0026 199.5254 2.7372 -0.5576 -2.3147 21.0994
# 3 36.6543 2.7372 83.2807 -1.7733 -7.3440 16.3886
# 4 -0.4123 -0.5576 -1.7733 27.4802 12.2907 -11.5422
# 5 -21.6572 -2.3147 -7.3440 12.2907 38.3218 -13.5480
# 6 14.5497 21.0994 16.3886 -11.5422 -13.5480 41.6704
#
#
#
# Elastic Compliance Matrix: (Units=1/GPa)
#
#
# Indices 1 2 3 4 5 6 
#
# 1 0.005787 -0.001103 -0.002269 -0.001518 0.003283 0.000077
# 2 -0.001103 0.005558 0.000847 -0.000773 -0.001051 -0.003318
# 3 -0.002269 0.000847 0.014040 -0.001427 -0.000052 -0.005570
# 4 -0.001518 -0.000773 -0.001427 0.046076 -0.012338 0.010234
# 5 0.003283 -0.001051 -0.000052 -0.012338 0.034366 0.007162
# 6 0.000077 -0.003318 -0.005570 0.010234 0.007162 0.033005
#
#
# Mechanical properties :
#
#
# Convention : Reuss Voigt Hill
#
# Bulk Modulus (GPa) = 49.17988 72.04180 60.61084
# Shear Modulus (GPa) = 33.18740 48.84074 41.01407
#
# Velocity S-wave (km/s) = 3.51705 4.26661 3.90983
# Velocity P-wave (km/s) = 5.90111 7.15006 6.55540
#
# Compressibility (1/GPa) = 0.02033352
#
# Stress axis : x y z
#
# Youngs Moduli (GPa) = 172.79989 179.92136 71.22744
#
# Poissons Ratio (x) = 0.19853 0.16160
# Poissons Ratio (y) = 0.19068 -0.06031
# Poissons Ratio (z) = 0.39205 -0.15235
#
# Static dielectric constant tensor:
#      x y z
#    x 2.192900 -0.028370 -0.041840 
#    y -0.028370 2.192130 0.078270 
#    z -0.041840 0.078270 2.302680 
# 
# From -- ./inp_files/116248.got.cif
#   From: 2010.05.17/outbox.cif.g08.bks.cpg/sg2_59_cif.got.tgz:116248.got - 2010.06.03 11:33:40.
