data_PCOD9072457
_publ_section_title
;
Structure prediction by ZEFSAII (Michael W. Deem and Ramdas Pophale) SiO2 
 PCOD9072457
Probable space group: P -1
;
_chemical_formula_sum "Si O2"
_cell_formula_units_Z 16
_cell_length_a 12.000000
_cell_length_b 12.000000
_cell_length_c 9.000000
_cell_angle_alpha 60.000000
_cell_angle_beta 80.000000
_cell_angle_gamma 50.000000
_cell_volume 838.191741
_symmetry_space_group_name_H-M "P -1"
_symmetry_group_IT_number 2
_symmetry_cell_setting 'triclinic'
loop_
_space_group_symop_operation_xyz
x,y,z
-x,-y,-z
loop_
_atom_site_type_symbol
_atom_site_label
_atom_site_fract_x
_atom_site_fract_y
_atom_site_fract_z
Si Si1 0.553732 0.262156 0.613070
Si Si2 0.430314 0.252855 0.363688
Si Si3 0.745055 0.884184 0.523089
Si Si4 0.736187 0.867646 0.873587
Si Si5 0.050647 0.640480 0.476699
Si Si6 0.005846 0.401293 0.808335
Si Si7 0.262183 0.427040 0.012524
Si Si8 0.306305 0.585689 0.628021
O O1 0.432935 0.319056 0.476227
O O2 0.463621 0.402024 0.668987
O O3 0.664909 0.282673 0.492811
O O4 0.621952 0.073330 0.774662
O O5 0.322723 0.207837 0.428612
O O6 0.376758 0.371732 0.155866
O O7 0.599987 0.080549 0.413747
O O8 0.800067 0.845572 0.707182
O O9 0.881777 0.812743 0.432733
O O10 0.689290 0.749427 0.950839
O O11 0.852149 0.780281 0.039657
O O12 0.056302 0.504832 0.666670
O O13 0.175236 0.642285 0.508263
O O14 0.064288 0.605251 0.321206
O O15 0.892503 0.484299 0.919922
O O16 0.259952 0.547027 0.817876
#
# Coordination Sequence:
#
# PCOD9072457 Si02
#       8
#     2   2   2   2   2   2   2   2
#     4  10  24  42  57  82 124 159 191 233 292 356
#     4   9  18  35  58  86 117 151 189 237 287 340
#     4   9  18  33  59  88 119 146 186 246 290 334
#     4  10  19  37  59  85 119 146 194 242 285 339
#     4  11  21  36  59  89 118 153 191 243 297 337
#     4  11  21  34  59  92 117 145 193 251 288 339
#     4  11  20  36  63  90 116 149 196 246 283 339
#     4  11  24  40  59  84 120 160 192 236 292 348
#
# _framework density 19.088711
#
# number of rings (size 3 to 8) (size 9 to 14) (size 15 to 20)
#    0.000    1.750    3.750    2.625    1.750    2.000 
#    0.000    6.250    0.000    0.000    0.000    0.000 
#    0.000    0.000    0.000    0.000    0.000    0.000 
#
# Total GULP energy -89130.055250 kJ/mol
# GULP energy per Si atom -5570.628453 kJ/mol
# Density = 1.904526 g / cm^3
# Si number density = 19.088711 Si / 1000 Ang^3
#
#
#
# Elastic Constant Matrix: (Units=GPa)
#
#
# Indices 1 2 3 4 5 6 
#
# 1 61.9687 3.3447 33.7985 2.8979 5.7853 -2.5859
# 2 3.3447 49.7730 11.0953 -1.2909 -2.0600 -9.9303
# 3 33.7985 11.0953 98.3380 -0.0122 13.5003 -3.5892
# 4 2.8979 -1.2909 -0.0122 23.5020 -5.6792 1.9042
# 5 5.7853 -2.0600 13.5003 -5.6792 31.4484 1.7066
# 6 -2.5859 -9.9303 -3.5892 1.9042 1.7066 19.7689
#
#
#
# Elastic Compliance Matrix: (Units=1/GPa)
#
#
# Indices 1 2 3 4 5 6 
#
# 1 0.020123 0.000407 -0.006689 -0.002978 -0.001452 0.002035
# 2 0.000407 0.022917 -0.002621 0.000841 0.002116 0.010826
# 3 -0.006689 -0.002621 0.013457 -0.000544 -0.004855 0.000723
# 4 -0.002978 0.000841 -0.000544 0.045653 0.009367 -0.005272
# 5 -0.001452 0.002116 -0.004855 0.009367 0.036199 -0.004036
# 6 0.002035 0.010826 0.000723 -0.005272 -0.004036 0.057276
#
#
# Mechanical properties :
#
#
# Convention : Reuss Voigt Hill
#
# Bulk Modulus (GPa) = 25.84515 34.06184 29.95349
# Shear Modulus (GPa) = 22.09187 25.73329 23.91258
#
# Velocity S-wave (km/s) = 3.40564 3.67562 3.54320
# Velocity P-wave (km/s) = 5.38827 5.99135 5.69779
#
# Compressibility (1/GPa) = 0.03869198
#
# Stress axis : x y z
#
# Youngs Moduli (GPa) = 49.69392 43.63508 74.31275
#
# Poissons Ratio (x) = -0.01778 0.49708
# Poissons Ratio (y) = -0.02025 0.19478
# Poissons Ratio (z) = 0.33240 0.11437
#
# Static dielectric constant tensor:
#      x y z
#    x 1.678720 0.002630 0.026710 
#    y 0.002630 1.733180 -0.002920 
#    z 0.026710 -0.002920 1.656520 
# 
# From -- ./inp_files/262038.got.cif
#   From: 2010.05.17/outbox.ucp.g08.bks.cvg/sg2_132_cif.got.tgz:262038.got - 2010.06.11 11:32:03.
