data_PCOD9072811
_publ_section_title
;
Structure prediction by ZEFSAII (Michael W. Deem and Ramdas Pophale) SiO2 
 PCOD9072811
Probable space group: P -1
;
_chemical_formula_sum "Si O2"
_cell_formula_units_Z 14
_cell_length_a 9.000000
_cell_length_b 9.000000
_cell_length_c 18.000000
_cell_angle_alpha 50.000000
_cell_angle_beta 60.000000
_cell_angle_gamma 100.000000
_cell_volume 643.920384
_symmetry_space_group_name_H-M "P -1"
_symmetry_group_IT_number 2
_symmetry_cell_setting 'triclinic'
loop_
_space_group_symop_operation_xyz
x,y,z
-x,-y,-z
loop_
_atom_site_type_symbol
_atom_site_label
_atom_site_fract_x
_atom_site_fract_y
_atom_site_fract_z
Si Si1 0.851503 0.794288 0.249379
Si Si2 0.007438 0.350325 0.980062
Si Si3 0.595420 0.809222 0.712772
Si Si4 0.047040 0.205044 0.350603
Si Si5 0.710076 0.655231 0.502027
Si Si6 0.788740 0.247223 0.824395
Si Si7 0.421694 0.896972 0.240398
O O1 0.801148 0.746401 0.365323
O O2 0.582558 0.514955 0.367265
O O3 0.060514 0.814685 0.170495
O O4 0.946690 0.085609 0.110183
O O5 0.321111 0.608800 0.803030
O O6 0.000000 0.500000 0.000000
O O7 0.736803 0.162376 0.062409
O O8 0.661912 0.641891 0.771835
O O9 0.850985 0.042497 0.522795
O O10 0.612184 0.971333 0.727005
O O11 0.087013 0.467963 0.254140
O O12 0.893349 0.944746 0.412934
O O13 0.672570 0.396511 0.615070
O O14 0.754763 0.221129 0.750765
O O15 0.500000 0.000000 0.000000
#
# Coordination Sequence:
#
# PCOD9072811 Si02
#       7
#     2   2   2   2   2   2   2
#     4  10  22  41  64  91 125 161 202 251 301 361
#     4   9  20  39  65  91 117 157 206 250 296 358
#     4  10  20  37  62  92 119 156 207 247 295 359
#     4  11  23  36  58  90 124 157 199 253 298 354
#     4  10  22  41  65  92 121 161 207 249 302 359
#     4  12  26  41  59  91 127 160 202 252 307 361
#     4  10  21  41  66  87 121 168 203 245 304 365
#
# _framework density 21.741817999999999
#
# number of rings (size 3 to 8) (size 9 to 14) (size 15 to 20)
#    0.000    1.714    0.000    4.286    0.000    6.857 
#    0.000    8.571    0.000    0.000    0.000    0.000 
#    0.000    0.000    0.000    0.000    0.000    0.000 
#
# Total GULP energy -77962.853170 kJ/mol
# GULP energy per Si atom -5568.775226 kJ/mol
# Density = 2.169233 g / cm^3
# Si number density = 21.741818 Si / 1000 Ang^3
#
#
#
# Elastic Constant Matrix: (Units=GPa)
#
#
# Indices 1 2 3 4 5 6 
#
# 1 85.9976 29.1299 17.0213 0.7440 -28.6312 -32.9907
# 2 29.1299 104.9046 23.3781 -17.5919 -6.2471 -20.7530
# 3 17.0213 23.3781 63.1958 -2.9533 -26.8537 -16.0565
# 4 0.7440 -17.5919 -2.9533 37.5259 -2.8698 -5.4115
# 5 -28.6312 -6.2471 -26.8537 -2.8698 34.8580 7.6141
# 6 -32.9907 -20.7530 -16.0565 -5.4115 7.6141 35.7770
#
#
#
# Elastic Compliance Matrix: (Units=1/GPa)
#
#
# Indices 1 2 3 4 5 6 
#
# 1 0.028911 -0.003321 0.011348 0.004389 0.026843 0.024777
# 2 -0.003321 0.013073 -0.004295 0.006175 -0.004149 0.004410
# 3 0.011348 -0.004295 0.031285 0.004852 0.029453 0.016479
# 4 0.004389 0.006175 0.004852 0.032337 0.008287 0.012934
# 5 0.026843 -0.004149 0.029453 0.008287 0.068507 0.022238
# 6 0.024777 0.004410 0.016479 0.012934 0.022238 0.057976
#
#
# Mechanical properties :
#
#
# Convention : Reuss Voigt Hill
#
# Bulk Modulus (GPa) = 12.38645 43.68403 28.03524
# Shear Modulus (GPa) = 19.87787 33.93675 26.90731
#
# Velocity S-wave (km/s) = 3.02697 3.95511 3.52175
# Velocity P-wave (km/s) = 4.23393 6.40257 5.42766
#
# Compressibility (1/GPa) = 0.08073340
#
# Stress axis : x y z
#
# Youngs Moduli (GPa) = 34.58884 76.49538 31.96378
#
# Poissons Ratio (x) = 0.25403 -0.36274
# Poissons Ratio (y) = 0.11486 0.13730
# Poissons Ratio (z) = -0.39253 0.32858
#
# Static dielectric constant tensor:
#      x y z
#    x 6.068200 0.150160 3.209540 
#    y 0.150160 1.783590 0.127850 
#    z 3.209540 0.127850 4.239300 
# 
# From -- ./inp_files/174910.got.cif
#   From: 2010.05.17/outbox.ucp.g08.bks.cvg/sg2_88_cif.got.tgz:174910.got - 2010.06.11 11:32:03.
