data_PCOD9072464
_publ_section_title
;
Structure prediction by ZEFSAII (Michael W. Deem and Ramdas Pophale) SiO2 
 PCOD9072464
Probable space group: P -1
;
_chemical_formula_sum "Si O2"
_cell_formula_units_Z 16
_cell_length_a 24.000000
_cell_length_b 15.000000
_cell_length_c 15.000000
_cell_angle_alpha 150.000000
_cell_angle_beta 150.000000
_cell_angle_gamma 20.000000
_cell_volume 879.333414
_symmetry_space_group_name_H-M "P -1"
_symmetry_group_IT_number 2
_symmetry_cell_setting 'triclinic'
loop_
_space_group_symop_operation_xyz
x,y,z
-x,-y,-z
loop_
_atom_site_type_symbol
_atom_site_label
_atom_site_fract_x
_atom_site_fract_y
_atom_site_fract_z
Si Si1 0.630072 0.477279 0.946429
Si Si2 0.366814 0.283359 0.668883
Si Si3 0.118824 0.665716 0.294503
Si Si4 0.819493 0.592813 0.223920
Si Si5 0.112727 0.420983 0.902599
Si Si6 0.230213 0.917515 0.725252
Si Si7 0.251153 0.302906 0.341205
Si Si8 0.779032 0.899340 0.595374
O O1 0.424866 0.703760 0.844007
O O2 0.703396 0.189194 0.769324
O O3 0.662844 0.519980 0.129867
O O4 0.712891 0.541692 0.058577
O O5 0.279294 0.399234 0.549592
O O6 0.300870 0.170997 0.519804
O O7 0.570042 0.015884 0.702172
O O8 0.193664 0.776329 0.499043
O O9 0.204806 0.458888 0.319305
O O10 0.147252 0.527289 0.120342
O O11 0.915643 0.910184 0.249780
O O12 0.821781 0.617300 0.140488
O O13 0.759233 0.839598 0.414484
O O14 0.018259 0.329696 0.301397
O O15 0.907968 0.632599 0.800522
O O16 0.190426 0.139495 0.802129
#
# Coordination Sequence:
#
# PCOD9072464 Si02
#       8
#     2   2   2   2   2   2   2   2
#     4  11  22  39  62  89 117 153 195 245 292 344
#     4  10  20  36  61  93 119 152 191 238 298 348
#     4  10  21  39  60  85 119 159 191 235 290 348
#     4  10  23  40  61  85 114 158 199 238 292 347
#     4  11  21  40  62  84 118 161 194 234 287 350
#     4  10  22  39  59  88 119 153 194 240 288 343
#     4  10  19  37  61  88 125 154 188 240 290 348
#     4  10  21  42  60  84 121 152 193 247 292 341
#
# _framework density 18.195601
#
# number of rings (size 3 to 8) (size 9 to 14) (size 15 to 20)
#    0.000    1.750    1.250    4.125    0.000    2.500 
#    6.750    4.375    0.000    0.000    0.000    0.000 
#    0.000    0.000    0.000    0.000    0.000    0.000 
#
# Total GULP energy -89204.551476 kJ/mol
# GULP energy per Si atom -5575.284467 kJ/mol
# Density = 1.815419 g / cm^3
# Si number density = 18.195601 Si / 1000 Ang^3
#
#
#
# Elastic Constant Matrix: (Units=GPa)
#
#
# Indices 1 2 3 4 5 6 
#
# 1 98.8220 17.5709 63.2721 2.0670 -27.9630 -0.5425
# 2 17.5709 71.5781 45.7845 -5.7046 -5.9341 -7.0272
# 3 63.2721 45.7845 183.8621 12.5579 -23.4674 3.0470
# 4 2.0670 -5.7046 12.5579 41.1055 -6.4124 2.5697
# 5 -27.9630 -5.9341 -23.4674 -6.4124 46.9858 -4.8613
# 6 -0.5425 -7.0272 3.0470 2.5697 -4.8613 20.1786
#
#
#
# Elastic Compliance Matrix: (Units=1/GPa)
#
#
# Indices 1 2 3 4 5 6 
#
# 1 0.014933 0.000133 -0.004405 0.001570 0.007192 0.002646
# 2 0.000133 0.018042 -0.004752 0.003709 0.001196 0.006820
# 3 -0.004405 -0.004752 0.008414 -0.002794 0.000330 -0.002609
# 4 0.001570 0.003709 -0.002794 0.026210 0.003508 -0.000737
# 5 0.007192 0.001196 0.000330 0.003508 0.027043 0.006628
# 6 0.002646 0.006820 -0.002609 -0.000737 0.006628 0.054088
#
#
# Mechanical properties :
#
#
# Convention : Reuss Voigt Hill
#
# Bulk Modulus (GPa) = 42.84382 67.50191 55.17286
# Shear Modulus (GPa) = 28.64351 36.82963 32.73657
#
# Velocity S-wave (km/s) = 3.97192 4.50388 4.24624
# Velocity P-wave (km/s) = 6.68074 8.01405 7.37758
#
# Compressibility (1/GPa) = 0.02334059
#
# Stress axis : x y z
#
# Youngs Moduli (GPa) = 66.96790 55.42554 118.84577
#
# Poissons Ratio (x) = -0.00738 0.52351
# Poissons Ratio (y) = -0.00891 0.56479
# Poissons Ratio (z) = 0.29499 0.26340
#
# Static dielectric constant tensor:
#      x y z
#    x 1.646780 -0.001740 -0.016280 
#    y -0.001740 1.651260 0.007050 
#    z -0.016280 0.007050 1.631920 
# 
# From -- ./inp_files/390424.got.cif
#   From: 2010.05.17/outbox.ucp.g08.bks.cvg/sg2_196_cif.got.tgz:390424.got - 2010.06.11 11:32:03.
