data_PCOD9072925
_publ_section_title
;
Structure prediction by ZEFSAII (Michael W. Deem and Ramdas Pophale) SiO2 
 PCOD9072925
Probable space group: P -1
;
_chemical_formula_sum "Si O2"
_cell_formula_units_Z 16
_cell_length_a 7.378922
_cell_length_b 10.652928
_cell_length_c 10.981333
_cell_angle_alpha 127.351957
_cell_angle_beta 99.545107
_cell_angle_gamma 68.521959
_cell_volume 636.683241
_symmetry_space_group_name_H-M "P -1"
_symmetry_group_IT_number 2
_symmetry_cell_setting 'triclinic'
loop_
_space_group_symop_operation_xyz
x,y,z
-x,-y,-z
loop_
_atom_site_type_symbol
_atom_site_label
_atom_site_fract_x
_atom_site_fract_y
_atom_site_fract_z
Si Si1 0.348005 0.323028 0.444303
Si Si2 0.644550 0.988924 0.618568
Si Si3 0.426995 0.201711 0.120819
Si Si4 0.184566 0.828450 0.571025
Si Si5 0.797941 0.397917 0.046592
Si Si6 0.414177 0.287702 0.916333
Si Si7 0.187869 0.697213 0.743366
Si Si8 0.052789 0.818737 0.293121
O O1 0.274973 0.203567 0.449967
O O2 0.313937 0.277924 0.275809
O O3 0.583286 0.270823 0.457612
O O4 0.250423 0.513570 0.582885
O O5 0.500000 0.000000 0.500000
O O6 0.519145 0.096120 0.778320
O O7 0.791041 0.085787 0.658490
O O8 0.622811 0.250128 0.178649
O O9 0.319085 0.288091 0.037152
O O10 0.500000 0.000000 0.000000
O O11 0.095456 0.816128 0.687563
O O12 0.095151 0.762957 0.405248
O O13 0.144724 0.025245 0.655937
O O14 0.726705 0.598958 0.135960
O O15 0.892129 0.320450 0.140644
O O16 0.594207 0.357849 0.994320
O O17 0.911593 0.315912 0.888429
#
# Coordination Sequence:
#
# PCOD9072925 Si02
#       8
#     2   2   2   2   2   2   2   2
#     4  11  21  35  60  88 114 148 192 241 284 332
#     4  11  19  33  56  84 113 147 194 237 277 331
#     4  10  18  31  51  84 115 144 180 235 294 324
#     4  10  21  38  55  83 120 148 190 233 290 346
#     4   9  19  33  55  80 110 147 191 232 284 330
#     4   9  18  30  51  82 114 139 186 243 276 333
#     4  10  22  36  57  87 114 150 193 240 283 335
#     4  10  22  36  58  86 111 157 190 231 286 348
#
# _framework density 25.130234999999999
#
# number of rings (size 3 to 8) (size 9 to 14) (size 15 to 20)
#    0.000    2.000    2.500    2.250    7.000    0.500 
#    0.000    0.625    0.000    0.750    6.500    0.000 
#    0.000    0.000    0.000    0.000    0.000    0.000 
#
# Total GULP energy -89432.114495 kJ/mol
# GULP energy per Si atom -5589.507156 kJ/mol
# Density = 2.507304 g / cm^3
# Si number density = 25.130235 Si / 1000 Ang^3
#
#
#
# Elastic Constant Matrix: (Units=GPa)
#
#
# Indices 1 2 3 4 5 6 
#
# 1 65.3999 6.0992 12.9865 -17.7517 11.0904 8.4673
# 2 6.0992 84.4287 32.0971 -36.6911 6.2070 15.3513
# 3 12.9865 32.0971 109.7313 -18.6283 -13.5846 15.0915
# 4 -17.7517 -36.6911 -18.6283 61.3650 13.4273 -1.5942
# 5 11.0904 6.2070 -13.5846 13.4273 34.6006 -4.0837
# 6 8.4673 15.3513 15.0915 -1.5942 -4.0837 26.1424
#
#
#
# Elastic Compliance Matrix: (Units=1/GPa)
#
#
# Indices 1 2 3 4 5 6 
#
# 1 0.024452 0.010577 -0.003694 0.016088 -0.019081 -0.013998
# 2 0.010577 0.027818 -0.005742 0.022155 -0.021409 -0.018439
# 3 -0.003694 -0.005742 0.011920 -0.002614 0.007759 -0.001260
# 4 0.016088 0.022155 -0.002614 0.038928 -0.027462 -0.018628
# 5 -0.019081 -0.021409 0.007759 -0.027462 0.055063 0.021199
# 6 -0.013998 -0.018439 -0.001260 -0.018628 0.021199 0.056517
#
#
# Mechanical properties :
#
#
# Convention : Reuss Voigt Hill
#
# Bulk Modulus (GPa) = 15.04354 40.21394 27.62874
# Shear Modulus (GPa) = 21.31530 38.31342 29.81436
#
# Velocity S-wave (km/s) = 2.91554 3.90884 3.44814
# Velocity P-wave (km/s) = 4.16329 6.03399 5.18373
#
# Compressibility (1/GPa) = 0.06647373
#
# Stress axis : x y z
#
# Youngs Moduli (GPa) = 40.89581 35.94808 83.89188
#
# Poissons Ratio (x) = -0.38023 0.30986
# Poissons Ratio (y) = -0.43257 0.48171
# Poissons Ratio (z) = 0.15105 0.20641
#
# Static dielectric constant tensor:
#      x y z
#    x 1.992760 -0.026920 -0.092090 
#    y -0.026920 1.987000 -0.025800 
#    z -0.092090 -0.025800 1.914440 
# 
# From -- ./inp_files/393141.got.cif
#   From: 2010.05.17/outbox.cif.g08.bks.cpg/sg2_197_cif.got.tgz:393141.got - 2010.06.03 11:33:40.
