data_PCOD9072734
_publ_section_title
;
Structure prediction by ZEFSAII (Michael W. Deem and Ramdas Pophale) SiO2 
 PCOD9072734
Probable space group: P -1
;
_chemical_formula_sum "Si O2"
_cell_formula_units_Z 12
_cell_length_a 10.495430
_cell_length_b 7.595976
_cell_length_c 7.812581
_cell_angle_alpha 64.007389
_cell_angle_beta 83.246597
_cell_angle_gamma 113.931107
_cell_volume 477.501603
_symmetry_space_group_name_H-M "P -1"
_symmetry_group_IT_number 2
_symmetry_cell_setting 'triclinic'
loop_
_space_group_symop_operation_xyz
x,y,z
-x,-y,-z
loop_
_atom_site_type_symbol
_atom_site_label
_atom_site_fract_x
_atom_site_fract_y
_atom_site_fract_z
Si Si1 0.335725 0.778384 0.488634
Si Si2 0.435214 0.465684 0.718350
Si Si3 0.129427 0.624211 0.244256
Si Si4 0.012720 0.168494 0.617546
Si Si5 0.387695 0.998343 0.879249
Si Si6 0.745858 0.850415 0.591022
O O1 0.333914 0.580185 0.685986
O O2 0.237267 0.681807 0.370992
O O3 0.507642 0.927578 0.334383
O O4 0.286586 0.945462 0.501546
O O5 0.500000 0.500000 0.500000
O O6 0.358970 0.196657 0.867101
O O7 0.588061 0.617235 0.738159
O O8 0.037290 0.353155 0.384980
O O9 0.025988 0.730481 0.255851
O O10 0.237114 0.755509 0.014604
O O11 0.866855 0.931006 0.690160
O O12 0.163052 0.160111 0.582901
O O13 0.500000 0.000000 0.000000
#
# Coordination Sequence:
#
# PCOD9072734 Si02
#       6
#     2   2   2   2   2   2
#     4   9  18  31  52  77 101 126 157 207 253 291
#     4  10  19  32  53  74  99 130 161 205 251 293
#     4   9  17  34  54  74  97 130 170 198 239 288
#     4   9  18  31  52  73  99 134 166 201 231 291
#     4   9  17  31  51  76  99 125 164 205 243 287
#     4  10  18  31  50  76 100 128 167 199 245 292
#
# _framework density 25.130804999999999
#
# number of rings (size 3 to 8) (size 9 to 14) (size 15 to 20)
#    0.000    2.667    0.000    3.500    0.000    0.000 
#    0.000   15.000    0.000   30.000    0.000    0.000 
#    0.000    0.000    0.000    0.000    0.000    0.000 
#
# Total GULP energy -66977.422553 kJ/mol
# GULP energy per Si atom -5581.451879 kJ/mol
# Density = 2.507361 g / cm^3
# Si number density = 25.130805 Si / 1000 Ang^3
#
#
#
# Elastic Constant Matrix: (Units=GPa)
#
#
# Indices 1 2 3 4 5 6 
#
# 1 83.5484 40.1235 19.8613 2.5101 -18.9203 -11.8288
# 2 40.1235 98.6332 12.7001 -11.2584 0.4754 -46.1632
# 3 19.8613 12.7001 74.1502 -4.7602 -19.2208 -11.3160
# 4 2.5101 -11.2584 -4.7602 17.8628 -5.3563 -2.5068
# 5 -18.9203 0.4754 -19.2208 -5.3563 34.3224 -7.0938
# 6 -11.8288 -46.1632 -11.3160 -2.5068 -7.0938 57.6970
#
#
#
# Elastic Compliance Matrix: (Units=1/GPa)
#
#
# Indices 1 2 3 4 5 6 
#
# 1 0.018753 -0.010449 -0.002773 -0.008620 0.006629 -0.004619
# 2 -0.010449 0.026612 0.004177 0.023683 0.004357 0.021534
# 3 -0.002773 0.004177 0.019032 0.013185 0.012920 0.008667
# 4 -0.008620 0.023683 0.013185 0.085605 0.021052 0.026075
# 5 0.006629 0.004357 0.012920 0.021052 0.046137 0.013966
# 6 -0.004619 0.021534 0.008667 0.026075 0.013966 0.038164
#
#
# Mechanical properties :
#
#
# Convention : Reuss Voigt Hill
#
# Bulk Modulus (GPa) = 21.59579 44.63350 33.11465
# Shear Modulus (GPa) = 18.66860 34.21959 26.44409
#
# Velocity S-wave (km/s) = 2.72850 3.69407 3.24737
# Velocity P-wave (km/s) = 4.30561 5.99949 5.22169
#
# Compressibility (1/GPa) = 0.04630532
#
# Stress axis : x y z
#
# Youngs Moduli (GPa) = 53.32527 37.57673 52.54361
#
# Poissons Ratio (x) = 0.39265 0.14572
# Poissons Ratio (y) = 0.55721 -0.21946
# Poissons Ratio (z) = 0.14788 -0.15695
#
# Static dielectric constant tensor:
#      x y z
#    x 2.061990 0.021140 -0.013260 
#    y 0.021140 2.081380 -0.018320 
#    z -0.013260 -0.018320 1.999510 
# 
# From -- ./inp_files/182754.got.cif
#   From: 2010.05.17/outbox.cif.g08.bks.cpg/sg2_92_cif.got.tgz:182754.got - 2010.06.03 11:33:40.
