data_PCOD9072651
_publ_section_title
;
Structure prediction by ZEFSAII (Michael W. Deem and Ramdas Pophale) SiO2 
 PCOD9072651
Probable space group: P -1
;
_chemical_formula_sum "Si O2"
_cell_formula_units_Z 14
_cell_length_a 12.000000
_cell_length_b 6.000000
_cell_length_c 21.000000
_cell_angle_alpha 110.000000
_cell_angle_beta 40.000000
_cell_angle_gamma 80.000000
_cell_volume 632.608738
_symmetry_space_group_name_H-M "P -1"
_symmetry_group_IT_number 2
_symmetry_cell_setting 'triclinic'
loop_
_space_group_symop_operation_xyz
x,y,z
-x,-y,-z
loop_
_atom_site_type_symbol
_atom_site_label
_atom_site_fract_x
_atom_site_fract_y
_atom_site_fract_z
Si Si1 0.774906 0.641628 0.771422
Si Si2 0.102069 0.281988 0.715329
Si Si3 0.524870 0.701353 0.388439
Si Si4 0.403668 0.788779 0.779759
Si Si5 0.215963 0.247056 0.460482
Si Si6 0.300633 0.284750 0.967240
Si Si7 0.667995 0.258989 0.727701
O O1 0.800256 0.335398 0.716265
O O2 0.897832 0.557643 0.778075
O O3 0.960721 0.589501 0.636054
O O4 0.495043 0.985118 0.905860
O O5 0.270612 0.336448 0.670318
O O6 0.297325 0.903528 0.559914
O O7 0.938725 0.376766 0.858019
O O8 0.657408 0.342810 0.261932
O O9 0.385056 0.977939 0.418474
O O10 0.619347 0.727881 0.646035
O O11 0.517384 0.529122 0.762558
O O12 0.237244 0.149059 0.926745
O O13 0.157289 0.099687 0.420482
O O14 0.463990 0.323736 0.865235
#
# Coordination Sequence:
#
# PCOD9072651 Si02
#       7
#     2   2   2   2   2   2   2
#     4  10  20  34  55  82 113 147 179 221 274 327
#     4  10  21  39  57  79 115 147 180 225 271 327
#     4   9  20  40  60  79 107 146 186 226 270 321
#     4   9  19  38  60  83 108 142 187 230 272 317
#     4   9  18  35  59  84 108 140 187 231 267 318
#     4  10  21  36  56  85 113 141 180 227 276 325
#     4   9  19  34  55  84 114 144 180 224 276 324
#
# _framework density 22.130583000000001
#
# number of rings (size 3 to 8) (size 9 to 14) (size 15 to 20)
#    0.000    2.571    0.000    0.857    0.000   10.857 
#    0.000   22.857    0.000    0.000    0.000    0.000 
#    0.000    0.000    0.000    0.000    0.000    0.000 
#
# Total GULP energy -78079.197481 kJ/mol
# GULP energy per Si atom -5577.085534 kJ/mol
# Density = 2.208021 g / cm^3
# Si number density = 22.130583 Si / 1000 Ang^3
#
#
#
# Elastic Constant Matrix: (Units=GPa)
#
#
# Indices 1 2 3 4 5 6 
#
# 1 145.6954 20.0886 32.6656 -2.3112 13.4262 6.2188
# 2 20.0886 37.7361 13.5410 -10.6808 18.6717 7.9566
# 3 32.6656 13.5410 100.8833 -32.2682 34.2471 -8.4679
# 4 -2.3112 -10.6808 -32.2682 15.6613 -13.7408 -1.2141
# 5 13.4262 18.6717 34.2471 -13.7408 10.7485 -20.2101
# 6 6.2188 7.9566 -8.4679 -1.2141 -20.2101 -1.3083
#
#
#
# Elastic Compliance Matrix: (Units=1/GPa)
#
#
# Indices 1 2 3 4 5 6 
#
# 1 0.010577 -0.011360 -0.013600 -0.028829 0.006438 -0.003489
# 2 -0.011360 0.043690 0.027327 0.082487 -0.004052 0.020886
# 3 -0.013600 0.027327 0.058603 0.115955 -0.026411 0.022633
# 4 -0.028829 0.082487 0.115955 0.316466 -0.044929 0.014488
# 5 0.006438 -0.004052 -0.026411 -0.044929 0.017632 -0.053777
# 6 -0.003489 0.020886 0.022633 0.014488 -0.053777 0.016880
#
#
# Mechanical properties :
#
#
# Convention : Reuss Voigt Hill
#
# Bulk Modulus (GPa) = 8.50311 46.32282 27.41296
# Shear Modulus (GPa) = 10.03379 19.55497 14.79438
#
# Velocity S-wave (km/s) = 2.13161 2.97579 2.58835
# Velocity P-wave (km/s) = 3.14784 5.72575 4.62023
#
# Compressibility (1/GPa) = 0.11760406
#
# Stress axis : x y z
#
# Youngs Moduli (GPa) = 94.54085 22.88858 17.06404
#
# Poissons Ratio (x) = 0.26002 0.23206
# Poissons Ratio (y) = 1.07402 -0.46631
# Poissons Ratio (z) = 1.28572 -0.62548
#
# Static dielectric constant tensor:
#      x y z
#    x 1.819400 0.020070 0.034510 
#    y 0.020070 1.833480 0.014900 
#    z 0.034510 0.014900 1.830170 
# 
# From -- ./inp_files/66276.got.cif
#   From: 2010.05.17/outbox.ucp.g08.bks.cvg/sg2_34_cif.got.tgz:66276.got - 2010.06.11 11:32:03.
