data_PCOD9072327
_publ_section_title
;
Structure prediction by ZEFSAII (Michael W. Deem and Ramdas Pophale) SiO2 
 PCOD9072327
Probable space group: P -1
;
_chemical_formula_sum "Si O2"
_cell_formula_units_Z 16
_cell_length_a 7.367869
_cell_length_b 22.572121
_cell_length_c 5.759646
_cell_angle_alpha 43.944798
_cell_angle_beta 119.928458
_cell_angle_gamma 102.586967
_cell_volume 559.964563
_symmetry_space_group_name_H-M "P -1"
_symmetry_group_IT_number 2
_symmetry_cell_setting 'triclinic'
loop_
_space_group_symop_operation_xyz
x,y,z
-x,-y,-z
loop_
_atom_site_type_symbol
_atom_site_label
_atom_site_fract_x
_atom_site_fract_y
_atom_site_fract_z
Si Si1 0.714534 0.676197 0.392303
Si Si2 0.792035 0.392850 0.597223
Si Si3 0.317708 0.341772 0.071539
Si Si4 0.152589 0.800846 0.833824
Si Si5 0.156691 0.563084 0.991073
Si Si6 0.253185 0.141220 0.280009
Si Si7 0.579990 0.135469 0.849373
Si Si8 0.999244 0.926488 0.017990
O O1 0.661744 0.632195 0.721620
O O2 0.976251 0.654478 0.634672
O O3 0.633393 0.633576 0.230620
O O4 0.660533 0.781511 0.011614
O O5 0.714347 0.430357 0.184267
O O6 0.734920 0.299049 0.857904
O O7 0.750280 0.449224 0.650910
O O8 0.055507 0.363941 0.826524
O O9 0.461561 0.240731 0.456120
O O10 0.018229 0.836891 0.422577
O O11 0.980675 0.811632 0.900321
O O12 0.310611 0.862510 0.836264
O O13 0.000000 0.500000 0.000000
O O14 0.390954 0.100476 0.707250
O O15 0.210193 0.066146 0.294991
O O16 0.783979 0.093679 0.936633
O O17 0.000000 0.000000 0.000000
#
# Coordination Sequence:
#
# PCOD9072327 Si02
#       8
#     2   2   2   2   2   2   2   2
#     4   9  17  31  58  85 117 157 201 256 302 350
#     4  10  19  35  59  86 126 164 208 266 310 359
#     4   9  17  32  56  85 114 148 207 255 297 356
#     4  11  22  39  65  87 125 158 216 270 311 373
#     4  10  18  30  54  94 129 162 206 251 314 385
#     4  10  21  41  64  86 124 160 215 266 310 379
#     4  10  23  37  63  95 114 165 216 257 323 380
#     4  11  26  42  60  91 129 164 205 268 329 382
#
# _framework density 28.573238
#
# number of rings (size 3 to 8) (size 9 to 14) (size 15 to 20)
#    0.000    2.000    3.750    1.875    5.250    2.500 
#    0.000    1.250    0.000    0.000    0.000   33.250 
#    0.000    0.000    0.000    0.000    0.000    0.000 
#
# Total GULP energy -89219.556564 kJ/mol
# GULP energy per Si atom -5576.222285 kJ/mol
# Density = 2.850820 g / cm^3
# Si number density = 28.573238 Si / 1000 Ang^3
#
#
#
# Elastic Constant Matrix: (Units=GPa)
#
#
# Indices 1 2 3 4 5 6 
#
# 1 94.3538 48.7172 30.3556 16.5179 -8.7743 -16.5197
# 2 48.7172 205.8976 44.5365 36.7748 -19.7673 -24.6944
# 3 30.3556 44.5365 112.3271 50.1526 -22.2049 -9.8193
# 4 16.5179 36.7748 50.1526 63.7803 -11.0999 -10.0068
# 5 -8.7743 -19.7673 -22.2049 -11.0999 50.4586 13.3743
# 6 -16.5197 -24.6944 -9.8193 -10.0068 13.3743 39.8553
#
#
#
# Elastic Compliance Matrix: (Units=1/GPa)
#
#
# Indices 1 2 3 4 5 6 
#
# 1 0.013119 -0.002223 -0.002670 0.000456 -0.000655 0.003737
# 2 -0.002223 0.006197 -0.000598 -0.002078 0.000795 0.001983
# 3 -0.002670 -0.000598 0.015205 -0.010472 0.004154 -0.001755
# 4 0.000456 -0.002078 -0.010472 0.025351 -0.000525 0.002863
# 5 -0.000655 0.000795 0.004154 -0.000525 0.023526 -0.006782
# 6 0.003737 0.001983 -0.001755 0.002863 -0.006782 0.030430
#
#
# Mechanical properties :
#
#
# Convention : Reuss Voigt Hill
#
# Bulk Modulus (GPa) = 42.48434 73.31078 57.89756
# Shear Modulus (GPa) = 37.69137 50.08344 43.88740
#
# Velocity S-wave (km/s) = 3.63590 4.19120 3.92339
# Velocity P-wave (km/s) = 5.70326 7.00959 6.38990
#
# Compressibility (1/GPa) = 0.02353808
#
# Stress axis : x y z
#
# Youngs Moduli (GPa) = 76.22778 161.35998 65.76896
#
# Poissons Ratio (x) = 0.35862 0.17563
# Poissons Ratio (y) = 0.16942 0.03935
# Poissons Ratio (z) = 0.20356 0.09654
#
# Static dielectric constant tensor:
#      x y z
#    x 2.330940 -0.004820 0.011730 
#    y -0.004820 2.292210 0.007850 
#    z 0.011730 0.007850 2.220840 
# 
# From -- ./inp_files/54627.got.cif
#   From: 2010.05.17/outbox.cif.g08.bks.cpg/sg2_28_cif.got.tgz:54627.got - 2010.06.03 11:33:40.
