data_PCOD9072468
_publ_section_title
;
Structure prediction by ZEFSAII (Michael W. Deem and Ramdas Pophale) SiO2 
 PCOD9072468
Probable space group: P -1
;
_chemical_formula_sum "Si O2"
_cell_formula_units_Z 14
_cell_length_a 24.000000
_cell_length_b 9.000000
_cell_length_c 15.000000
_cell_angle_alpha 40.000000
_cell_angle_beta 160.000000
_cell_angle_gamma 140.000000
_cell_volume 696.397529
_symmetry_space_group_name_H-M "P -1"
_symmetry_group_IT_number 2
_symmetry_cell_setting 'triclinic'
loop_
_space_group_symop_operation_xyz
x,y,z
-x,-y,-z
loop_
_atom_site_type_symbol
_atom_site_label
_atom_site_fract_x
_atom_site_fract_y
_atom_site_fract_z
Si Si1 0.392375 0.862785 0.175134
Si Si2 0.066205 0.444043 0.876485
Si Si3 0.288424 0.184338 0.204927
Si Si4 0.587468 0.311414 0.914356
Si Si5 0.163113 0.203439 0.632893
Si Si6 0.027652 0.746726 0.982269
Si Si7 0.744966 0.897746 0.383146
O O1 0.548972 0.850198 0.478961
O O2 0.449276 0.799317 0.190015
O O3 0.228311 0.656000 0.042522
O O4 0.319712 0.105525 0.955675
O O5 0.909926 0.564396 0.556469
O O6 0.145850 0.273708 0.009319
O O7 0.003649 0.313410 0.933719
O O8 0.350250 0.408304 0.130148
O O9 0.202197 0.933468 0.147739
O O10 0.429594 0.242756 0.773618
O O11 0.726062 0.168113 0.219657
O O12 0.207960 0.203372 0.594800
O O13 0.000000 0.000000 0.500000
O O14 0.887938 0.876396 0.676028
O O15 0.000000 0.500000 0.000000
#
# Coordination Sequence:
#
# PCOD9072468 Si02
#       7
#     2   2   2   2   2   2   2
#     4   9  18  36  63  91 120 157 203 248 303 363
#     4  10  19  38  63  89 121 159 202 245 304 364
#     4  11  22  38  63  94 119 160 210 251 294 363
#     4   9  19  36  64  91 121 158 201 253 302 359
#     4   9  18  34  63  89 119 161 197 241 305 365
#     4  12  24  38  60  87 128 162 201 253 309 355
#     4  10  19  37  62  88 124 162 195 243 314 363
#
# _framework density 20.103459999999998
#
# number of rings (size 3 to 8) (size 9 to 14) (size 15 to 20)
#    0.000    2.000    1.429    4.714    0.000    0.571 
#    0.000    3.571    6.286    0.000    0.000    0.000 
#    0.000    0.000    0.000    0.000    0.000    0.000 
#
# Total GULP energy -78091.037285 kJ/mol
# GULP energy per Si atom -5577.931235 kJ/mol
# Density = 2.005770 g / cm^3
# Si number density = 20.103460 Si / 1000 Ang^3
#
#
#
# Elastic Constant Matrix: (Units=GPa)
#
#
# Indices 1 2 3 4 5 6 
#
# 1 58.2053 26.5434 11.9477 -5.3591 20.4889 23.0554
# 2 26.5434 102.4531 56.2455 -9.0595 -8.7018 2.8488
# 3 11.9477 56.2455 123.2074 -31.0867 9.5473 -0.6001
# 4 -5.3591 -9.0595 -31.0867 18.8229 9.6378 -4.5202
# 5 20.4889 -8.7018 9.5473 9.6378 28.6832 -5.9494
# 6 23.0554 2.8488 -0.6001 -4.5202 -5.9494 23.9100
#
#
#
# Elastic Compliance Matrix: (Units=1/GPa)
#
#
# Indices 1 2 3 4 5 6 
#
# 1 -0.023033 0.021129 -0.031013 -0.074732 0.062515 0.020341
# 2 0.021129 0.000698 0.007513 0.029746 -0.032069 -0.022624
# 3 -0.031013 0.007513 0.002912 -0.009207 0.033982 0.035797
# 4 -0.074732 0.029746 -0.009207 0.011539 0.080358 0.090462
# 5 0.062515 -0.032069 0.033982 0.080358 -0.069819 -0.057788
# 6 0.020341 -0.022624 0.035797 0.090462 -0.057788 0.028527
#
#
# Mechanical properties :
#
#
# Convention : Reuss Voigt Hill
#
# Bulk Modulus (GPa) = -41.38122 52.59322 5.60600
# Shear Modulus (GPa) = -95.25880 26.89186 -34.18347
#
# Velocity S-wave (km/s) = -6.89109 3.66139 -4.12804
# Velocity P-wave (km/s) = 9.16215 6.64021 4.46389
#
# Compressibility (1/GPa) = -0.02416555
#
# Stress axis : x y z
#
# Youngs Moduli (GPa) = -43.41656 1433.19356 343.39258
#
# Poissons Ratio (x) = -30.28183 10.64964
# Poissons Ratio (y) = 0.91734 -2.57982
# Poissons Ratio (z) = -1.34648 -10.76723
#
# Static dielectric constant tensor:
#      x y z
#    x 1.716580 0.002760 -0.014410 
#    y 0.002760 1.731990 -0.041380 
#    z -0.014410 -0.041380 1.715820 
# 
# From -- ./inp_files/174810.got.cif
#   From: 2010.05.17/outbox.ucp.g08.bks.cvg/sg2_88_cif.got.tgz:174810.got - 2010.06.11 11:32:03.
