data_PCOD9072343
_publ_section_title
;
Structure prediction by ZEFSAII (Michael W. Deem and Ramdas Pophale) SiO2 
 PCOD9072343
Probable space group: P -1
;
_chemical_formula_sum "Si O2"
_cell_formula_units_Z 14
_cell_length_a 15.000000
_cell_length_b 27.000000
_cell_length_c 27.000000
_cell_angle_alpha 170.000000
_cell_angle_beta 20.000000
_cell_angle_gamma 160.000000
_cell_volume 630.401208
_symmetry_space_group_name_H-M "P -1"
_symmetry_group_IT_number 2
_symmetry_cell_setting 'triclinic'
loop_
_space_group_symop_operation_xyz
x,y,z
-x,-y,-z
loop_
_atom_site_type_symbol
_atom_site_label
_atom_site_fract_x
_atom_site_fract_y
_atom_site_fract_z
Si Si1 0.210399 0.531895 0.612287
Si Si2 0.875032 0.274641 0.448410
Si Si3 0.571258 0.935535 0.454791
Si Si4 0.319274 0.636745 0.462982
Si Si5 0.427214 0.872578 0.001125
Si Si6 0.069440 0.483380 0.151754
Si Si7 0.597693 0.840606 0.989265
O O1 0.040169 0.548141 0.765756
O O2 0.043208 0.536892 0.653762
O O3 0.483766 0.783762 0.717939
O O4 0.317792 0.238241 0.262665
O O5 0.665845 0.330035 0.570884
O O6 0.688426 0.065834 0.378859
O O7 0.104635 0.156202 0.184170
O O8 0.830714 0.173134 0.572191
O O9 0.500000 0.000000 0.500000
O O10 0.662802 0.633599 0.108984
O O11 0.000000 0.500000 0.500000
O O12 0.375893 0.906879 0.736243
O O13 0.490066 0.438017 0.203869
O O14 0.424183 0.835932 0.026024
O O15 0.163333 0.694000 0.936418
#
# Coordination Sequence:
#
# PCOD9072343 Si02
#       7
#     2   2   2   2   2   2   2
#     4  11  22  37  62  89 119 154 201 253 297 349
#     4  10  22  37  63  88 124 154 196 240 308 352
#     4  12  26  42  59  86 126 167 198 237 283 365
#     4  10  19  35  57  91 117 147 188 251 308 349
#     4  11  22  39  62  89 116 159 198 251 304 339
#     4  12  25  41  60  84 125 162 204 238 287 358
#     4  10  21  36  60  90 117 145 194 256 301 345
#
# _framework density 22.208079000000001
#
# number of rings (size 3 to 8) (size 9 to 14) (size 15 to 20)
#    0.000    1.143    1.429    7.286    2.000    4.571 
#    0.000    0.000    0.000    5.143    0.000    0.000 
#    0.000    0.000    0.000    0.000    0.000    0.000 
#
# Total GULP energy -78099.569845 kJ/mol
# GULP energy per Si atom -5578.540703 kJ/mol
# Density = 2.215753 g / cm^3
# Si number density = 22.208079 Si / 1000 Ang^3
#
#
#
# Elastic Constant Matrix: (Units=GPa)
#
#
# Indices 1 2 3 4 5 6 
#
# 1 97.8470 25.9013 35.1846 4.3719 28.8759 6.0771
# 2 25.9013 57.1694 0.8352 10.1885 8.8794 5.9184
# 3 35.1846 0.8352 78.6133 13.8082 11.8922 11.4171
# 4 4.3719 10.1885 13.8082 24.2608 10.2157 2.5950
# 5 28.8759 8.8794 11.8922 10.2157 26.0272 10.7842
# 6 6.0771 5.9184 11.4171 2.5950 10.7842 27.0771
#
#
#
# Elastic Compliance Matrix: (Units=1/GPa)
#
#
# Indices 1 2 3 4 5 6 
#
# 1 0.024455 -0.010619 -0.011108 0.017899 -0.030392 0.011905
# 2 -0.010619 0.024292 0.006930 -0.015489 0.009840 -0.008283
# 3 -0.011108 0.006930 0.020257 -0.016110 0.011403 -0.010561
# 4 0.017899 -0.015489 -0.016110 0.069212 -0.040939 0.015833
# 5 -0.030392 0.009840 0.011403 -0.040939 0.093503 -0.033454
# 6 0.011905 -0.008283 -0.010561 0.015833 -0.033454 0.052330
#
#
# Mechanical properties :
#
#
# Convention : Reuss Voigt Hill
#
# Bulk Modulus (GPa) = 25.37511 39.71911 32.54711
# Shear Modulus (GPa) = 15.30082 26.92027 21.11055
#
# Velocity S-wave (km/s) = 2.62768 3.48542 3.08649
# Velocity P-wave (km/s) = 4.54501 5.84135 5.23347
#
# Compressibility (1/GPa) = 0.03940870
#
# Stress axis : x y z
#
# Youngs Moduli (GPa) = 40.89087 41.16657 49.36616
#
# Poissons Ratio (x) = 0.43717 0.54835
# Poissons Ratio (y) = 0.43424 -0.34210
# Poissons Ratio (z) = 0.45421 -0.28528
#
# Static dielectric constant tensor:
#      x y z
#    x 1.834940 -0.021880 -0.092260 
#    y -0.021880 1.795970 0.059580 
#    z -0.092260 0.059580 1.867010 
# 
# From -- ./inp_files/519616.got.cif
#   From: 2010.05.17/outbox.ucp.g08.bks.cvg/sg2_260_cif.got.tgz:519616.got - 2010.06.11 11:32:03.
