data_PCOD9072835
_publ_section_title
;
Structure prediction by ZEFSAII (Michael W. Deem and Ramdas Pophale) SiO2 
 PCOD9072835
Probable space group: P -1
;
_chemical_formula_sum "Si O2"
_cell_formula_units_Z 14
_cell_length_a 12.000000
_cell_length_b 6.000000
_cell_length_c 12.000000
_cell_angle_alpha 70.000000
_cell_angle_beta 50.000000
_cell_angle_gamma 70.000000
_cell_volume 612.923978
_symmetry_space_group_name_H-M "P -1"
_symmetry_group_IT_number 2
_symmetry_cell_setting 'triclinic'
loop_
_space_group_symop_operation_xyz
x,y,z
-x,-y,-z
loop_
_atom_site_type_symbol
_atom_site_label
_atom_site_fract_x
_atom_site_fract_y
_atom_site_fract_z
Si Si1 0.889431 0.566526 0.377981
Si Si2 0.849071 0.887444 0.678326
Si Si3 0.680535 0.954442 0.569137
Si Si4 0.624887 0.602507 0.966294
Si Si5 0.859154 0.135821 0.868780
Si Si6 0.668194 0.406386 0.369990
Si Si7 0.629173 0.819531 0.156444
O O1 0.794312 0.483608 0.353535
O O2 0.014271 0.339273 0.377023
O O3 0.981637 0.775641 0.241998
O O4 0.763211 0.687099 0.526927
O O5 0.703869 0.770586 0.809971
O O6 0.798198 0.025268 0.572653
O O7 0.858560 0.053132 0.752519
O O8 0.682859 0.120419 0.428615
O O9 0.509620 0.020156 0.714184
O O10 0.751546 0.372933 0.940638
O O11 0.500000 0.500000 0.000000
O O12 0.571326 0.754219 0.083780
O O13 0.778126 0.935253 0.018426
O O14 0.500000 0.500000 0.500000
O O15 0.675755 0.557282 0.227457
#
# Coordination Sequence:
#
# PCOD9072835 Si02
#       7
#     2   2   2   2   2   2   2
#     4  11  24  41  64  95 127 169 213 256 321 382
#     4  10  22  40  63  98 131 161 211 265 316 374
#     4  11  23  41  67  94 131 171 207 260 316 372
#     4  10  20  37  65  97 126 164 212 260 317 376
#     4  10  22  41  64  92 128 165 207 267 322 365
#     4  10  25  43  61  92 130 168 215 259 308 380
#     4  10  23  42  65  96 129 165 214 263 309 375
#
# _framework density 22.841332000000001
#
# number of rings (size 3 to 8) (size 9 to 14) (size 15 to 20)
#    0.000    1.714    0.000    3.000    0.000   15.429 
#    0.000   10.000    0.000    0.000    0.000    0.000 
#    0.000    0.000    0.000    0.000    0.000    0.000 
#
# Total GULP energy -78032.410842 kJ/mol
# GULP energy per Si atom -5573.743632 kJ/mol
# Density = 2.278934 g / cm^3
# Si number density = 22.841332 Si / 1000 Ang^3
#
#
#
# Elastic Constant Matrix: (Units=GPa)
#
#
# Indices 1 2 3 4 5 6 
#
# 1 71.4120 -10.9865 12.1172 -10.3805 -23.6191 -9.0586
# 2 -10.9865 46.6456 11.5755 10.8262 0.8037 -18.0533
# 3 12.1172 11.5755 94.4691 -4.5963 -6.4827 -3.4834
# 4 -10.3805 10.8262 -4.5963 54.1139 -2.6908 -8.8132
# 5 -23.6191 0.8037 -6.4827 -2.6908 31.5243 -12.4265
# 6 -9.0586 -18.0533 -3.4834 -8.8132 -12.4265 45.5869
#
#
#
# Elastic Compliance Matrix: (Units=1/GPa)
#
#
# Indices 1 2 3 4 5 6 
#
# 1 0.030782 0.013733 -0.002294 0.008024 0.031397 0.021490
# 2 0.013733 0.033179 -0.003970 -0.000262 0.016493 0.020010
# 3 -0.002294 -0.003970 0.011434 0.001226 0.000534 -0.000772
# 4 0.008024 -0.000262 0.001226 0.022239 0.011751 0.009087
# 5 0.031397 0.016493 0.000534 0.011751 0.069333 0.033982
# 6 0.021490 0.020010 -0.000772 0.009087 0.033982 0.045092
#
#
# Mechanical properties :
#
#
# Convention : Reuss Voigt Hill
#
# Bulk Modulus (GPa) = 11.07003 26.43768 18.75386
# Shear Modulus (GPa) = 22.00393 39.56639 30.78516
#
# Velocity S-wave (km/s) = 3.10714 4.16652 3.67520
# Velocity P-wave (km/s) = 4.21063 5.89458 5.12228
#
# Compressibility (1/GPa) = 0.09033397
#
# Stress axis : x y z
#
# Youngs Moduli (GPa) = 32.48670 30.13919 87.45797
#
# Poissons Ratio (x) = -0.41391 0.20061
# Poissons Ratio (y) = -0.44615 0.34723
# Poissons Ratio (z) = 0.07452 0.11966
#
# Static dielectric constant tensor:
#      x y z
#    x 1.916370 -0.049530 -0.024120 
#    y -0.049530 1.899930 -0.023430 
#    z -0.024120 -0.023430 1.980880 
# 
# From -- ./inp_files/63364.got.cif
#   From: 2010.05.17/outbox.ucp.g08.bks.cvg/sg2_32_cif.got.tgz:63364.got - 2010.06.11 11:32:03.
