data_PCOD9072619
_publ_section_title
;
Structure prediction by ZEFSAII (Michael W. Deem and Ramdas Pophale) SiO2 
 PCOD9072619
Probable space group: P -1
;
_chemical_formula_sum "Si O2"
_cell_formula_units_Z 14
_cell_length_a 16.978831
_cell_length_b 5.786736
_cell_length_c 21.384579
_cell_angle_alpha 51.657202
_cell_angle_beta 153.326559
_cell_angle_gamma 135.005575
_cell_volume 666.425040
_symmetry_space_group_name_H-M "P -1"
_symmetry_group_IT_number 2
_symmetry_cell_setting 'triclinic'
loop_
_space_group_symop_operation_xyz
x,y,z
-x,-y,-z
loop_
_atom_site_type_symbol
_atom_site_label
_atom_site_fract_x
_atom_site_fract_y
_atom_site_fract_z
Si Si1 0.412017 0.352474 0.836492
Si Si2 0.876435 0.515686 0.318313
Si Si3 0.411528 0.333350 0.383874
Si Si4 0.532563 0.031200 0.627402
Si Si5 0.232193 0.398009 0.582754
Si Si6 0.142265 0.273612 0.395663
Si Si7 0.780873 0.354692 0.134494
O O1 0.303110 0.562955 0.749099
O O2 0.327098 0.245660 0.724920
O O3 0.330681 0.041669 0.877759
O O4 0.643562 0.489760 0.980540
O O5 0.797098 0.439361 0.204757
O O6 0.026113 0.366432 0.467405
O O7 0.022527 0.899894 0.355420
O O8 0.387144 0.086582 0.464973
O O9 0.348022 0.617358 0.312333
O O10 0.646753 0.540562 0.514591
O O11 0.363920 0.138941 0.316258
O O12 0.400004 0.767460 0.628504
O O13 0.181611 0.271997 0.497763
O O14 0.998338 0.443023 0.251394
#
# Coordination Sequence:
#
# PCOD9072619 Si02
#       7
#     2   2   2   2   2   2   2
#     4  10  20  33  47  66  97 130 167 205 247 296
#     4  10  18  31  48  69  93 126 166 204 247 296
#     4   9  16  30  50  75 103 132 159 206 251 308
#     4   9  17  29  49  76 105 128 162 203 260 300
#     4  10  19  30  47  74  99 123 160 213 254 292
#     4   9  18  31  49  71  98 122 165 203 250 296
#     4   9  20  34  47  65  93 134 171 199 242 303
#
# _framework density 21.007612000000002
#
# number of rings (size 3 to 8) (size 9 to 14) (size 15 to 20)
#    0.000    2.571    1.429    0.857    0.000    6.286 
#    0.000    0.000    0.000    0.857    0.000    1.000 
#    0.000    0.000    0.000    0.000    0.000    0.000 
#
# Total GULP energy -77964.225002 kJ/mol
# GULP energy per Si atom -5568.873214 kJ/mol
# Density = 2.095980 g / cm^3
# Si number density = 21.007612 Si / 1000 Ang^3
#
#
#
# Elastic Constant Matrix: (Units=GPa)
#
#
# Indices 1 2 3 4 5 6 
#
# 1 65.2885 4.1924 25.7749 -6.2865 9.4881 -12.5937
# 2 4.1924 61.1742 0.1689 -6.1706 -1.0948 -16.8576
# 3 25.7749 0.1689 119.3563 6.0828 4.7627 -3.3384
# 4 -6.2865 -6.1706 6.0828 14.4951 2.0131 -5.7161
# 5 9.4881 -1.0948 4.7627 2.0131 8.9866 -0.0708
# 6 -12.5937 -16.8576 -3.3384 -5.7161 -0.0708 40.9119
#
#
#
# Elastic Compliance Matrix: (Units=1/GPa)
#
#
# Indices 1 2 3 4 5 6 
#
# 1 0.026267 0.003551 -0.005375 0.024200 -0.029775 0.012440
# 2 0.003551 0.020940 -0.001124 0.016186 -0.004134 0.011884
# 3 -0.005375 -0.001124 0.009803 -0.008193 0.002158 -0.002459
# 4 0.024200 0.016186 -0.008193 0.106947 -0.042970 0.028318
# 5 -0.029775 -0.004134 0.002158 -0.042970 0.150561 -0.016436
# 6 0.012440 0.011884 -0.002459 0.028318 -0.016436 0.036896
#
#
# Mechanical properties :
#
#
# Convention : Reuss Voigt Hill
#
# Bulk Modulus (GPa) = 19.56382 34.01017 26.78699
# Shear Modulus (GPa) = 13.35650 27.25757 20.30704
#
# Velocity S-wave (km/s) = 2.52423 3.60600 3.11247
# Velocity P-wave (km/s) = 4.22239 5.79330 5.06907
#
# Compressibility (1/GPa) = 0.05111476
#
# Stress axis : x y z
#
# Youngs Moduli (GPa) = 38.07023 47.75540 102.00789
#
# Poissons Ratio (x) = -0.16957 0.54826
# Poissons Ratio (y) = -0.13518 0.11465
# Poissons Ratio (z) = 0.20462 0.05368
#
# Static dielectric constant tensor:
#      x y z
#    x 1.831260 -0.057280 0.046750 
#    y -0.057280 1.897050 -0.052330 
#    z 0.046750 -0.052330 1.738720 
# 
# From -- ./inp_files/140613.got.cif
#   From: 2010.05.17/outbox.cif.g08.bks.cpg/sg2_71_cif.got.tgz:140613.got - 2010.06.03 11:33:40.
