data_PCOD9072230
_publ_section_title
;
Structure prediction by ZEFSAII (Michael W. Deem and Ramdas Pophale) SiO2 
 PCOD9072230
Probable space group: P -1
;
_chemical_formula_sum "Si O2"
_cell_formula_units_Z 10
_cell_length_a 6.474955
_cell_length_b 21.635180
_cell_length_c 14.790670
_cell_angle_alpha 20.116073
_cell_angle_beta 129.378027
_cell_angle_gamma 141.515017
_cell_volume 391.432607
_symmetry_space_group_name_H-M "P -1"
_symmetry_group_IT_number 2
_symmetry_cell_setting 'triclinic'
loop_
_space_group_symop_operation_xyz
x,y,z
-x,-y,-z
loop_
_atom_site_type_symbol
_atom_site_label
_atom_site_fract_x
_atom_site_fract_y
_atom_site_fract_z
Si Si1 0.993248 0.302967 0.217092
Si Si2 0.235182 0.561683 0.750224
Si Si3 0.746077 0.048373 0.674672
Si Si4 0.558325 0.237650 0.666566
Si Si5 0.574122 0.738861 0.212240
O O1 0.395157 0.390760 0.214493
O O2 0.731638 0.061041 0.544332
O O3 0.967265 0.322787 0.074210
O O4 0.000000 0.500000 0.000000
O O5 0.279051 0.768887 0.534373
O O6 0.218289 0.617820 0.562958
O O7 0.160918 0.153113 0.655640
O O8 0.502066 0.809463 0.002295
O O9 0.662818 0.350338 0.640769
O O10 0.500000 0.000000 0.000000
O O11 0.500000 0.500000 0.500000
O O12 0.000000 0.000000 0.000000
#
# Coordination Sequence:
#
# PCOD9072230 Si02
#       5
#     2   2   2   2   2
#     4   8  15  26  46  80 110 153 196 245 296 354
#     4   9  15  27  49  77 115 152 197 244 297 354
#     4   9  17  30  51  77 117 151 197 243 297 352
#     4  10  18  30  53  80 116 153 197 241 295 352
#     4  10  21  38  59  86 123 161 199 248 304 361
#
# _framework density 25.547180000000001
#
# number of rings (size 3 to 8) (size 9 to 14) (size 15 to 20)
#    0.000    2.800    2.000    0.000    0.000    0.000 
#    0.000    4.000    0.000    1.200    0.000  107.800 
#    0.000    0.000    0.000    0.000    0.000    0.000 
#
# Total GULP energy -55675.204237 kJ/mol
# GULP energy per Si atom -5567.520424 kJ/mol
# Density = 2.548903 g / cm^3
# Si number density = 25.547180 Si / 1000 Ang^3
#
#
#
# Elastic Constant Matrix: (Units=GPa)
#
#
# Indices 1 2 3 4 5 6 
#
# 1 230.4158 70.8297 110.8696 28.5511 -42.1489 -20.4710
# 2 70.8297 184.5537 58.5603 85.4898 -31.4673 -52.6238
# 3 110.8696 58.5603 183.4856 45.3262 -63.4584 -15.9769
# 4 28.5511 85.4898 45.3262 56.0489 -21.3339 -18.0262
# 5 -42.1489 -31.4673 -63.4584 -21.3339 103.0868 25.0372
# 6 -20.4710 -52.6238 -15.9769 -18.0262 25.0372 59.7661
#
#
#
# Elastic Compliance Matrix: (Units=1/GPa)
#
#
# Indices 1 2 3 4 5 6 
#
# 1 0.007078 -0.004947 -0.004465 0.007364 0.000422 -0.001081
# 2 -0.004947 0.027782 0.004368 -0.040140 -0.002264 0.012777
# 3 -0.004465 0.004368 0.010994 -0.011796 0.003810 0.000102
# 4 0.007364 -0.040140 -0.011796 0.082131 0.003579 -0.012702
# 5 0.000422 -0.002264 0.003810 0.003579 0.013590 -0.005444
# 6 -0.001081 0.012777 0.000102 -0.012702 -0.005444 0.026089
#
#
# Mechanical properties :
#
#
# Convention : Reuss Voigt Hill
#
# Bulk Modulus (GPa) = 27.95987 119.88603 73.92295
# Shear Modulus (GPa) = 26.36078 67.66006 47.01042
#
# Velocity S-wave (km/s) = 3.21572 5.15188 4.29434
# Velocity P-wave (km/s) = 4.97554 9.07845 7.32032
#
# Compressibility (1/GPa) = 0.03576555
#
# Stress axis : x y z
#
# Youngs Moduli (GPa) = 141.28488 35.99405 90.95461
#
# Poissons Ratio (x) = 0.17806 0.40614
# Poissons Ratio (y) = 0.69894 -0.39727
# Poissons Ratio (z) = 0.63088 -0.15721
#
# Static dielectric constant tensor:
#      x y z
#    x 1.936390 0.028080 -0.040660 
#    y 0.028080 1.698500 0.089590 
#    z -0.040660 0.089590 1.946830 
# 
# From -- ./inp_files/31486.got.cif
#   From: 2010.05.17/outbox.cif.g08.bks.cpg/sg2_16_cif.got.tgz:31486.got - 2010.06.03 11:33:40.
