data_PCOD9072888
_publ_section_title
;
Structure prediction by ZEFSAII (Michael W. Deem and Ramdas Pophale) SiO2 
 PCOD9072888
Probable space group: P -1
;
_chemical_formula_sum "Si O2"
_cell_formula_units_Z 16
_cell_length_a 15.000000
_cell_length_b 9.000000
_cell_length_c 15.000000
_cell_angle_alpha 60.000000
_cell_angle_beta 40.000000
_cell_angle_gamma 40.000000
_cell_volume 817.999524
_symmetry_space_group_name_H-M "P -1"
_symmetry_group_IT_number 2
_symmetry_cell_setting 'triclinic'
loop_
_space_group_symop_operation_xyz
x,y,z
-x,-y,-z
loop_
_atom_site_type_symbol
_atom_site_label
_atom_site_fract_x
_atom_site_fract_y
_atom_site_fract_z
Si Si1 0.152227 0.068503 0.039652
Si Si2 0.115509 0.078949 0.865946
Si Si3 0.643129 0.132279 0.433474
Si Si4 0.040312 0.420437 0.593276
Si Si5 0.982246 0.832533 0.613333
Si Si6 0.788234 0.391999 0.897319
Si Si7 0.233720 0.600182 0.665226
Si Si8 0.595262 0.094444 0.934122
O O1 0.174265 0.838939 0.088924
O O2 0.304063 0.005170 0.015500
O O3 0.938091 0.307454 0.162880
O O4 0.181020 0.094936 0.906192
O O5 0.940088 0.323160 0.878108
O O6 0.288026 0.917682 0.709589
O O7 0.000000 0.000000 0.000000
O O8 0.419378 0.324097 0.579693
O O9 0.706064 0.263717 0.384899
O O10 0.771359 0.861643 0.451302
O O11 0.037933 0.606106 0.589872
O O12 0.000000 0.500000 0.500000
O O13 0.858882 0.456347 0.746799
O O14 0.122935 0.723443 0.621720
O O15 0.000000 0.000000 0.500000
O O16 0.766148 0.998226 0.765429
O O17 0.571685 0.619791 0.019806
O O18 0.500000 0.000000 0.000000
#
# Coordination Sequence:
#
# PCOD9072888 Si02
#       8
#     2   2   2   2   2   2   2   2
#     4  10  20  39  66  94 129 168 219 265 324 394
#     4   9  17  35  61  95 121 164 214 265 319 387
#     4  10  20  38  66  89 131 172 215 266 332 394
#     4  11  22  41  64  88 134 169 221 273 328 384
#     4  11  25  41  65  94 131 172 224 275 329 390
#     4  10  20  40  65  93 126 175 213 271 328 393
#     4  10  20  38  62  94 129 167 217 264 332 390
#     4  11  23  42  64  93 132 169 216 273 328 384
#
# _framework density 19.559913999999999
#
# number of rings (size 3 to 8) (size 9 to 14) (size 15 to 20)
#    0.000    1.750    5.000    1.125    1.750    2.500 
#    4.500    0.625    0.000    0.000    0.000    0.000 
#    0.000    0.000    0.000    0.000    0.000    0.000 
#
# Total GULP energy -89118.877875 kJ/mol
# GULP energy per Si atom -5569.929867 kJ/mol
# Density = 1.951539 g / cm^3
# Si number density = 19.559914 Si / 1000 Ang^3
#
#
#
# Elastic Constant Matrix: (Units=GPa)
#
#
# Indices 1 2 3 4 5 6 
#
# 1 124.5603 23.5208 57.7301 6.9853 20.1737 -0.1764
# 2 23.5208 117.2234 73.9856 37.3283 11.2160 -0.3030
# 3 57.7301 73.9856 118.4253 23.4704 20.5676 -9.4138
# 4 6.9853 37.3283 23.4704 47.4151 -3.1105 -0.1413
# 5 20.1737 11.2160 20.5676 -3.1105 35.6563 3.1410
# 6 -0.1764 -0.3030 -9.4138 -0.1413 3.1410 18.1507
#
#
#
# Elastic Compliance Matrix: (Units=1/GPa)
#
#
# Indices 1 2 3 4 5 6 
#
# 1 0.011089 0.002237 -0.006386 -0.000445 -0.003101 -0.002634
# 2 0.002237 0.017779 -0.010590 -0.009172 -0.001104 -0.005054
# 3 -0.006386 -0.010590 0.020315 -0.001129 -0.005868 0.011304
# 4 -0.000445 -0.009172 -0.001129 0.029357 0.006493 -0.001638
# 5 -0.003101 -0.001104 -0.005868 0.006493 0.034899 -0.009081
# 6 -0.002634 -0.005054 0.011304 -0.001638 -0.009081 0.062406
#
#
# Mechanical properties :
#
#
# Convention : Reuss Voigt Hill
#
# Bulk Modulus (GPa) = 50.74861 74.52021 62.63441
# Shear Modulus (GPa) = 23.59711 33.90924 28.75318
#
# Velocity S-wave (km/s) = 3.47710 4.16818 3.83822
# Velocity P-wave (km/s) = 6.49013 7.83238 7.19263
#
# Compressibility (1/GPa) = 0.01970497
#
# Stress axis : x y z
#
# Youngs Moduli (GPa) = 90.18007 56.24573 49.22527
#
# Poissons Ratio (x) = -0.12583 0.31434
# Poissons Ratio (y) = -0.20174 0.52130
# Poissons Ratio (z) = 0.57588 0.59565
#
# Static dielectric constant tensor:
#      x y z
#    x 1.708320 0.057180 -0.120370 
#    y 0.057180 1.566540 0.310040 
#    z -0.120370 0.310040 1.007200 
# 
# From -- ./inp_files/528248.got.cif
#   From: 2010.05.17/outbox.ucp.g08.bks.cvg/sg2_265_cif.got.tgz:528248.got - 2010.06.11 11:32:03.
