data_PCOD9072933
_publ_section_title
;
Structure prediction by ZEFSAII (Michael W. Deem and Ramdas Pophale) SiO2 
 PCOD9072933
Probable space group: P -1
;
_chemical_formula_sum "Si O2"
_cell_formula_units_Z 14
_cell_length_a 12.000000
_cell_length_b 12.000000
_cell_length_c 18.000000
_cell_angle_alpha 40.000000
_cell_angle_beta 30.000000
_cell_angle_gamma 60.000000
_cell_volume 717.332707
_symmetry_space_group_name_H-M "P -1"
_symmetry_group_IT_number 2
_symmetry_cell_setting 'triclinic'
loop_
_space_group_symop_operation_xyz
x,y,z
-x,-y,-z
loop_
_atom_site_type_symbol
_atom_site_label
_atom_site_fract_x
_atom_site_fract_y
_atom_site_fract_z
Si Si1 0.224336 0.713101 0.025341
Si Si2 0.794351 0.949866 0.578904
Si Si3 0.879815 0.075241 0.727656
Si Si4 0.075626 0.297043 0.649306
Si Si5 0.750685 0.914031 0.241542
Si Si6 0.301196 0.686359 0.519382
Si Si7 0.455360 0.756864 0.230133
O O1 0.135173 0.741000 0.145173
O O2 0.972840 0.513480 0.239692
O O3 0.511082 0.747982 0.853990
O O4 0.284713 0.893765 0.840480
O O5 0.915508 0.932186 0.440828
O O6 0.758046 0.141788 0.509228
O O7 0.000000 0.000000 0.500000
O O8 0.693074 0.120619 0.762093
O O9 0.984171 0.244264 0.645060
O O10 0.714678 0.872180 0.973994
O O11 0.184748 0.153194 0.684861
O O12 0.286123 0.529914 0.416249
O O13 0.508053 0.711719 0.449754
O O14 0.000000 0.000000 0.000000
O O15 0.469549 0.749070 0.314511
#
# Coordination Sequence:
#
# PCOD9072933 Si02
#       7
#     2   2   2   2   2   2   2
#     4   9  21  37  60  86 113 148 190 237 277 335
#     4  11  22  38  57  82 115 154 189 230 282 336
#     4  11  22  36  56  81 119 149 183 233 282 336
#     4  10  21  37  58  87 112 146 188 231 284 333
#     4   9  18  34  61  87 114 144 186 240 279 327
#     4  10  20  39  58  88 114 147 195 229 278 336
#     4  10  21  36  57  83 112 151 185 234 278 334
#
# _framework density 19.516746000000001
#
# number of rings (size 3 to 8) (size 9 to 14) (size 15 to 20)
#    0.000    2.000    1.429    3.000    2.000    8.000 
#    0.000    2.857    0.000    5.143    0.000    0.000 
#    0.000    0.000    0.000    0.000    0.000    0.000 
#
# Total GULP energy -77962.641575 kJ/mol
# GULP energy per Si atom -5568.760113 kJ/mol
# Density = 1.947232 g / cm^3
# Si number density = 19.516746 Si / 1000 Ang^3
#
#
#
# Elastic Constant Matrix: (Units=GPa)
#
#
# Indices 1 2 3 4 5 6 
#
# 1 51.2286 2.8653 17.1482 8.0205 -13.3825 5.5639
# 2 2.8653 49.1374 39.1357 5.6547 3.8745 17.9700
# 3 17.1482 39.1357 104.6034 -3.5974 -20.9407 16.2131
# 4 8.0205 5.6547 -3.5974 25.3011 0.5042 3.4352
# 5 -13.3825 3.8745 -20.9407 0.5042 30.3298 1.2884
# 6 5.5639 17.9700 16.2131 3.4352 1.2884 27.3177
#
#
#
# Elastic Compliance Matrix: (Units=1/GPa)
#
#
# Indices 1 2 3 4 5 6 
#
# 1 0.024404 0.002766 -0.002881 -0.008335 0.008753 -0.004445
# 2 0.002766 0.042009 -0.017042 -0.010204 -0.015060 -0.016089
# 3 -0.002881 -0.017042 0.019822 0.007467 0.014535 -0.001591
# 4 -0.008335 -0.010204 0.007467 0.045721 0.002101 -0.001870
# 5 0.008753 -0.015060 0.014535 0.002101 0.048888 -0.003073
# 6 -0.004445 -0.016089 -0.001591 -0.001870 -0.003073 0.049420
#
#
# Mechanical properties :
#
#
# Convention : Reuss Voigt Hill
#
# Bulk Modulus (GPa) = 19.26037 35.91866 27.58952
# Shear Modulus (GPa) = 17.73778 26.31107 22.02443
#
# Velocity S-wave (km/s) = 3.01798 3.67567 3.36294
# Velocity P-wave (km/s) = 4.69408 6.03805 5.40798
#
# Compressibility (1/GPa) = 0.05192009
#
# Stress axis : x y z
#
# Youngs Moduli (GPa) = 40.97648 23.80436 50.45022
#
# Poissons Ratio (x) = -0.06585 0.14535
# Poissons Ratio (y) = -0.11335 0.85980
# Poissons Ratio (z) = 0.11806 0.40568
#
# Static dielectric constant tensor:
#      x y z
#    x 1.769690 -0.068240 -0.053080 
#    y -0.068240 1.722810 -0.008190 
#    z -0.053080 -0.008190 1.712330 
# 
# From -- ./inp_files/255726.got.cif
#   From: 2010.05.17/outbox.ucp.g08.bks.cvg/sg2_128_cif.got.tgz:255726.got - 2010.06.11 11:32:03.
