data_PCOD9072326
_publ_section_title
;
Structure prediction by ZEFSAII (Michael W. Deem and Ramdas Pophale) SiO2 
 PCOD9072326
Probable space group: P -1
;
_chemical_formula_sum "Si O2"
_cell_formula_units_Z 16
_cell_length_a 14.677551
_cell_length_b 14.125963
_cell_length_c 9.386321
_cell_angle_alpha 105.236483
_cell_angle_beta 40.670920
_cell_angle_gamma 75.517892
_cell_volume 855.914630
_symmetry_space_group_name_H-M "P -1"
_symmetry_group_IT_number 2
_symmetry_cell_setting 'triclinic'
loop_
_space_group_symop_operation_xyz
x,y,z
-x,-y,-z
loop_
_atom_site_type_symbol
_atom_site_label
_atom_site_fract_x
_atom_site_fract_y
_atom_site_fract_z
Si Si1 0.183735 0.836200 0.239773
Si Si2 0.391725 0.304878 0.284011
Si Si3 0.627361 0.613752 0.142147
Si Si4 0.881815 0.366265 0.262213
Si Si5 0.892948 0.318924 0.552850
Si Si6 0.191381 0.334634 0.250699
Si Si7 0.182166 0.368994 0.826130
Si Si8 0.327324 0.660735 0.712216
O O1 0.122921 0.775844 0.387410
O O2 0.375968 0.795769 0.060003
O O3 0.252627 0.757899 0.974822
O O4 0.000000 0.000000 0.500000
O O5 0.289905 0.463822 0.474184
O O6 0.267601 0.312554 0.311445
O O7 0.358677 0.271141 0.463692
O O8 0.764763 0.577291 0.097954
O O9 0.425246 0.679724 0.481571
O O10 0.725059 0.475248 0.883432
O O11 0.634697 0.706526 0.070682
O O12 0.860846 0.327363 0.425347
O O13 0.843856 0.315672 0.153575
O O14 0.094020 0.315760 0.980755
O O15 0.102803 0.271229 0.308417
O O16 0.000000 0.500000 0.500000
O O17 0.000000 0.500000 0.000000
O O18 0.500000 0.500000 0.500000
#
# Coordination Sequence:
#
# PCOD9072326 Si02
#       8
#     2   2   2   2   2   2   2   2
#     4  12  28  45  59  84 129 176 209 246 305 376
#     4  11  20  36  62  91 129 158 201 250 319 358
#     4  11  18  33  57  92 127 146 193 256 315 358
#     4  11  20  33  61 101 121 151 199 262 319 356
#     4  11  21  37  60  91 131 154 200 260 310 367
#     4  10  19  33  59 100 128 150 190 262 327 359
#     4  10  18  30  54  92 132 147 187 249 316 364
#     4  12  22  37  62  93 118 159 211 259 306 355
#
# _framework density 18.693452000000001
#
# number of rings (size 3 to 8) (size 9 to 14) (size 15 to 20)
#    0.000    1.000    7.500    3.000    3.500    1.000 
#    0.000    1.250    0.000    1.500    0.000    0.000 
#    0.000    0.000    0.000    0.000    0.000    0.000 
#
# Total GULP energy -89273.849098 kJ/mol
# GULP energy per Si atom -5579.615569 kJ/mol
# Density = 1.865091 g / cm^3
# Si number density = 18.693452 Si / 1000 Ang^3
#
#
#
# Elastic Constant Matrix: (Units=GPa)
#
#
# Indices 1 2 3 4 5 6 
#
# 1 94.4977 8.0263 11.0305 6.1958 6.2226 -1.7390
# 2 8.0263 67.1701 56.6060 -26.6691 -6.6569 -2.8426
# 3 11.0305 56.6060 70.7195 -17.4825 -0.8169 -3.3781
# 4 6.1958 -26.6691 -17.4825 31.6988 -0.2487 2.6624
# 5 6.2226 -6.6569 -0.8169 -0.2487 32.5796 -13.3055
# 6 -1.7390 -2.8426 -3.3781 2.6624 -13.3055 16.6111
#
#
#
# Elastic Compliance Matrix: (Units=1/GPa)
#
#
# Indices 1 2 3 4 5 6 
#
# 1 0.011497 -0.003735 -0.000262 -0.005435 -0.003630 -0.001526
# 2 -0.003735 0.070185 -0.046585 0.033219 0.019085 0.012108
# 3 -0.000262 -0.046585 0.048096 -0.012329 -0.010139 -0.004363
# 4 -0.005435 0.033219 -0.012329 0.053779 0.008132 0.000503
# 5 -0.003630 0.019085 -0.010139 0.008132 0.051866 0.041065
# 6 -0.001526 0.012108 -0.004363 0.000503 0.041065 0.094038
#
#
# Mechanical properties :
#
#
# Convention : Reuss Voigt Hill
#
# Bulk Modulus (GPa) = 34.94741 42.63478 38.79109
# Shear Modulus (GPa) = 11.35944 26.62621 18.99282
#
# Velocity S-wave (km/s) = 2.46777 3.77816 3.19096
# Velocity P-wave (km/s) = 5.18222 6.47221 5.86281
#
# Compressibility (1/GPa) = 0.02861442
#
# Stress axis : x y z
#
# Youngs Moduli (GPa) = 86.97624 14.24800 20.79196
#
# Poissons Ratio (x) = 0.05322 0.00544
# Poissons Ratio (y) = 0.32490 0.96859
# Poissons Ratio (z) = 0.02276 0.66374
#
# Static dielectric constant tensor:
#      x y z
#    x 1.662610 0.012150 -0.001980 
#    y 0.012150 1.655310 -0.062010 
#    z -0.001980 -0.062010 1.701890 
# 
# From -- ./inp_files/313641.got.cif
#   From: 2010.05.17/outbox.cif.g08.bks.cpg/sg2_157_cif.got.tgz:313641.got - 2010.06.03 11:33:40.
