data_PCOD9072641
_publ_section_title
;
Structure prediction by ZEFSAII (Michael W. Deem and Ramdas Pophale) SiO2 
 PCOD9072641
Probable space group: P -1
;
_chemical_formula_sum "Si O2"
_cell_formula_units_Z 16
_cell_length_a 15.000000
_cell_length_b 12.000000
_cell_length_c 15.000000
_cell_angle_alpha 110.000000
_cell_angle_beta 130.000000
_cell_angle_gamma 30.000000
_cell_volume 856.505752
_symmetry_space_group_name_H-M "P -1"
_symmetry_group_IT_number 2
_symmetry_cell_setting 'triclinic'
loop_
_space_group_symop_operation_xyz
x,y,z
-x,-y,-z
loop_
_atom_site_type_symbol
_atom_site_label
_atom_site_fract_x
_atom_site_fract_y
_atom_site_fract_z
Si Si1 0.245849 0.571616 0.931291
Si Si2 0.384195 0.105199 0.199090
Si Si3 0.681328 0.035854 0.465523
Si Si4 0.695860 0.322857 0.234657
Si Si5 0.278048 0.441614 0.718262
Si Si6 0.512558 0.376110 0.306665
Si Si7 0.813323 0.096708 0.700858
Si Si8 0.212090 0.441168 0.041345
O O1 0.294085 0.471657 0.838561
O O2 0.468705 0.461827 0.072267
O O3 0.248297 0.459304 0.970431
O O4 0.975150 0.894908 0.833640
O O5 0.387270 0.173959 0.124327
O O6 0.468747 0.130633 0.329979
O O7 0.569183 0.822073 0.257640
O O8 0.087267 0.329049 0.079531
O O9 0.970761 0.711524 0.566956
O O10 0.669831 0.150662 0.415513
O O11 0.648631 0.138314 0.564206
O O12 0.626692 0.525308 0.262100
O O13 0.695246 0.253768 0.309100
O O14 0.959914 0.079453 0.276376
O O15 0.365753 0.625787 0.319582
O O16 0.286227 0.492022 0.158368
#
# Coordination Sequence:
#
# PCOD9072641 Si02
#       8
#     2   2   2   2   2   2   2   2
#     4   9  19  35  52  83 115 131 182 226 274 326
#     4  10  20  36  57  76 109 146 183 221 271 317
#     4   9  20  39  52  79 112 144 185 223 257 330
#     4   9  20  34  53  89 112 137 179 233 264 336
#     4  10  20  33  59  76 107 150 176 221 275 320
#     4  10  20  35  61  81 112 143 178 226 282 315
#     4  10  20  33  58  83 111 147 174 223 282 319
#     4   9  21  35  55  83 107 139 181 231 264 331
#
# _framework density 18.680551999999999
#
# number of rings (size 3 to 8) (size 9 to 14) (size 15 to 20)
#    0.000    2.750    0.000    2.250    5.250    3.500 
#    0.000    2.500    5.500    0.000    0.000    0.000 
#    0.000    0.000    0.000    0.000    0.000    0.000 
#
# Total GULP energy -89075.782387 kJ/mol
# GULP energy per Si atom -5567.236399 kJ/mol
# Density = 1.863803 g / cm^3
# Si number density = 18.680552 Si / 1000 Ang^3
#
#
#
# Elastic Constant Matrix: (Units=GPa)
#
#
# Indices 1 2 3 4 5 6 
#
# 1 75.6929 7.9598 18.4157 3.2308 10.6807 18.9628
# 2 7.9598 59.0796 6.9165 -6.2805 -2.6479 21.2055
# 3 18.4157 6.9165 87.0602 2.6288 1.0967 6.3543
# 4 3.2308 -6.2805 2.6288 16.3998 6.3934 -1.9923
# 5 10.6807 -2.6479 1.0967 6.3934 22.6042 -1.0736
# 6 18.9628 21.2055 6.3543 -1.9923 -1.0736 27.4822
#
#
#
# Elastic Compliance Matrix: (Units=1/GPa)
#
#
# Indices 1 2 3 4 5 6 
#
# 1 0.018566 0.002606 -0.002948 -0.000491 -0.008875 -0.014522
# 2 0.002606 0.024618 -0.001245 0.007174 -0.001268 -0.020035
# 3 -0.002948 -0.001245 0.012261 -0.002373 0.001325 0.000040
# 4 -0.000491 0.007174 -0.002373 0.071614 -0.019077 -0.000202
# 5 -0.008875 -0.001268 0.001325 -0.019077 0.053973 0.007521
# 6 -0.014522 -0.020035 0.000040 -0.000202 0.007521 0.062137
#
#
# Mechanical properties :
#
#
# Convention : Reuss Voigt Hill
#
# Bulk Modulus (GPa) = 19.13110 32.04629 25.58869
# Shear Modulus (GPa) = 18.95617 25.86661 22.41139
#
# Velocity S-wave (km/s) = 3.18898 3.72517 3.46745
# Velocity P-wave (km/s) = 4.88087 5.97450 5.45516
#
# Compressibility (1/GPa) = 0.05227092
#
# Stress axis : x y z
#
# Youngs Moduli (GPa) = 53.86254 40.62052 81.56048
#
# Poissons Ratio (x) = -0.10586 0.24041
# Poissons Ratio (y) = -0.14037 0.10158
# Poissons Ratio (z) = 0.15877 0.05059
#
# Static dielectric constant tensor:
#      x y z
#    x 1.662820 -0.006190 -0.032600 
#    y -0.006190 1.638290 0.000170 
#    z -0.032600 0.000170 1.691600 
# 
# From -- ./inp_files/258219.got.cif
#   From: 2010.05.17/outbox.ucp.g08.bks.cvg/sg2_130_cif.got.tgz:258219.got - 2010.06.11 11:32:03.
