data_PCOD9072550
_publ_section_title
;
Structure prediction by ZEFSAII (Michael W. Deem and Ramdas Pophale) SiO2 
 PCOD9072550
Probable space group: P -1
;
_chemical_formula_sum "Si O2"
_cell_formula_units_Z 14
_cell_length_a 12.000000
_cell_length_b 15.000000
_cell_length_c 21.000000
_cell_angle_alpha 20.000000
_cell_angle_beta 150.000000
_cell_angle_gamma 150.000000
_cell_volume 615.533390
_symmetry_space_group_name_H-M "P -1"
_symmetry_group_IT_number 2
_symmetry_cell_setting 'triclinic'
loop_
_space_group_symop_operation_xyz
x,y,z
-x,-y,-z
loop_
_atom_site_type_symbol
_atom_site_label
_atom_site_fract_x
_atom_site_fract_y
_atom_site_fract_z
Si Si1 0.703481 0.452850 0.175425
Si Si2 0.838578 0.035797 0.189068
Si Si3 0.490087 0.642317 0.062455
Si Si4 0.243724 0.741734 0.221875
Si Si5 0.452461 0.468006 0.399083
Si Si6 0.330390 0.065283 0.423308
Si Si7 0.002907 0.348743 0.191970
O O1 0.652990 0.556338 0.150423
O O2 0.964370 0.629551 0.165218
O O3 0.673862 0.130951 0.387204
O O4 0.500000 0.500000 0.000000
O O5 0.900224 0.143489 0.220122
O O6 0.071137 0.964706 0.332753
O O7 0.618445 0.765023 0.255583
O O8 0.863016 0.326846 0.972923
O O9 0.406546 0.400587 0.237074
O O10 0.246104 0.649236 0.903451
O O11 0.639848 0.946428 0.953341
O O12 0.322907 0.552028 0.338727
O O13 0.371048 0.695878 0.380931
O O14 0.222869 0.276862 0.378076
O O15 0.500000 0.000000 0.500000
#
# Coordination Sequence:
#
# PCOD9072550 Si02
#       7
#     2   2   2   2   2   2   2
#     4  11  22  39  63  87 119 162 208 252 310 363
#     4  10  19  39  61  89 123 155 206 255 298 370
#     4  10  21  40  61  85 123 162 202 253 302 363
#     4  11  23  39  58  90 126 160 202 260 301 361
#     4  11  22  38  60  90 128 159 203 250 308 365
#     4   9  20  39  64  82 117 165 197 247 308 358
#     4  10  21  36  64  91 118 164 202 249 311 359
#
# _framework density 22.744501
#
# number of rings (size 3 to 8) (size 9 to 14) (size 15 to 20)
#    0.000    1.714    2.857    1.714    0.000    1.714 
#    0.000    0.714    0.000    0.000    0.000    0.000 
#    0.000    0.000    0.000    0.000    0.000    0.000 
#
# Total GULP energy -78039.765364 kJ/mol
# GULP energy per Si atom -5574.268955 kJ/mol
# Density = 2.269273 g / cm^3
# Si number density = 22.744501 Si / 1000 Ang^3
#
#
#
# Elastic Constant Matrix: (Units=GPa)
#
#
# Indices 1 2 3 4 5 6 
#
# 1 59.3894 43.7192 8.6613 10.2829 22.7110 32.3253
# 2 43.7192 139.1315 62.9529 6.6508 0.1626 53.7846
# 3 8.6613 62.9529 100.1886 4.6469 -1.2809 12.0124
# 4 10.2829 6.6508 4.6469 35.6702 15.7192 6.7984
# 5 22.7110 0.1626 -1.2809 15.7192 34.2811 0.1641
# 6 32.3253 53.7846 12.0124 6.7984 0.1641 43.7957
#
#
#
# Elastic Compliance Matrix: (Units=1/GPa)
#
#
# Indices 1 2 3 4 5 6 
#
# 1 0.051304 -0.003252 0.000943 0.009179 -0.037978 -0.035415
# 2 -0.003252 0.020750 -0.010373 0.001951 0.000872 -0.020544
# 3 0.000943 -0.010373 0.015566 -0.002384 0.001060 0.008140
# 4 0.009179 0.001951 -0.002384 0.038569 -0.023796 -0.014415
# 5 -0.037978 0.000872 0.001060 -0.023796 0.065133 0.030119
# 6 -0.035415 -0.020544 0.008140 -0.014415 0.030119 0.074094
#
#
# Mechanical properties :
#
#
# Convention : Reuss Voigt Hill
#
# Bulk Modulus (GPa) = 16.06279 58.81959 37.44119
# Shear Modulus (GPa) = 16.04965 34.97448 25.51206
#
# Velocity S-wave (km/s) = 2.65929 3.92562 3.35278
# Velocity P-wave (km/s) = 4.06284 6.81649 5.61120
#
# Compressibility (1/GPa) = 0.06225570
#
# Stress axis : x y z
#
# Youngs Moduli (GPa) = 19.49163 48.19206 64.24303
#
# Poissons Ratio (x) = 0.15671 -0.06058
# Poissons Ratio (y) = 0.06338 0.66642
# Poissons Ratio (z) = -0.01838 0.49992
#
# Static dielectric constant tensor:
#      x y z
#    x 1.955740 -0.048950 -0.033490 
#    y -0.048950 1.822860 0.039020 
#    z -0.033490 0.039020 1.969260 
# 
# From -- ./inp_files/225150.got.cif
#   From: 2010.05.17/outbox.ucp.g08.bks.cvg/sg2_113_cif.got.tgz:225150.got - 2010.06.11 11:32:03.
