data_PCOD9072496
_publ_section_title
;
Structure prediction by ZEFSAII (Michael W. Deem and Ramdas Pophale) SiO2 
 PCOD9072496
Probable space group: P -1
;
_chemical_formula_sum "Si O2"
_cell_formula_units_Z 16
_cell_length_a 9.000000
_cell_length_b 15.000000
_cell_length_c 9.000000
_cell_angle_alpha 140.000000
_cell_angle_beta 70.000000
_cell_angle_gamma 100.000000
_cell_volume 725.993766
_symmetry_space_group_name_H-M "P -1"
_symmetry_group_IT_number 2
_symmetry_cell_setting 'triclinic'
loop_
_space_group_symop_operation_xyz
x,y,z
-x,-y,-z
loop_
_atom_site_type_symbol
_atom_site_label
_atom_site_fract_x
_atom_site_fract_y
_atom_site_fract_z
Si Si1 0.816505 0.756124 0.704053
Si Si2 0.739130 0.030865 0.895424
Si Si3 0.797835 0.710001 0.005529
Si Si4 0.820225 0.175790 0.340572
Si Si5 0.091972 0.002054 0.658436
Si Si6 0.529067 0.341317 0.839633
Si Si7 0.288823 0.768143 0.088618
Si Si8 0.066721 0.527185 0.843806
O O1 0.775186 0.725945 0.853355
O O2 0.820791 0.613240 0.426405
O O3 0.006611 0.774051 0.655956
O O4 0.716451 0.889618 0.817010
O O5 0.644378 0.134069 0.935504
O O6 0.907673 0.985174 0.696584
O O7 0.769569 0.142960 0.152385
O O8 0.915170 0.571109 0.841101
O O9 0.878732 0.844479 0.194635
O O10 0.638281 0.718602 0.171535
O O11 0.673956 0.267206 0.592871
O O12 0.851923 0.028828 0.230810
O O13 0.193409 0.882714 0.377155
O O14 0.580485 0.322160 0.969137
O O15 0.500000 0.500000 0.000000
O O16 0.168754 0.656112 0.953378
O O17 0.000000 0.500000 0.000000
#
# Coordination Sequence:
#
# PCOD9072496 Si02
#       8
#     2   2   2   2   2   2   2   2
#     4  11  22  40  68 101 129 167 218 270 312 385
#     4  11  19  39  66 101 127 161 217 274 324 363
#     4  12  23  42  69  97 125 171 224 264 313 383
#     4  10  19  39  66  94 130 168 213 260 320 385
#     4  10  19  37  68  97 125 165 217 264 314 378
#     4  11  26  46  62  91 136 177 210 258 334 389
#     4  11  24  40  65  96 132 172 208 266 332 381
#     4  12  24  39  64 101 131 167 220 269 316 378
#
# _framework density 22.038757
#
# number of rings (size 3 to 8) (size 9 to 14) (size 15 to 20)
#    0.000    1.000    3.750    5.250    1.750    3.000 
#    0.000    4.375    0.000    0.000    0.000    0.000 
#    0.000    0.000    0.000    0.000    0.000    0.000 
#
# Total GULP energy -89193.182296 kJ/mol
# GULP energy per Si atom -5574.573894 kJ/mol
# Density = 2.198860 g / cm^3
# Si number density = 22.038757 Si / 1000 Ang^3
#
#
#
# Elastic Constant Matrix: (Units=GPa)
#
#
# Indices 1 2 3 4 5 6 
#
# 1 27.7673 26.7414 0.4452 1.3857 -10.7335 -9.1016
# 2 26.7414 160.5796 37.9508 10.0648 -6.9188 -23.1748
# 3 0.4452 37.9508 70.2202 10.9151 7.0264 -0.6695
# 4 1.3857 10.0648 10.9151 36.9998 -2.9593 -5.7676
# 5 -10.7335 -6.9188 7.0264 -2.9593 21.5585 -3.5424
# 6 -9.1016 -23.1748 -0.6695 -5.7676 -3.5424 48.8657
#
#
#
# Elastic Compliance Matrix: (Units=1/GPa)
#
#
# Indices 1 2 3 4 5 6 
#
# 1 0.056614 -0.007118 0.000251 0.003468 0.027874 0.009603
# 2 -0.007118 0.009092 -0.004962 -0.000157 0.001464 0.003006
# 3 0.000251 -0.004962 0.018607 -0.005372 -0.008816 -0.003325
# 4 0.003468 -0.000157 -0.005372 0.029910 0.008293 0.004629
# 5 0.027874 0.001464 -0.008816 0.008293 0.066647 0.011576
# 6 0.009603 0.003006 -0.003325 0.004629 0.011576 0.025018
#
#
# Mechanical properties :
#
#
# Convention : Reuss Voigt Hill
#
# Bulk Modulus (GPa) = 16.48671 43.20465 29.84568
# Shear Modulus (GPa) = 20.01893 34.38009 27.19951
#
# Velocity S-wave (km/s) = 3.01716 3.95395 3.51688
# Velocity P-wave (km/s) = 4.43110 6.36329 5.48298
#
# Compressibility (1/GPa) = 0.06065490
#
# Stress axis : x y z
#
# Youngs Moduli (GPa) = 17.66358 109.98365 53.74437
#
# Poissons Ratio (x) = 0.78284 -0.01350
# Poissons Ratio (y) = 0.12573 0.26669
# Poissons Ratio (z) = -0.00444 0.54576
#
# Static dielectric constant tensor:
#      x y z
#    x 1.914860 -0.053100 -0.014840 
#    y -0.053100 1.863110 0.036330 
#    z -0.014840 0.036330 1.890020 
# 
# From -- ./inp_files/209191.got.cif
#   From: 2010.05.17/outbox.ucp.g08.bks.cvg/sg2_105_cif.got.tgz:209191.got - 2010.06.11 11:32:03.
