data_PCOD9072760
_publ_section_title
;
Structure prediction by ZEFSAII (Michael W. Deem and Ramdas Pophale) SiO2 
 PCOD9072760
Probable space group: P -1
;
_chemical_formula_sum "Si O2"
_cell_formula_units_Z 14
_cell_length_a 12.000000
_cell_length_b 9.000000
_cell_length_c 15.000000
_cell_angle_alpha 120.000000
_cell_angle_beta 30.000000
_cell_angle_gamma 120.000000
_cell_volume 693.035739
_symmetry_space_group_name_H-M "P -1"
_symmetry_group_IT_number 2
_symmetry_cell_setting 'triclinic'
loop_
_space_group_symop_operation_xyz
x,y,z
-x,-y,-z
loop_
_atom_site_type_symbol
_atom_site_label
_atom_site_fract_x
_atom_site_fract_y
_atom_site_fract_z
Si Si1 0.656044 0.102466 0.149990
Si Si2 0.770348 0.749103 0.021916
Si Si3 0.206327 0.893199 0.315242
Si Si4 0.365365 0.481526 0.275719
Si Si5 0.060208 0.478543 0.323088
Si Si6 0.922590 0.422910 0.126097
Si Si7 0.772401 0.256141 0.932180
O O1 0.688289 0.288095 0.236683
O O2 0.408000 0.005540 0.264669
O O3 0.781981 0.151528 0.984360
O O4 0.768617 0.950495 0.070752
O O5 0.868751 0.644184 0.841081
O O6 0.911619 0.707291 0.996349
O O7 0.517411 0.653430 0.184788
O O8 0.150750 0.686440 0.315344
O O9 0.259554 0.871985 0.167529
O O10 0.000000 0.000000 0.500000
O O11 0.183086 0.413553 0.305604
O O12 0.208148 0.527994 0.479183
O O13 0.550521 0.353876 0.123882
O O14 0.002385 0.594517 0.184340
O O15 0.000000 0.500000 0.000000
#
# Coordination Sequence:
#
# PCOD9072760 Si02
#       7
#     2   2   2   2   2   2   2
#     4  11  22  37  63  94 121 165 208 254 309 358
#     4  11  20  39  66  87 129 161 210 249 309 367
#     4  12  23  37  60  94 127 156 214 259 305 366
#     4  10  20  36  62  89 126 163 203 251 306 371
#     4  11  21  36  61  95 122 169 201 251 315 369
#     4   9  20  39  66  89 120 168 208 246 313 375
#     4  10  21  41  62  86 126 165 203 253 315 364
#
# _framework density 20.200977999999999
#
# number of rings (size 3 to 8) (size 9 to 14) (size 15 to 20)
#    0.000    1.429    4.286    3.000    0.000    2.286 
#    0.000    0.714   12.571    4.286    0.000    0.000 
#    0.000    0.000    0.000    0.000    0.000    0.000 
#
# Total GULP energy -77943.474810 kJ/mol
# GULP energy per Si atom -5567.391058 kJ/mol
# Density = 2.015500 g / cm^3
# Si number density = 20.200978 Si / 1000 Ang^3
#
#
#
# Elastic Constant Matrix: (Units=GPa)
#
#
# Indices 1 2 3 4 5 6 
#
# 1 84.7177 29.0983 10.5713 -1.0425 -12.5831 0.2724
# 2 29.0983 100.3830 52.5902 14.0850 -11.1744 -4.4029
# 3 10.5713 52.5902 28.9374 -47.8322 -8.9470 38.1514
# 4 -1.0425 14.0850 -47.8322 -10.7597 -6.6042 14.9067
# 5 -12.5831 -11.1744 -8.9470 -6.6042 11.1522 -5.3877
# 6 0.2724 -4.4029 38.1514 14.9067 -5.3877 36.5974
#
#
#
# Elastic Compliance Matrix: (Units=1/GPa)
#
#
# Indices 1 2 3 4 5 6 
#
# 1 0.014920 -0.001454 -0.001910 0.000594 0.016045 0.003825
# 2 -0.001454 0.011074 -0.000628 0.009099 0.014550 0.000434
# 3 -0.001910 -0.000628 0.005012 -0.017057 -0.008679 0.000384
# 4 0.000594 0.009099 -0.017057 0.010688 0.010169 0.016015
# 5 0.016045 0.014550 -0.008679 0.010169 0.134105 0.026279
# 6 0.003825 0.000434 0.000384 0.016015 0.026279 0.024293
#
#
# Mechanical properties :
#
#
# Convention : Reuss Voigt Hill
#
# Bulk Modulus (GPa) = 43.43563 44.28421 43.85992
# Shear Modulus (GPa) = 23.17511 15.51652 19.34581
#
# Velocity S-wave (km/s) = 3.39075 2.77448 3.09798
# Velocity P-wave (km/s) = 6.07272 5.67742 5.87839
#
# Compressibility (1/GPa) = 0.02302257
#
# Stress axis : x y z
#
# Youngs Moduli (GPa) = 67.02571 90.30009 199.53350
#
# Poissons Ratio (x) = 0.13127 0.38109
# Poissons Ratio (y) = 0.09743 0.12529
# Poissons Ratio (z) = 0.12801 0.05670
#
# Static dielectric constant tensor:
#      x y z
#    x 1.818320 0.012300 0.004320 
#    y 0.012300 1.769890 -0.067050 
#    z 0.004320 -0.067050 1.702860 
# 
# From -- ./inp_files/259597.got.cif
#   From: 2010.05.17/outbox.ucp.g08.bks.cvg/sg2_130_cif.got.tgz:259597.got - 2010.06.11 11:32:03.
