data_PCOD9072869
_publ_section_title
;
Structure prediction by ZEFSAII (Michael W. Deem and Ramdas Pophale) SiO2 
 PCOD9072869
Probable space group: P -1
;
_chemical_formula_sum "Si O2"
_cell_formula_units_Z 16
_cell_length_a 9.697819
_cell_length_b 19.336323
_cell_length_c 10.277927
_cell_angle_alpha 119.405438
_cell_angle_beta 37.110372
_cell_angle_gamma 128.975586
_cell_volume 903.786029
_symmetry_space_group_name_H-M "P -1"
_symmetry_group_IT_number 2
_symmetry_cell_setting 'triclinic'
loop_
_space_group_symop_operation_xyz
x,y,z
-x,-y,-z
loop_
_atom_site_type_symbol
_atom_site_label
_atom_site_fract_x
_atom_site_fract_y
_atom_site_fract_z
Si Si1 0.596682 0.086109 0.914802
Si Si2 0.680229 0.117919 0.588022
Si Si3 0.885139 0.700870 0.470933
Si Si4 0.507221 0.779791 0.727727
Si Si5 0.916770 0.914916 0.387085
Si Si6 0.842144 0.976090 0.228597
Si Si7 0.956158 0.374836 0.971378
Si Si8 0.577017 0.462802 0.278467
O O1 0.568371 0.071618 0.769296
O O2 0.899415 0.129120 0.755588
O O3 0.481253 0.151052 0.105641
O O4 0.500000 0.000000 0.000000
O O5 0.440152 0.101317 0.663748
O O6 0.883753 0.218544 0.556484
O O7 0.814769 0.062700 0.374125
O O8 0.692286 0.736715 0.589401
O O9 0.696476 0.618350 0.628143
O O10 0.001041 0.666669 0.233996
O O11 0.629223 0.842757 0.570014
O O12 0.214366 0.704243 0.874961
O O13 0.952883 0.946919 0.241760
O O14 0.000000 0.000000 0.500000
O O15 0.000000 0.000000 0.000000
O O16 0.240172 0.450980 0.864863
O O17 0.770222 0.420875 0.127433
O O18 0.500000 0.500000 0.500000
#
# Coordination Sequence:
#
# PCOD9072869 Si02
#       8
#     2   2   2   2   2   2   2   2
#     4  12  21  32  55  74 101 140 186 223 268 318
#     4  11  22  36  50  78 102 140 186 222 273 330
#     4  10  18  31  51  78 107 142 180 222 270 328
#     4  11  19  30  53  76 105 138 180 226 265 313
#     4  12  21  36  52  76  99 138 188 226 269 323
#     4  11  25  38  52  71 109 144 181 235 278 311
#     4   9  16  29  47  78 109 142 174 217 276 320
#     4   8  16  27  46  75 115 141 168 216 275 325
#
# _framework density 17.703306000000001
#
# number of rings (size 3 to 8) (size 9 to 14) (size 15 to 20)
#    0.000    1.500    5.000    0.750    1.750    1.000 
#    0.000    0.000    0.000    0.000    0.000    0.875 
#    0.000   42.000    0.000    7.250    0.000    0.750 
#
# Total GULP energy -89100.373904 kJ/mol
# GULP energy per Si atom -5568.773369 kJ/mol
# Density = 1.766301 g / cm^3
# Si number density = 17.703306 Si / 1000 Ang^3
#
#
#
# Elastic Constant Matrix: (Units=GPa)
#
#
# Indices 1 2 3 4 5 6 
#
# 1 57.2348 8.9499 16.0933 6.5561 4.8445 5.3943
# 2 8.9499 116.3468 38.6180 -28.6821 0.7923 14.4434
# 3 16.0933 38.6180 114.2481 4.4422 1.0535 -6.7609
# 4 6.5561 -28.6821 4.4422 51.7720 -6.5310 -6.6406
# 5 4.8445 0.7923 1.0535 -6.5310 26.2634 -1.8576
# 6 5.3943 14.4434 -6.7609 -6.6406 -1.8576 17.5982
#
#
#
# Elastic Compliance Matrix: (Units=1/GPa)
#
#
# Indices 1 2 3 4 5 6 
#
# 1 0.020217 -0.000463 -0.003015 -0.004413 -0.005343 -0.009204
# 2 -0.000463 0.013296 -0.005300 0.006677 0.000836 -0.010199
# 3 -0.003015 -0.005300 0.011583 -0.002376 0.000287 0.008858
# 4 -0.004413 0.006677 -0.002376 0.025393 0.007399 0.005323
# 5 -0.005343 0.000836 0.000287 0.007399 0.041446 0.008229
# 6 -0.009204 -0.010199 0.008858 0.005323 0.008229 0.074296
#
#
# Mechanical properties :
#
#
# Convention : Reuss Voigt Hill
#
# Bulk Modulus (GPa) = 36.31103 46.12801 41.21952
# Shear Modulus (GPa) = 23.47757 34.07130 28.77444
#
# Velocity S-wave (km/s) = 3.64561 4.39175 4.03596
# Velocity P-wave (km/s) = 6.18676 7.19926 6.71213
#
# Compressibility (1/GPa) = 0.02753984
#
# Stress axis : x y z
#
# Youngs Moduli (GPa) = 49.46259 75.20914 86.33324
#
# Poissons Ratio (x) = 0.03484 0.26031
# Poissons Ratio (y) = 0.02291 0.45757
# Poissons Ratio (z) = 0.14914 0.39861
#
# Static dielectric constant tensor:
#      x y z
#    x 1.568720 0.001500 -0.026650 
#    y 0.001500 1.693630 -0.058460 
#    z -0.026650 -0.058460 1.666030 
# 
# From -- ./inp_files/47055.got.cif
#   From: 2010.05.17/outbox.cif.g08.bks.cpg/sg2_24_cif.got.tgz:47055.got - 2010.06.03 11:33:40.
