data_PCOD9072076
_publ_section_title
;
Structure prediction by ZEFSAII (Michael W. Deem and Ramdas Pophale) SiO2 
 PCOD9072076
Probable space group: P -1
;
_chemical_formula_sum "Si O2"
_cell_formula_units_Z 16
_cell_length_a 7.497331
_cell_length_b 9.256474
_cell_length_c 16.760326
_cell_angle_alpha 139.070030
_cell_angle_beta 61.821075
_cell_angle_gamma 111.999233
_cell_volume 671.383148
_symmetry_space_group_name_H-M "P -1"
_symmetry_group_IT_number 2
_symmetry_cell_setting 'triclinic'
loop_
_space_group_symop_operation_xyz
x,y,z
-x,-y,-z
loop_
_atom_site_type_symbol
_atom_site_label
_atom_site_fract_x
_atom_site_fract_y
_atom_site_fract_z
Si Si1 0.841018 0.299904 0.201051
Si Si2 0.250202 0.034163 0.046073
Si Si3 0.868367 0.990962 0.764576
Si Si4 0.755660 0.511900 0.579580
Si Si5 0.416127 0.492732 0.206815
Si Si6 0.102408 0.584860 0.172711
Si Si7 0.692273 0.153506 0.329456
Si Si8 0.642077 0.662116 0.094961
O O1 0.737639 0.314137 0.312837
O O2 0.047393 0.170618 0.123115
O O3 0.894529 0.521105 0.234467
O O4 0.720022 0.141913 0.101337
O O5 0.214328 0.947533 0.105828
O O6 0.414954 0.230128 0.089274
O O7 0.737987 0.772700 0.674764
O O8 0.099323 0.929908 0.709856
O O9 0.875700 0.189013 0.784257
O O10 0.683079 0.473203 0.670787
O O11 0.624341 0.326285 0.482398
O O12 0.000000 0.500000 0.500000
O O13 0.258858 0.587285 0.214689
O O14 0.621760 0.586158 0.159969
O O15 0.150222 0.388183 0.016946
O O16 0.599668 0.922948 0.217235
O O17 0.500000 0.500000 0.000000
#
# Coordination Sequence:
#
# PCOD9072076 Si02
#       8
#     2   2   2   2   2   2   2   2
#     4   9  15  26  46  70  95 126 164 203 243 292
#     4   8  14  27  45  65  94 128 160 197 243 291
#     4   9  18  31  51  78 104 127 161 217 260 287
#     4   9  18  35  54  73  99 135 175 208 243 293
#     4   9  18  33  50  71 100 138 173 198 241 307
#     4  10  18  30  51  78 106 128 159 214 265 294
#     4  10  19  33  53  75 100 135 174 206 245 298
#     4  10  20  32  51  76 102 134 169 204 250 306
#
# _framework density 23.831396999999999
#
# number of rings (size 3 to 8) (size 9 to 14) (size 15 to 20)
#    0.000    2.750    0.000    6.000    0.000    2.500 
#    0.000    8.125    0.000    9.000    0.000    0.000 
#    0.000    0.000    0.000    0.000    0.000    0.000 
#
# Total GULP energy -89161.508510 kJ/mol
# GULP energy per Si atom -5572.594282 kJ/mol
# Density = 2.377716 g / cm^3
# Si number density = 23.831397 Si / 1000 Ang^3
#
#
#
# Elastic Constant Matrix: (Units=GPa)
#
#
# Indices 1 2 3 4 5 6 
#
# 1 59.8895 20.0922 22.7410 7.0687 0.8983 -8.6698
# 2 20.0922 221.9189 87.5393 -25.1745 17.4665 -18.9298
# 3 22.7410 87.5393 138.5649 -2.5020 22.6801 -4.1228
# 4 7.0687 -25.1745 -2.5020 34.2406 6.5353 3.0482
# 5 0.8983 17.4665 22.6801 6.5353 21.5161 -2.8893
# 6 -8.6698 -18.9298 -4.1228 3.0482 -2.8893 26.0152
#
#
#
# Elastic Compliance Matrix: (Units=1/GPa)
#
#
# Indices 1 2 3 4 5 6 
#
# 1 0.020248 -0.001182 -0.003668 -0.007297 0.007131 0.006953
# 2 -0.001182 0.007218 -0.003637 0.005614 -0.003244 0.003264
# 3 -0.003668 -0.003637 0.011674 0.001132 -0.009981 -0.003260
# 4 -0.007297 0.005614 0.001132 0.038745 -0.017844 -0.004689
# 5 0.007131 -0.003244 -0.009981 -0.017844 0.065805 0.007834
# 6 0.006953 0.003264 -0.003260 -0.004689 0.007834 0.044034
#
#
# Mechanical properties :
#
#
# Convention : Reuss Voigt Hill
#
# Bulk Modulus (GPa) = 45.11576 75.67984 60.39780
# Shear Modulus (GPa) = 23.57522 35.68776 29.63149
#
# Velocity S-wave (km/s) = 3.14865 3.87397 3.52999
# Velocity P-wave (km/s) = 5.67371 7.19968 6.48176
#
# Compressibility (1/GPa) = 0.02216520
#
# Stress axis : x y z
#
# Youngs Moduli (GPa) = 49.38798 138.53579 85.66346
#
# Poissons Ratio (x) = 0.16377 0.31424
# Poissons Ratio (y) = 0.05838 0.31154
# Poissons Ratio (z) = 0.18117 0.50383
#
# Static dielectric constant tensor:
#      x y z
#    x 2.193260 0.082350 -0.045070 
#    y 0.082350 1.953970 0.006630 
#    z -0.045070 0.006630 1.905630 
# 
# From -- ./inp_files/199405.got.cif
#   From: 2010.05.17/outbox.cif.g08.bks.cpg/sg2_100_cif.got.tgz:199405.got - 2010.06.03 11:33:40.
