data_PCOD9072246
_publ_section_title
;
Structure prediction by ZEFSAII (Michael W. Deem and Ramdas Pophale) SiO2 
 PCOD9072246
Probable space group: P -1
;
_chemical_formula_sum "Si O2"
_cell_formula_units_Z 16
_cell_length_a 14.023523
_cell_length_b 8.834283
_cell_length_c 11.272812
_cell_angle_alpha 96.949180
_cell_angle_beta 117.549493
_cell_angle_gamma 47.659722
_cell_volume 875.698482
_symmetry_space_group_name_H-M "P -1"
_symmetry_group_IT_number 2
_symmetry_cell_setting 'triclinic'
loop_
_space_group_symop_operation_xyz
x,y,z
-x,-y,-z
loop_
_atom_site_type_symbol
_atom_site_label
_atom_site_fract_x
_atom_site_fract_y
_atom_site_fract_z
Si Si1 0.046009 0.991491 0.163572
Si Si2 0.518212 0.534764 0.855005
Si Si3 0.751467 0.158536 0.130094
Si Si4 0.625347 0.460619 0.647570
Si Si5 0.432878 0.156530 0.087654
Si Si6 0.130954 0.277525 0.915272
Si Si7 0.882891 0.742130 0.824067
Si Si8 0.573765 0.873455 0.653554
O O1 0.089298 0.125387 0.207444
O O2 0.900205 0.099457 0.169563
O O3 0.196299 0.756073 0.273502
O O4 0.000000 0.000000 0.000000
O O5 0.339317 0.697379 0.792021
O O6 0.572520 0.461272 0.747083
O O7 0.553625 0.677650 0.914994
O O8 0.620557 0.321099 0.972631
O O9 0.800002 0.933322 0.135128
O O10 0.500000 0.500000 0.500000
O O11 0.612377 0.655781 0.643874
O O12 0.499454 0.049367 0.247249
O O13 0.258897 0.278090 0.006107
O O14 0.500000 0.000000 0.000000
O O15 0.987255 0.508136 0.804702
O O16 0.079644 0.271791 0.015675
O O17 0.715456 0.845485 0.738845
O O18 0.500000 0.000000 0.500000
#
# Coordination Sequence:
#
# PCOD9072246 Si02
#       8
#     2   2   2   2   2   2   2   2
#     4  12  21  35  60  90 120 157 203 252 300 350
#     4  10  21  36  55  88 121 158 194 247 304 360
#     4  11  20  33  55  88 123 149 193 247 302 349
#     4  11  23  41  63  87 119 162 204 249 302 368
#     4  10  19  34  56  84 115 153 192 241 295 351
#     4  10  18  30  53  84 112 151 186 247 296 343
#     4  10  20  32  55  84 119 147 199 243 295 350
#     4  10  22  38  59  86 119 157 198 243 297 364
#
# _framework density 18.271129999999999
#
# number of rings (size 3 to 8) (size 9 to 14) (size 15 to 20)
#    0.000    1.500    3.750    2.250    3.500    1.000 
#    0.000    0.625    0.000    0.750    0.000    0.000 
#    0.000    0.000    0.000    0.000    0.000    0.000 
#
# Total GULP energy -89117.831263 kJ/mol
# GULP energy per Si atom -5569.864454 kJ/mol
# Density = 1.822954 g / cm^3
# Si number density = 18.271130 Si / 1000 Ang^3
#
#
#
# Elastic Constant Matrix: (Units=GPa)
#
#
# Indices 1 2 3 4 5 6 
#
# 1 104.8032 22.8318 9.9618 -7.1138 7.5730 -7.5795
# 2 22.8318 78.2373 24.6086 -12.8845 -3.6965 -10.8400
# 3 9.9618 24.6086 54.5481 -9.0848 -3.4334 3.7255
# 4 -7.1138 -12.8845 -9.0848 19.7481 4.9726 3.1648
# 5 7.5730 -3.6965 -3.4334 4.9726 25.6438 -1.7528
# 6 -7.5795 -10.8400 3.7255 3.1648 -1.7528 35.6965
#
#
#
# Elastic Compliance Matrix: (Units=1/GPa)
#
#
# Indices 1 2 3 4 5 6 
#
# 1 0.010715 -0.002482 -0.000714 0.002753 -0.004073 0.001152
# 2 -0.002482 0.017360 -0.006585 0.006236 0.001483 0.004952
# 3 -0.000714 -0.006585 0.022931 0.006638 0.000696 -0.005099
# 4 0.002753 0.006236 0.006638 0.062312 -0.011402 -0.004299
# 5 -0.004073 0.001483 0.000696 -0.011402 0.042896 0.002630
# 6 0.001152 0.004952 -0.005099 -0.004299 0.002630 0.030805
#
#
# Mechanical properties :
#
#
# Convention : Reuss Voigt Hill
#
# Bulk Modulus (GPa) = 31.80119 39.15480 35.47800
# Shear Modulus (GPa) = 23.03502 28.23012 25.63257
#
# Velocity S-wave (km/s) = 3.55453 3.93500 3.74959
# Velocity P-wave (km/s) = 5.85570 6.49015 6.18107
#
# Compressibility (1/GPa) = 0.03144536
#
# Stress axis : x y z
#
# Youngs Moduli (GPa) = 93.33018 57.60281 43.60922
#
# Poissons Ratio (x) = 0.14296 0.03112
# Poissons Ratio (y) = 0.23163 0.28716
# Poissons Ratio (z) = 0.06660 0.37930
#
# Static dielectric constant tensor:
#      x y z
#    x 1.608270 0.016240 -0.074080 
#    y 0.016240 1.645040 0.039870 
#    z -0.074080 0.039870 1.608510 
# 
# From -- ./inp_files/227326.got.cif
#   From: 2010.05.17/outbox.cif.g08.bks.cpg/sg2_114_cif.got.tgz:227326.got - 2010.06.03 11:33:40.
