data_PCOD9072111
_publ_section_title
;
Structure prediction by ZEFSAII (Michael W. Deem and Ramdas Pophale) SiO2 
 PCOD9072111
Probable space group: P -1
;
_chemical_formula_sum "Si O2"
_cell_formula_units_Z 16
_cell_length_a 9.000000
_cell_length_b 24.000000
_cell_length_c 9.000000
_cell_angle_alpha 30.000000
_cell_angle_beta 60.000000
_cell_angle_gamma 50.000000
_cell_volume 736.400153
_symmetry_space_group_name_H-M "P -1"
_symmetry_group_IT_number 2
_symmetry_cell_setting 'triclinic'
loop_
_space_group_symop_operation_xyz
x,y,z
-x,-y,-z
loop_
_atom_site_type_symbol
_atom_site_label
_atom_site_fract_x
_atom_site_fract_y
_atom_site_fract_z
Si Si1 0.145863 0.143113 0.216632
Si Si2 0.765359 0.201817 0.462241
Si Si3 0.333508 0.432323 0.201599
Si Si4 0.389271 0.949824 0.286435
Si Si5 0.774907 0.546452 0.454078
Si Si6 0.990737 0.651149 0.431735
Si Si7 0.299410 0.215929 0.239794
Si Si8 0.094775 0.703897 0.573941
O O1 0.283352 0.122718 0.338559
O O2 0.930361 0.194070 0.280733
O O3 0.234563 0.032210 0.304903
O O4 0.129631 0.253713 0.860698
O O5 0.546980 0.324459 0.291294
O O6 0.723922 0.092207 0.676427
O O7 0.850229 0.198501 0.593532
O O8 0.323536 0.451437 0.342956
O O9 0.158074 0.399798 0.325221
O O10 0.270825 0.563963 0.845219
O O11 0.554453 0.844668 0.555291
O O12 0.500000 0.000000 0.000000
O O13 0.813068 0.450547 0.517956
O O14 0.000000 0.500000 0.500000
O O15 0.674257 0.683239 0.108074
O O16 0.040896 0.712850 0.406201
O O17 0.087073 0.286575 0.261297
#
# Coordination Sequence:
#
# PCOD9072111 Si02
#       8
#     2   2   2   2   2   2   2   2
#     4  11  23  47  66  98 137 171 217 282 330 385
#     4  11  26  44  64  93 139 177 215 275 340 388
#     4  11  20  40  66  97 139 178 216 265 322 407
#     4  12  27  47  73  96 123 176 237 278 320 390
#     4  10  18  36  67 102 133 167 215 272 321 384
#     4  11  21  39  71 101 135 174 224 264 324 398
#     4  11  21  41  71 102 127 171 223 273 329 390
#     4  11  22  38  65 103 139 174 210 273 339 389
#
# _framework density 21.727318
#
# number of rings (size 3 to 8) (size 9 to 14) (size 15 to 20)
#    0.000    1.000    5.000    4.500    1.750    0.000 
#    2.250    6.875    0.000    0.000    0.000    0.000 
#    0.000    0.000    0.000    0.000    0.000    0.000 
#
# Total GULP energy -89169.526360 kJ/mol
# GULP energy per Si atom -5573.095398 kJ/mol
# Density = 2.167787 g / cm^3
# Si number density = 21.727318 Si / 1000 Ang^3
#
#
#
# Elastic Constant Matrix: (Units=GPa)
#
#
# Indices 1 2 3 4 5 6 
#
# 1 103.9628 33.5810 23.9540 3.2088 -1.4724 36.7536
# 2 33.5810 138.1081 -12.1087 -4.1232 4.3063 14.9932
# 3 23.9540 -12.1087 40.5610 11.7080 14.6957 7.0404
# 4 3.2088 -4.1232 11.7080 29.5180 8.4067 9.2310
# 5 -1.4724 4.3063 14.6957 8.4067 27.8615 0.4776
# 6 36.7536 14.9932 7.0404 9.2310 0.4776 56.0719
#
#
#
# Elastic Compliance Matrix: (Units=1/GPa)
#
#
# Indices 1 2 3 4 5 6 
#
# 1 0.017694 -0.004706 -0.014295 0.003614 0.008270 -0.009210
# 2 -0.004706 0.009292 0.007570 0.000598 -0.005851 -0.000399
# 3 -0.014295 0.007570 0.046109 -0.010126 -0.023249 0.003422
# 4 0.003614 0.000598 -0.010126 0.042164 -0.007143 -0.008138
# 5 0.008270 -0.005851 -0.023249 -0.007143 0.051655 -0.000201
# 6 -0.009210 -0.000399 0.003422 -0.008138 -0.000201 0.024890
#
#
# Mechanical properties :
#
#
# Convention : Reuss Voigt Hill
#
# Bulk Modulus (GPa) = 19.90749 41.49828 30.70288
# Shear Modulus (GPa) = 21.60651 38.50398 30.05524
#
# Velocity S-wave (km/s) = 3.15690 4.21425 3.72330
# Velocity P-wave (km/s) = 4.74028 6.54377 5.71364
#
# Compressibility (1/GPa) = 0.05023236
#
# Stress axis : x y z
#
# Youngs Moduli (GPa) = 56.51530 107.61655 21.68781
#
# Poissons Ratio (x) = 0.50642 0.31004
# Poissons Ratio (y) = 0.26595 -0.16417
# Poissons Ratio (z) = 0.80791 -0.81462
#
# Static dielectric constant tensor:
#      x y z
#    x 1.826710 0.017380 -0.069010 
#    y 0.017380 1.860710 -0.109620 
#    z -0.069010 -0.109620 1.856680 
# 
# From -- ./inp_files/179913.got.cif
#   From: 2010.05.17/outbox.ucp.g08.bks.cvg/sg2_90_cif.got.tgz:179913.got - 2010.06.11 11:32:03.
