data_PCOD9072131
_publ_section_title
;
Structure prediction by ZEFSAII (Michael W. Deem and Ramdas Pophale) SiO2 
 PCOD9072131
Probable space group: P -1
;
_chemical_formula_sum "Si O2"
_cell_formula_units_Z 16
_cell_length_a 9.000000
_cell_length_b 24.000000
_cell_length_c 24.000000
_cell_angle_alpha 20.000000
_cell_angle_beta 140.000000
_cell_angle_gamma 150.000000
_cell_volume 851.251203
_symmetry_space_group_name_H-M "P -1"
_symmetry_group_IT_number 2
_symmetry_cell_setting 'triclinic'
loop_
_space_group_symop_operation_xyz
x,y,z
-x,-y,-z
loop_
_atom_site_type_symbol
_atom_site_label
_atom_site_fract_x
_atom_site_fract_y
_atom_site_fract_z
Si Si1 0.809707 0.463630 0.365434
Si Si2 0.386673 0.321989 0.484667
Si Si3 0.797097 0.111448 0.110754
Si Si4 0.223123 0.446310 0.008780
Si Si5 0.353598 0.518081 0.823592
Si Si6 0.786661 0.255598 0.343279
Si Si7 0.294887 0.988238 0.000940
Si Si8 0.751396 0.648232 0.383597
O O1 0.571346 0.360098 0.445853
O O2 0.661779 0.427796 0.295254
O O3 0.984887 0.367858 0.510870
O O4 0.035386 0.729518 0.183885
O O5 0.606402 0.524252 0.399661
O O6 0.093722 0.296197 0.407022
O O7 0.287994 0.114815 0.686703
O O8 0.917895 0.236714 0.087187
O O9 0.520251 0.087897 0.026428
O O10 0.077027 0.264453 0.002092
O O11 0.327947 0.422340 0.120948
O O12 0.500000 0.500000 0.000000
O O13 0.210948 0.633698 0.816769
O O14 0.278112 0.641226 0.724045
O O15 0.500000 0.000000 0.500000
O O16 0.198369 0.128624 0.821154
O O17 0.500000 0.000000 0.000000
O O18 0.500000 0.500000 0.500000
#
# Coordination Sequence:
#
# PCOD9072131 Si02
#       8
#     2   2   2   2   2   2   2   2
#     4  12  26  43  59 101 138 167 208 272 332 376
#     4  12  24  39  64  98 135 161 213 276 325 380
#     4  10  18  37  63  86 119 169 211 255 312 374
#     4   8  17  34  60  89 111 157 216 266 304 362
#     4  10  20  40  65  87 125 167 218 264 319 387
#     4  10  19  38  65  94 118 166 225 264 312 385
#     4  12  22  40  67  92 128 173 217 265 310 387
#     4  12  23  42  66  95 126 176 227 253 312 393
#
# _framework density 18.795862
#
# number of rings (size 3 to 8) (size 9 to 14) (size 15 to 20)
#    0.000    1.500    3.750    4.875    0.000    0.500 
#    6.750    3.125    0.000    0.000    0.000    0.000 
#    0.000    0.000    0.000    0.000    0.000    0.000 
#
# Total GULP energy -89126.221447 kJ/mol
# GULP energy per Si atom -5570.388840 kJ/mol
# Density = 1.875308 g / cm^3
# Si number density = 18.795862 Si / 1000 Ang^3
#
#
#
# Elastic Constant Matrix: (Units=GPa)
#
#
# Indices 1 2 3 4 5 6 
#
# 1 85.1908 30.3127 31.0181 16.4317 -2.7198 -6.7999
# 2 30.3127 131.5902 39.1077 43.1738 5.1428 -11.5510
# 3 31.0181 39.1077 151.6856 27.7791 21.0805 2.4525
# 4 16.4317 43.1738 27.7791 49.5444 -0.1762 3.3503
# 5 -2.7198 5.1428 21.0805 -0.1762 27.7813 7.9195
# 6 -6.7999 -11.5510 2.4525 3.3503 7.9195 20.3628
#
#
#
# Elastic Compliance Matrix: (Units=1/GPa)
#
#
# Indices 1 2 3 4 5 6 
#
# 1 0.013961 -0.001606 -0.002474 -0.002064 0.002561 0.003393
# 2 -0.001606 0.012946 -0.000359 -0.011298 -0.005438 0.010825
# 3 -0.002474 -0.000359 0.008925 -0.003993 -0.007378 0.001422
# 4 -0.002064 -0.011298 -0.003993 0.034069 0.009694 -0.015993
# 5 0.002561 -0.005438 -0.007378 0.009694 0.049205 -0.022073
# 6 0.003393 0.010825 0.001422 -0.015993 -0.022073 0.067427
#
#
# Mechanical properties :
#
#
# Convention : Reuss Voigt Hill
#
# Bulk Modulus (GPa) = 37.10035 63.26038 50.18036
# Shear Modulus (GPa) = 24.46236 37.40623 30.93430
#
# Velocity S-wave (km/s) = 3.61151 4.46593 4.06125
# Velocity P-wave (km/s) = 6.09689 7.76674 6.98192
#
# Compressibility (1/GPa) = 0.02695393
#
# Stress axis : x y z
#
# Youngs Moduli (GPa) = 71.62749 77.24551 112.04853
#
# Poissons Ratio (x) = 0.12405 0.27716
# Poissons Ratio (y) = 0.11503 0.04027
# Poissons Ratio (z) = 0.17717 0.02776
#
# Static dielectric constant tensor:
#      x y z
#    x 1.647600 -0.023130 0.009000 
#    y -0.023130 1.732650 -0.021430 
#    z 0.009000 -0.021430 1.685810 
# 
# From -- ./inp_files/608736.got.cif
#   From: 2010.05.17/outbox.ucp.g08.bks.cvg/sg2_305_cif.got.tgz:608736.got - 2010.06.11 11:32:03.
