data_PCOD9072429
_publ_section_title
;
Structure prediction by ZEFSAII (Michael W. Deem and Ramdas Pophale) SiO2 
 PCOD9072429
Probable space group: P -1
;
_chemical_formula_sum "Si O2"
_cell_formula_units_Z 16
_cell_length_a 10.136461
_cell_length_b 16.197072
_cell_length_c 14.299306
_cell_angle_alpha 136.709934
_cell_angle_beta 52.198793
_cell_angle_gamma 142.502965
_cell_volume 976.371261
_symmetry_space_group_name_H-M "P -1"
_symmetry_group_IT_number 2
_symmetry_cell_setting 'triclinic'
loop_
_space_group_symop_operation_xyz
x,y,z
-x,-y,-z
loop_
_atom_site_type_symbol
_atom_site_label
_atom_site_fract_x
_atom_site_fract_y
_atom_site_fract_z
Si Si1 0.979701 0.695159 0.649030
Si Si2 0.487906 0.792168 0.342526
Si Si3 0.166163 0.768768 0.933816
Si Si4 0.524205 0.008589 0.349129
Si Si5 0.001763 0.513122 0.656642
Si Si6 0.297447 0.315915 0.941893
Si Si7 0.497775 0.919861 0.079303
Si Si8 0.225448 0.176859 0.062800
O O1 0.015802 0.625037 0.665093
O O2 0.821377 0.729877 0.774479
O O3 0.212863 0.860255 0.658890
O O4 0.911992 0.571492 0.494800
O O5 0.551827 0.904030 0.495437
O O6 0.253186 0.625191 0.326459
O O7 0.658731 0.769432 0.221768
O O8 0.462575 0.870648 0.330219
O O9 0.289890 0.818850 0.019400
O O10 0.124335 0.620199 0.781718
O O11 0.931801 0.723991 0.005788
O O12 0.320051 0.916871 0.919234
O O13 0.452070 0.954601 0.229872
O O14 0.704945 0.743048 0.002640
O O15 0.500000 0.500000 0.000000
O O16 0.601693 0.836847 0.983056
O O17 0.000000 0.000000 0.000000
#
# Coordination Sequence:
#
# PCOD9072429 Si02
#       8
#     2   2   2   2   2   2   2   2
#     4  10  18  30  57  79 105 136 187 230 257 307
#     4  10  20  30  55  81 110 133 179 229 263 313
#     4  11  22  37  55  84 113 144 178 228 282 324
#     4  10  18  34  51  82 106 140 178 221 271 314
#     4  10  18  34  51  81 110 139 174 226 274 312
#     4  12  20  34  55  84 112 135 184 226 265 320
#     4  11  22  36  58  81 113 144 182 227 275 326
#     4  12  18  34  57  83 105 139 194 225 254 319
#
# _framework density 16.387208000000001
#
# number of rings (size 3 to 8) (size 9 to 14) (size 15 to 20)
#    0.000    1.250    7.500    0.000    0.000    0.000 
#    0.000    3.750    0.000    0.000    0.000    0.000 
#    0.000    0.000    0.000    0.000    0.000    0.000 
#
# Total GULP energy -89265.068226 kJ/mol
# GULP energy per Si atom -5579.066764 kJ/mol
# Density = 1.634991 g / cm^3
# Si number density = 16.387208 Si / 1000 Ang^3
#
#
#
# Elastic Constant Matrix: (Units=GPa)
#
#
# Indices 1 2 3 4 5 6 
#
# 1 80.3065 15.9978 54.6788 0.7049 8.1988 8.0731
# 2 15.9978 51.1505 15.8427 -4.4522 -0.2559 -1.8624
# 3 54.6788 15.8427 177.7937 -3.8270 6.4210 13.8838
# 4 0.7049 -4.4522 -3.8270 23.6199 -0.9662 4.6685
# 5 8.1988 -0.2559 6.4210 -0.9662 22.8875 3.6637
# 6 8.0731 -1.8624 13.8838 4.6685 3.6637 19.9413
#
#
#
# Elastic Compliance Matrix: (Units=1/GPa)
#
#
# Indices 1 2 3 4 5 6 
#
# 1 0.017162 -0.004235 -0.004541 -0.001644 -0.004516 -0.002967
# 2 -0.004235 0.021567 -0.000854 0.003486 0.001631 0.003207
# 3 -0.004541 -0.000854 0.007437 0.001965 0.000242 -0.003924
# 4 -0.001644 0.003486 0.001965 0.045860 0.003907 -0.011831
# 5 -0.004516 0.001631 0.000242 0.003907 0.046653 -0.007674
# 6 -0.002967 0.003207 -0.003924 -0.011831 -0.007674 0.058559
#
#
# Mechanical properties :
#
#
# Convention : Reuss Voigt Hill
#
# Bulk Modulus (GPa) = 37.16528 53.58767 45.37647
# Shear Modulus (GPa) = 22.17619 28.13850 25.15734
#
# Velocity S-wave (km/s) = 3.68266 4.14829 3.92239
# Velocity P-wave (km/s) = 6.38838 7.46433 6.94722
#
# Compressibility (1/GPa) = 0.02690684
#
# Stress axis : x y z
#
# Youngs Moduli (GPa) = 58.26974 46.36632 134.46033
#
# Poissons Ratio (x) = 0.19635 0.61061
# Poissons Ratio (y) = 0.24675 0.11480
# Poissons Ratio (z) = 0.26461 0.03959
#
# Static dielectric constant tensor:
#      x y z
#    x 1.517590 -0.041940 -0.000720 
#    y -0.041940 1.598090 -0.006890 
#    z -0.000720 -0.006890 1.594560 
# 
# From -- ./inp_files/506732.got.cif
#   From: 2010.05.17/outbox.cif.g08.bks.cpg/sg2_254_cif.got.tgz:506732.got - 2010.06.03 11:33:40.
