data_PCOD9072252
_publ_section_title
;
Structure prediction by ZEFSAII (Michael W. Deem and Ramdas Pophale) SiO2 
 PCOD9072252
Probable space group: P -1
;
_chemical_formula_sum "Si O2"
_cell_formula_units_Z 16
_cell_length_a 22.262206
_cell_length_b 12.206341
_cell_length_c 15.250303
_cell_angle_alpha 42.746341
_cell_angle_beta 25.870329
_cell_angle_gamma 26.771758
_cell_volume 762.699636
_symmetry_space_group_name_H-M "P -1"
_symmetry_group_IT_number 2
_symmetry_cell_setting 'triclinic'
loop_
_space_group_symop_operation_xyz
x,y,z
-x,-y,-z
loop_
_atom_site_type_symbol
_atom_site_label
_atom_site_fract_x
_atom_site_fract_y
_atom_site_fract_z
Si Si1 0.859691 0.662739 0.459090
Si Si2 0.062994 0.033704 0.539834
Si Si3 0.466053 0.228520 0.908558
Si Si4 0.244527 0.207029 0.738130
Si Si5 0.345564 0.084193 0.875404
Si Si6 0.086500 0.666839 0.282124
Si Si7 0.137052 0.520831 0.021709
Si Si8 0.978446 0.248861 0.339879
O O1 0.937275 0.452424 0.545211
O O2 0.899178 0.797104 0.378766
O O3 0.023573 0.513207 0.249950
O O4 0.607872 0.854995 0.655432
O O5 0.942297 0.230083 0.499214
O O6 0.938988 0.156904 0.724361
O O7 0.296378 0.907767 0.320834
O O8 0.098265 0.822115 0.581767
O O9 0.315387 0.423880 0.073588
O O10 0.328528 0.418548 0.892005
O O11 0.500000 0.000000 0.000000
O O12 0.238675 0.173128 0.868077
O O13 0.093962 0.214558 0.877891
O O14 0.135771 0.480511 0.698440
O O15 0.500000 0.000000 0.500000
O O16 0.270311 0.312731 0.891660
O O17 0.240904 0.038678 0.099388
#
# Coordination Sequence:
#
# PCOD9072252 Si02
#       8
#     2   2   2   2   2   2   2   2
#     4  10  18  30  53  86 112 140 191 241 279 331
#     4  11  22  40  57  84 129 152 187 238 293 359
#     4  11  20  34  58  86 117 151 194 240 289 339
#     4  11  21  38  62  87 111 151 199 248 284 333
#     4  11  20  35  60  83 113 149 193 242 286 333
#     4  10  19  31  54  83 115 153 187 231 289 347
#     4  10  19  32  52  86 110 137 189 238 286 327
#     4  10  23  40  56  86 122 157 189 238 293 348
#
# _framework density 20.978114000000001
#
# number of rings (size 3 to 8) (size 9 to 14) (size 15 to 20)
#    0.000    1.500    1.250    9.000    0.000    0.000 
#    2.250    1.875    0.000    7.500    0.000    0.000 
#    0.000    0.000    0.000    0.000    0.000    0.000 
#
# Total GULP energy -89078.080597 kJ/mol
# GULP energy per Si atom -5567.380037 kJ/mol
# Density = 2.093037 g / cm^3
# Si number density = 20.978114 Si / 1000 Ang^3
#
#
#
# Elastic Constant Matrix: (Units=GPa)
#
#
# Indices 1 2 3 4 5 6 
#
# 1 134.3754 24.4389 17.4124 17.4147 5.2220 -3.6307
# 2 24.4389 34.3005 15.7317 11.9967 -10.7012 -0.8525
# 3 17.4124 15.7317 70.2046 33.3814 -2.2507 0.1144
# 4 17.4147 11.9967 33.3814 22.0338 -5.8597 -0.2758
# 5 5.2220 -10.7012 -2.2507 -5.8597 42.9330 1.7693
# 6 -3.6307 -0.8525 0.1144 -0.2758 1.7693 30.8746
#
#
#
# Elastic Compliance Matrix: (Units=1/GPa)
#
#
# Indices 1 2 3 4 5 6 
#
# 1 0.009793 -0.005952 0.005150 -0.013427 -0.004283 0.001094
# 2 -0.005952 0.041615 -0.000599 -0.014635 0.009076 -0.000200
# 3 0.005150 -0.000599 0.056734 -0.092469 -0.010428 0.000151
# 4 -0.013427 -0.014635 -0.092469 0.209847 0.021821 -0.001017
# 5 -0.004283 0.009076 -0.010428 0.021821 0.028575 -0.001657
# 6 0.001094 -0.000200 0.000151 -0.001017 -0.001657 0.032597
#
#
# Mechanical properties :
#
#
# Convention : Reuss Voigt Hill
#
# Bulk Modulus (GPa) = 9.49305 39.33852 24.41578
# Shear Modulus (GPa) = 11.98820 31.25478 21.62149
#
# Velocity S-wave (km/s) = 2.39312 3.86408 3.21389
# Velocity P-wave (km/s) = 3.48871 6.22101 5.04342
#
# Compressibility (1/GPa) = 0.10534025
#
# Stress axis : x y z
#
# Youngs Moduli (GPa) = 102.11229 24.02981 17.62610
#
# Poissons Ratio (x) = 0.14303 -0.09078
# Poissons Ratio (y) = 0.60781 0.01056
# Poissons Ratio (z) = -0.52592 0.01439
#
# Static dielectric constant tensor:
#      x y z
#    x 1.889910 0.030960 -0.036130 
#    y 0.030960 1.788990 0.016940 
#    z -0.036130 0.016940 1.792630 
# 
# From -- ./inp_files/540957.got.cif
#   From: 2010.05.17/outbox.cif.g08.bks.cpg/sg2_271_cif.got.tgz:540957.got - 2010.06.03 11:33:40.
