data_PCOD9072041
_publ_section_title
;
Structure prediction by ZEFSAII (Michael W. Deem and Ramdas Pophale) SiO2 
 PCOD9072041
Probable space group: P -1
;
_chemical_formula_sum "Si O2"
_cell_formula_units_Z 16
_cell_length_a 15.000000
_cell_length_b 15.000000
_cell_length_c 15.000000
_cell_angle_alpha 20.000000
_cell_angle_beta 140.000000
_cell_angle_gamma 140.000000
_cell_volume 725.414092
_symmetry_space_group_name_H-M "P -1"
_symmetry_group_IT_number 2
_symmetry_cell_setting 'triclinic'
loop_
_space_group_symop_operation_xyz
x,y,z
-x,-y,-z
loop_
_atom_site_type_symbol
_atom_site_label
_atom_site_fract_x
_atom_site_fract_y
_atom_site_fract_z
Si Si1 0.798460 0.319281 0.893798
Si Si2 0.386932 0.011768 0.629911
Si Si3 0.844587 0.737272 0.273334
Si Si4 0.324301 0.272057 0.168073
Si Si5 0.664270 0.436855 0.844934
Si Si6 0.649091 0.728932 0.300392
Si Si7 0.004473 0.333076 0.871793
Si Si8 0.601055 0.752840 0.949057
O O1 0.797804 0.447004 0.871880
O O2 0.688675 0.471445 0.617845
O O3 0.934715 0.352695 0.899900
O O4 0.729658 0.005399 0.146518
O O5 0.313862 0.045074 0.448361
O O6 0.367467 0.278344 0.416850
O O7 0.545566 0.976813 0.755403
O O8 0.323409 0.755794 0.881690
O O9 0.722596 0.734582 0.255882
O O10 0.940764 0.534856 0.570091
O O11 0.745260 0.677555 0.166727
O O12 0.940081 0.034103 0.068486
O O13 0.360769 0.165405 0.200137
O O14 0.174976 0.369275 0.965504
O O15 0.463528 0.506255 0.076053
O O16 0.517765 0.295900 0.815581
#
# Coordination Sequence:
#
# PCOD9072041 Si02
#       8
#     2   2   2   2   2   2   2   2
#     4  10  21  37  59  96 132 180 214 264 328 403
#     4  12  24  42  64  97 131 171 222 281 325 385
#     4  10  22  41  68 101 131 180 211 287 323 403
#     4  11  26  48  70 100 130 187 216 288 332 410
#     4  12  22  36  65  95 133 174 224 271 324 388
#     4  10  18  34  59  92 135 171 219 265 328 385
#     4  10  25  44  69  97 146 169 222 268 350 388
#     4  11  25  46  75  97 134 170 242 268 343 393
#
# _framework density 22.056367999999999
#
# number of rings (size 3 to 8) (size 9 to 14) (size 15 to 20)
#    0.000    1.250    2.500    2.625    7.000    1.000 
#    0.000    1.250    0.000    0.000    0.000    0.000 
#    0.000    0.000    0.000    0.000    0.000    0.000 
#
# Total GULP energy -89404.741996 kJ/mol
# GULP energy per Si atom -5587.796375 kJ/mol
# Density = 2.200617 g / cm^3
# Si number density = 22.056368 Si / 1000 Ang^3
#
#
#
# Elastic Constant Matrix: (Units=GPa)
#
#
# Indices 1 2 3 4 5 6 
#
# 1 88.1612 40.8957 35.3855 11.8672 2.0610 -2.4640
# 2 40.8957 60.9813 38.4578 8.0390 -5.3472 9.8295
# 3 35.3855 38.4578 133.3351 6.8942 17.0298 6.2397
# 4 11.8672 8.0390 6.8942 38.6562 1.2091 5.9589
# 5 2.0610 -5.3472 17.0298 1.2091 21.5203 6.9132
# 6 -2.4640 9.8295 6.2397 5.9589 6.9132 31.0664
#
#
#
# Elastic Compliance Matrix: (Units=1/GPa)
#
#
# Indices 1 2 3 4 5 6 
#
# 1 0.018877 -0.014074 -0.000165 -0.003900 -0.007666 0.008437
# 2 -0.014074 0.035746 -0.008675 0.000152 0.022108 -0.015633
# 3 -0.000165 -0.008675 0.011474 -0.000304 -0.012233 0.003208
# 4 -0.003900 0.000152 -0.000304 0.027964 0.000968 -0.005876
# 5 -0.007666 0.022108 -0.012233 0.000968 0.068964 -0.020678
# 6 0.008437 -0.015633 0.003208 -0.005876 -0.020678 0.042889
#
#
# Mechanical properties :
#
#
# Convention : Reuss Voigt Hill
#
# Bulk Modulus (GPa) = 49.33434 56.88395 53.10914
# Shear Modulus (GPa) = 19.34248 29.43117 24.38683
#
# Velocity S-wave (km/s) = 2.96456 3.65685 3.32875
# Velocity P-wave (km/s) = 5.84244 6.60881 6.23741
#
# Compressibility (1/GPa) = 0.02026986
#
# Stress axis : x y z
#
# Youngs Moduli (GPa) = 52.97324 27.97493 87.15567
#
# Poissons Ratio (x) = 0.39372 0.01434
# Poissons Ratio (y) = 0.74555 0.75609
# Poissons Ratio (z) = 0.00872 0.24269
#
# Static dielectric constant tensor:
#      x y z
#    x 1.831940 -0.073290 -0.032800 
#    y -0.073290 1.867470 -0.004190 
#    z -0.032800 -0.004190 1.818760 
# 
# From -- ./inp_files/534031.got.cif
#   From: 2010.05.17/outbox.ucp.g08.bks.cvg/sg2_268_cif.got.tgz:534031.got - 2010.06.11 11:32:03.
