data_PCOD9072971
_publ_section_title
;
Structure prediction by ZEFSAII (Michael W. Deem and Ramdas Pophale) SiO2 
 PCOD9072971
Probable space group: P -1
;
_chemical_formula_sum "Si O2"
_cell_formula_units_Z 16
_cell_length_a 12.000000
_cell_length_b 9.000000
_cell_length_c 12.000000
_cell_angle_alpha 140.000000
_cell_angle_beta 100.000000
_cell_angle_gamma 80.000000
_cell_volume 818.705536
_symmetry_space_group_name_H-M "P -1"
_symmetry_group_IT_number 2
_symmetry_cell_setting 'triclinic'
loop_
_space_group_symop_operation_xyz
x,y,z
-x,-y,-z
loop_
_atom_site_type_symbol
_atom_site_label
_atom_site_fract_x
_atom_site_fract_y
_atom_site_fract_z
Si Si1 0.840582 0.732136 0.847874
Si Si2 0.080073 0.577669 0.692274
Si Si3 0.081866 0.979248 0.762913
Si Si4 0.903879 0.966519 0.559416
Si Si5 0.674410 0.053973 0.269938
Si Si6 0.303379 0.820584 0.913597
Si Si7 0.303605 0.699086 0.362476
Si Si8 0.468412 0.392588 0.050958
O O1 0.779500 0.501346 0.733547
O O2 0.954016 0.669315 0.761630
O O3 0.890844 0.861932 0.037233
O O4 0.740194 0.922229 0.902011
O O5 0.084241 0.709258 0.648139
O O6 0.098384 0.305550 0.565876
O O7 0.190194 0.681088 0.829022
O O8 0.191058 0.000722 0.716504
O O9 0.964749 0.063784 0.735212
O O10 0.782278 0.097090 0.587598
O O11 0.000000 0.000000 0.500000
O O12 0.670863 0.164671 0.207637
O O13 0.639275 0.207810 0.460378
O O14 0.608235 0.823176 0.112050
O O15 0.415563 0.708249 0.926899
O O16 0.395929 0.578543 0.223615
O O17 0.500000 0.500000 0.000000
#
# Coordination Sequence:
#
# PCOD9072971 Si02
#       8
#     2   2   2   2   2   2   2   2
#     4  10  20  41  70 100 132 172 227 274 335 406
#     4  10  21  40  66 100 137 168 222 277 329 409
#     4  10  20  39  65  96 135 178 214 278 334 399
#     4  12  23  37  63 101 139 175 217 269 342 405
#     4  10  22  45  70  96 132 176 231 275 333 404
#     4  10  23  45  72  96 133 185 225 280 337 397
#     4  12  25  43  70 103 137 182 225 278 341 403
#     4  12  28  48  68  97 140 178 232 290 328 401
#
# _framework density 19.543046
#
# number of rings (size 3 to 8) (size 9 to 14) (size 15 to 20)
#    0.000    1.500    5.000    2.250    1.750    4.500 
#    0.000    0.000    0.000    0.000    0.000    0.000 
#    0.000    0.000    0.000    0.000    0.000    0.000 
#
# Total GULP energy -89175.817657 kJ/mol
# GULP energy per Si atom -5573.488604 kJ/mol
# Density = 1.949857 g / cm^3
# Si number density = 19.543046 Si / 1000 Ang^3
#
#
#
# Elastic Constant Matrix: (Units=GPa)
#
#
# Indices 1 2 3 4 5 6 
#
# 1 130.8597 65.7197 49.9281 -3.2386 -23.4480 -10.3003
# 2 65.7197 108.6211 48.7138 4.9082 2.4984 -20.2542
# 3 49.9281 48.7138 117.0161 0.9037 -12.1380 -1.5277
# 4 -3.2386 4.9082 0.9037 25.2039 -1.0175 -0.0152
# 5 -23.4480 2.4984 -12.1380 -1.0175 27.7335 4.9434
# 6 -10.3003 -20.2542 -1.5277 -0.0152 4.9434 44.7805
#
#
#
# Elastic Compliance Matrix: (Units=1/GPa)
#
#
# Indices 1 2 3 4 5 6 
#
# 1 0.015439 -0.009839 -0.001100 0.004506 0.014067 -0.002488
# 2 -0.009839 0.019566 -0.005253 -0.005446 -0.013998 0.007951
# 3 -0.001100 -0.005253 0.011698 0.000670 0.005188 -0.002802
# 4 0.004506 -0.005446 0.000670 0.041553 0.006493 -0.002107
# 5 0.014067 -0.013998 0.005188 0.006493 0.053289 -0.008799
# 6 -0.002488 0.007951 -0.002802 -0.002107 -0.008799 0.026230
#
#
# Mechanical properties :
#
#
# Convention : Reuss Voigt Hill
#
# Bulk Modulus (GPa) = 69.83564 76.13555 72.98560
# Shear Modulus (GPa) = 24.39836 32.35259 28.37548
#
# Velocity S-wave (km/s) = 3.53716 4.07314 3.81458
# Velocity P-wave (km/s) = 7.24527 7.82068 7.53847
#
# Compressibility (1/GPa) = 0.01431934
#
# Stress axis : x y z
#
# Youngs Moduli (GPa) = 64.77152 51.10951 85.48282
#
# Poissons Ratio (x) = 0.50287 0.09399
# Poissons Ratio (y) = 0.63729 0.44906
# Poissons Ratio (z) = 0.07122 0.26849
#
# Static dielectric constant tensor:
#      x y z
#    x 1.691800 0.018620 -0.005710 
#    y 0.018620 1.723150 -0.024390 
#    z -0.005710 -0.024390 1.739320 
# 
# From -- ./inp_files/418645.got.cif
#   From: 2010.05.17/outbox.ucp.g08.bks.cvg/sg2_210_cif.got.tgz:418645.got - 2010.06.11 11:32:03.
